data_PCOD9348502
_publ_section_title
;
Structure prediction by ZEFSAII (Michael W. Deem and Ramdas Pophale) SiO2 
 PCOD9348502
Probable space group: C M M 2
;
_chemical_formula_sum "Si O2"
_cell_formula_units_Z 64
_cell_length_a 18.116286
_cell_length_b 12.862858
_cell_length_c 12.600131
_cell_angle_alpha 90.000000
_cell_angle_beta 90.000000
_cell_angle_gamma 90.000000
_cell_volume 2936.173427
_symmetry_space_group_name_H-M "C M M 2"
_symmetry_group_IT_number 35
_symmetry_cell_setting 'orthorhombic'
loop_
_space_group_symop_operation_xyz
x,y,z
-x,-y,z
-x,y,z
x,-y,z
1/2+x,1/2+y,z
1/2-x,1/2-y,z
1/2-x,1/2+y,z
1/2+x,1/2-y,z
loop_
_atom_site_type_symbol
_atom_site_label
_atom_site_fract_x
_atom_site_fract_y
_atom_site_fract_z
Si Si1 0.420112 0.121881 0.294220
Si Si2 0.704466 0.116448 0.437124
Si Si3 0.414653 0.832459 0.847559
Si Si4 0.155537 0.884168 0.819081
Si Si5 0.086227 0.663620 0.610276
Si Si6 0.840427 0.878243 0.583650
Si Si7 0.304089 0.613430 0.049977
Si Si8 0.358419 0.835943 0.076892
O O1 0.500000 0.166670 0.327695
O O2 0.344995 0.169097 0.344633
O O3 0.412452 0.127249 0.167810
O O4 0.420919 0.000000 0.324530
O O5 0.643406 0.113270 0.530095
O O6 0.780466 0.150478 0.494028
O O7 0.722884 0.000000 0.398801
O O8 0.500000 0.857401 0.857121
O O9 0.402167 0.707781 0.837793
O O10 0.391041 0.867467 0.730250
O O11 0.377694 0.867383 0.956716
O O12 0.192688 0.871850 0.703935
O O13 0.122157 0.000000 0.819760
O O14 0.207322 0.877447 0.922018
O O15 0.097960 0.788302 0.589992
O O16 0.000000 0.637786 0.595440
O O17 0.862474 0.000000 0.568995
O O18 0.335826 0.500000 0.072092
O O19 0.353866 0.710539 0.080627
O O20 0.223914 0.624484 0.100584
#
# Coordination Sequence:
#
# PCOD9348502 Si02
#       8
#     8   8   8   8   8   8   8   8
#     4  10  21  38  59  79 103 139 183 230 280 337
#     4  10  21  37  57  79 104 139 187 235 276 322
#     4   9  18  30  47  75 108 140 176 215 262 323
#     4   8  15  28  48  73 105 140 175 214 263 318
#     4  10  20  34  53  80 115 149 178 221 279 335
#     4   9  18  33  54  82 108 141 186 228 270 322
#     4   9  18  32  50  77 109 141 176 218 268 320
#     4  10  19  33  54  77 105 142 179 221 269 322
#
# _framework density 21.797077000000002
#
# number of rings (size 3 to 8) (size 9 to 14) (size 15 to 20)
#    0.000    2.625    0.000    1.500    1.750    1.250 
#    4.500    3.125    0.000    2.625    0.000    0.000 
#    0.000    0.000    0.000    0.000    0.000    0.000 
#
# Total GULP energy -178217.088662 kJ/mol
# GULP energy per Si atom -5569.284021 kJ/mol
# Density = 2.174747 g / cm^3
# Si number density = 21.797077 Si / 1000 Ang^3
#
#
#
# Elastic Constant Matrix: (Units=GPa)
#
#
# Indices 1 2 3 4 5 6 
#
# 1 48.9325 -7.2843 16.3472 0.0000 0.0000 0.0000
# 2 -7.2843 73.7845 -1.1893 0.0000 0.0000 0.0000
# 3 16.3472 -1.1893 75.7683 0.0000 0.0000 0.0000
# 4 0.0000 0.0000 0.0000 22.7937 0.0000 0.0000
# 5 0.0000 0.0000 0.0000 0.0000 15.9080 0.0000
# 6 0.0000 0.0000 0.0000 0.0000 0.0000 6.0455
#
#
#
# Elastic Compliance Matrix: (Units=1/GPa)
#
#
# Indices 1 2 3 4 5 6 
#
# 1 0.022353 0.002130 -0.004789 0.000000 0.000000 0.000000
# 2 0.002130 0.013759 -0.000244 0.000000 0.000000 0.000000
# 3 -0.004789 -0.000244 0.014228 0.000000 0.000000 0.000000
# 4 0.000000 0.000000 0.000000 0.043872 0.000000 0.000000
# 5 0.000000 0.000000 0.000000 0.000000 0.062861 0.000000
# 6 0.000000 0.000000 0.000000 0.000000 0.000000 0.165413
#
#
# Mechanical properties :
#
#
# Convention : Reuss Voigt Hill
#
# Bulk Modulus (GPa) = 22.45485 23.80361 23.12923
# Shear Modulus (GPa) = 14.57141 21.65688 18.11415
#
# Velocity S-wave (km/s) = 2.58835 3.15551 2.88590
# Velocity P-wave (km/s) = 4.38826 4.92144 4.66248
#
# Compressibility (1/GPa) = 0.04453381
#
# Stress axis : x y z
#
# Youngs Moduli (GPa) = 44.73602 72.67807 70.28583
#
# Poissons Ratio (x) = -0.15478 0.33662
# Poissons Ratio (y) = -0.09527 0.01711
# Poissons Ratio (z) = 0.21426 0.01770
#
# Static dielectric constant tensor:
#      x y z
#    x 1.780200 0.000000 0.000000 
#    y 0.000000 1.870050 0.000000 
#    z 0.000000 0.000000 1.836230 
# 
# From -- ./inp_files/13201.got.cif
#   From: 2010.05.17/outbox.cif.g08.bks.cpg/sg35_7_cif.got.tgz:13201.got - 2010.06.03 17:29:28.
