data_PCOD9348076
_publ_section_title
;
Structure prediction by ZEFSAII (Michael W. Deem and Ramdas Pophale) SiO2 
 PCOD9348076
Probable space group: C M M 2
;
_chemical_formula_sum "Si O2"
_cell_formula_units_Z 46
_cell_length_a 19.745724
_cell_length_b 8.271250
_cell_length_c 14.083681
_cell_angle_alpha 90.000000
_cell_angle_beta 90.000000
_cell_angle_gamma 90.000000
_cell_volume 2300.172408
_symmetry_space_group_name_H-M "C M M 2"
_symmetry_group_IT_number 35
_symmetry_cell_setting 'orthorhombic'
loop_
_space_group_symop_operation_xyz
x,y,z
-x,-y,z
-x,y,z
x,-y,z
1/2+x,1/2+y,z
1/2-x,1/2-y,z
1/2-x,1/2+y,z
1/2+x,1/2-y,z
loop_
_atom_site_type_symbol
_atom_site_label
_atom_site_fract_x
_atom_site_fract_y
_atom_site_fract_z
Si Si1 0.328384 0.305952 0.595050
Si Si2 0.327749 0.306693 0.809096
Si Si3 0.646247 0.175595 0.010629
Si Si4 0.359997 0.500000 0.090010
Si Si5 0.580627 0.500000 0.296381
Si Si6 0.919613 0.684596 0.425432
Si Si7 0.000000 0.000000 0.968523
Si Si8 0.000000 0.332221 0.971137
O O1 0.330929 0.500000 0.580990
O O2 0.250000 0.250000 0.587525
O O3 0.353166 0.273072 0.702943
O O4 0.374451 0.217598 0.518103
O O5 0.332643 0.500000 0.827013
O O6 0.250000 0.250000 0.808009
O O7 0.357007 0.209806 0.897845
O O8 0.675959 0.334586 0.058464
O O9 0.676469 0.000000 0.029217
O O10 0.566583 0.168666 0.036500
O O11 0.377563 0.500000 0.199742
O O12 0.431760 0.500000 0.031328
O O13 0.500000 0.500000 0.275179
O O14 0.595007 0.665428 0.354494
O O15 0.906791 0.500000 0.390155
O O16 0.000000 0.694978 0.447194
O O17 0.000000 0.166730 0.912522
O O18 0.000000 0.500000 0.916049
#
# Coordination Sequence:
#
# PCOD9348076 Si02
#       8
#     8   8   8   4   4   8   2   4
#     4  10  20  36  61  90 119 154 199 244 294 361
#     4  10  20  35  55  83 112 148 193 234 279 342
#     4  10  19  33  52  78 111 148 185 230 277 326
#     4  10  18  32  53  79 109 145 190 231 281 332
#     4  10  20  36  59  84 117 150 193 244 297 351
#     4  10  21  38  60  88 121 156 195 244 305 361
#     4   8  14  26  46  68  96 132 170 224 262 310
#     4   8  16  28  44  68 101 133 174 215 261 314
#
# _framework density 19.998501000000001
#
# number of rings (size 3 to 8) (size 9 to 14) (size 15 to 20)
#    0.000    2.261    2.174    1.043    0.000    2.783 
#    1.565    0.000    0.000    1.043    0.000    0.000 
#    0.000    0.000    0.000    0.000    0.000    0.000 
#
# Total GULP energy -128123.508787 kJ/mol
# GULP energy per Si atom -5570.587339 kJ/mol
# Density = 1.995298 g / cm^3
# Si number density = 19.998501 Si / 1000 Ang^3
#
#
#
# Elastic Constant Matrix: (Units=GPa)
#
#
# Indices 1 2 3 4 5 6 
#
# 1 40.1355 26.2242 23.0307 0.0000 0.0000 0.0000
# 2 26.2242 220.1504 66.0771 0.0000 0.0000 0.0000
# 3 23.0307 66.0771 91.1557 0.0000 0.0000 0.0000
# 4 0.0000 0.0000 0.0000 5.2199 0.0000 0.0000
# 5 0.0000 0.0000 0.0000 0.0000 12.1469 0.0000
# 6 0.0000 0.0000 0.0000 0.0000 0.0000 26.6986
#
#
#
# Elastic Compliance Matrix: (Units=1/GPa)
#
#
# Indices 1 2 3 4 5 6 
#
# 1 0.029595 -0.001637 -0.006290 0.000000 0.000000 0.000000
# 2 -0.001637 0.005896 -0.003860 0.000000 0.000000 0.000000
# 3 -0.006290 -0.003860 0.015358 0.000000 0.000000 0.000000
# 4 0.000000 0.000000 0.000000 0.191576 0.000000 0.000000
# 5 0.000000 0.000000 0.000000 0.000000 0.082326 0.000000
# 6 0.000000 0.000000 0.000000 0.000000 0.000000 0.037455
#
#
# Mechanical properties :
#
#
# Convention : Reuss Voigt Hill
#
# Bulk Modulus (GPa) = 36.66652 64.67838 50.67245
# Shear Modulus (GPa) = 12.66233 24.55372 18.60802
#
# Velocity S-wave (km/s) = 2.51900 3.50777 3.05367
# Velocity P-wave (km/s) = 5.18025 6.98697 6.15031
#
# Compressibility (1/GPa) = 0.02727284
#
# Stress axis : x y z
#
# Youngs Moduli (GPa) = 33.78958 169.60595 65.11372
#
# Poissons Ratio (x) = 0.27770 0.40959
# Poissons Ratio (y) = 0.05532 0.25136
# Poissons Ratio (z) = 0.21255 0.65472
#
# Static dielectric constant tensor:
#      x y z
#    x 1.758050 0.000000 0.000000 
#    y 0.000000 1.800730 0.000000 
#    z 0.000000 0.000000 1.674330 
# 
# From -- ./inp_files/14113.got.cif
#   From: 2010.05.17/outbox.cif.g08.bks.cpg/sg35_8_cif.got.tgz:14113.got - 2010.06.03 17:29:28.
