data_PCOD9348305
_publ_section_title
;
Structure prediction by ZEFSAII (Michael W. Deem and Ramdas Pophale) SiO2 
 PCOD9348305
Probable space group: C M M 2
;
_chemical_formula_sum "Si O2"
_cell_formula_units_Z 64
_cell_length_a 8.890682
_cell_length_b 29.187171
_cell_length_c 15.917214
_cell_angle_alpha 90.000000
_cell_angle_beta 90.000000
_cell_angle_gamma 90.000000
_cell_volume 4130.419235
_symmetry_space_group_name_H-M "C M M 2"
_symmetry_group_IT_number 35
_symmetry_cell_setting 'orthorhombic'
loop_
_space_group_symop_operation_xyz
x,y,z
-x,-y,z
-x,y,z
x,-y,z
1/2+x,1/2+y,z
1/2-x,1/2-y,z
1/2-x,1/2+y,z
1/2+x,1/2-y,z
loop_
_atom_site_type_symbol
_atom_site_label
_atom_site_fract_x
_atom_site_fract_y
_atom_site_fract_z
Si Si1 0.316875 0.894760 0.984470
Si Si2 0.179948 0.445632 0.813138
Si Si3 0.827021 0.944396 0.327610
Si Si4 0.319704 0.201585 0.915960
Si Si5 0.180129 0.298990 0.717723
Si Si6 0.318798 0.946038 0.152313
Si Si7 0.179241 0.554358 0.503173
Si Si8 0.320764 0.608509 0.657693
O O1 0.500000 0.894749 0.986169
O O2 0.274886 0.924883 0.903232
O O3 0.267633 0.842650 0.967901
O O4 0.267131 0.917352 0.071499
O O5 0.204749 0.500000 0.810992
O O6 0.264738 0.420424 0.738168
O O7 0.000000 0.437402 0.802704
O O8 0.753545 0.929991 0.239656
O O9 0.735803 0.931229 0.410821
O O10 0.000000 0.929649 0.333755
O O11 0.824586 0.000000 0.326063
O O12 0.500000 0.204590 0.922383
O O13 0.250000 0.250000 0.941493
O O14 0.284656 0.193755 0.817138
O O15 0.250000 0.250000 0.694088
O O16 0.250398 0.341045 0.667409
O O17 0.000000 0.298316 0.708995
O O18 0.500000 0.942774 0.159011
O O19 0.283226 0.000000 0.139632
O O20 0.213354 0.500000 0.513742
O O21 0.260194 0.583028 0.575198
O O22 0.000000 0.559699 0.509645
O O23 0.500000 0.611028 0.656663
#
# Coordination Sequence:
#
# PCOD9348305 Si02
#       8
#     8   8   8   8   8   8   8   8
#     4   9  16  29  47  69  93 124 163 203 240 281
#     4  10  19  32  48  65  92 132 172 205 239 282
#     4   9  17  30  47  68  96 126 155 194 244 290
#     4   9  17  30  48  67  91 120 157 203 247 285
#     4  10  19  34  53  72  95 124 163 207 250 291
#     4   9  16  27  46  70  94 123 161 198 233 282
#     4  10  20  34  52  72  95 127 167 206 243 288
#     4  12  23  33  47  70 100 132 164 199 244 294
#
# _framework density 15.494795
#
# number of rings (size 3 to 8) (size 9 to 14) (size 15 to 20)
#    0.000    2.250    1.250    3.000    0.000    6.000 
#    0.000    1.250    0.000    1.500    0.000    0.875 
#    0.000    2.000    0.000    0.000    0.000    0.000 
#
# Total GULP energy -178500.581694 kJ/mol
# GULP energy per Si atom -5578.143178 kJ/mol
# Density = 1.545953 g / cm^3
# Si number density = 15.494795 Si / 1000 Ang^3
#
#
#
# Elastic Constant Matrix: (Units=GPa)
#
#
# Indices 1 2 3 4 5 6 
#
# 1 56.6065 52.8169 50.4911 0.0000 0.0000 0.0000
# 2 52.8169 103.9125 71.0030 0.0000 0.0000 0.0000
# 3 50.4911 71.0030 131.1438 0.0000 0.0000 0.0000
# 4 0.0000 0.0000 0.0000 7.2033 0.0000 0.0000
# 5 0.0000 0.0000 0.0000 0.0000 6.8365 0.0000
# 6 0.0000 0.0000 0.0000 0.0000 0.0000 23.0335
#
#
#
# Elastic Compliance Matrix: (Units=1/GPa)
#
#
# Indices 1 2 3 4 5 6 
#
# 1 0.036697 -0.014282 -0.006396 0.000000 0.000000 0.000000
# 2 -0.014282 0.020832 -0.005780 0.000000 0.000000 0.000000
# 3 -0.006396 -0.005780 0.013217 0.000000 0.000000 0.000000
# 4 0.000000 0.000000 0.000000 0.138826 0.000000 0.000000
# 5 0.000000 0.000000 0.000000 0.000000 0.146274 0.000000
# 6 0.000000 0.000000 0.000000 0.000000 0.000000 0.043415
#
#
# Mechanical properties :
#
#
# Convention : Reuss Voigt Hill
#
# Bulk Modulus (GPa) = 56.08580 71.14278 63.61429
# Shear Modulus (GPa) = 10.91416 15.23810 13.07613
#
# Velocity S-wave (km/s) = 2.65689 3.13938 2.90816
# Velocity P-wave (km/s) = 6.75923 7.69120 7.24023
#
# Compressibility (1/GPa) = 0.01782982
#
# Stress axis : x y z
#
# Youngs Moduli (GPa) = 27.25047 48.00215 75.65862
#
# Poissons Ratio (x) = 0.68556 0.48391
# Poissons Ratio (y) = 0.38919 0.43733
# Poissons Ratio (z) = 0.17429 0.27747
#
# Static dielectric constant tensor:
#      x y z
#    x 1.518900 0.000000 0.000000 
#    y 0.000000 1.504190 0.000000 
#    z 0.000000 0.000000 1.501010 
# 
# From -- ./inp_files/16181.got.cif
#   From: 2010.05.17/outbox.cif.g08.bks.cpg/sg35_9_cif.got.tgz:16181.got - 2010.06.03 17:29:28.
