data_PCOD9348281
_publ_section_title
;
Structure prediction by ZEFSAII (Michael W. Deem and Ramdas Pophale) SiO2 
 PCOD9348281
Probable space group: C M M 2
;
_chemical_formula_sum "Si O2"
_cell_formula_units_Z 64
_cell_length_a 30.232857
_cell_length_b 8.887210
_cell_length_c 12.646938
_cell_angle_alpha 90.000000
_cell_angle_beta 90.000000
_cell_angle_gamma 90.000000
_cell_volume 3398.052010
_symmetry_space_group_name_H-M "C M M 2"
_symmetry_group_IT_number 35
_symmetry_cell_setting 'orthorhombic'
loop_
_space_group_symop_operation_xyz
x,y,z
-x,-y,z
-x,y,z
x,-y,z
1/2+x,1/2+y,z
1/2-x,1/2-y,z
1/2-x,1/2+y,z
1/2+x,1/2-y,z
loop_
_atom_site_type_symbol
_atom_site_label
_atom_site_fract_x
_atom_site_fract_y
_atom_site_fract_z
Si Si1 0.857971 0.680090 0.879600
Si Si2 0.706189 0.821510 0.461638
Si Si3 0.860292 0.317703 0.279394
Si Si4 0.431611 0.673043 0.591046
Si Si5 0.451197 0.818342 0.366716
Si Si6 0.950991 0.181957 0.829075
Si Si7 0.830250 0.172758 0.662361
Si Si8 0.200767 0.318079 0.084690
O O1 0.861101 0.500000 0.872013
O O2 0.907942 0.746244 0.883492
O O3 0.835505 0.746570 0.774313
O O4 0.827207 0.718488 0.979314
O O5 0.750000 0.750000 0.413021
O O6 0.664933 0.781249 0.387936
O O7 0.699782 0.757377 0.578431
O O8 0.710148 0.000000 0.464678
O O9 0.861871 0.500000 0.270308
O O10 0.910605 0.263877 0.293795
O O11 0.829834 0.265402 0.182793
O O12 0.445844 0.500000 0.575393
O O13 0.443963 0.765724 0.487602
O O14 0.449864 0.726721 0.704554
O O15 0.379063 0.673777 0.610325
O O16 0.500000 0.768927 0.331891
O O17 0.450083 0.000000 0.366213
O O18 0.000000 0.219727 0.871494
O O19 0.945904 0.000000 0.830917
O O20 0.816348 0.000000 0.676261
O O21 0.204937 0.500000 0.090669
O O22 0.250000 0.250000 0.085472
#
# Coordination Sequence:
#
# PCOD9348281 Si02
#       8
#     8   8   8   8   8   8   8   8
#     4  10  21  36  56  83 114 145 186 238 286 334
#     4  11  21  34  55  81 112 145 180 225 277 339
#     4   9  19  37  57  80 112 144 180 229 279 329
#     4   9  17  30  49  74 108 147 184 223 264 313
#     4  10  19  31  51  79 110 146 184 220 265 323
#     4   9  18  33  53  79 114 155 193 230 276 330
#     4  10  20  35  54  78 112 151 187 224 276 335
#     4  10  22  41  63  84 107 140 186 238 288 339
#
# _framework density 18.834319000000001
#
# number of rings (size 3 to 8) (size 9 to 14) (size 15 to 20)
#    0.000    2.250    1.250    2.625    0.000    4.500 
#    0.000    3.125    0.000    2.250    0.000    0.000 
#    0.000    0.000    0.000    0.000    0.000    0.000 
#
# Total GULP energy -178474.028480 kJ/mol
# GULP energy per Si atom -5577.313390 kJ/mol
# Density = 1.879145 g / cm^3
# Si number density = 18.834319 Si / 1000 Ang^3
#
#
#
# Elastic Constant Matrix: (Units=GPa)
#
#
# Indices 1 2 3 4 5 6 
#
# 1 163.2104 41.1706 75.2317 0.0000 0.0000 0.0000
# 2 41.1706 33.8738 37.6365 0.0000 0.0000 0.0000
# 3 75.2317 37.6365 104.1396 0.0000 0.0000 0.0000
# 4 0.0000 0.0000 0.0000 9.9432 0.0000 0.0000
# 5 0.0000 0.0000 0.0000 0.0000 16.9958 0.0000
# 6 0.0000 0.0000 0.0000 0.0000 0.0000 21.6800
#
#
#
# Elastic Compliance Matrix: (Units=1/GPa)
#
#
# Indices 1 2 3 4 5 6 
#
# 1 0.010079 -0.006951 -0.004769 0.000000 0.000000 0.000000
# 2 -0.006951 0.054124 -0.014539 0.000000 0.000000 0.000000
# 3 -0.004769 -0.014539 0.018302 0.000000 0.000000 0.000000
# 4 0.000000 0.000000 0.000000 0.100571 0.000000 0.000000
# 5 0.000000 0.000000 0.000000 0.000000 0.058838 0.000000
# 6 0.000000 0.000000 0.000000 0.000000 0.000000 0.046125
#
#
# Mechanical properties :
#
#
# Convention : Reuss Voigt Hill
#
# Bulk Modulus (GPa) = 33.34824 67.70018 50.52421
# Shear Modulus (GPa) = 14.26320 19.53614 16.89967
#
# Velocity S-wave (km/s) = 2.75489 3.22415 2.99871
# Velocity P-wave (km/s) = 5.27862 7.06281 6.23487
#
# Compressibility (1/GPa) = 0.02998659
#
# Stress axis : x y z
#
# Youngs Moduli (GPa) = 99.21894 18.47615 54.63915
#
# Poissons Ratio (x) = 0.12843 0.26056
# Poissons Ratio (y) = 0.68970 0.79439
# Poissons Ratio (z) = 0.47315 0.26862
#
# Static dielectric constant tensor:
#      x y z
#    x 1.693980 0.000000 0.000000 
#    y 0.000000 1.638500 0.000000 
#    z 0.000000 0.000000 1.633070 
# 
# From -- ./inp_files/11918.got.cif
#   From: 2010.05.17/outbox.cif.g08.bks.cpg/sg35_6_cif.got.tgz:11918.got - 2010.06.03 17:29:28.
