data_PCOD9348546
_publ_section_title
;
Structure prediction by ZEFSAII (Michael W. Deem and Ramdas Pophale) SiO2 
 PCOD9348546
Probable space group: C M M 2
;
_chemical_formula_sum "Si O2"
_cell_formula_units_Z 48
_cell_length_a 17.342884
_cell_length_b 22.201068
_cell_length_c 5.403915
_cell_angle_alpha 90.000000
_cell_angle_beta 90.000000
_cell_angle_gamma 90.000000
_cell_volume 2080.672348
_symmetry_space_group_name_H-M "C M M 2"
_symmetry_group_IT_number 35
_symmetry_cell_setting 'orthorhombic'
loop_
_space_group_symop_operation_xyz
x,y,z
-x,-y,z
-x,y,z
x,-y,z
1/2+x,1/2+y,z
1/2-x,1/2-y,z
1/2-x,1/2+y,z
1/2+x,1/2-y,z
loop_
_atom_site_type_symbol
_atom_site_label
_atom_site_fract_x
_atom_site_fract_y
_atom_site_fract_z
Si Si1 0.594164 0.069294 0.846880
Si Si2 0.585105 0.571657 0.280562
Si Si3 0.158641 0.235903 0.435240
Si Si4 0.592418 0.133528 0.348177
Si Si5 0.677761 0.429634 0.776808
Si Si6 0.190918 0.193852 0.931747
O O1 0.500000 0.071146 0.842929
O O2 0.620579 0.096204 0.585690
O O3 0.616720 0.000000 0.870498
O O4 0.618654 0.105280 0.090122
O O5 0.500000 0.599660 0.312924
O O6 0.576589 0.500000 0.316968
O O7 0.644469 0.584647 0.504998
O O8 0.614506 0.575762 0.997129
O O9 0.250000 0.250000 0.460904
O O10 0.117985 0.298173 0.374824
O O11 0.135521 0.211256 0.703491
O O12 0.150285 0.192740 0.198746
O O13 0.500000 0.130686 0.349775
O O14 0.705023 0.500000 0.781683
O O15 0.727338 0.370388 0.854428
O O16 0.250000 0.250000 0.955831
#
# Coordination Sequence:
#
# PCOD9348546 Si02
#       6
#     8   8   8   8   8   8
#     4   9  17  30  52  83 118 154 187 228 288 346
#     4   9  17  30  49  77 114 148 177 218 276 340
#     4  10  21  38  59  76 104 153 196 229 282 342
#     4  10  19  33  55  84 117 150 191 237 275 331
#     4  10  19  33  56  82 107 142 187 229 274 331
#     4  10  21  38  58  78 104 146 192 233 280 338
#
# _framework density 23.069464
#
# number of rings (size 3 to 8) (size 9 to 14) (size 15 to 20)
#    0.000    2.333    0.000    3.000    0.000    4.000 
#    0.000    5.000    0.000   24.000    0.000    0.000 
#    0.000    0.000    0.000    0.000    0.000    0.000 
#
# Total GULP energy -133857.519416 kJ/mol
# GULP energy per Si atom -5577.396642 kJ/mol
# Density = 2.301696 g / cm^3
# Si number density = 23.069464 Si / 1000 Ang^3
#
#
#
# Elastic Constant Matrix: (Units=GPa)
#
#
# Indices 1 2 3 4 5 6 
#
# 1 42.6837 7.6291 26.9452 0.0000 0.0000 0.0000
# 2 7.6291 133.1094 44.9388 0.0000 0.0000 0.0000
# 3 26.9452 44.9388 201.7775 0.0000 0.0000 0.0000
# 4 0.0000 0.0000 0.0000 53.4465 0.0000 0.0000
# 5 0.0000 0.0000 0.0000 0.0000 12.6295 0.0000
# 6 0.0000 0.0000 0.0000 0.0000 0.0000 4.8232
#
#
#
# Elastic Compliance Matrix: (Units=1/GPa)
#
#
# Indices 1 2 3 4 5 6 
#
# 1 0.025599 -0.000339 -0.003343 0.000000 0.000000 0.000000
# 2 -0.000339 0.008128 -0.001765 0.000000 0.000000 0.000000
# 3 -0.003343 -0.001765 0.005795 0.000000 0.000000 0.000000
# 4 0.000000 0.000000 0.000000 0.018710 0.000000 0.000000
# 5 0.000000 0.000000 0.000000 0.000000 0.079180 0.000000
# 6 0.000000 0.000000 0.000000 0.000000 0.000000 0.207329
#
#
# Mechanical properties :
#
#
# Convention : Reuss Voigt Hill
#
# Bulk Modulus (GPa) = 34.92935 59.62186 47.27560
# Shear Modulus (GPa) = 13.69194 34.05035 23.87115
#
# Velocity S-wave (km/s) = 2.43885 3.84603 3.22024
# Velocity P-wave (km/s) = 4.80671 6.75450 5.86207
#
# Compressibility (1/GPa) = 0.02862922
#
# Stress axis : x y z
#
# Youngs Moduli (GPa) = 39.06388 123.03312 172.54835
#
# Poissons Ratio (x) = 0.04165 0.57684
# Poissons Ratio (y) = 0.01322 0.30455
# Poissons Ratio (z) = 0.13059 0.21715
#
# Static dielectric constant tensor:
#      x y z
#    x 1.846120 0.000000 0.000000 
#    y 0.000000 1.880000 0.000000 
#    z 0.000000 0.000000 1.879630 
# 
# From -- ./inp_files/3002.got.cif
#   From: 2010.05.17/outbox.cif.g08.bks.cpg/sg35_2_cif.got.tgz:3002.got - 2010.06.03 17:29:28.
