data_PCOD9348090
_publ_section_title
;
Structure prediction by ZEFSAII (Michael W. Deem and Ramdas Pophale) SiO2 
 PCOD9348090
Probable space group: C M M 2
;
_chemical_formula_sum "Si O2"
_cell_formula_units_Z 64
_cell_length_a 20.574942
_cell_length_b 17.995609
_cell_length_c 9.253109
_cell_angle_alpha 90.000000
_cell_angle_beta 90.000000
_cell_angle_gamma 90.000000
_cell_volume 3426.043290
_symmetry_space_group_name_H-M "C M M 2"
_symmetry_group_IT_number 35
_symmetry_cell_setting 'orthorhombic'
loop_
_space_group_symop_operation_xyz
x,y,z
-x,-y,z
-x,y,z
x,-y,z
1/2+x,1/2+y,z
1/2-x,1/2-y,z
1/2-x,1/2+y,z
1/2+x,1/2-y,z
loop_
_atom_site_type_symbol
_atom_site_label
_atom_site_fract_x
_atom_site_fract_y
_atom_site_fract_z
Si Si1 0.618731 0.080210 0.138570
Si Si2 0.279990 0.912515 0.881886
Si Si3 0.576014 0.698545 0.507969
Si Si4 0.302907 0.316676 0.095291
Si Si5 0.928872 0.740522 0.179618
Si Si6 0.182394 0.706337 0.635132
Si Si7 0.310824 0.078865 0.435709
Si Si8 0.833561 0.083642 0.375037
O O1 0.575791 0.152209 0.160518
O O2 0.672072 0.081029 0.267222
O O3 0.585046 0.000000 0.146780
O O4 0.659879 0.084328 0.992915
O O5 0.301941 0.852697 0.761453
O O6 0.266447 0.000000 0.841086
O O7 0.221413 0.871681 0.969155
O O8 0.500000 0.695260 0.547241
O O9 0.579892 0.739382 0.349701
O O10 0.622278 0.736284 0.629512
O O11 0.609490 0.620130 0.467709
O O12 0.250000 0.250000 0.112979
O O13 0.372083 0.275791 0.082294
O O14 0.314156 0.365178 0.239232
O O15 0.000000 0.768337 0.137610
O O16 0.250000 0.750000 0.607457
O O17 0.162465 0.651788 0.505935
O O18 0.233884 0.080590 0.462421
O O19 0.336868 0.000000 0.492532
O O20 0.849262 0.000000 0.327996
#
# Coordination Sequence:
#
# PCOD9348090 Si02
#       8
#     8   8   8   8   8   8   8   8
#     4  10  19  34  58  84 116 155 191 238 298 356
#     4  11  23  38  58  88 121 152 194 249 303 358
#     4  10  22  38  57  84 121 161 200 245 296 355
#     4  11  19  33  61  87 119 157 198 248 298 360
#     4  10  20  34  56  89 123 154 195 243 297 360
#     4  12  23  36  59  86 116 152 198 251 302 355
#     4  10  18  32  56  87 114 145 191 244 300 352
#     4  10  19  32  56  88 119 152 190 241 302 355
#
# _framework density 18.680441999999999
#
# number of rings (size 3 to 8) (size 9 to 14) (size 15 to 20)
#    0.000    1.500    5.000    1.125    1.750    0.500 
#    0.000    0.625    0.000    3.375    0.000    0.000 
#    0.000    0.000    0.000    0.000    0.000    0.000 
#
# Total GULP energy -178163.491203 kJ/mol
# GULP energy per Si atom -5567.609100 kJ/mol
# Density = 1.863792 g / cm^3
# Si number density = 18.680442 Si / 1000 Ang^3
#
#
#
# Elastic Constant Matrix: (Units=GPa)
#
#
# Indices 1 2 3 4 5 6 
#
# 1 118.3674 36.6572 15.3656 0.0000 0.0000 0.0000
# 2 36.6572 122.2192 24.2465 0.0000 0.0000 0.0000
# 3 15.3656 24.2465 37.1558 0.0000 0.0000 0.0000
# 4 0.0000 0.0000 0.0000 28.5307 0.0000 0.0000
# 5 0.0000 0.0000 0.0000 0.0000 13.2606 0.0000
# 6 0.0000 0.0000 0.0000 0.0000 0.0000 13.7800
#
#
#
# Elastic Compliance Matrix: (Units=1/GPa)
#
#
# Indices 1 2 3 4 5 6 
#
# 1 0.009492 -0.002376 -0.002375 0.000000 0.000000 0.000000
# 2 -0.002376 0.009993 -0.005539 0.000000 0.000000 0.000000
# 3 -0.002375 -0.005539 0.031510 0.000000 0.000000 0.000000
# 4 0.000000 0.000000 0.000000 0.035050 0.000000 0.000000
# 5 0.000000 0.000000 0.000000 0.000000 0.075411 0.000000
# 6 0.000000 0.000000 0.000000 0.000000 0.000000 0.072569
#
#
# Mechanical properties :
#
#
# Convention : Reuss Voigt Hill
#
# Bulk Modulus (GPa) = 32.87686 47.80901 40.34293
# Shear Modulus (GPa) = 18.88612 24.54581 21.71596
#
# Velocity S-wave (km/s) = 3.18309 3.62882 3.41324
# Velocity P-wave (km/s) = 5.58097 6.57316 6.09728
#
# Compressibility (1/GPa) = 0.03041653
#
# Stress axis : x y z
#
# Youngs Moduli (GPa) = 105.34767 100.06571 31.73563
#
# Poissons Ratio (x) = 0.23774 0.07538
# Poissons Ratio (y) = 0.25029 0.17578
# Poissons Ratio (z) = 0.25022 0.55424
#
# Static dielectric constant tensor:
#      x y z
#    x 1.646130 0.000000 0.000000 
#    y 0.000000 1.687070 0.000000 
#    z 0.000000 0.000000 1.681780 
# 
# From -- ./inp_files/9431.got.cif
#   From: 2010.05.17/outbox.cif.g08.bks.cpg/sg35_5_cif.got.tgz:9431.got - 2010.06.03 17:29:28.
