data_PCOD9348931
_publ_section_title
;
Structure prediction by ZEFSAII (Michael W. Deem and Ramdas Pophale) SiO2 
 PCOD9348931
Probable space group: C M M 2
;
_chemical_formula_sum "Si O2"
_cell_formula_units_Z 64
_cell_length_a 8.827227
_cell_length_b 19.652303
_cell_length_c 21.042766
_cell_angle_alpha 90.000000
_cell_angle_beta 90.000000
_cell_angle_gamma 90.000000
_cell_volume 3650.400979
_symmetry_space_group_name_H-M "C M M 2"
_symmetry_group_IT_number 35
_symmetry_cell_setting 'orthorhombic'
loop_
_space_group_symop_operation_xyz
x,y,z
-x,-y,z
-x,y,z
x,-y,z
1/2+x,1/2+y,z
1/2-x,1/2-y,z
1/2-x,1/2+y,z
1/2+x,1/2-y,z
loop_
_atom_site_type_symbol
_atom_site_label
_atom_site_fract_x
_atom_site_fract_y
_atom_site_fract_z
Si Si1 0.181174 0.675836 0.223040
Si Si2 0.181094 0.323832 0.370267
Si Si3 0.683220 0.579581 0.476154
Si Si4 0.681956 0.078200 0.747857
Si Si5 0.682497 0.421083 0.117584
Si Si6 0.675867 0.417305 0.616233
Si Si7 0.317806 0.675485 0.999672
Si Si8 0.182872 0.675442 0.863020
O O1 0.250000 0.750000 0.207300
O O2 0.220289 0.660447 0.296673
O O3 0.245243 0.618873 0.176399
O O4 0.000000 0.679735 0.217518
O O5 0.250000 0.250000 0.384571
O O6 0.247053 0.377545 0.419551
O O7 0.000000 0.321280 0.375105
O O8 0.500000 0.583908 0.474894
O O9 0.723532 0.500000 0.469791
O O10 0.732754 0.604457 0.546590
O O11 0.500000 0.077265 0.746931
O O12 0.738014 0.104526 0.679510
O O13 0.729114 0.124295 0.807040
O O14 0.735217 0.000000 0.755497
O O15 0.500000 0.419315 0.124013
O O16 0.729546 0.500000 0.114314
O O17 0.720580 0.378905 0.053942
O O18 0.500000 0.397992 0.622079
O O19 0.682269 0.500000 0.614584
O O20 0.500000 0.681074 0.994760
O O21 0.250000 0.750000 0.015423
O O22 0.248648 0.655031 0.931656
O O23 0.250000 0.750000 0.849692
O O24 0.000000 0.678550 0.866331
#
# Coordination Sequence:
#
# PCOD9348931 Si02
#       8
#     8   8   8   8   8   8   8   8
#     4  10  21  37  57  79 103 136 176 214 254 306
#     4  10  21  36  54  77 105 136 173 215 258 306
#     4   9  18  33  53  77 105 137 173 213 258 308
#     4   9  18  32  50  73 100 130 166 208 252 298
#     4  10  22  38  55  79 110 139 169 210 257 303
#     4   8  15  29  49  73 100 131 168 207 248 299
#     4  10  20  35  55  76 100 133 172 209 248 300
#     4  10  20  34  52  74 101 132 167 207 251 300
#
# _framework density 17.532322000000001
#
# number of rings (size 3 to 8) (size 9 to 14) (size 15 to 20)
#    0.000    2.500    0.000    3.375    0.000    6.500 
#    0.000    4.375    0.000    1.500    0.000    0.000 
#    0.000    0.000    0.000    0.000    0.000    0.000 
#
# Total GULP energy -178486.008015 kJ/mol
# GULP energy per Si atom -5577.687750 kJ/mol
# Density = 1.749242 g / cm^3
# Si number density = 17.532322 Si / 1000 Ang^3
#
#
#
# Elastic Constant Matrix: (Units=GPa)
#
#
# Indices 1 2 3 4 5 6 
#
# 1 35.5917 41.1193 52.4032 0.0000 0.0000 0.0000
# 2 41.1193 106.3444 113.0355 0.0000 0.0000 0.0000
# 3 52.4032 113.0355 163.1143 0.0000 0.0000 0.0000
# 4 0.0000 0.0000 0.0000 40.5950 0.0000 0.0000
# 5 0.0000 0.0000 0.0000 0.0000 32.6551 0.0000
# 6 0.0000 0.0000 0.0000 0.0000 0.0000 24.5938
#
#
#
# Elastic Compliance Matrix: (Units=1/GPa)
#
#
# Indices 1 2 3 4 5 6 
#
# 1 0.055766 -0.009565 -0.011287 0.000000 0.000000 0.000000
# 2 -0.009565 0.037339 -0.022802 0.000000 0.000000 0.000000
# 3 -0.011287 -0.022802 0.025558 0.000000 0.000000 0.000000
# 4 0.000000 0.000000 0.000000 0.024634 0.000000 0.000000
# 5 0.000000 0.000000 0.000000 0.000000 0.030623 0.000000
# 6 0.000000 0.000000 0.000000 0.000000 0.000000 0.040661
#
#
# Mechanical properties :
#
#
# Convention : Reuss Voigt Hill
#
# Bulk Modulus (GPa) = 31.89396 79.79626 55.84511
# Shear Modulus (GPa) = 16.00818 26.13493 21.07156
#
# Velocity S-wave (km/s) = 3.02498 3.86511 3.47056
# Velocity P-wave (km/s) = 5.51649 8.09515 6.92687
#
# Compressibility (1/GPa) = 0.03135389
#
# Stress axis : x y z
#
# Youngs Moduli (GPa) = 17.93222 26.78185 39.12594
#
# Poissons Ratio (x) = 0.25617 0.44163
# Poissons Ratio (y) = 0.17152 0.89216
# Poissons Ratio (z) = 0.20241 0.61069
#
# Static dielectric constant tensor:
#      x y z
#    x 1.591280 0.000000 0.000000 
#    y 0.000000 1.574730 0.000000 
#    z 0.000000 0.000000 1.598230 
# 
# From -- ./inp_files/18447.got.cif
#   From: 2010.05.17/outbox.cif.g08.bks.cpg/sg35_10_cif.got.tgz:18447.got - 2010.06.03 17:29:28.
