data_PCOD9348464
_publ_section_title
;
Structure prediction by ZEFSAII (Michael W. Deem and Ramdas Pophale) SiO2 
 PCOD9348464
Probable space group: C M M 2
;
_chemical_formula_sum "Si O2"
_cell_formula_units_Z 58
_cell_length_a 7.551075
_cell_length_b 30.981636
_cell_length_c 13.130826
_cell_angle_alpha 90.000000
_cell_angle_beta 90.000000
_cell_angle_gamma 90.000000
_cell_volume 3071.886585
_symmetry_space_group_name_H-M "C M M 2"
_symmetry_group_IT_number 35
_symmetry_cell_setting 'orthorhombic'
loop_
_space_group_symop_operation_xyz
x,y,z
-x,-y,z
-x,y,z
x,-y,z
1/2+x,1/2+y,z
1/2-x,1/2-y,z
1/2-x,1/2+y,z
1/2+x,1/2-y,z
loop_
_atom_site_type_symbol
_atom_site_label
_atom_site_fract_x
_atom_site_fract_y
_atom_site_fract_z
Si Si1 0.715324 0.839794 0.366910
Si Si2 0.206737 0.064072 0.299147
Si Si3 0.787872 0.699939 0.574527
Si Si4 0.000000 0.500000 0.373799
Si Si5 0.211961 0.047936 0.063972
Si Si6 0.711651 0.201696 0.164268
Si Si7 0.212915 0.300187 0.803200
Si Si8 0.711587 0.140517 0.986163
O O1 0.500000 0.839656 0.369375
O O2 0.776865 0.886238 0.329224
O O3 0.779338 0.827615 0.479445
O O4 0.775213 0.806495 0.279189
O O5 0.265476 0.056815 0.181293
O O6 0.000000 0.051123 0.307149
O O7 0.343203 0.037081 0.365970
O O8 0.750000 0.750000 0.552853
O O9 0.719034 0.691122 0.688605
O O10 0.000000 0.694335 0.578316
O O11 0.258583 0.089453 0.996527
O O12 0.000000 0.046081 0.064172
O O13 0.278298 0.000000 0.034210
O O14 0.500000 0.196966 0.166908
O O15 0.750000 0.250000 0.128651
O O16 0.781066 0.165621 0.086186
O O17 0.250000 0.250000 0.829415
O O18 0.000000 0.303962 0.799849
O O19 0.279668 0.334092 0.886937
O O20 0.500000 0.146217 0.985743
#
# Coordination Sequence:
#
# PCOD9348464 Si02
#       8
#     8   8   8   2   8   8   8   8
#     4  10  19  33  50  74 107 145 181 225 278 323
#     4  11  22  35  55  83 111 147 187 226 275 337
#     4   9  18  32  52  75 105 141 184 229 271 318
#     4  12  22  36  60  78 116 150 186 232 284 314
#     4  10  21  35  51  77 105 133 176 224 269 326
#     4  10  20  30  44  68 102 141 177 211 265 332
#     4   9  18  33  51  76 104 138 183 227 267 323
#     4  10  20  32  50  73 103 138 177 219 271 329
#
# _framework density 18.880904999999998
#
# number of rings (size 3 to 8) (size 9 to 14) (size 15 to 20)
#    0.000    2.069    2.759    1.034    0.966    2.483 
#    0.000    0.000    0.000    0.000    1.793    0.000 
#    0.000    0.000    0.000    0.000    0.000    0.000 
#
# Total GULP energy -161527.324241 kJ/mol
# GULP energy per Si atom -5569.907732 kJ/mol
# Density = 1.883793 g / cm^3
# Si number density = 18.880905 Si / 1000 Ang^3
#
#
#
# Elastic Constant Matrix: (Units=GPa)
#
#
# Indices 1 2 3 4 5 6 
#
# 1 60.2556 -1.5208 10.3807 0.0000 0.0000 0.0000
# 2 -1.5208 141.7248 73.5972 0.0000 0.0000 0.0000
# 3 10.3807 73.5972 104.7272 0.0000 0.0000 0.0000
# 4 0.0000 0.0000 0.0000 37.1548 0.0000 0.0000
# 5 0.0000 0.0000 0.0000 0.0000 -2.5180 0.0000
# 6 0.0000 0.0000 0.0000 0.0000 0.0000 15.8091
#
#
#
# Elastic Compliance Matrix: (Units=1/GPa)
#
#
# Indices 1 2 3 4 5 6 
#
# 1 0.017134 0.001678 -0.002878 0.000000 0.000000 0.000000
# 2 0.001678 0.011275 -0.008090 0.000000 0.000000 0.000000
# 3 -0.002878 -0.008090 0.015519 0.000000 0.000000 0.000000
# 4 0.000000 0.000000 0.000000 0.026914 0.000000 0.000000
# 5 0.000000 0.000000 0.000000 0.000000 -0.397137 0.000000
# 6 0.000000 0.000000 0.000000 0.000000 0.000000 0.063255
#
#
# Mechanical properties :
#
#
# Convention : Reuss Voigt Hill
#
# Bulk Modulus (GPa) = 39.44866 52.40242 45.92554
# Shear Modulus (GPa) = -21.18547 25.03921 1.92687
#
# Velocity S-wave (km/s) = -3.35335 3.64561 1.01131
# Velocity P-wave (km/s) = 2.43834 6.74797 5.07349
#
# Compressibility (1/GPa) = 0.02534940
#
# Stress axis : x y z
#
# Youngs Moduli (GPa) = 58.36316 88.69189 64.43695
#
# Poissons Ratio (x) = -0.14885 0.18543
# Poissons Ratio (y) = -0.09795 0.52129
# Poissons Ratio (z) = 0.16796 0.71751
#
# Static dielectric constant tensor:
#      x y z
#    x 1.697660 0.000000 0.000000 
#    y 0.000000 1.635310 0.000000 
#    z 0.000000 0.000000 1.672910 
# 
# From -- ./inp_files/11783.got.cif
#   From: 2010.05.17/outbox.cif.g08.bks.cpg/sg35_6_cif.got.tgz:11783.got - 2010.06.03 17:29:28.
