data_PCOD9348657
_publ_section_title
;
Structure prediction by ZEFSAII (Michael W. Deem and Ramdas Pophale) SiO2 
 PCOD9348657
Probable space group: C M M 2
;
_chemical_formula_sum "Si O2"
_cell_formula_units_Z 40
_cell_length_a 26.660348
_cell_length_b 8.586656
_cell_length_c 9.771393
_cell_angle_alpha 90.000000
_cell_angle_beta 90.000000
_cell_angle_gamma 90.000000
_cell_volume 2236.898917
_symmetry_space_group_name_H-M "C M M 2"
_symmetry_group_IT_number 35
_symmetry_cell_setting 'orthorhombic'
loop_
_space_group_symop_operation_xyz
x,y,z
-x,-y,z
-x,y,z
x,-y,z
1/2+x,1/2+y,z
1/2-x,1/2-y,z
1/2-x,1/2+y,z
1/2+x,1/2-y,z
loop_
_atom_site_type_symbol
_atom_site_label
_atom_site_fract_x
_atom_site_fract_y
_atom_site_fract_z
Si Si1 0.500000 0.679569 0.068890
Si Si2 0.195564 0.186451 0.583534
Si Si3 0.500000 0.679794 0.401680
Si Si4 0.391226 0.688711 0.084253
Si Si5 0.892633 0.314073 0.392984
Si Si6 0.695759 0.813618 0.890724
O O1 0.500000 0.500000 0.022710
O O2 0.500000 0.680428 0.235068
O O3 0.445906 0.746397 0.030384
O O4 0.250000 0.250000 0.537311
O O5 0.150952 0.245991 0.487941
O O6 0.187722 0.249997 0.737216
O O7 0.196881 0.000000 0.585885
O O8 0.500000 0.500000 0.445782
O O9 0.448057 0.761102 0.442427
O O10 0.391672 0.500000 0.086025
O O11 0.385725 0.748075 0.239456
O O12 0.347187 0.751138 0.989954
O O13 0.890172 0.500000 0.390218
O O14 0.750000 0.750000 0.936148
O O15 0.696498 0.000000 0.888456
#
# Coordination Sequence:
#
# PCOD9348657 Si02
#       6
#     4   8   4   8   8   8
#     4   7  14  29  52  77 106 139 174 212 260 314
#     4  11  22  39  59  80 107 144 183 225 275 331
#     4   9  17  33  54  79 110 147 182 220 270 324
#     4  10  19  35  57  83 111 144 182 223 268 322
#     4  11  21  35  56  85 114 144 182 228 272 320
#     4  11  22  38  57  80 108 143 182 225 274 327
#
# _framework density 17.881899000000001
#
# number of rings (size 3 to 8) (size 9 to 14) (size 15 to 20)
#    0.000    1.800    0.000    8.700    0.000    0.800 
#    0.000    6.500    0.000    1.200    0.000    0.000 
#    0.000    0.000    0.000    0.000    0.000    0.000 
#
# Total GULP energy -111637.123783 kJ/mol
# GULP energy per Si atom -5581.856189 kJ/mol
# Density = 1.784120 g / cm^3
# Si number density = 17.881899 Si / 1000 Ang^3
#
#
#
# Elastic Constant Matrix: (Units=GPa)
#
#
# Indices 1 2 3 4 5 6 
#
# 1 221.3207 82.9666 93.3716 0.0000 0.0000 0.0000
# 2 82.9666 172.3238 41.7488 0.0000 0.0000 0.0000
# 3 93.3716 41.7488 56.4318 0.0000 0.0000 0.0000
# 4 0.0000 0.0000 0.0000 28.5251 0.0000 0.0000
# 5 0.0000 0.0000 0.0000 0.0000 -303.2378 0.0000
# 6 0.0000 0.0000 0.0000 0.0000 0.0000 32.8090
#
#
#
# Elastic Compliance Matrix: (Units=1/GPa)
#
#
# Indices 1 2 3 4 5 6 
#
# 1 0.015275 -0.001500 -0.024165 0.000000 0.000000 0.000000
# 2 -0.001500 0.007218 -0.002858 0.000000 0.000000 0.000000
# 3 -0.024165 -0.002858 0.059817 0.000000 0.000000 0.000000
# 4 0.000000 0.000000 0.000000 0.035057 0.000000 0.000000
# 5 0.000000 0.000000 0.000000 0.000000 -0.003298 0.000000
# 6 0.000000 0.000000 0.000000 0.000000 0.000000 0.030479
#
#
# Mechanical properties :
#
#
# Convention : Reuss Voigt Hill
#
# Bulk Modulus (GPa) = 39.57975 98.47226 69.02600
# Shear Modulus (GPa) = 23.80776 -32.91480 -4.55352
#
# Velocity S-wave (km/s) = 3.65278 -4.29497 -1.59749
# Velocity P-wave (km/s) = 6.32237 5.53101 5.93988
#
# Compressibility (1/GPa) = 0.02526545
#
# Stress axis : x y z
#
# Youngs Moduli (GPa) = 65.46482 138.55092 16.71755
#
# Poissons Ratio (x) = 0.20784 0.40398
# Poissons Ratio (y) = 0.09820 0.04777
# Poissons Ratio (z) = 1.58194 0.39593
#
# Static dielectric constant tensor:
#      x y z
#    x 1.627420 0.000000 0.000000 
#    y 0.000000 1.601770 0.000000 
#    z 0.000000 0.000000 1.578200 
# 
# From -- ./inp_files/10074.got.cif
#   From: 2010.05.17/outbox.cif.g08.bks.cpg/sg35_6_cif.got.tgz:10074.got - 2010.06.03 17:29:28.
