data_PCOD9348094
_publ_section_title
;
Structure prediction by ZEFSAII (Michael W. Deem and Ramdas Pophale) SiO2 
 PCOD9348094
Probable space group: C M M 2
;
_chemical_formula_sum "Si O2"
_cell_formula_units_Z 32
_cell_length_a 17.722038
_cell_length_b 7.860946
_cell_length_c 12.308015
_cell_angle_alpha 90.000000
_cell_angle_beta 90.000000
_cell_angle_gamma 90.000000
_cell_volume 1714.653985
_symmetry_space_group_name_H-M "C M M 2"
_symmetry_group_IT_number 35
_symmetry_cell_setting 'orthorhombic'
loop_
_space_group_symop_operation_xyz
x,y,z
-x,-y,z
-x,y,z
x,-y,z
1/2+x,1/2+y,z
1/2-x,1/2-y,z
1/2-x,1/2+y,z
1/2+x,1/2-y,z
loop_
_atom_site_type_symbol
_atom_site_label
_atom_site_fract_x
_atom_site_fract_y
_atom_site_fract_z
Si Si1 0.408021 0.190345 0.931780
Si Si2 0.089228 0.795892 0.689492
Si Si3 0.336962 0.195506 0.466976
Si Si4 0.907766 0.000000 0.082807
Si Si5 0.590212 0.500000 0.332746
O O1 0.500000 0.194144 0.931794
O O2 0.385573 0.234356 0.808353
O O3 0.383900 0.000000 0.960610
O O4 0.382964 0.333793 0.016036
O O5 0.133400 0.714062 0.590140
O O6 0.000000 0.756238 0.678311
O O7 0.097234 0.000000 0.684014
O O8 0.250000 0.250000 0.463726
O O9 0.381340 0.332026 0.394403
O O10 0.346118 0.000000 0.431429
O O11 0.883617 0.000000 0.207635
O O12 0.000000 0.000000 0.082507
O O13 0.500000 0.500000 0.334856
#
# Coordination Sequence:
#
# PCOD9348094 Si02
#       5
#     8   8   8   4   4
#     4   9  16  28  50  82 118 153 188 236 301 357
#     4  10  18  32  57  89 123 155 193 245 300 361
#     4  12  24  41  62  87 120 167 202 247 312 368
#     4   9  18  33  53  81 119 155 193 248 298 340
#     4  11  24  41  63  93 122 157 213 262 293 350
#
# _framework density 18.662656999999999
#
# number of rings (size 3 to 8) (size 9 to 14) (size 15 to 20)
#    0.000    1.750    3.750    1.500    0.000    4.000 
#    0.000    2.500    0.000    1.500    0.000    0.000 
#    0.000    0.000    0.000    0.000    0.000    0.000 
#
# Total GULP energy -89349.496684 kJ/mol
# GULP energy per Si atom -5584.343543 kJ/mol
# Density = 1.862018 g / cm^3
# Si number density = 18.662657 Si / 1000 Ang^3
#
#
#
# Elastic Constant Matrix: (Units=GPa)
#
#
# Indices 1 2 3 4 5 6 
#
# 1 40.8885 36.7152 32.4330 0.0000 0.0000 0.0000
# 2 36.7152 181.1936 90.3827 0.0000 0.0000 0.0000
# 3 32.4330 90.3827 154.0511 0.0000 0.0000 0.0000
# 4 0.0000 0.0000 0.0000 -8.0158 0.0000 0.0000
# 5 0.0000 0.0000 0.0000 0.0000 -11.0444 0.0000
# 6 0.0000 0.0000 0.0000 0.0000 0.0000 16.5342
#
#
#
# Elastic Compliance Matrix: (Units=1/GPa)
#
#
# Indices 1 2 3 4 5 6 
#
# 1 0.031626 -0.004364 -0.004098 0.000000 0.000000 0.000000
# 2 -0.004364 0.008405 -0.004012 0.000000 0.000000 0.000000
# 3 -0.004098 -0.004012 0.009708 0.000000 0.000000 0.000000
# 4 0.000000 0.000000 0.000000 -0.124753 0.000000 0.000000
# 5 0.000000 0.000000 0.000000 0.000000 -0.090543 0.000000
# 6 0.000000 0.000000 0.000000 0.000000 0.000000 0.060481
#
#
# Mechanical properties :
#
#
# Convention : Reuss Voigt Hill
#
# Bulk Modulus (GPa) = 40.33872 77.24389 58.79130
# Shear Modulus (GPa) = -69.57440 13.93496 -27.81972
#
# Velocity S-wave (km/s) = -6.11236 2.73550 -3.86510
# Velocity P-wave (km/s) = 5.30594 7.17333 3.41348
#
# Compressibility (1/GPa) = 0.02479008
#
# Stress axis : x y z
#
# Youngs Moduli (GPa) = 31.61956 118.98140 103.00700
#
# Poissons Ratio (x) = 0.51927 0.42210
# Poissons Ratio (y) = 0.13800 0.41329
# Poissons Ratio (z) = 0.12957 0.47738
#
# Static dielectric constant tensor:
#      x y z
#    x 1.623310 0.000000 0.000000 
#    y 0.000000 1.643600 0.000000 
#    z 0.000000 0.000000 1.623120 
# 
# From -- ./inp_files/10979.got.cif
#   From: 2010.05.17/outbox.cif.g08.bks.cpg/sg35_6_cif.got.tgz:10979.got - 2010.06.03 17:29:28.
