data_PCOD9348656
_publ_section_title
;
Structure prediction by ZEFSAII (Michael W. Deem and Ramdas Pophale) SiO2 
 PCOD9348656
Probable space group: C M M 2
;
_chemical_formula_sum "Si O2"
_cell_formula_units_Z 64
_cell_length_a 15.506078
_cell_length_b 23.343220
_cell_length_c 10.031382
_cell_angle_alpha 90.000000
_cell_angle_beta 90.000000
_cell_angle_gamma 90.000000
_cell_volume 3630.976986
_symmetry_space_group_name_H-M "C M M 2"
_symmetry_group_IT_number 35
_symmetry_cell_setting 'orthorhombic'
loop_
_space_group_symop_operation_xyz
x,y,z
-x,-y,z
-x,y,z
x,-y,z
1/2+x,1/2+y,z
1/2-x,1/2-y,z
1/2-x,1/2+y,z
1/2+x,1/2-y,z
loop_
_atom_site_type_symbol
_atom_site_label
_atom_site_fract_x
_atom_site_fract_y
_atom_site_fract_z
Si Si1 0.900816 0.430667 0.823470
Si Si2 0.599706 0.350680 0.662713
Si Si3 0.284243 0.565232 0.315804
Si Si4 0.258609 0.067342 0.612089
Si Si5 0.100314 0.728026 0.166033
Si Si6 0.296918 0.879844 0.069487
Si Si7 0.898819 0.175421 0.363631
Si Si8 0.172815 0.205255 0.921953
O O1 0.899845 0.500000 0.829422
O O2 0.839220 0.412492 0.700759
O O3 0.000000 0.412242 0.807285
O O4 0.859744 0.405748 0.958124
O O5 0.500000 0.370574 0.669228
O O6 0.671188 0.400512 0.654028
O O7 0.609993 0.317705 0.522274
O O8 0.622845 0.312895 0.790219
O O9 0.318656 0.500000 0.321711
O O10 0.230006 0.573859 0.452666
O O11 0.233148 0.574674 0.179103
O O12 0.353724 0.616242 0.322096
O O13 0.247766 0.000000 0.638223
O O14 0.155594 0.671094 0.148705
O O15 0.134082 0.770077 0.281773
O O16 0.000000 0.714615 0.188279
O O17 0.112706 0.763686 0.029722
O O18 0.217233 0.849812 0.992062
O O19 0.000000 0.170597 0.332074
O O20 0.250000 0.250000 0.891192
#
# Coordination Sequence:
#
# PCOD9348656 Si02
#       8
#     8   8   8   8   8   8   8   8
#     4  10  20  36  58  81 110 148 189 234 281 332
#     4  10  19  35  57  82 113 145 180 224 273 330
#     4  10  20  35  56  80 111 148 184 228 277 329
#     4   9  19  36  56  82 111 144 185 228 277 330
#     4  10  20  36  55  77 109 144 181 226 275 333
#     4  11  20  35  55  82 109 144 185 231 279 333
#     4   9  19  35  55  81 111 145 183 224 273 327
#     4  10  20  34  52  79 107 143 179 222 275 325
#
# _framework density 17.626111000000002
#
# number of rings (size 3 to 8) (size 9 to 14) (size 15 to 20)
#    0.000    2.125    2.500    1.125    0.000    0.500 
#    4.500    3.750    0.000    3.000    0.000    0.000 
#    0.000    0.000    0.000    0.000    0.000    0.000 
#
# Total GULP energy -178410.855337 kJ/mol
# GULP energy per Si atom -5575.339229 kJ/mol
# Density = 1.758599 g / cm^3
# Si number density = 17.626111 Si / 1000 Ang^3
#
#
#
# Elastic Constant Matrix: (Units=GPa)
#
#
# Indices 1 2 3 4 5 6 
#
# 1 65.1586 11.9021 34.5371 0.0000 0.0000 0.0000
# 2 11.9021 39.9560 27.0999 0.0000 0.0000 0.0000
# 3 34.5371 27.0999 87.4941 0.0000 0.0000 0.0000
# 4 0.0000 0.0000 0.0000 23.1899 0.0000 0.0000
# 5 0.0000 0.0000 0.0000 0.0000 23.7055 0.0000
# 6 0.0000 0.0000 0.0000 0.0000 0.0000 20.4708
#
#
#
# Elastic Compliance Matrix: (Units=1/GPa)
#
#
# Indices 1 2 3 4 5 6 
#
# 1 0.019425 -0.000741 -0.007438 0.000000 0.000000 0.000000
# 2 -0.000741 0.031712 -0.009530 0.000000 0.000000 0.000000
# 3 -0.007438 -0.009530 0.017317 0.000000 0.000000 0.000000
# 4 0.000000 0.000000 0.000000 0.043122 0.000000 0.000000
# 5 0.000000 0.000000 0.000000 0.000000 0.042184 0.000000
# 6 0.000000 0.000000 0.000000 0.000000 0.000000 0.048850
#
#
# Mechanical properties :
#
#
# Convention : Reuss Voigt Hill
#
# Bulk Modulus (GPa) = 30.27030 37.74300 34.00665
# Shear Modulus (GPa) = 20.07702 21.41121 20.74412
#
# Velocity S-wave (km/s) = 3.37864 3.48910 3.43432
# Velocity P-wave (km/s) = 5.69484 6.13933 5.92125
#
# Compressibility (1/GPa) = 0.03303568
#
# Stress axis : x y z
#
# Youngs Moduli (GPa) = 51.47949 31.53401 57.74640
#
# Poissons Ratio (x) = 0.02338 0.42953
# Poissons Ratio (y) = 0.03817 0.55030
# Poissons Ratio (z) = 0.38291 0.30050
#
# Static dielectric constant tensor:
#      x y z
#    x 1.596830 0.000000 0.000000 
#    y 0.000000 1.590960 0.000000 
#    z 0.000000 0.000000 1.605580 
# 
# From -- ./inp_files/7845.got.cif
#   From: 2010.05.17/outbox.cif.g08.bks.cpg/sg35_4_cif.got.tgz:7845.got - 2010.06.03 17:29:28.
