data_PCOD9348027
_publ_section_title
;
Structure prediction by ZEFSAII (Michael W. Deem and Ramdas Pophale) SiO2 
 PCOD9348027
Probable space group: P N N 2
;
_chemical_formula_sum "Si O2"
_cell_formula_units_Z 16
_cell_length_a 6.973949
_cell_length_b 12.197905
_cell_length_c 7.821048
_cell_angle_alpha 90.000000
_cell_angle_beta 90.000000
_cell_angle_gamma 90.000000
_cell_volume 665.317528
_symmetry_space_group_name_H-M "P N N 2"
_symmetry_group_IT_number 34
_symmetry_cell_setting 'orthorhombic'
loop_
_space_group_symop_operation_xyz
x,y,z
-x,-y,z
1/2-x,1/2+y,1/2+z
1/2+x,1/2-y,1/2+z
loop_
_atom_site_type_symbol
_atom_site_label
_atom_site_fract_x
_atom_site_fract_y
_atom_site_fract_z
Si Si1 0.782918 0.524348 0.118290
Si Si2 0.982815 0.109456 0.929857
Si Si3 0.826641 0.783664 0.497834
Si Si4 0.765424 0.224811 0.361515
O O1 0.647684 0.561955 0.273694
O O2 0.703540 0.411684 0.036750
O O3 0.781357 0.622120 0.980863
O O4 0.000000 0.500000 0.173888
O O5 0.868358 0.222701 0.952568
O O6 0.000000 0.000000 0.046645
O O7 0.149911 0.276983 0.682129
O O8 0.303264 0.656992 0.427362
O O9 0.001662 0.770561 0.366054
#
# Coordination Sequence:
#
# PCOD9348027 Si02
#       4
#     4   4   4   4
#     4  12  24  50  78 107 157 206 254 330 397 462
#     4  12  26  47  73 108 149 201 257 317 394 460
#     4  12  27  47  78 111 155 204 259 323 392 465
#     4  12  25  48  75 110 149 204 256 316 390 467
#
# _framework density 24.048665
#
# number of rings (size 3 to 8) (size 9 to 14) (size 15 to 20)
#    0.000    0.000    7.500    2.250    0.000    2.000 
#    4.500    0.000    0.000    0.000    0.000    0.000 
#    0.000    0.000    0.000    0.000    0.000    0.000 
#
# Total GULP energy -89119.446832 kJ/mol
# GULP energy per Si atom -5569.965427 kJ/mol
# Density = 2.399393 g / cm^3
# Si number density = 24.048665 Si / 1000 Ang^3
#
#
#
# Elastic Constant Matrix: (Units=GPa)
#
#
# Indices 1 2 3 4 5 6 
#
# 1 94.0150 25.7674 2.0811 0.0000 0.0000 0.0000
# 2 25.7674 148.3449 19.4593 0.0000 0.0000 0.0000
# 3 2.0811 19.4593 42.1829 0.0000 0.0000 0.0000
# 4 0.0000 0.0000 0.0000 32.1018 0.0000 0.0000
# 5 0.0000 0.0000 0.0000 0.0000 21.5044 0.0000
# 6 0.0000 0.0000 0.0000 0.0000 0.0000 49.1175
#
#
#
# Elastic Compliance Matrix: (Units=1/GPa)
#
#
# Indices 1 2 3 4 5 6 
#
# 1 0.011174 -0.001989 0.000366 0.000000 0.000000 0.000000
# 2 -0.001989 0.007529 -0.003375 0.000000 0.000000 0.000000
# 3 0.000366 -0.003375 0.025245 0.000000 0.000000 0.000000
# 4 0.000000 0.000000 0.000000 0.031151 0.000000 0.000000
# 5 0.000000 0.000000 0.000000 0.000000 0.046502 0.000000
# 6 0.000000 0.000000 0.000000 0.000000 0.000000 0.020359
#
#
# Mechanical properties :
#
#
# Convention : Reuss Voigt Hill
#
# Bulk Modulus (GPa) = 29.45300 42.12872 35.79086
# Shear Modulus (GPa) = 30.62344 36.36040 33.49192
#
# Velocity S-wave (km/s) = 3.57234 3.89260 3.73590
# Velocity P-wave (km/s) = 5.41196 6.14486 5.79001
#
# Compressibility (1/GPa) = 0.03395239
#
# Stress axis : x y z
#
# Youngs Moduli (GPa) = 89.49663 132.81517 39.61151
#
# Poissons Ratio (x) = 0.26416 -0.01451
# Poissons Ratio (y) = 0.17800 0.13370
# Poissons Ratio (z) = -0.03278 0.44827
#
# Static dielectric constant tensor:
#      x y z
#    x 1.929880 0.000000 0.000000 
#    y 0.000000 1.994960 0.000000 
#    z 0.000000 0.000000 2.263040 
# 
# From -- ./inp_files/4286.got.cif
#   From: 2010.05.17/outbox.cif.g08.bks.cpg/sg34_3_cif.got.tgz:4286.got - 2010.06.03 17:23:11.
