data_PCOD9348826
_publ_section_title
;
Structure prediction by ZEFSAII (Michael W. Deem and Ramdas Pophale) SiO2 
 PCOD9348826
Probable space group: C M M 2
;
_chemical_formula_sum "Si O2"
_cell_formula_units_Z 48
_cell_length_a 9.139696
_cell_length_b 19.279745
_cell_length_c 15.933806
_cell_angle_alpha 90.000000
_cell_angle_beta 90.000000
_cell_angle_gamma 90.000000
_cell_volume 2807.712021
_symmetry_space_group_name_H-M "C M M 2"
_symmetry_group_IT_number 35
_symmetry_cell_setting 'orthorhombic'
loop_
_space_group_symop_operation_xyz
x,y,z
-x,-y,z
-x,y,z
x,-y,z
1/2+x,1/2+y,z
1/2-x,1/2-y,z
1/2-x,1/2+y,z
1/2+x,1/2-y,z
loop_
_atom_site_type_symbol
_atom_site_label
_atom_site_fract_x
_atom_site_fract_y
_atom_site_fract_z
Si Si1 0.824420 0.674795 0.718780
Si Si2 0.172674 0.083241 0.859389
Si Si3 0.324847 0.081694 0.371455
Si Si4 0.168934 0.084574 0.200376
Si Si5 0.824784 0.675949 0.527423
Si Si6 0.668333 0.084447 0.031498
O O1 0.750000 0.750000 0.730167
O O2 0.756927 0.622221 0.785512
O O3 0.791900 0.652297 0.622604
O O4 0.000000 0.679909 0.728318
O O5 0.000000 0.098723 0.856981
O O6 0.190371 0.000000 0.851320
O O7 0.240930 0.104418 0.949075
O O8 0.500000 0.088851 0.360005
O O9 0.244313 0.106302 0.287213
O O10 0.280147 0.123410 0.454279
O O11 0.294065 0.000000 0.382670
O O12 0.256206 0.107793 0.117803
O O13 0.000000 0.105809 0.196625
O O14 0.172499 0.000000 0.199858
O O15 0.750000 0.750000 0.514759
O O16 0.000000 0.684260 0.522657
O O17 0.500000 0.107144 0.026037
O O18 0.668092 0.000000 0.033328
#
# Coordination Sequence:
#
# PCOD9348826 Si02
#       6
#     8   8   8   8   8   8
#     4  10  20  35  54  74  98 131 170 208 249 300
#     4  10  20  33  50  75 105 133 164 206 252 295
#     4   9  17  30  48  71  98 127 161 200 241 285
#     4   9  16  26  42  67  98 129 160 196 240 288
#     4   9  19  34  52  72  95 127 164 202 243 290
#     4   9  16  27  45  69  97 130 165 199 239 290
#
# _framework density 17.095770999999999
#
# number of rings (size 3 to 8) (size 9 to 14) (size 15 to 20)
#    0.000    2.667    0.000    2.000    0.000    7.000 
#    0.000    1.667    0.000    3.000    0.000    4.667 
#    0.000    0.000    0.000    0.000    0.000    0.000 
#
# Total GULP energy -133802.643063 kJ/mol
# GULP energy per Si atom -5575.110128 kJ/mol
# Density = 1.705686 g / cm^3
# Si number density = 17.095771 Si / 1000 Ang^3
#
#
#
# Elastic Constant Matrix: (Units=GPa)
#
#
# Indices 1 2 3 4 5 6 
#
# 1 104.4834 39.9947 94.6726 0.0000 0.0000 0.0000
# 2 39.9947 27.6702 61.7456 0.0000 0.0000 0.0000
# 3 94.6726 61.7456 190.0492 0.0000 0.0000 0.0000
# 4 0.0000 0.0000 0.0000 -13.6663 0.0000 0.0000
# 5 0.0000 0.0000 0.0000 0.0000 28.2003 0.0000
# 6 0.0000 0.0000 0.0000 0.0000 0.0000 20.9711
#
#
#
# Elastic Compliance Matrix: (Units=1/GPa)
#
#
# Indices 1 2 3 4 5 6 
#
# 1 0.021686 -0.026322 -0.002251 0.000000 0.000000 0.000000
# 2 -0.026322 0.163364 -0.039963 0.000000 0.000000 0.000000
# 3 -0.002251 -0.039963 0.019367 0.000000 0.000000 0.000000
# 4 0.000000 0.000000 0.000000 -0.073173 0.000000 0.000000
# 5 0.000000 0.000000 0.000000 0.000000 0.035461 0.000000
# 6 0.000000 0.000000 0.000000 0.000000 0.000000 0.047685
#
#
# Mechanical properties :
#
#
# Convention : Reuss Voigt Hill
#
# Bulk Modulus (GPa) = 14.84916 79.44762 47.14839
# Shear Modulus (GPa) = 13.37213 15.48703 14.42958
#
# Velocity S-wave (km/s) = 2.79980 3.01308 2.90839
# Velocity P-wave (km/s) = 4.37682 7.66015 6.23836
#
# Compressibility (1/GPa) = 0.06734387
#
# Stress axis : x y z
#
# Youngs Moduli (GPa) = 46.11175 6.12129 51.63432
#
# Poissons Ratio (x) = 0.16113 0.11623
# Poissons Ratio (y) = 1.21378 2.06348
# Poissons Ratio (z) = 0.10380 0.24463
#
# Static dielectric constant tensor:
#      x y z
#    x 1.571020 0.000000 0.000000 
#    y 0.000000 1.553170 0.000000 
#    z 0.000000 0.000000 1.572510 
# 
# From -- ./inp_files/11360.got.cif
#   From: 2010.05.17/outbox.cif.g08.bks.cpg/sg35_6_cif.got.tgz:11360.got - 2010.06.03 17:29:28.
