data_PCOD9348202
_publ_section_title
;
Structure prediction by ZEFSAII (Michael W. Deem and Ramdas Pophale) SiO2 
 PCOD9348202
Probable space group: C M M 2
;
_chemical_formula_sum "Si O2"
_cell_formula_units_Z 64
_cell_length_a 8.167174
_cell_length_b 29.222504
_cell_length_c 14.259044
_cell_angle_alpha 90.000000
_cell_angle_beta 90.000000
_cell_angle_gamma 90.000000
_cell_volume 3403.138656
_symmetry_space_group_name_H-M "C M M 2"
_symmetry_group_IT_number 35
_symmetry_cell_setting 'orthorhombic'
loop_
_space_group_symop_operation_xyz
x,y,z
-x,-y,z
-x,y,z
x,-y,z
1/2+x,1/2+y,z
1/2-x,1/2-y,z
1/2-x,1/2+y,z
1/2+x,1/2-y,z
loop_
_atom_site_type_symbol
_atom_site_label
_atom_site_fract_x
_atom_site_fract_y
_atom_site_fract_z
Si Si1 0.812780 0.126435 0.182410
Si Si2 0.688614 0.199360 0.827444
Si Si3 0.302387 0.447173 0.040712
Si Si4 0.811415 0.300656 0.050384
Si Si5 0.185880 0.873707 0.695036
Si Si6 0.697960 0.699105 0.330050
Si Si7 0.697873 0.300883 0.547248
Si Si8 0.694483 0.052065 0.835093
O O1 0.738472 0.082488 0.128933
O O2 0.805929 0.163779 0.099964
O O3 0.740400 0.156016 0.268663
O O4 0.000000 0.114804 0.208420
O O5 0.500000 0.192658 0.796754
O O6 0.750000 0.250000 0.805931
O O7 0.804371 0.163568 0.777613
O O8 0.693160 0.193592 0.938891
O O9 0.500000 0.446246 0.045678
O O10 0.247123 0.500000 0.046024
O O11 0.256445 0.429654 0.936322
O O12 0.750000 0.250000 0.071749
O O13 0.000000 0.307106 0.081222
O O14 0.258576 0.843997 0.608684
O O15 0.264576 0.917704 0.744237
O O16 0.000000 0.885656 0.670600
O O17 0.500000 0.698172 0.325888
O O18 0.750000 0.750000 0.297077
O O19 0.749416 0.694997 0.438663
O O20 0.500000 0.301814 0.551498
O O21 0.750000 0.250000 0.580277
O O22 0.500000 0.050654 0.843169
O O23 0.758716 0.000000 0.825357
#
# Coordination Sequence:
#
# PCOD9348202 Si02
#       8
#     8   8   8   8   8   8   8   8
#     4  10  19  30  48  71  95 125 160 199 241 285
#     4  10  20  32  45  65  96 131 163 196 237 287
#     4   9  18  33  52  74 100 130 164 201 242 290
#     4  10  20  31  43  62  92 126 157 190 230 281
#     4  11  21  32  50  73  96 126 163 203 247 294
#     4   9  18  33  50  70  98 129 162 201 243 288
#     4   9  19  34  51  72  99 130 164 202 244 290
#     4  10  21  36  53  74 100 130 164 203 247 294
#
# _framework density 18.806168
#
# number of rings (size 3 to 8) (size 9 to 14) (size 15 to 20)
#    0.000    2.250    0.000    3.000    0.000    8.250 
#    0.000    0.000    0.000    0.750    0.000    3.500 
#    0.000    2.000    0.000    0.000    0.000    0.000 
#
# Total GULP energy -178342.541003 kJ/mol
# GULP energy per Si atom -5573.204406 kJ/mol
# Density = 1.876336 g / cm^3
# Si number density = 18.806168 Si / 1000 Ang^3
#
#
#
# Elastic Constant Matrix: (Units=GPa)
#
#
# Indices 1 2 3 4 5 6 
#
# 1 22.6267 -4.0124 10.5056 0.0000 0.0000 0.0000
# 2 -4.0124 85.3114 51.4726 0.0000 0.0000 0.0000
# 3 10.5056 51.4726 102.7092 0.0000 0.0000 0.0000
# 4 0.0000 0.0000 0.0000 35.7337 0.0000 0.0000
# 5 0.0000 0.0000 0.0000 0.0000 15.7957 0.0000
# 6 0.0000 0.0000 0.0000 0.0000 0.0000 19.0031
#
#
#
# Elastic Compliance Matrix: (Units=1/GPa)
#
#
# Indices 1 2 3 4 5 6 
#
# 1 0.049736 0.007753 -0.008973 0.000000 0.000000 0.000000
# 2 0.007753 0.018011 -0.009819 0.000000 0.000000 0.000000
# 3 -0.008973 -0.009819 0.015575 0.000000 0.000000 0.000000
# 4 0.000000 0.000000 0.000000 0.027985 0.000000 0.000000
# 5 0.000000 0.000000 0.000000 0.000000 0.063308 0.000000
# 6 0.000000 0.000000 0.000000 0.000000 0.000000 0.052623
#
#
# Mechanical properties :
#
#
# Convention : Reuss Voigt Hill
#
# Bulk Modulus (GPa) = 16.32808 36.28655 26.30732
# Shear Modulus (GPa) = 18.53704 24.28527 21.41115
#
# Velocity S-wave (km/s) = 3.14297 3.59743 3.37785
# Velocity P-wave (km/s) = 4.67677 6.04915 5.40668
#
# Compressibility (1/GPa) = 0.06124417
#
# Stress axis : x y z
#
# Youngs Moduli (GPa) = 20.10603 55.52255 64.20636
#
# Poissons Ratio (x) = -0.43046 0.57610
# Poissons Ratio (y) = -0.15588 0.63044
# Poissons Ratio (z) = 0.18040 0.54518
#
# Static dielectric constant tensor:
#      x y z
#    x 1.693390 0.000000 0.000000 
#    y 0.000000 1.674130 0.000000 
#    z 0.000000 0.000000 1.674770 
# 
# From -- ./inp_files/16153.got.cif
#   From: 2010.05.17/outbox.cif.g08.bks.cpg/sg35_9_cif.got.tgz:16153.got - 2010.06.03 17:29:28.
