data_PCOD9348392
_publ_section_title
;
Structure prediction by ZEFSAII (Michael W. Deem and Ramdas Pophale) SiO2 
 PCOD9348392
Probable space group: C M M 2
;
_chemical_formula_sum "Si O2"
_cell_formula_units_Z 44
_cell_length_a 9.095786
_cell_length_b 23.825331
_cell_length_c 11.840657
_cell_angle_alpha 90.000000
_cell_angle_beta 90.000000
_cell_angle_gamma 90.000000
_cell_volume 2565.990106
_symmetry_space_group_name_H-M "C M M 2"
_symmetry_group_IT_number 35
_symmetry_cell_setting 'orthorhombic'
loop_
_space_group_symop_operation_xyz
x,y,z
-x,-y,z
-x,y,z
x,-y,z
1/2+x,1/2+y,z
1/2-x,1/2-y,z
1/2-x,1/2+y,z
1/2+x,1/2-y,z
loop_
_atom_site_type_symbol
_atom_site_label
_atom_site_fract_x
_atom_site_fract_y
_atom_site_fract_z
Si Si1 0.174497 0.688861 0.087280
Si Si2 0.337622 0.655174 0.873991
Si Si3 0.250000 0.250000 0.698684
Si Si4 0.175606 0.188528 0.310034
Si Si5 0.333708 0.151965 0.530193
Si Si6 0.329464 0.434252 0.683538
O O1 0.250000 0.750000 0.076292
O O2 0.251649 0.662309 0.197562
O O3 0.000000 0.693628 0.102826
O O4 0.215828 0.659695 0.969954
O O5 0.500000 0.657123 0.927282
O O6 0.329933 0.706939 0.784568
O O7 0.320790 0.598741 0.801863
O O8 0.328708 0.206427 0.613348
O O9 0.250000 0.250000 0.317491
O O10 0.224162 0.159619 0.425700
O O11 0.000000 0.192563 0.300001
O O12 0.500000 0.145991 0.488888
O O13 0.279306 0.098757 0.601268
O O14 0.500000 0.427379 0.645151
O O15 0.298340 0.500000 0.692666
#
# Coordination Sequence:
#
# PCOD9348392 Si02
#       6
#     8   8   4   8   8   8
#     4  11  21  33  50  74 107 142 176 214 260 315
#     4  10  19  32  52  77 106 139 175 216 261 314
#     4  10  20  30  50  74 112 138 174 208 266 316
#     4  11  21  34  52  75 107 143 178 215 260 318
#     4  11  21  33  53  80 110 141 176 221 267 316
#     4   9  20  38  57  78 106 142 182 222 267 317
#
# _framework density 17.147376999999999
#
# number of rings (size 3 to 8) (size 9 to 14) (size 15 to 20)
#    0.000    1.636    1.818    5.455    0.000    4.727 
#    0.000    0.000    0.000    1.091    0.000    2.545 
#    0.000    0.000    0.000    0.000    0.000    0.000 
#
# Total GULP energy -122647.473217 kJ/mol
# GULP energy per Si atom -5574.885146 kJ/mol
# Density = 1.710835 g / cm^3
# Si number density = 17.147377 Si / 1000 Ang^3
#
#
#
# Elastic Constant Matrix: (Units=GPa)
#
#
# Indices 1 2 3 4 5 6 
#
# 1 146.1573 28.3936 48.8422 0.0000 0.0000 0.0000
# 2 28.3936 88.3867 22.9733 0.0000 0.0000 0.0000
# 3 48.8422 22.9733 87.4255 0.0000 0.0000 0.0000
# 4 0.0000 0.0000 0.0000 10.6979 0.0000 0.0000
# 5 0.0000 0.0000 0.0000 0.0000 26.9987 0.0000
# 6 0.0000 0.0000 0.0000 0.0000 0.0000 13.1991
#
#
#
# Elastic Compliance Matrix: (Units=1/GPa)
#
#
# Indices 1 2 3 4 5 6 
#
# 1 0.008626 -0.001630 -0.004391 0.000000 0.000000 0.000000
# 2 -0.001630 0.012451 -0.002361 0.000000 0.000000 0.000000
# 3 -0.004391 -0.002361 0.014512 0.000000 0.000000 0.000000
# 4 0.000000 0.000000 0.000000 0.093476 0.000000 0.000000
# 5 0.000000 0.000000 0.000000 0.000000 0.037039 0.000000
# 6 0.000000 0.000000 0.000000 0.000000 0.000000 0.075763
#
#
# Mechanical properties :
#
#
# Convention : Reuss Voigt Hill
#
# Bulk Modulus (GPa) = 53.12058 58.04310 55.58184
# Shear Modulus (GPa) = 18.87467 24.96316 21.91891
#
# Velocity S-wave (km/s) = 3.32133 3.81963 3.57916
# Velocity P-wave (km/s) = 6.76420 7.30588 7.04025
#
# Compressibility (1/GPa) = 0.01882510
#
# Stress axis : x y z
#
# Youngs Moduli (GPa) = 115.93076 80.31331 68.90929
#
# Poissons Ratio (x) = 0.13089 0.30256
# Poissons Ratio (y) = 0.18894 0.16272
# Poissons Ratio (z) = 0.50902 0.18965
#
# Static dielectric constant tensor:
#      x y z
#    x 1.600100 0.000000 0.000000 
#    y 0.000000 1.553940 0.000000 
#    z 0.000000 0.000000 1.622400 
# 
# From -- ./inp_files/11369.got.cif
#   From: 2010.05.17/outbox.cif.g08.bks.cpg/sg35_6_cif.got.tgz:11369.got - 2010.06.03 17:29:28.
