data_PCOD9348193
_publ_section_title
;
Structure prediction by ZEFSAII (Michael W. Deem and Ramdas Pophale) SiO2 
 PCOD9348193
Probable space group: C M M 2
;
_chemical_formula_sum "Si O2"
_cell_formula_units_Z 52
_cell_length_a 23.843787
_cell_length_b 9.224038
_cell_length_c 14.657058
_cell_angle_alpha 90.000000
_cell_angle_beta 90.000000
_cell_angle_gamma 90.000000
_cell_volume 3223.614669
_symmetry_space_group_name_H-M "C M M 2"
_symmetry_group_IT_number 35
_symmetry_cell_setting 'orthorhombic'
loop_
_space_group_symop_operation_xyz
x,y,z
-x,-y,z
-x,y,z
x,-y,z
1/2+x,1/2+y,z
1/2-x,1/2-y,z
1/2-x,1/2+y,z
1/2+x,1/2-y,z
loop_
_atom_site_type_symbol
_atom_site_label
_atom_site_fract_x
_atom_site_fract_y
_atom_site_fract_z
Si Si1 0.849866 0.665262 0.899480
Si Si2 0.250000 0.750000 0.032400
Si Si3 0.689870 0.328270 0.725132
Si Si4 0.310828 0.172775 0.346658
Si Si5 0.565482 0.332347 0.024438
Si Si6 0.843371 0.160000 0.175598
Si Si7 0.188768 0.826354 0.522770
O O1 0.858028 0.500000 0.872295
O O2 0.842590 0.763622 0.810538
O O3 0.794060 0.673258 0.963882
O O4 0.901522 0.726440 0.957411
O O5 0.207619 0.830984 0.102022
O O6 0.697990 0.500000 0.736108
O O7 0.750000 0.250000 0.726776
O O8 0.663992 0.304399 0.624119
O O9 0.250000 0.250000 0.339438
O O10 0.339197 0.217867 0.252000
O O11 0.338544 0.246622 0.436094
O O12 0.306067 0.000000 0.356676
O O13 0.500000 0.299485 0.033444
O O14 0.571235 0.500000 0.992445
O O15 0.599478 0.325586 0.119078
O O16 0.840219 0.000000 0.218934
O O17 0.250000 0.750000 0.528002
O O18 0.193992 0.000000 0.507594
#
# Coordination Sequence:
#
# PCOD9348193 Si02
#       7
#     8   4   8   8   8   8   8
#     4  11  21  31  49  74 101 131 164 202 246 292
#     4  10  20  30  46  68 100 130 160 196 240 288
#     4  10  19  30  46  69  98 131 165 199 239 289
#     4  11  20  29  44  67  97 129 162 196 238 287
#     4   9  20  38  55  71  95 128 167 208 248 291
#     4  10  19  31  49  70  96 127 161 198 240 288
#     4   9  17  29  44  63  92 129 164 196 233 281
#
# _framework density 16.130960999999999
#
# number of rings (size 3 to 8) (size 9 to 14) (size 15 to 20)
#    0.000    2.000    1.538    4.154    0.000    5.846 
#    0.000    0.000    0.000    0.000    0.000    1.077 
#    0.000    3.692    0.000    0.000    0.000    0.000 
#
# Total GULP energy -144797.846220 kJ/mol
# GULP energy per Si atom -5569.147932 kJ/mol
# Density = 1.609425 g / cm^3
# Si number density = 16.130961 Si / 1000 Ang^3
#
#
#
# Elastic Constant Matrix: (Units=GPa)
#
#
# Indices 1 2 3 4 5 6 
#
# 1 72.2921 26.4982 22.9400 0.0000 0.0000 0.0000
# 2 26.4982 120.5560 57.1533 0.0000 0.0000 0.0000
# 3 22.9400 57.1533 101.4680 0.0000 0.0000 0.0000
# 4 0.0000 0.0000 0.0000 25.7867 0.0000 0.0000
# 5 0.0000 0.0000 0.0000 0.0000 8.4919 0.0000
# 6 0.0000 0.0000 0.0000 0.0000 0.0000 11.9856
#
#
#
# Elastic Compliance Matrix: (Units=1/GPa)
#
#
# Indices 1 2 3 4 5 6 
#
# 1 0.015380 -0.002363 -0.002146 0.000000 0.000000 0.000000
# 2 -0.002363 0.011680 -0.006045 0.000000 0.000000 0.000000
# 3 -0.002146 -0.006045 0.013745 0.000000 0.000000 0.000000
# 4 0.000000 0.000000 0.000000 0.038780 0.000000 0.000000
# 5 0.000000 0.000000 0.000000 0.000000 0.117759 0.000000
# 6 0.000000 0.000000 0.000000 0.000000 0.000000 0.083434
#
#
# Mechanical properties :
#
#
# Convention : Reuss Voigt Hill
#
# Bulk Modulus (GPa) = 50.76783 56.38879 53.57831
# Shear Modulus (GPa) = 16.21003 21.76781 18.98892
#
# Velocity S-wave (km/s) = 3.17346 3.67746 3.43472
# Velocity P-wave (km/s) = 6.70585 7.28453 7.00117
#
# Compressibility (1/GPa) = 0.01969751
#
# Stress axis : x y z
#
# Youngs Moduli (GPa) = 65.01978 85.61667 72.75237
#
# Poissons Ratio (x) = 0.20232 0.15613
# Poissons Ratio (y) = 0.15365 0.43976
# Poissons Ratio (z) = 0.13954 0.51752
#
# Static dielectric constant tensor:
#      x y z
#    x 1.506690 0.000000 0.000000 
#    y 0.000000 1.554150 0.000000 
#    z 0.000000 0.000000 1.596270 
# 
# From -- ./inp_files/17534.got.cif
#   From: 2010.05.17/outbox.cif.g08.bks.cpg/sg35_9_cif.got.tgz:17534.got - 2010.06.03 17:29:28.
