data_PCOD9348914
_publ_section_title
;
Structure prediction by ZEFSAII (Michael W. Deem and Ramdas Pophale) SiO2 
 PCOD9348914
Probable space group: C M M 2
;
_chemical_formula_sum "Si O2"
_cell_formula_units_Z 64
_cell_length_a 8.666631
_cell_length_b 29.213650
_cell_length_c 16.087799
_cell_angle_alpha 90.000000
_cell_angle_beta 90.000000
_cell_angle_gamma 90.000000
_cell_volume 4073.172091
_symmetry_space_group_name_H-M "C M M 2"
_symmetry_group_IT_number 35
_symmetry_cell_setting 'orthorhombic'
loop_
_space_group_symop_operation_xyz
x,y,z
-x,-y,z
-x,y,z
x,-y,z
1/2+x,1/2+y,z
1/2-x,1/2-y,z
1/2-x,1/2+y,z
1/2+x,1/2-y,z
loop_
_atom_site_type_symbol
_atom_site_label
_atom_site_fract_x
_atom_site_fract_y
_atom_site_fract_z
Si Si1 0.684128 0.200999 0.916790
Si Si2 0.315451 0.054054 0.010381
Si Si3 0.687337 0.053839 0.696845
Si Si4 0.679064 0.055559 0.514428
Si Si5 0.187263 0.553624 0.332381
Si Si6 0.684759 0.395899 0.172678
Si Si7 0.684849 0.298478 0.102994
Si Si8 0.816249 0.891448 0.852764
O O1 0.500000 0.202193 0.918159
O O2 0.750000 0.250000 0.888992
O O3 0.744135 0.158832 0.862861
O O4 0.745462 0.193899 0.011032
O O5 0.500000 0.059881 0.004987
O O6 0.238908 0.079334 0.932465
O O7 0.281027 0.000000 0.008635
O O8 0.255751 0.076113 0.095647
O O9 0.500000 0.056985 0.698304
O O10 0.743721 0.068644 0.604564
O O11 0.757243 0.083494 0.770229
O O12 0.725057 0.000000 0.708553
O O13 0.500000 0.070259 0.514524
O O14 0.744343 0.068660 0.424383
O O15 0.678357 0.000000 0.514271
O O16 0.228524 0.500000 0.319896
O O17 0.252352 0.583769 0.258248
O O18 0.000000 0.555641 0.332388
O O19 0.500000 0.400322 0.169738
O O20 0.723694 0.342476 0.158425
O O21 0.500000 0.295409 0.095041
O O22 0.750000 0.250000 0.133830
O O23 0.000000 0.888329 0.853294
#
# Coordination Sequence:
#
# PCOD9348914 Si02
#       8
#     8   8   8   8   8   8   8   8
#     4  11  21  35  55  74  95 124 161 205 249 291
#     4  11  23  36  49  66  92 131 174 206 236 282
#     4   9  17  31  51  73  98 130 168 206 246 293
#     4   7  12  26  48  71  94 123 162 207 246 283
#     4   9  17  30  49  72  98 130 168 204 239 286
#     4  11  22  33  47  70 100 130 161 198 246 296
#     4  10  20  34  51  71  94 123 160 204 249 293
#     4  12  23  34  48  71 101 132 165 200 244 294
#
# _framework density 15.712569
#
# number of rings (size 3 to 8) (size 9 to 14) (size 15 to 20)
#    0.000    2.000    1.250    6.375    0.000    6.000 
#    0.000    0.625    0.000    2.250    0.000    0.875 
#    0.000    2.000    0.000    0.000    0.000    0.000 
#
# Total GULP energy -178510.289329 kJ/mol
# GULP energy per Si atom -5578.446542 kJ/mol
# Density = 1.567681 g / cm^3
# Si number density = 15.712569 Si / 1000 Ang^3
#
#
#
# Elastic Constant Matrix: (Units=GPa)
#
#
# Indices 1 2 3 4 5 6 
#
# 1 65.1558 55.3580 42.8991 0.0000 0.0000 0.0000
# 2 55.3580 116.1249 76.8945 0.0000 0.0000 0.0000
# 3 42.8991 76.8945 144.6543 0.0000 0.0000 0.0000
# 4 0.0000 0.0000 0.0000 3.2050 0.0000 0.0000
# 5 0.0000 0.0000 0.0000 0.0000 2.8621 0.0000
# 6 0.0000 0.0000 0.0000 0.0000 0.0000 25.0529
#
#
#
# Elastic Compliance Matrix: (Units=1/GPa)
#
#
# Indices 1 2 3 4 5 6 
#
# 1 0.026075 -0.011281 -0.001737 0.000000 0.000000 0.000000
# 2 -0.011281 0.018169 -0.006313 0.000000 0.000000 0.000000
# 3 -0.001737 -0.006313 0.010784 0.000000 0.000000 0.000000
# 4 0.000000 0.000000 0.000000 0.312009 0.000000 0.000000
# 5 0.000000 0.000000 0.000000 0.000000 0.349393 0.000000
# 6 0.000000 0.000000 0.000000 0.000000 0.000000 0.039915
#
#
# Mechanical properties :
#
#
# Convention : Reuss Voigt Hill
#
# Bulk Modulus (GPa) = 61.09315 75.13756 68.11535
# Shear Modulus (GPa) = 6.24639 16.27625 11.26132
#
# Velocity S-wave (km/s) = 1.99601 3.22199 2.68004
# Velocity P-wave (km/s) = 6.65418 7.85910 7.28161
#
# Compressibility (1/GPa) = 0.01636845
#
# Stress axis : x y z
#
# Youngs Moduli (GPa) = 38.35032 55.03840 92.73180
#
# Poissons Ratio (x) = 0.62086 0.16104
# Poissons Ratio (y) = 0.43261 0.58540
# Poissons Ratio (z) = 0.06660 0.34745
#
# Static dielectric constant tensor:
#      x y z
#    x 1.528830 0.000000 0.000000 
#    y 0.000000 1.514160 0.000000 
#    z 0.000000 0.000000 1.524930 
# 
# From -- ./inp_files/16228.got.cif
#   From: 2010.05.17/outbox.cif.g08.bks.cpg/sg35_9_cif.got.tgz:16228.got - 2010.06.03 17:29:28.
