data_PCOD9348242
_publ_section_title
;
Structure prediction by ZEFSAII (Michael W. Deem and Ramdas Pophale) SiO2 
 PCOD9348242
Probable space group: C M M 2
;
_chemical_formula_sum "Si O2"
_cell_formula_units_Z 40
_cell_length_a 18.651333
_cell_length_b 8.518100
_cell_length_c 13.765557
_cell_angle_alpha 90.000000
_cell_angle_beta 90.000000
_cell_angle_gamma 90.000000
_cell_volume 2186.987996
_symmetry_space_group_name_H-M "C M M 2"
_symmetry_group_IT_number 35
_symmetry_cell_setting 'orthorhombic'
loop_
_space_group_symop_operation_xyz
x,y,z
-x,-y,z
-x,y,z
x,-y,z
1/2+x,1/2+y,z
1/2-x,1/2-y,z
1/2-x,1/2+y,z
1/2+x,1/2-y,z
loop_
_atom_site_type_symbol
_atom_site_label
_atom_site_fract_x
_atom_site_fract_y
_atom_site_fract_z
Si Si1 0.331379 0.311940 0.751780
Si Si2 0.582269 0.689759 0.942179
Si Si3 0.168227 0.310674 0.338972
Si Si4 0.168432 0.688564 0.126616
Si Si5 0.167821 0.311467 0.548698
O O1 0.328961 0.500000 0.750376
O O2 0.250000 0.250000 0.760308
O O3 0.376436 0.258352 0.844885
O O4 0.136807 0.245345 0.648802
O O5 0.500000 0.742333 0.941020
O O6 0.583345 0.500000 0.942544
O O7 0.622284 0.748214 0.037990
O O8 0.169424 0.500000 0.339574
O O9 0.250000 0.250000 0.339028
O O10 0.138807 0.262002 0.233538
O O11 0.135921 0.262603 0.443550
O O12 0.169937 0.500000 0.123093
O O13 0.250000 0.750000 0.118264
O O14 0.168441 0.500000 0.554223
O O15 0.250000 0.250000 0.547539
#
# Coordination Sequence:
#
# PCOD9348242 Si02
#       5
#     8   8   8   8   8
#     4  10  19  31  49  72  97 125 158 198 241 286
#     4  10  22  38  52  68  95 130 166 207 252 292
#     4   8  15  26  42  68  99 126 152 188 234 280
#     4  10  19  32  52  77 102 129 163 201 241 288
#     4   9  15  25  43  68  98 126 153 189 233 281
#
# _framework density 18.289994
#
# number of rings (size 3 to 8) (size 9 to 14) (size 15 to 20)
#    0.000    2.600    0.000    3.600    0.000    5.200 
#    0.000    0.000    0.000    1.200    0.000    5.600 
#    0.000    0.000    0.000    0.000    0.000    0.000 
#
# Total GULP energy -111387.505541 kJ/mol
# GULP energy per Si atom -5569.375277 kJ/mol
# Density = 1.824837 g / cm^3
# Si number density = 18.289994 Si / 1000 Ang^3
#
#
#
# Elastic Constant Matrix: (Units=GPa)
#
#
# Indices 1 2 3 4 5 6 
#
# 1 54.9156 13.7018 70.3743 0.0000 0.0000 0.0000
# 2 13.7018 26.4204 34.1865 0.0000 0.0000 0.0000
# 3 70.3743 34.1865 249.0611 0.0000 0.0000 0.0000
# 4 0.0000 0.0000 0.0000 -491.0825 0.0000 0.0000
# 5 0.0000 0.0000 0.0000 0.0000 -5.5187 0.0000
# 6 0.0000 0.0000 0.0000 0.0000 0.0000 12.3268
#
#
#
# Elastic Compliance Matrix: (Units=1/GPa)
#
#
# Indices 1 2 3 4 5 6 
#
# 1 0.029173 -0.005427 -0.007498 0.000000 0.000000 0.000000
# 2 -0.005427 0.047033 -0.004922 0.000000 0.000000 0.000000
# 3 -0.007498 -0.004922 0.006809 0.000000 0.000000 0.000000
# 4 0.000000 0.000000 0.000000 -0.002036 0.000000 0.000000
# 5 0.000000 0.000000 0.000000 0.000000 -0.181203 0.000000
# 6 0.000000 0.000000 0.000000 0.000000 0.000000 0.081124
#
#
# Mechanical properties :
#
#
# Convention : Reuss Voigt Hill
#
# Bulk Modulus (GPa) = 21.13261 62.99136 42.06199
# Shear Modulus (GPa) = 154.47223 -82.71256 35.87983
#
# Velocity S-wave (km/s) = 9.20003 -6.73209 4.43394
# Velocity P-wave (km/s) = 11.15497 5.09047 7.01856
#
# Compressibility (1/GPa) = 0.04732022
#
# Stress axis : x y z
#
# Youngs Moduli (GPa) = 34.27877 21.26150 146.85678
#
# Poissons Ratio (x) = 0.11539 1.10113
# Poissons Ratio (y) = 0.18604 0.72288
# Poissons Ratio (z) = 0.25702 0.10466
#
# Static dielectric constant tensor:
#      x y z
#    x 1.584860 0.000000 0.000000 
#    y 0.000000 1.625570 0.000000 
#    z 0.000000 0.000000 1.705310 
# 
# From -- ./inp_files/12764.got.cif
#   From: 2010.05.17/outbox.cif.g08.bks.cpg/sg35_7_cif.got.tgz:12764.got - 2010.06.03 17:29:28.
