data_PCOD9348718
_publ_section_title
;
Structure prediction by ZEFSAII (Michael W. Deem and Ramdas Pophale) SiO2 
 PCOD9348718
Probable space group: C M M 2
;
_chemical_formula_sum "Si O2"
_cell_formula_units_Z 56
_cell_length_a 14.863674
_cell_length_b 17.898878
_cell_length_c 9.727932
_cell_angle_alpha 90.000000
_cell_angle_beta 90.000000
_cell_angle_gamma 90.000000
_cell_volume 2588.049065
_symmetry_space_group_name_H-M "C M M 2"
_symmetry_group_IT_number 35
_symmetry_cell_setting 'orthorhombic'
loop_
_space_group_symop_operation_xyz
x,y,z
-x,-y,z
-x,y,z
x,-y,z
1/2+x,1/2+y,z
1/2-x,1/2-y,z
1/2-x,1/2+y,z
1/2+x,1/2-y,z
loop_
_atom_site_type_symbol
_atom_site_label
_atom_site_fract_x
_atom_site_fract_y
_atom_site_fract_z
Si Si1 0.285323 0.582984 0.637430
Si Si2 0.244324 0.417031 0.309704
Si Si3 0.645970 0.725465 0.547432
Si Si4 0.097055 0.353381 0.737598
Si Si5 0.604179 0.584725 0.075062
Si Si6 0.599583 0.786976 0.275237
Si Si7 0.356130 0.736897 0.972076
O O1 0.315847 0.500000 0.676156
O O2 0.268463 0.583034 0.471401
O O3 0.355538 0.651849 0.641512
O O4 0.190166 0.601124 0.714006
O O5 0.205959 0.500000 0.280321
O O6 0.326958 0.407694 0.203268
O O7 0.174043 0.350801 0.289467
O O8 0.750000 0.750000 0.550739
O O9 0.595738 0.795674 0.611142
O O10 0.616499 0.723303 0.389787
O O11 0.000000 0.393763 0.743899
O O12 0.104845 0.297006 0.866436
O O13 0.500000 0.592590 0.119198
O O14 0.615769 0.500000 0.022275
O O15 0.624631 0.648534 0.962839
O O16 0.500000 0.817893 0.295678
O O17 0.608405 0.755145 0.123542
O O18 0.250000 0.750000 0.966325
#
# Coordination Sequence:
#
# PCOD9348718 Si02
#       7
#     8   8   8   8   8   8   8
#     4  10  21  38  63  88 121 168 209 252 315 384
#     4  10  20  37  62  95 132 167 208 263 323 384
#     4  10  19  37  61  85 120 160 207 258 306 370
#     4  11  23  40  61  91 121 159 215 265 311 374
#     4  10  21  39  64  96 133 171 213 267 331 390
#     4  12  22  36  62  95 129 169 212 262 322 382
#     4  12  23  40  63  90 125 168 213 266 321 386
#
# _framework density 21.637922
#
# number of rings (size 3 to 8) (size 9 to 14) (size 15 to 20)
#    0.000    1.286    4.286    4.286    0.000    0.571 
#    0.000    5.714    0.000    5.143    0.000    0.000 
#    0.000    0.000    0.000    0.000    0.000    0.000 
#
# Total GULP energy -156276.679911 kJ/mol
# GULP energy per Si atom -5581.309997 kJ/mol
# Density = 2.158867 g / cm^3
# Si number density = 21.637922 Si / 1000 Ang^3
#
#
#
# Elastic Constant Matrix: (Units=GPa)
#
#
# Indices 1 2 3 4 5 6 
#
# 1 102.3666 11.5495 1.5893 0.0000 0.0000 0.0000
# 2 11.5495 107.1536 4.3105 0.0000 0.0000 0.0000
# 3 1.5893 4.3105 94.6731 0.0000 0.0000 0.0000
# 4 0.0000 0.0000 0.0000 14.1518 0.0000 0.0000
# 5 0.0000 0.0000 0.0000 0.0000 0.8348 0.0000
# 6 0.0000 0.0000 0.0000 0.0000 0.0000 4.8782
#
#
#
# Elastic Compliance Matrix: (Units=1/GPa)
#
#
# Indices 1 2 3 4 5 6 
#
# 1 0.009890 -0.001061 -0.000118 0.000000 0.000000 0.000000
# 2 -0.001061 0.009463 -0.000413 0.000000 0.000000 0.000000
# 3 -0.000118 -0.000413 0.010583 0.000000 0.000000 0.000000
# 4 0.000000 0.000000 0.000000 0.070662 0.000000 0.000000
# 5 0.000000 0.000000 0.000000 0.000000 1.197825 0.000000
# 6 0.000000 0.000000 0.000000 0.000000 0.000000 0.204994
#
#
# Mechanical properties :
#
#
# Convention : Reuss Voigt Hill
#
# Bulk Modulus (GPa) = 37.37885 37.67689 37.52787
# Shear Modulus (GPa) = 3.29920 23.08924 13.19422
#
# Velocity S-wave (km/s) = 1.23614 3.27015 2.47204
# Velocity P-wave (km/s) = 4.39882 5.63105 5.05264
#
# Compressibility (1/GPa) = 0.02675310
#
# Stress axis : x y z
#
# Youngs Moduli (GPa) = 101.10837 105.67026 94.48721
#
# Poissons Ratio (x) = 0.11215 0.01112
# Poissons Ratio (y) = 0.10731 0.03903
# Poissons Ratio (z) = 0.01190 0.04365
#
# Static dielectric constant tensor:
#      x y z
#    x 2.049890 0.000000 0.000000 
#    y 0.000000 1.852270 0.000000 
#    z 0.000000 0.000000 1.816650 
# 
# From -- ./inp_files/7653.got.cif
#   From: 2010.05.17/outbox.cif.g08.bks.cpg/sg35_4_cif.got.tgz:7653.got - 2010.06.03 17:29:28.
