data_PCOD9348740
_publ_section_title
;
Structure prediction by ZEFSAII (Michael W. Deem and Ramdas Pophale) SiO2 
 PCOD9348740
Probable space group: C M M 2
;
_chemical_formula_sum "Si O2"
_cell_formula_units_Z 64
_cell_length_a 8.996357
_cell_length_b 30.873945
_cell_length_c 15.543245
_cell_angle_alpha 90.000000
_cell_angle_beta 90.000000
_cell_angle_gamma 90.000000
_cell_volume 4317.183414
_symmetry_space_group_name_H-M "C M M 2"
_symmetry_group_IT_number 35
_symmetry_cell_setting 'orthorhombic'
loop_
_space_group_symop_operation_xyz
x,y,z
-x,-y,z
-x,y,z
x,-y,z
1/2+x,1/2+y,z
1/2-x,1/2-y,z
1/2-x,1/2+y,z
1/2+x,1/2-y,z
loop_
_atom_site_type_symbol
_atom_site_label
_atom_site_fract_x
_atom_site_fract_y
_atom_site_fract_z
Si Si1 0.328450 0.552714 0.501360
Si Si2 0.678105 0.885017 0.993674
Si Si3 0.671877 0.705726 0.986404
Si Si4 0.176547 0.948301 0.856621
Si Si5 0.324966 0.051955 0.322579
Si Si6 0.669319 0.293158 0.195714
Si Si7 0.171091 0.552628 0.676974
Si Si8 0.320165 0.611597 0.181845
O O1 0.500000 0.566644 0.498046
O O2 0.328227 0.500000 0.503284
O O3 0.240919 0.565224 0.415247
O O4 0.248715 0.567398 0.588888
O O5 0.500000 0.884654 0.998617
O O6 0.738888 0.837831 0.964643
O O7 0.737098 0.921061 0.928063
O O8 0.748230 0.893766 0.087821
O O9 0.500000 0.703106 0.958781
O O10 0.750000 0.750000 0.956468
O O11 0.670838 0.707554 0.091086
O O12 0.237643 0.935850 0.762334
O O13 0.000000 0.940447 0.862386
O O14 0.201186 0.000000 0.867718
O O15 0.500000 0.061969 0.317411
O O16 0.235989 0.075482 0.247096
O O17 0.308257 0.000000 0.315166
O O18 0.500000 0.290965 0.224715
O O19 0.750000 0.250000 0.226131
O O20 0.728643 0.340907 0.216900
O O21 0.169586 0.500000 0.674088
O O22 0.000000 0.567019 0.682442
O O23 0.500000 0.611819 0.173819
#
# Coordination Sequence:
#
# PCOD9348740 Si02
#       8
#     8   8   8   8   8   8   8   8
#     4   9  16  27  44  64  85 111 142 177 220 266
#     4  11  21  32  46  64  88 119 153 188 225 264
#     4   9  16  28  45  65  87 111 142 180 223 267
#     4  10  20  33  47  63  86 118 154 189 224 264
#     4  10  20  32  45  63  87 116 151 188 223 260
#     4   8  15  26  42  62  82 105 135 173 216 260
#     4   9  16  27  44  65  87 110 139 179 224 266
#     4  10  20  33  46  62  86 117 152 186 220 262
#
# _framework density 14.824479999999999
#
# number of rings (size 3 to 8) (size 9 to 14) (size 15 to 20)
#    0.000    2.500    0.000    4.125    0.000    8.500 
#    0.000    0.000    0.000    0.000    0.000    0.000 
#    0.000    1.000    0.000    8.500    0.000    6.250 
#
# Total GULP energy -178295.408273 kJ/mol
# GULP energy per Si atom -5571.731509 kJ/mol
# Density = 1.479074 g / cm^3
# Si number density = 14.824480 Si / 1000 Ang^3
#
#
#
# Elastic Constant Matrix: (Units=GPa)
#
#
# Indices 1 2 3 4 5 6 
#
# 1 121.9126 49.5514 54.1102 0.0000 0.0000 0.0000
# 2 49.5514 52.2093 42.7633 0.0000 0.0000 0.0000
# 3 54.1102 42.7633 84.6728 0.0000 0.0000 0.0000
# 4 0.0000 0.0000 0.0000 -1.5396 0.0000 0.0000
# 5 0.0000 0.0000 0.0000 0.0000 24.9168 0.0000
# 6 0.0000 0.0000 0.0000 0.0000 0.0000 22.2942
#
#
#
# Elastic Compliance Matrix: (Units=1/GPa)
#
#
# Indices 1 2 3 4 5 6 
#
# 1 0.014045 -0.010196 -0.003826 0.000000 0.000000 0.000000
# 2 -0.010196 0.040069 -0.013721 0.000000 0.000000 0.000000
# 3 -0.003826 -0.013721 0.021185 0.000000 0.000000 0.000000
# 4 0.000000 0.000000 0.000000 -0.649534 0.000000 0.000000
# 5 0.000000 0.000000 0.000000 0.000000 0.040134 0.000000
# 6 0.000000 0.000000 0.000000 0.000000 0.000000 0.044855
#
#
# Mechanical properties :
#
#
# Convention : Reuss Voigt Hill
#
# Bulk Modulus (GPa) = 50.47175 61.29382 55.88278
# Shear Modulus (GPa) = -11.70531 16.62561 2.46015
#
# Velocity S-wave (km/s) = -2.81302 3.35251 1.28962
# Velocity P-wave (km/s) = 4.85483 7.51145 6.32421
#
# Compressibility (1/GPa) = 0.01981306
#
# Stress axis : x y z
#
# Youngs Moduli (GPa) = 71.19986 24.95688 47.20404
#
# Poissons Ratio (x) = 0.25447 0.18060
# Poissons Ratio (y) = 0.72597 0.64767
# Poissons Ratio (z) = 0.27240 0.34242
#
# Static dielectric constant tensor:
#      x y z
#    x 1.501180 0.000000 0.000000 
#    y 0.000000 1.490050 0.000000 
#    z 0.000000 0.000000 1.468040 
# 
# From -- ./inp_files/16260.got.cif
#   From: 2010.05.17/outbox.cif.g08.bks.cpg/sg35_9_cif.got.tgz:16260.got - 2010.06.03 17:29:28.
