data_PCOD9348517
_publ_section_title
;
Structure prediction by ZEFSAII (Michael W. Deem and Ramdas Pophale) SiO2 
 PCOD9348517
Probable space group: C M M 2
;
_chemical_formula_sum "Si O2"
_cell_formula_units_Z 64
_cell_length_a 8.505702
_cell_length_b 18.459789
_cell_length_c 21.479640
_cell_angle_alpha 90.000000
_cell_angle_beta 90.000000
_cell_angle_gamma 90.000000
_cell_volume 3372.592687
_symmetry_space_group_name_H-M "C M M 2"
_symmetry_group_IT_number 35
_symmetry_cell_setting 'orthorhombic'
loop_
_space_group_symop_operation_xyz
x,y,z
-x,-y,z
-x,y,z
x,-y,z
1/2+x,1/2+y,z
1/2-x,1/2-y,z
1/2-x,1/2+y,z
1/2+x,1/2-y,z
loop_
_atom_site_type_symbol
_atom_site_label
_atom_site_fract_x
_atom_site_fract_y
_atom_site_fract_z
Si Si1 0.687075 0.831781 0.910190
Si Si2 0.688482 0.415909 0.789886
Si Si3 0.808043 0.583183 0.274952
Si Si4 0.689452 0.832473 0.533386
Si Si5 0.310572 0.167187 0.669814
Si Si6 0.688751 0.831739 0.151222
Si Si7 0.690427 0.167522 0.397717
Si Si8 0.311315 0.583901 0.030717
O O1 0.500000 0.830242 0.913104
O O2 0.750000 0.750000 0.910847
O O3 0.740979 0.871613 0.847396
O O4 0.752075 0.875137 0.969479
O O5 0.500000 0.412399 0.793880
O O6 0.736780 0.500000 0.793114
O O7 0.743272 0.380175 0.725522
O O8 0.756670 0.500000 0.270406
O O9 0.755758 0.620385 0.339181
O O10 0.758271 0.629158 0.214915
O O11 0.000000 0.583145 0.275335
O O12 0.500000 0.832348 0.533560
O O13 0.750000 0.750000 0.533057
O O14 0.738063 0.862019 0.601010
O O15 0.739510 0.862617 0.465973
O O16 0.500000 0.168010 0.673320
O O17 0.250000 0.250000 0.675383
O O18 0.500000 0.830890 0.150415
O O19 0.750000 0.750000 0.148866
O O20 0.748270 0.876211 0.091880
O O21 0.500000 0.169187 0.396595
O O22 0.750000 0.250000 0.391847
O O23 0.500000 0.585892 0.031304
O O24 0.260273 0.500000 0.029937
#
# Coordination Sequence:
#
# PCOD9348517 Si02
#       8
#     8   8   8   8   8   8   8   8
#     4  12  25  42  65  90 117 148 185 227 270 320
#     4  11  24  41  59  81 112 148 185 227 277 330
#     4   9  18  32  51  76 106 141 181 226 276 330
#     4   8  15  27  46  74 104 136 175 221 271 322
#     4  10  19  33  54  80 110 143 184 230 276 329
#     4  11  22  37  58  83 112 146 188 233 276 326
#     4   9  16  29  50  75 103 136 177 223 272 325
#     4  11  24  42  63  88 119 151 183 223 272 324
#
# _framework density 18.976499
#
# number of rings (size 3 to 8) (size 9 to 14) (size 15 to 20)
#    0.000    1.875    0.000    4.500    0.000    4.500 
#    0.000    1.250    0.000    4.125    0.000    0.000 
#    0.000    0.000    0.000    0.000    0.000    0.000 
#
# Total GULP energy -178681.135318 kJ/mol
# GULP energy per Si atom -5583.785479 kJ/mol
# Density = 1.893331 g / cm^3
# Si number density = 18.976499 Si / 1000 Ang^3
#
#
#
# Elastic Constant Matrix: (Units=GPa)
#
#
# Indices 1 2 3 4 5 6 
#
# 1 45.4970 36.3533 38.1160 0.0000 0.0000 0.0000
# 2 36.3533 155.9428 109.9445 0.0000 0.0000 0.0000
# 3 38.1160 109.9445 221.5455 0.0000 0.0000 0.0000
# 4 0.0000 0.0000 0.0000 -50.6706 0.0000 0.0000
# 5 0.0000 0.0000 0.0000 0.0000 -10.9430 0.0000
# 6 0.0000 0.0000 0.0000 0.0000 0.0000 20.3734
#
#
#
# Elastic Compliance Matrix: (Units=1/GPa)
#
#
# Indices 1 2 3 4 5 6 
#
# 1 0.027824 -0.004786 -0.002412 0.000000 0.000000 0.000000
# 2 -0.004786 0.010687 -0.004480 0.000000 0.000000 0.000000
# 3 -0.002412 -0.004480 0.007152 0.000000 0.000000 0.000000
# 4 0.000000 0.000000 0.000000 -0.019735 0.000000 0.000000
# 5 0.000000 0.000000 0.000000 0.000000 -0.091383 0.000000
# 6 0.000000 0.000000 0.000000 0.000000 0.000000 0.049084
#
#
# Mechanical properties :
#
#
# Convention : Reuss Voigt Hill
#
# Bulk Modulus (GPa) = 44.82851 87.97920 66.40385
# Shear Modulus (GPa) = 346.73405 7.65674 177.19540
#
# Velocity S-wave (km/s) = 13.53197 2.01087 9.67362
# Velocity P-wave (km/s) = 16.36542 7.20099 12.64281
#
# Compressibility (1/GPa) = 0.02230723
#
# Stress axis : x y z
#
# Youngs Moduli (GPa) = 35.93993 93.57255 139.82040
#
# Poissons Ratio (x) = 0.44782 0.33725
# Poissons Ratio (y) = 0.17200 0.62641
# Poissons Ratio (z) = 0.08669 0.41922
#
# Static dielectric constant tensor:
#      x y z
#    x 1.648490 0.000000 0.000000 
#    y 0.000000 1.626400 0.000000 
#    z 0.000000 0.000000 1.669700 
# 
# From -- ./inp_files/18440.got.cif
#   From: 2010.05.17/outbox.cif.g08.bks.cpg/sg35_10_cif.got.tgz:18440.got - 2010.06.03 17:29:28.
