data_PCOD9348443
_publ_section_title
;
Structure prediction by ZEFSAII (Michael W. Deem and Ramdas Pophale) SiO2 
 PCOD9348443
Probable space group: C M M 2
;
_chemical_formula_sum "Si O2"
_cell_formula_units_Z 64
_cell_length_a 8.605978
_cell_length_b 30.193654
_cell_length_c 12.634922
_cell_angle_alpha 90.000000
_cell_angle_beta 90.000000
_cell_angle_gamma 90.000000
_cell_volume 3283.132957
_symmetry_space_group_name_H-M "C M M 2"
_symmetry_group_IT_number 35
_symmetry_cell_setting 'orthorhombic'
loop_
_space_group_symop_operation_xyz
x,y,z
-x,-y,z
-x,y,z
x,-y,z
1/2+x,1/2+y,z
1/2-x,1/2-y,z
1/2-x,1/2+y,z
1/2+x,1/2-y,z
loop_
_atom_site_type_symbol
_atom_site_label
_atom_site_fract_x
_atom_site_fract_y
_atom_site_fract_z
Si Si1 0.182763 0.683127 0.322780
Si Si2 0.188333 0.051695 0.824004
Si Si3 0.686712 0.888246 0.014742
Si Si4 0.813967 0.109508 0.622902
Si Si5 0.682113 0.591840 0.384857
Si Si6 0.186093 0.703804 0.560810
Si Si7 0.184222 0.202995 0.092475
Si Si8 0.815411 0.547944 0.201296
O O1 0.212968 0.631109 0.337767
O O2 0.238931 0.701208 0.436860
O O3 0.267477 0.698138 0.216435
O O4 0.000000 0.692679 0.310677
O O5 0.237718 0.077134 0.716546
O O6 0.000000 0.051345 0.826780
O O7 0.239141 0.000000 0.828984
O O8 0.249488 0.082430 0.918744
O O9 0.500000 0.887587 0.010340
O O10 0.747880 0.838412 0.027237
O O11 0.735399 0.914083 0.121222
O O12 0.781669 0.087782 0.508429
O O13 0.742771 0.158940 0.617849
O O14 0.000000 0.114833 0.631939
O O15 0.500000 0.603533 0.375138
O O16 0.723899 0.551275 0.310602
O O17 0.250000 0.750000 0.605482
O O18 0.000000 0.704164 0.560814
O O19 0.250000 0.250000 0.054905
O O20 0.000000 0.202483 0.085274
O O21 0.789683 0.500000 0.150300
O O22 0.000000 0.552307 0.220730
#
# Coordination Sequence:
#
# PCOD9348443 Si02
#       8
#     8   8   8   8   8   8   8   8
#     4  10  19  33  53  81 119 162 201 242 289 345
#     4  10  22  42  67  91 116 152 200 252 304 359
#     4  11  23  41  63  87 119 156 198 249 302 354
#     4   9  20  38  59  85 119 155 196 247 300 351
#     4  10  19  32  54  84 118 158 198 242 294 352
#     4  10  20  33  54  84 120 160 202 244 290 348
#     4  12  24  38  59  88 121 159 201 243 294 353
#     4  10  21  36  55  81 117 158 194 236 297 361
#
# _framework density 19.493576999999998
#
# number of rings (size 3 to 8) (size 9 to 14) (size 15 to 20)
#    0.000    1.750    1.250    3.375    0.000    5.500 
#    0.000    1.875    0.000    3.000    0.000    0.000 
#    0.000    0.000    0.000    0.000    0.000    0.000 
#
# Total GULP energy -178612.325951 kJ/mol
# GULP energy per Si atom -5581.635186 kJ/mol
# Density = 1.944921 g / cm^3
# Si number density = 19.493577 Si / 1000 Ang^3
#
#
#
# Elastic Constant Matrix: (Units=GPa)
#
#
# Indices 1 2 3 4 5 6 
#
# 1 38.1916 36.9254 31.1207 0.0000 0.0000 0.0000
# 2 36.9254 169.2574 74.9270 0.0000 0.0000 0.0000
# 3 31.1207 74.9270 106.1186 0.0000 0.0000 0.0000
# 4 0.0000 0.0000 0.0000 12.0082 0.0000 0.0000
# 5 0.0000 0.0000 0.0000 0.0000 23.6862 0.0000
# 6 0.0000 0.0000 0.0000 0.0000 0.0000 25.5308
#
#
#
# Elastic Compliance Matrix: (Units=1/GPa)
#
#
# Indices 1 2 3 4 5 6 
#
# 1 0.036841 -0.004734 -0.007461 0.000000 0.000000 0.000000
# 2 -0.004734 0.009203 -0.005109 0.000000 0.000000 0.000000
# 3 -0.007461 -0.005109 0.015219 0.000000 0.000000 0.000000
# 4 0.000000 0.000000 0.000000 0.083276 0.000000 0.000000
# 5 0.000000 0.000000 0.000000 0.000000 0.042219 0.000000
# 6 0.000000 0.000000 0.000000 0.000000 0.000000 0.039168
#
#
# Mechanical properties :
#
#
# Convention : Reuss Voigt Hill
#
# Bulk Modulus (GPa) = 37.51948 66.61268 52.06608
# Shear Modulus (GPa) = 18.55830 23.61801 21.08815
#
# Velocity S-wave (km/s) = 3.08883 3.48455 3.29264
# Velocity P-wave (km/s) = 5.65774 7.10178 6.42049
#
# Compressibility (1/GPa) = 0.02665282
#
# Stress axis : x y z
#
# Youngs Moduli (GPa) = 27.14363 108.66189 65.70644
#
# Poissons Ratio (x) = 0.51443 0.49026
# Poissons Ratio (y) = 0.12851 0.33572
# Poissons Ratio (z) = 0.20253 0.55520
#
# Static dielectric constant tensor:
#      x y z
#    x 1.673480 0.000000 0.000000 
#    y 0.000000 1.726760 0.000000 
#    z 0.000000 0.000000 1.684650 
# 
# From -- ./inp_files/12028.got.cif
#   From: 2010.05.17/outbox.cif.g08.bks.cpg/sg35_7_cif.got.tgz:12028.got - 2010.06.03 17:29:28.
