data_PCOD9348261
_publ_section_title
;
Structure prediction by ZEFSAII (Michael W. Deem and Ramdas Pophale) SiO2 
 PCOD9348261
Probable space group: C M M 2
;
_chemical_formula_sum "Si O2"
_cell_formula_units_Z 64
_cell_length_a 8.779045
_cell_length_b 19.309414
_cell_length_c 21.330459
_cell_angle_alpha 90.000000
_cell_angle_beta 90.000000
_cell_angle_gamma 90.000000
_cell_volume 3615.901323
_symmetry_space_group_name_H-M "C M M 2"
_symmetry_group_IT_number 35
_symmetry_cell_setting 'orthorhombic'
loop_
_space_group_symop_operation_xyz
x,y,z
-x,-y,z
-x,y,z
x,-y,z
1/2+x,1/2+y,z
1/2-x,1/2-y,z
1/2-x,1/2+y,z
1/2+x,1/2-y,z
loop_
_atom_site_type_symbol
_atom_site_label
_atom_site_fract_x
_atom_site_fract_y
_atom_site_fract_z
Si Si1 0.182651 0.827823 0.625000
Si Si2 0.183538 0.919912 0.244395
Si Si3 0.817095 0.173083 0.126427
Si Si4 0.316315 0.918955 0.015946
Si Si5 0.816664 0.419807 0.378387
Si Si6 0.183098 0.327437 0.496915
Si Si7 0.183080 0.580663 0.872747
Si Si8 0.181848 0.827031 0.763233
O O1 0.250000 0.750000 0.626671
O O2 0.254658 0.859079 0.562190
O O3 0.220801 0.857123 0.693873
O O4 0.000000 0.825232 0.618532
O O5 0.232150 0.870020 0.188127
O O6 0.247383 0.897883 0.311851
O O7 0.000000 0.919286 0.246842
O O8 0.231802 0.000000 0.233088
O O9 0.750000 0.250000 0.126848
O O10 0.000000 0.176562 0.126058
O O11 0.760640 0.130470 0.066181
O O12 0.500000 0.913616 0.020683
O O13 0.273231 0.900875 0.944247
O O14 0.276736 0.000000 0.026670
O O15 0.772139 0.500000 0.388867
O O16 0.770916 0.372526 0.436831
O O17 0.000000 0.417187 0.373769
O O18 0.250000 0.250000 0.490879
O O19 0.000000 0.323677 0.499969
O O20 0.222447 0.500000 0.863461
O O21 0.257366 0.627128 0.819761
O O22 0.000000 0.586722 0.868859
O O23 0.250000 0.750000 0.767703
O O24 0.000000 0.821896 0.766179
#
# Coordination Sequence:
#
# PCOD9348261 Si02
#       8
#     8   8   8   8   8   8   8   8
#     4   9  17  30  48  71  99 131 169 209 250 299
#     4   9  19  36  56  76  99 131 170 209 251 302
#     4  11  23  37  54  79 110 139 171 213 258 303
#     4   9  19  37  59  80 103 135 174 212 254 308
#     4   9  19  35  53  74 100 131 168 207 247 296
#     4  10  19  31  50  74 100 130 166 208 251 299
#     4   9  19  36  56  78 105 136 171 212 257 307
#     4  10  20  33  52  77 104 136 174 216 259 307
#
# _framework density 17.699598000000002
#
# number of rings (size 3 to 8) (size 9 to 14) (size 15 to 20)
#    0.000    2.500    0.000    3.375    0.000    6.000 
#    0.000    5.625    0.000    2.250    0.000    0.000 
#    0.000    0.000    0.000    0.000    0.000    0.000 
#
# Total GULP energy -178462.763611 kJ/mol
# GULP energy per Si atom -5576.961363 kJ/mol
# Density = 1.765931 g / cm^3
# Si number density = 17.699598 Si / 1000 Ang^3
#
#
#
# Elastic Constant Matrix: (Units=GPa)
#
#
# Indices 1 2 3 4 5 6 
#
# 1 39.8180 36.8839 58.3371 0.0000 0.0000 0.0000
# 2 36.8839 82.0693 106.8152 0.0000 0.0000 0.0000
# 3 58.3371 106.8152 210.6402 0.0000 0.0000 0.0000
# 4 0.0000 0.0000 0.0000 36.7606 0.0000 0.0000
# 5 0.0000 0.0000 0.0000 0.0000 32.9634 0.0000
# 6 0.0000 0.0000 0.0000 0.0000 0.0000 22.0751
#
#
#
# Elastic Compliance Matrix: (Units=1/GPa)
#
#
# Indices 1 2 3 4 5 6 
#
# 1 0.045975 -0.012030 -0.006633 0.000000 0.000000 0.000000
# 2 -0.012030 0.038985 -0.016438 0.000000 0.000000 0.000000
# 3 -0.006633 -0.016438 0.014920 0.000000 0.000000 0.000000
# 4 0.000000 0.000000 0.000000 0.027203 0.000000 0.000000
# 5 0.000000 0.000000 0.000000 0.000000 0.030337 0.000000
# 6 0.000000 0.000000 0.000000 0.000000 0.000000 0.045300
#
#
# Mechanical properties :
#
#
# Convention : Reuss Voigt Hill
#
# Bulk Modulus (GPa) = 33.69268 81.84443 57.76855
# Shear Modulus (GPa) = 17.67950 27.05924 22.36937
#
# Velocity S-wave (km/s) = 3.16391 3.91424 3.55890
# Velocity P-wave (km/s) = 5.69423 8.17126 7.04251
#
# Compressibility (1/GPa) = 0.02968004
#
# Stress axis : x y z
#
# Youngs Moduli (GPa) = 21.75096 25.65064 67.02482
#
# Poissons Ratio (x) = 0.30857 0.44454
# Poissons Ratio (y) = 0.26166 1.10173
# Poissons Ratio (z) = 0.14426 0.42164
#
# Static dielectric constant tensor:
#      x y z
#    x 1.595990 0.000000 0.000000 
#    y 0.000000 1.581510 0.000000 
#    z 0.000000 0.000000 1.615930 
# 
# From -- ./inp_files/18393.got.cif
#   From: 2010.05.17/outbox.cif.g08.bks.cpg/sg35_10_cif.got.tgz:18393.got - 2010.06.03 17:29:28.
