data_PCOD9348357
_publ_section_title
;
Structure prediction by ZEFSAII (Michael W. Deem and Ramdas Pophale) SiO2 
 PCOD9348357
Probable space group: C M M 2
;
_chemical_formula_sum "Si O2"
_cell_formula_units_Z 48
_cell_length_a 8.205153
_cell_length_b 19.140441
_cell_length_c 16.017076
_cell_angle_alpha 90.000000
_cell_angle_beta 90.000000
_cell_angle_gamma 90.000000
_cell_volume 2515.485740
_symmetry_space_group_name_H-M "C M M 2"
_symmetry_group_IT_number 35
_symmetry_cell_setting 'orthorhombic'
loop_
_space_group_symop_operation_xyz
x,y,z
-x,-y,z
-x,y,z
x,-y,z
1/2+x,1/2+y,z
1/2-x,1/2-y,z
1/2-x,1/2+y,z
1/2+x,1/2-y,z
loop_
_atom_site_type_symbol
_atom_site_label
_atom_site_fract_x
_atom_site_fract_y
_atom_site_fract_z
Si Si1 0.804566 0.829784 0.685590
Si Si2 0.804056 0.920233 0.345815
Si Si3 0.307012 0.830404 0.502040
Si Si4 0.198606 0.919153 0.842336
Si Si5 0.697281 0.330141 0.187306
Si Si6 0.198811 0.081081 0.028840
O O1 0.750000 0.750000 0.695201
O O2 0.743868 0.853948 0.594926
O O3 0.743336 0.873803 0.764554
O O4 0.000000 0.832534 0.684225
O O5 0.763150 0.879974 0.430703
O O6 0.744665 0.874666 0.267146
O O7 0.000000 0.923560 0.338860
O O8 0.742298 0.000000 0.344773
O O9 0.500000 0.830804 0.496086
O O10 0.250000 0.750000 0.491142
O O11 0.000000 0.916411 0.842028
O O12 0.244573 0.000000 0.831657
O O13 0.251101 0.897089 0.935488
O O14 0.500000 0.331725 0.187403
O O15 0.750000 0.250000 0.191889
O O16 0.754146 0.368393 0.102615
O O17 0.000000 0.081463 0.029377
O O18 0.246808 0.000000 0.042673
#
# Coordination Sequence:
#
# PCOD9348357 Si02
#       6
#     8   8   8   8   8   8
#     4  10  19  32  51  75 103 135 170 209 255 305
#     4  10  21  37  56  78 104 135 172 213 258 309
#     4  11  22  37  56  77 103 136 174 215 261 310
#     4   8  15  28  48  74 101 131 169 211 252 295
#     4  10  20  33  52  78 105 135 169 207 252 301
#     4   8  14  28  50  74 100 131 170 212 249 292
#
# _framework density 19.081802
#
# number of rings (size 3 to 8) (size 9 to 14) (size 15 to 20)
#    0.000    2.500    0.000    5.000    0.000    5.667 
#    0.000    1.667    0.000    4.000    0.000    4.667 
#    0.000    0.000    0.000    0.000    0.000    0.000 
#
# Total GULP energy -133917.933372 kJ/mol
# GULP energy per Si atom -5579.913891 kJ/mol
# Density = 1.903837 g / cm^3
# Si number density = 19.081802 Si / 1000 Ang^3
#
#
#
# Elastic Constant Matrix: (Units=GPa)
#
#
# Indices 1 2 3 4 5 6 
#
# 1 15.7809 8.8993 5.0183 0.0000 0.0000 0.0000
# 2 8.8993 129.0373 127.5427 0.0000 0.0000 0.0000
# 3 5.0183 127.5427 214.0502 0.0000 0.0000 0.0000
# 4 0.0000 0.0000 0.0000 48.7817 0.0000 0.0000
# 5 0.0000 0.0000 0.0000 0.0000 -3.1665 0.0000
# 6 0.0000 0.0000 0.0000 0.0000 0.0000 23.3748
#
#
#
# Elastic Compliance Matrix: (Units=1/GPa)
#
#
# Indices 1 2 3 4 5 6 
#
# 1 0.066645 -0.007425 0.002862 0.000000 0.000000 0.000000
# 2 -0.007425 0.019681 -0.011553 0.000000 0.000000 0.000000
# 3 0.002862 -0.011553 0.011488 0.000000 0.000000 0.000000
# 4 0.000000 0.000000 0.000000 0.020499 0.000000 0.000000
# 5 0.000000 0.000000 0.000000 0.000000 -0.315804 0.000000
# 6 0.000000 0.000000 0.000000 0.000000 0.000000 0.042781
#
#
# Mechanical properties :
#
#
# Convention : Reuss Voigt Hill
#
# Bulk Modulus (GPa) = 15.24807 71.30988 43.27898
# Shear Modulus (GPa) = -49.69328 28.29189 -10.70070
#
# Velocity S-wave (km/s) = -5.10870 3.85471 -2.37065
# Velocity P-wave (km/s) = 5.17592 7.56727 3.90342
#
# Compressibility (1/GPa) = 0.06558207
#
# Stress axis : x y z
#
# Youngs Moduli (GPa) = 15.00496 50.81122 87.04380
#
# Poissons Ratio (x) = 0.37726 -0.24908
# Poissons Ratio (y) = 0.11141 1.00560
# Poissons Ratio (z) = -0.04294 0.58701
#
# Static dielectric constant tensor:
#      x y z
#    x 1.675910 0.000000 0.000000 
#    y 0.000000 1.616420 0.000000 
#    z 0.000000 0.000000 1.670370 
# 
# From -- ./inp_files/15149.got.cif
#   From: 2010.05.17/outbox.cif.g08.bks.cpg/sg35_8_cif.got.tgz:15149.got - 2010.06.03 17:29:28.
