data_PCOD9348506
_publ_section_title
;
Structure prediction by ZEFSAII (Michael W. Deem and Ramdas Pophale) SiO2 
 PCOD9348506
Probable space group: C M M 2
;
_chemical_formula_sum "Si O2"
_cell_formula_units_Z 64
_cell_length_a 8.677357
_cell_length_b 18.649371
_cell_length_c 21.213274
_cell_angle_alpha 90.000000
_cell_angle_beta 90.000000
_cell_angle_gamma 90.000000
_cell_volume 3432.885795
_symmetry_space_group_name_H-M "C M M 2"
_symmetry_group_IT_number 35
_symmetry_cell_setting 'orthorhombic'
loop_
_space_group_symop_operation_xyz
x,y,z
-x,-y,z
-x,y,z
x,-y,z
1/2+x,1/2+y,z
1/2-x,1/2-y,z
1/2-x,1/2+y,z
1/2+x,1/2-y,z
loop_
_atom_site_type_symbol
_atom_site_label
_atom_site_fract_x
_atom_site_fract_y
_atom_site_fract_z
Si Si1 0.685053 0.830077 0.080050
Si Si2 0.312075 0.417680 0.447775
Si Si3 0.685583 0.083666 0.955495
Si Si4 0.313652 0.669784 0.324204
Si Si5 0.682730 0.829738 0.704247
Si Si6 0.319170 0.585796 0.820461
Si Si7 0.813665 0.083390 0.198711
Si Si8 0.185202 0.169605 0.571331
O O1 0.500000 0.827827 0.081705
O O2 0.750000 0.750000 0.083908
O O3 0.744733 0.876834 0.138433
O O4 0.732985 0.868315 0.014738
O O5 0.500000 0.418508 0.446931
O O6 0.260337 0.500000 0.444095
O O7 0.262483 0.371592 0.387335
O O8 0.265941 0.379466 0.512729
O O9 0.500000 0.086711 0.949873
O O10 0.758649 0.107520 0.889467
O O11 0.727818 0.000000 0.966454
O O12 0.500000 0.672836 0.325046
O O13 0.250000 0.750000 0.322106
O O14 0.267549 0.624965 0.262345
O O15 0.500000 0.825536 0.697766
O O16 0.750000 0.750000 0.713054
O O17 0.729635 0.876607 0.764026
O O18 0.754061 0.857810 0.638644
O O19 0.500000 0.602277 0.814881
O O20 0.298757 0.500000 0.816213
O O21 0.000000 0.085873 0.194909
O O22 0.767509 0.000000 0.200907
O O23 0.250000 0.250000 0.562922
O O24 0.000000 0.172826 0.573081
#
# Coordination Sequence:
#
# PCOD9348506 Si02
#       8
#     8   8   8   8   8   8   8   8
#     4  11  23  38  57  82 113 148 185 227 274 325
#     4   9  18  33  54  79 106 139 180 224 270 322
#     4   9  19  37  58  79 106 143 185 227 274 326
#     4  10  20  35  56  81 110 144 182 224 271 324
#     4  11  22  37  57  80 110 146 184 227 275 327
#     4  10  21  37  58  84 113 145 182 224 271 326
#     4  10  21  37  58  83 111 145 185 229 276 328
#     4  10  19  33  54  78 105 139 179 223 272 326
#
# _framework density 18.643208000000001
#
# number of rings (size 3 to 8) (size 9 to 14) (size 15 to 20)
#    0.000    2.000    0.000    4.500    0.000    6.500 
#    0.000    4.375    0.000    3.750    0.000    0.000 
#    0.000    0.000    0.000    0.000    0.000    0.000 
#
# Total GULP energy -178756.733866 kJ/mol
# GULP energy per Si atom -5586.147933 kJ/mol
# Density = 1.860078 g / cm^3
# Si number density = 18.643208 Si / 1000 Ang^3
#
#
#
# Elastic Constant Matrix: (Units=GPa)
#
#
# Indices 1 2 3 4 5 6 
#
# 1 50.6358 38.1228 53.4101 0.0000 0.0000 0.0000
# 2 38.1228 127.8336 99.6328 0.0000 0.0000 0.0000
# 3 53.4101 99.6328 189.8255 0.0000 0.0000 0.0000
# 4 0.0000 0.0000 0.0000 40.2617 0.0000 0.0000
# 5 0.0000 0.0000 0.0000 0.0000 26.2852 0.0000
# 6 0.0000 0.0000 0.0000 0.0000 0.0000 25.0624
#
#
#
# Elastic Compliance Matrix: (Units=1/GPa)
#
#
# Indices 1 2 3 4 5 6 
#
# 1 0.029188 -0.003899 -0.006166 0.000000 0.000000 0.000000
# 2 -0.003899 0.013759 -0.006125 0.000000 0.000000 0.000000
# 3 -0.006166 -0.006125 0.010218 0.000000 0.000000 0.000000
# 4 0.000000 0.000000 0.000000 0.024837 0.000000 0.000000
# 5 0.000000 0.000000 0.000000 0.000000 0.038044 0.000000
# 6 0.000000 0.000000 0.000000 0.000000 0.000000 0.039900
#
#
# Mechanical properties :
#
#
# Convention : Reuss Voigt Hill
#
# Bulk Modulus (GPa) = 48.11019 83.40290 65.75654
# Shear Modulus (GPa) = 25.60766 30.13048 27.86907
#
# Velocity S-wave (km/s) = 3.71018 4.02452 3.87054
# Velocity P-wave (km/s) = 6.64949 8.15040 7.43790
#
# Compressibility (1/GPa) = 0.02078562
#
# Stress axis : x y z
#
# Youngs Moduli (GPa) = 34.26042 72.68088 97.87100
#
# Poissons Ratio (x) = 0.28335 0.60350
# Poissons Ratio (y) = 0.13357 0.59942
# Poissons Ratio (z) = 0.21126 0.44514
#
# Static dielectric constant tensor:
#      x y z
#    x 1.635240 0.000000 0.000000 
#    y 0.000000 1.615230 0.000000 
#    z 0.000000 0.000000 1.626560 
# 
# From -- ./inp_files/18431.got.cif
#   From: 2010.05.17/outbox.cif.g08.bks.cpg/sg35_10_cif.got.tgz:18431.got - 2010.06.03 17:29:28.
