data_PCOD9348772
_publ_section_title
;
Structure prediction by ZEFSAII (Michael W. Deem and Ramdas Pophale) SiO2 
 PCOD9348772
Probable space group: C M M 2
;
_chemical_formula_sum "Si O2"
_cell_formula_units_Z 48
_cell_length_a 16.499299
_cell_length_b 7.781098
_cell_length_c 17.357146
_cell_angle_alpha 90.000000
_cell_angle_beta 90.000000
_cell_angle_gamma 90.000000
_cell_volume 2228.356616
_symmetry_space_group_name_H-M "C M M 2"
_symmetry_group_IT_number 35
_symmetry_cell_setting 'orthorhombic'
loop_
_space_group_symop_operation_xyz
x,y,z
-x,-y,z
-x,y,z
x,-y,z
1/2+x,1/2+y,z
1/2-x,1/2-y,z
1/2-x,1/2+y,z
1/2+x,1/2-y,z
loop_
_atom_site_type_symbol
_atom_site_label
_atom_site_fract_x
_atom_site_fract_y
_atom_site_fract_z
Si Si1 0.406924 0.290412 0.197750
Si Si2 0.409432 0.292920 0.869586
Si Si3 0.839475 0.702206 0.710627
Si Si4 0.344222 0.706812 0.033028
Si Si5 0.000000 0.207347 0.447124
Si Si6 0.660159 0.706558 0.357206
Si Si7 0.000000 0.292618 0.626539
O O1 0.500000 0.244407 0.213565
O O2 0.403136 0.500000 0.196025
O O3 0.380926 0.228209 0.113417
O O4 0.352222 0.231265 0.269052
O O5 0.500000 0.231264 0.850017
O O6 0.410967 0.500000 0.873072
O O7 0.349945 0.244924 0.800789
O O8 0.384482 0.228814 0.954095
O O9 0.844930 0.500000 0.702560
O O10 0.750000 0.750000 0.682751
O O11 0.917736 0.776924 0.666322
O O12 0.354370 0.500000 0.033290
O O13 0.250000 0.750000 0.031055
O O14 0.082963 0.269550 0.406377
O O15 0.000000 0.252857 0.536508
O O16 0.000000 0.000000 0.439770
O O17 0.654852 0.500000 0.355977
O O18 0.750000 0.750000 0.385883
O O19 0.000000 0.500000 0.635384
#
# Coordination Sequence:
#
# PCOD9348772 Si02
#       7
#     8   8   8   8   4   8   4
#     4   9  16  31  55  78 107 149 194 236 278 330
#     4  10  20  35  56  83 114 151 197 242 287 340
#     4  11  23  41  63  89 118 153 194 237 289 348
#     4  10  20  32  49  77 111 149 193 239 282 331
#     4  10  22  40  62  87 116 150 190 231 282 350
#     4  10  20  36  59  87 116 151 193 235 282 339
#     4  10  24  44  64  87 118 150 186 235 292 348
#
# _framework density 21.540538999999999
#
# number of rings (size 3 to 8) (size 9 to 14) (size 15 to 20)
#    0.000    2.000    1.667    2.000    0.000    6.667 
#    0.000    3.333    0.000    2.500    0.000    0.000 
#    0.000    0.000    0.000    0.000    0.000    0.000 
#
# Total GULP energy -134049.563135 kJ/mol
# GULP energy per Si atom -5585.398464 kJ/mol
# Density = 2.149151 g / cm^3
# Si number density = 21.540539 Si / 1000 Ang^3
#
#
#
# Elastic Constant Matrix: (Units=GPa)
#
#
# Indices 1 2 3 4 5 6 
#
# 1 175.3020 9.0449 74.1147 0.0000 0.0000 0.0000
# 2 9.0449 30.6553 5.3959 0.0000 0.0000 0.0000
# 3 74.1147 5.3959 131.7706 0.0000 0.0000 0.0000
# 4 0.0000 0.0000 0.0000 -15.5502 0.0000 0.0000
# 5 0.0000 0.0000 0.0000 0.0000 18.2659 0.0000
# 6 0.0000 0.0000 0.0000 0.0000 0.0000 25.8028
#
#
#
# Elastic Compliance Matrix: (Units=1/GPa)
#
#
# Indices 1 2 3 4 5 6 
#
# 1 0.007551 -0.001491 -0.004186 0.000000 0.000000 0.000000
# 2 -0.001491 0.033152 -0.000519 0.000000 0.000000 0.000000
# 3 -0.004186 -0.000519 0.009965 0.000000 0.000000 0.000000
# 4 0.000000 0.000000 0.000000 -0.064308 0.000000 0.000000
# 5 0.000000 0.000000 0.000000 0.000000 0.054747 0.000000
# 6 0.000000 0.000000 0.000000 0.000000 0.000000 0.038755
#
#
# Mechanical properties :
#
#
# Convention : Reuss Voigt Hill
#
# Bulk Modulus (GPa) = 26.12621 57.20431 41.66526
# Shear Modulus (GPa) = 47.61303 22.31520 34.96411
#
# Velocity S-wave (km/s) = 4.70658 3.22213 4.03324
# Velocity P-wave (km/s) = 6.45686 6.36059 6.40890
#
# Compressibility (1/GPa) = 0.03827574
#
# Stress axis : x y z
#
# Youngs Moduli (GPa) = 132.42918 30.16398 100.35439
#
# Poissons Ratio (x) = 0.04498 0.42010
# Poissons Ratio (y) = 0.19747 0.05207
# Poissons Ratio (z) = 0.55437 0.01565
#
# Static dielectric constant tensor:
#      x y z
#    x 1.783230 0.000000 0.000000 
#    y 0.000000 1.790510 0.000000 
#    z 0.000000 0.000000 1.774580 
# 
# From -- ./inp_files/15197.got.cif
#   From: 2010.05.17/outbox.cif.g08.bks.cpg/sg35_8_cif.got.tgz:15197.got - 2010.06.03 17:29:28.
