data_PCOD9348139
_publ_section_title
;
Structure prediction by ZEFSAII (Michael W. Deem and Ramdas Pophale) SiO2 
 PCOD9348139
Probable space group: C M M 2
;
_chemical_formula_sum "Si O2"
_cell_formula_units_Z 48
_cell_length_a 16.955266
_cell_length_b 16.531917
_cell_length_c 9.408180
_cell_angle_alpha 90.000000
_cell_angle_beta 90.000000
_cell_angle_gamma 90.000000
_cell_volume 2637.141551
_symmetry_space_group_name_H-M "C M M 2"
_symmetry_group_IT_number 35
_symmetry_cell_setting 'orthorhombic'
loop_
_space_group_symop_operation_xyz
x,y,z
-x,-y,z
-x,y,z
x,-y,z
1/2+x,1/2+y,z
1/2-x,1/2-y,z
1/2-x,1/2+y,z
1/2+x,1/2-y,z
loop_
_atom_site_type_symbol
_atom_site_label
_atom_site_fract_x
_atom_site_fract_y
_atom_site_fract_z
Si Si1 0.850632 0.335624 0.882770
Si Si2 0.092922 0.229742 0.635084
Si Si3 0.677764 0.593848 0.819494
Si Si4 0.343879 0.245148 0.319567
Si Si5 0.406990 0.089012 0.158402
Si Si6 0.405701 0.679077 0.051115
O O1 0.888124 0.307788 0.734025
O O2 0.763821 0.369648 0.854845
O O3 0.893456 0.396752 0.990057
O O4 0.858911 0.252569 0.973424
O O5 0.138446 0.152733 0.702358
O O6 0.120959 0.245759 0.475873
O O7 0.000000 0.214263 0.641548
O O8 0.683042 0.500000 0.777565
O O9 0.624306 0.603051 0.961658
O O10 0.250000 0.250000 0.323815
O O11 0.367173 0.159611 0.248791
O O12 0.380094 0.313027 0.214000
O O13 0.500000 0.093932 0.185168
O O14 0.377500 0.000000 0.196994
O O15 0.500000 0.690953 0.037019
#
# Coordination Sequence:
#
# PCOD9348139 Si02
#       6
#     8   8   8   8   8   8
#     4  10  18  34  56  82 109 140 183 221 265 325
#     4  11  22  38  59  80 108 147 189 229 272 329
#     4  11  22  36  56  82 113 147 184 231 280 322
#     4  11  21  37  58  82 113 147 186 226 272 333
#     4  10  20  36  59  86 115 144 177 224 278 326
#     4  10  19  34  58  83 109 144 186 227 268 324
#
# _framework density 18.201525
#
# number of rings (size 3 to 8) (size 9 to 14) (size 15 to 20)
#    0.000    1.500    0.000   11.000    0.000    1.333 
#    0.000    5.000    0.000    6.000    0.000    0.000 
#    0.000    0.000    0.000    0.000    0.000    0.000 
#
# Total GULP energy -133860.281332 kJ/mol
# GULP energy per Si atom -5577.511722 kJ/mol
# Density = 1.816010 g / cm^3
# Si number density = 18.201525 Si / 1000 Ang^3
#
#
#
# Elastic Constant Matrix: (Units=GPa)
#
#
# Indices 1 2 3 4 5 6 
#
# 1 110.4184 43.5471 33.2721 0.0000 0.0000 0.0000
# 2 43.5471 76.8036 28.0977 0.0000 0.0000 0.0000
# 3 33.2721 28.0977 135.1688 0.0000 0.0000 0.0000
# 4 0.0000 0.0000 0.0000 13.1596 0.0000 0.0000
# 5 0.0000 0.0000 0.0000 0.0000 38.0091 0.0000
# 6 0.0000 0.0000 0.0000 0.0000 0.0000 36.5160
#
#
#
# Elastic Compliance Matrix: (Units=1/GPa)
#
#
# Indices 1 2 3 4 5 6 
#
# 1 0.012002 -0.006195 -0.001666 0.000000 0.000000 0.000000
# 2 -0.006195 0.017290 -0.002069 0.000000 0.000000 0.000000
# 3 -0.001666 -0.002069 0.008238 0.000000 0.000000 0.000000
# 4 0.000000 0.000000 0.000000 0.075990 0.000000 0.000000
# 5 0.000000 0.000000 0.000000 0.000000 0.026310 0.000000
# 6 0.000000 0.000000 0.000000 0.000000 0.000000 0.027385
#
#
# Mechanical properties :
#
#
# Convention : Reuss Voigt Hill
#
# Bulk Modulus (GPa) = 56.59790 59.13607 57.86698
# Shear Modulus (GPa) = 25.91125 32.03520 28.97323
#
# Velocity S-wave (km/s) = 3.77712 4.19982 3.99407
# Velocity P-wave (km/s) = 7.08413 7.48853 7.28914
#
# Compressibility (1/GPa) = 0.01766850
#
# Stress axis : x y z
#
# Youngs Moduli (GPa) = 83.31966 57.83725 121.38188
#
# Poissons Ratio (x) = 0.35832 0.20228
# Poissons Ratio (y) = 0.51620 0.25115
# Poissons Ratio (z) = 0.13885 0.11967
#
# Static dielectric constant tensor:
#      x y z
#    x 1.616950 0.000000 0.000000 
#    y 0.000000 1.660950 0.000000 
#    z 0.000000 0.000000 1.641120 
# 
# From -- ./inp_files/7327.got.cif
#   From: 2010.05.17/outbox.cif.g08.bks.cpg/sg35_4_cif.got.tgz:7327.got - 2010.06.03 17:29:28.
