data_PCOD9348659
_publ_section_title
;
Structure prediction by ZEFSAII (Michael W. Deem and Ramdas Pophale) SiO2 
 PCOD9348659
Probable space group: C M M 2
;
_chemical_formula_sum "Si O2"
_cell_formula_units_Z 40
_cell_length_a 26.353485
_cell_length_b 8.524304
_cell_length_c 9.373589
_cell_angle_alpha 90.000000
_cell_angle_beta 90.000000
_cell_angle_gamma 90.000000
_cell_volume 2105.731003
_symmetry_space_group_name_H-M "C M M 2"
_symmetry_group_IT_number 35
_symmetry_cell_setting 'orthorhombic'
loop_
_space_group_symop_operation_xyz
x,y,z
-x,-y,z
-x,y,z
x,-y,z
1/2+x,1/2+y,z
1/2-x,1/2-y,z
1/2-x,1/2+y,z
1/2+x,1/2-y,z
loop_
_atom_site_type_symbol
_atom_site_label
_atom_site_fract_x
_atom_site_fract_y
_atom_site_fract_z
Si Si1 0.597954 0.811142 0.872350
Si Si2 0.000000 0.186957 0.040315
Si Si3 0.597961 0.809050 0.543824
Si Si4 0.000000 0.690371 0.362428
Si Si5 0.805069 0.311259 0.362748
Si Si6 0.694474 0.687351 0.041788
O O1 0.549913 0.750418 0.960855
O O2 0.594250 0.758594 0.707671
O O3 0.597778 0.000000 0.876087
O O4 0.649733 0.750442 0.942639
O O5 0.000000 0.244467 0.203306
O O6 0.000000 0.000000 0.036415
O O7 0.549877 0.759638 0.449714
O O8 0.650041 0.760296 0.467740
O O9 0.597627 0.000000 0.544738
O O10 0.000000 0.500000 0.354635
O O11 0.804059 0.500000 0.356156
O O12 0.750000 0.250000 0.408983
O O13 0.814452 0.247441 0.203358
O O14 0.695080 0.500000 0.041695
O O15 0.750000 0.750000 0.998074
#
# Coordination Sequence:
#
# PCOD9348659 Si02
#       6
#     8   4   8   4   8   8
#     4  11  22  40  62  86 116 154 192 237 290 343
#     4  12  25  40  58  88 120 152 193 238 284 342
#     4   9  20  36  59  86 112 143 189 237 286 342
#     4  10  19  38  64  86 108 146 191 236 286 342
#     4  10  19  35  57  84 114 150 192 237 283 338
#     4  11  22  38  59  87 118 154 196 240 284 339
#
# _framework density 18.995778000000001
#
# number of rings (size 3 to 8) (size 9 to 14) (size 15 to 20)
#    0.000    1.600    0.000    6.900    0.000    4.000 
#    0.000   10.000    0.000    0.000    0.000    0.000 
#    0.000    0.000    0.000    0.000    0.000    0.000 
#
# Total GULP energy -111807.601957 kJ/mol
# GULP energy per Si atom -5590.380098 kJ/mol
# Density = 1.895254 g / cm^3
# Si number density = 18.995778 Si / 1000 Ang^3
#
#
#
# Elastic Constant Matrix: (Units=GPa)
#
#
# Indices 1 2 3 4 5 6 
#
# 1 200.3118 54.2236 146.1682 0.0000 0.0000 0.0000
# 2 54.2236 97.1716 50.4462 0.0000 0.0000 0.0000
# 3 146.1682 50.4462 178.7346 0.0000 0.0000 0.0000
# 4 0.0000 0.0000 0.0000 13.9053 0.0000 0.0000
# 5 0.0000 0.0000 0.0000 0.0000 203.7810 0.0000
# 6 0.0000 0.0000 0.0000 0.0000 0.0000 34.8668
#
#
#
# Elastic Compliance Matrix: (Units=1/GPa)
#
#
# Indices 1 2 3 4 5 6 
#
# 1 0.012699 -0.001986 -0.009824 0.000000 0.000000 0.000000
# 2 -0.001986 0.012368 -0.001867 0.000000 0.000000 0.000000
# 3 -0.009824 -0.001867 0.014156 0.000000 0.000000 0.000000
# 4 0.000000 0.000000 0.000000 0.071915 0.000000 0.000000
# 5 0.000000 0.000000 0.000000 0.000000 0.004907 0.000000
# 6 0.000000 0.000000 0.000000 0.000000 0.000000 0.028681
#
#
# Mechanical properties :
#
#
# Convention : Reuss Voigt Hill
#
# Bulk Modulus (GPa) = 84.25323 108.65489 96.45406
# Shear Modulus (GPa) = 28.40319 65.53596 46.96958
#
# Velocity S-wave (km/s) = 3.87102 5.88007 4.97795
# Velocity P-wave (km/s) = 8.02681 10.16975 9.16116
#
# Compressibility (1/GPa) = 0.01186898
#
# Stress axis : x y z
#
# Youngs Moduli (GPa) = 78.74822 80.85139 70.64053
#
# Poissons Ratio (x) = 0.16055 0.69400
# Poissons Ratio (y) = 0.15638 0.13188
# Poissons Ratio (z) = 0.77366 0.15094
#
# Static dielectric constant tensor:
#      x y z
#    x 1.636340 0.000000 0.000000 
#    y 0.000000 1.646560 0.000000 
#    z 0.000000 0.000000 1.629660 
# 
# From -- ./inp_files/5004.got.cif
#   From: 2010.05.17/outbox.cif.g08.bks.cpg/sg35_3_cif.got.tgz:5004.got - 2010.06.03 17:29:28.
