data_PCOD9348680
_publ_section_title
;
Structure prediction by ZEFSAII (Michael W. Deem and Ramdas Pophale) SiO2 
 PCOD9348680
Probable space group: C M M 2
;
_chemical_formula_sum "Si O2"
_cell_formula_units_Z 48
_cell_length_a 15.164370
_cell_length_b 7.420600
_cell_length_c 18.796178
_cell_angle_alpha 90.000000
_cell_angle_beta 90.000000
_cell_angle_gamma 90.000000
_cell_volume 2115.109927
_symmetry_space_group_name_H-M "C M M 2"
_symmetry_group_IT_number 35
_symmetry_cell_setting 'orthorhombic'
loop_
_space_group_symop_operation_xyz
x,y,z
-x,-y,z
-x,y,z
x,-y,z
1/2+x,1/2+y,z
1/2-x,1/2-y,z
1/2-x,1/2+y,z
1/2+x,1/2-y,z
loop_
_atom_site_type_symbol
_atom_site_label
_atom_site_fract_x
_atom_site_fract_y
_atom_site_fract_z
Si Si1 0.355864 0.283889 0.674390
Si Si2 0.101546 0.500000 0.098806
Si Si3 0.604487 0.701693 0.365438
Si Si4 0.890845 0.500000 0.257372
Si Si5 0.145783 0.213335 0.981565
Si Si6 0.354347 0.285039 0.521454
Si Si7 0.355725 0.715564 0.827360
O O1 0.369057 0.500000 0.674462
O O2 0.250000 0.250000 0.674605
O O3 0.389278 0.216021 0.597804
O O4 0.389422 0.215617 0.750965
O O5 0.144696 0.500000 0.176743
O O6 0.117563 0.327605 0.049127
O O7 0.000000 0.500000 0.115768
O O8 0.500000 0.685766 0.354485
O O9 0.643521 0.500000 0.364369
O O10 0.638617 0.827746 0.303059
O O11 0.614957 0.781844 0.444809
O O12 0.000000 0.500000 0.259057
O O13 0.250000 0.250000 0.976841
O O14 0.128998 0.000000 0.989639
O O15 0.109692 0.277085 0.904319
O O16 0.372229 0.500000 0.520879
O O17 0.250000 0.250000 0.522926
O O18 0.368343 0.500000 0.827728
O O19 0.250000 0.750000 0.826867
#
# Coordination Sequence:
#
# PCOD9348680 Si02
#       7
#     8   4   8   4   8   8   8
#     4   8  13  23  37  63 100 131 167 209 251 298
#     4  11  24  40  60  87 114 144 186 235 291 348
#     4   9  18  34  55  75  96 129 175 215 251 309
#     4   9  20  38  58  77  99 132 174 219 264 322
#     4  10  19  35  60  85 115 150 186 233 282 333
#     4   9  17  27  45  70 102 135 163 208 262 304
#     4   8  14  23  42  71 100 134 176 215 255 307
#
# _framework density 22.693856
#
# number of rings (size 3 to 8) (size 9 to 14) (size 15 to 20)
#    0.000    3.000    0.833    0.000    2.333    1.000 
#    0.000    2.500    0.000    1.000    0.000    5.833 
#    0.000    0.000    0.000    0.000    0.000    0.000 
#
# Total GULP energy -133727.135095 kJ/mol
# GULP energy per Si atom -5571.963962 kJ/mol
# Density = 2.264220 g / cm^3
# Si number density = 22.693856 Si / 1000 Ang^3
#
#
#
# Elastic Constant Matrix: (Units=GPa)
#
#
# Indices 1 2 3 4 5 6 
#
# 1 28.8856 -4.0356 6.2246 0.0000 0.0000 0.0000
# 2 -4.0356 111.2829 83.1823 0.0000 0.0000 0.0000
# 3 6.2246 83.1823 288.7031 0.0000 0.0000 0.0000
# 4 0.0000 0.0000 0.0000 88.4996 0.0000 0.0000
# 5 0.0000 0.0000 0.0000 0.0000 31.0285 0.0000
# 6 0.0000 0.0000 0.0000 0.0000 0.0000 -9.4902
#
#
#
# Elastic Compliance Matrix: (Units=1/GPa)
#
#
# Indices 1 2 3 4 5 6 
#
# 1 0.035258 0.002354 -0.001438 0.000000 0.000000 0.000000
# 2 0.002354 0.011610 -0.003396 0.000000 0.000000 0.000000
# 3 -0.001438 -0.003396 0.004473 0.000000 0.000000 0.000000
# 4 0.000000 0.000000 0.000000 0.011299 0.000000 0.000000
# 5 0.000000 0.000000 0.000000 0.000000 0.032228 0.000000
# 6 0.000000 0.000000 0.000000 0.000000 0.000000 -0.105371
#
#
# Mechanical properties :
#
#
# Convention : Reuss Voigt Hill
#
# Bulk Modulus (GPa) = 21.56089 66.62380 44.09234
# Shear Modulus (GPa) = 504.10952 44.90760 274.50856
#
# Velocity S-wave (km/s) = 14.92036 4.45325 11.01019
# Velocity P-wave (km/s) = 17.50269 7.47417 13.45748
#
# Compressibility (1/GPa) = 0.04638028
#
# Stress axis : x y z
#
# Youngs Moduli (GPa) = 28.36228 86.13434 223.55416
#
# Poissons Ratio (x) = -0.20274 0.32155
# Poissons Ratio (y) = -0.06676 0.75915
# Poissons Ratio (z) = 0.04080 0.29250
#
# Static dielectric constant tensor:
#      x y z
#    x 1.845600 0.000000 0.000000 
#    y 0.000000 1.821070 0.000000 
#    z 0.000000 0.000000 1.913170 
# 
# From -- ./inp_files/15281.got.cif
#   From: 2010.05.17/outbox.cif.g08.bks.cpg/sg35_8_cif.got.tgz:15281.got - 2010.06.03 17:29:28.
