data_PCOD9348029
_publ_section_title
;
Structure prediction by ZEFSAII (Michael W. Deem and Ramdas Pophale) SiO2 
 PCOD9348029
Probable space group: P N N 2
;
_chemical_formula_sum "Si O2"
_cell_formula_units_Z 22
_cell_length_a 8.046965
_cell_length_b 8.081180
_cell_length_c 12.244278
_cell_angle_alpha 90.000000
_cell_angle_beta 90.000000
_cell_angle_gamma 90.000000
_cell_volume 796.232819
_symmetry_space_group_name_H-M "P N N 2"
_symmetry_group_IT_number 34
_symmetry_cell_setting 'orthorhombic'
loop_
_space_group_symop_operation_xyz
x,y,z
-x,-y,z
1/2-x,1/2+y,1/2+z
1/2+x,1/2-y,1/2+z
loop_
_atom_site_type_symbol
_atom_site_label
_atom_site_fract_x
_atom_site_fract_y
_atom_site_fract_z
Si Si1 0.210405 0.663857 0.026500
Si Si2 0.000000 0.000000 0.418843
Si Si3 0.168189 0.334747 0.171959
Si Si4 0.812363 0.472570 0.545544
Si Si5 0.527395 0.680963 0.338570
Si Si6 0.164186 0.714376 0.314149
O O1 0.180578 0.499185 0.097487
O O2 0.005434 0.680649 0.237171
O O3 0.398516 0.634757 0.985203
O O4 0.077927 0.683667 0.928021
O O5 0.135133 0.901587 0.351583
O O6 0.317159 0.337798 0.258785
O O7 0.209028 0.174547 0.100588
O O8 0.719142 0.646152 0.565712
O O9 0.837880 0.408140 0.419686
O O10 0.000000 0.500000 0.589347
O O11 0.500000 0.500000 0.391842
O O12 0.354908 0.709845 0.275521
#
# Coordination Sequence:
#
# PCOD9348029 Si02
#       6
#     4   2   4   4   4   4
#     4  12  26  59  92 130 186 250 316 400 486 574
#     4  12  24  54  94 128 184 262 308 392 496 550
#     4  12  30  58  92 139 183 253 325 392 491 585
#     4  12  25  54  92 131 189 244 313 400 474 574
#     4  12  29  57  90 131 187 250 313 398 484 572
#     4  12  28  59  88 130 191 245 315 401 480 578
#
# _framework density 27.630106999999999
#
# number of rings (size 3 to 8) (size 9 to 14) (size 15 to 20)
#    0.000    0.000    7.273    0.000    3.818    2.182 
#   13.091    3.636    0.000    0.000    0.000    0.000 
#    0.000    0.000    0.000    0.000    0.000    0.000 
#
# Total GULP energy -123347.772256 kJ/mol
# GULP energy per Si atom -5606.716921 kJ/mol
# Density = 2.756722 g / cm^3
# Si number density = 27.630107 Si / 1000 Ang^3
#
#
#
# Elastic Constant Matrix: (Units=GPa)
#
#
# Indices 1 2 3 4 5 6 
#
# 1 253.9719 87.4968 93.3308 0.0000 0.0000 0.0000
# 2 87.4968 248.7236 109.4543 0.0000 0.0000 0.0000
# 3 93.3308 109.4543 136.3764 0.0000 0.0000 0.0000
# 4 0.0000 0.0000 0.0000 49.0560 0.0000 0.0000
# 5 0.0000 0.0000 0.0000 0.0000 45.6001 0.0000
# 6 0.0000 0.0000 0.0000 0.0000 0.0000 54.6531
#
#
#
# Elastic Compliance Matrix: (Units=1/GPa)
#
#
# Indices 1 2 3 4 5 6 
#
# 1 0.005288 -0.000414 -0.003287 0.000000 0.000000 0.000000
# 2 -0.000414 0.006248 -0.004732 0.000000 0.000000 0.000000
# 3 -0.003287 -0.004732 0.013379 0.000000 0.000000 0.000000
# 4 0.000000 0.000000 0.000000 0.020385 0.000000 0.000000
# 5 0.000000 0.000000 0.000000 0.000000 0.021930 0.000000
# 6 0.000000 0.000000 0.000000 0.000000 0.000000 0.018297
#
#
# Mechanical properties :
#
#
# Convention : Reuss Voigt Hill
#
# Bulk Modulus (GPa) = 124.20222 135.51511 129.85867
# Shear Modulus (GPa) = 47.58486 53.11450 50.34968
#
# Velocity S-wave (km/s) = 4.15445 4.38921 4.27344
# Velocity P-wave (km/s) = 8.24997 8.65098 8.45286
#
# Compressibility (1/GPa) = 0.00805139
#
# Stress axis : x y z
#
# Youngs Moduli (GPa) = 189.11453 160.04287 74.74150
#
# Poissons Ratio (x) = 0.06623 0.24565
# Poissons Ratio (y) = 0.07826 0.35365
# Poissons Ratio (z) = 0.62155 0.75726
#
# Static dielectric constant tensor:
#      x y z
#    x 2.100690 0.000000 0.000000 
#    y 0.000000 2.079100 0.000000 
#    z 0.000000 0.000000 2.279060 
# 
# From -- ./inp_files/6412.got.cif
#   From: 2010.05.17/outbox.cif.g08.bks.cpg/sg34_4_cif.got.tgz:6412.got - 2010.06.03 17:23:11.
