data_PCOD9348763
_publ_section_title
;
Structure prediction by ZEFSAII (Michael W. Deem and Ramdas Pophale) SiO2 
 PCOD9348763
Probable space group: C M M 2
;
_chemical_formula_sum "Si O2"
_cell_formula_units_Z 64
_cell_length_a 32.463048
_cell_length_b 9.437309
_cell_length_c 11.903444
_cell_angle_alpha 90.000000
_cell_angle_beta 90.000000
_cell_angle_gamma 90.000000
_cell_volume 3646.784516
_symmetry_space_group_name_H-M "C M M 2"
_symmetry_group_IT_number 35
_symmetry_cell_setting 'orthorhombic'
loop_
_space_group_symop_operation_xyz
x,y,z
-x,-y,z
-x,y,z
x,-y,z
1/2+x,1/2+y,z
1/2-x,1/2-y,z
1/2-x,1/2+y,z
1/2+x,1/2-y,z
loop_
_atom_site_type_symbol
_atom_site_label
_atom_site_fract_x
_atom_site_fract_y
_atom_site_fract_z
Si Si1 0.360202 0.834578 0.761780
Si Si2 0.952313 0.329283 0.155133
Si Si3 0.317109 0.161669 0.432337
Si Si4 0.950971 0.156987 0.376096
Si Si5 0.592151 0.156551 0.540971
Si Si6 0.206426 0.669927 0.172689
Si Si7 0.371786 0.828987 0.021969
Si Si8 0.789465 0.167655 0.640005
O O1 0.397336 0.829346 0.672203
O O2 0.327301 0.726760 0.711667
O O3 0.345401 0.000000 0.757079
O O4 0.369617 0.798342 0.889857
O O5 0.951890 0.500000 0.161229
O O6 0.940829 0.263638 0.275402
O O7 0.915724 0.281610 0.072407
O O8 0.000000 0.287756 0.127499
O O9 0.364853 0.162793 0.470925
O O10 0.308983 0.189868 0.301594
O O11 0.296133 0.276007 0.512954
O O12 0.302246 0.000000 0.457038
O O13 0.935268 0.220397 0.491912
O O14 0.000000 0.149131 0.378633
O O15 0.934001 0.000000 0.355017
O O16 0.574089 0.000000 0.521110
O O17 0.212499 0.500000 0.156967
O O18 0.250000 0.750000 0.155943
O O19 0.169051 0.718239 0.090497
O O20 0.371608 0.000000 0.033279
O O21 0.750000 0.250000 0.685130
O O22 0.785561 0.000000 0.644163
#
# Coordination Sequence:
#
# PCOD9348763 Si02
#       8
#     8   8   8   8   8   8   8   8
#     4   9  19  36  54  72  98 132 170 210 253 303
#     4   9  17  32  57  84 105 130 169 212 256 311
#     4   9  18  33  52  75 102 130 163 208 262 313
#     4  10  20  32  48  74 107 137 164 200 249 305
#     4   9  17  31  52  75  98 127 165 209 257 307
#     4  10  20  33  50  73 104 138 170 206 250 302
#     4   9  18  35  56  76 102 136 170 211 260 301
#     4  11  21  33  51  74 100 131 170 214 258 303
#
# _framework density 17.549707000000001
#
# number of rings (size 3 to 8) (size 9 to 14) (size 15 to 20)
#    0.000    2.500    0.000    3.375    0.000    6.750 
#    0.000    5.000    0.000    2.250    0.000    1.750 
#    0.000    0.000    0.000    0.000    0.000    0.000 
#
# Total GULP energy -178282.255151 kJ/mol
# GULP energy per Si atom -5571.320473 kJ/mol
# Density = 1.750976 g / cm^3
# Si number density = 17.549707 Si / 1000 Ang^3
#
#
#
# Elastic Constant Matrix: (Units=GPa)
#
#
# Indices 1 2 3 4 5 6 
#
# 1 48.6186 27.8589 57.4816 0.0000 0.0000 0.0000
# 2 27.8589 70.2256 39.0572 0.0000 0.0000 0.0000
# 3 57.4816 39.0572 118.6187 0.0000 0.0000 0.0000
# 4 0.0000 0.0000 0.0000 -10.7133 0.0000 0.0000
# 5 0.0000 0.0000 0.0000 0.0000 8.7875 0.0000
# 6 0.0000 0.0000 0.0000 0.0000 0.0000 24.2444
#
#
#
# Elastic Compliance Matrix: (Units=1/GPa)
#
#
# Indices 1 2 3 4 5 6 
#
# 1 0.051619 -0.008037 -0.022368 0.000000 0.000000 0.000000
# 2 -0.008037 0.018684 -0.002257 0.000000 0.000000 0.000000
# 3 -0.022368 -0.002257 0.020013 0.000000 0.000000 0.000000
# 4 0.000000 0.000000 0.000000 -0.093342 0.000000 0.000000
# 5 0.000000 0.000000 0.000000 0.000000 0.113798 0.000000
# 6 0.000000 0.000000 0.000000 0.000000 0.000000 0.041247
#
#
# Mechanical properties :
#
#
# Convention : Reuss Voigt Hill
#
# Bulk Modulus (GPa) = 40.01426 54.02871 47.02148
# Shear Modulus (GPa) = 22.15610 12.00143 17.07876
#
# Velocity S-wave (km/s) = 3.55699 2.61790 3.12294
# Velocity P-wave (km/s) = 6.30235 6.32383 6.31310
#
# Compressibility (1/GPa) = 0.02499109
#
# Stress axis : x y z
#
# Youngs Moduli (GPa) = 19.37274 53.52293 49.96828
#
# Poissons Ratio (x) = 0.43018 1.11767
# Poissons Ratio (y) = 0.15571 0.11278
# Poissons Ratio (z) = 0.43332 0.12080
#
# Static dielectric constant tensor:
#      x y z
#    x 1.631530 0.000000 0.000000 
#    y 0.000000 1.600930 0.000000 
#    z 0.000000 0.000000 1.590260 
# 
# From -- ./inp_files/14541.got.cif
#   From: 2010.05.17/outbox.cif.g08.bks.cpg/sg35_8_cif.got.tgz:14541.got - 2010.06.03 17:29:28.
