data_PCOD9348622
_publ_section_title
;
Structure prediction by ZEFSAII (Michael W. Deem and Ramdas Pophale) SiO2 
 PCOD9348622
Probable space group: C M M 2
;
_chemical_formula_sum "Si O2"
_cell_formula_units_Z 64
_cell_length_a 8.728018
_cell_length_b 31.703012
_cell_length_c 12.163969
_cell_angle_alpha 90.000000
_cell_angle_beta 90.000000
_cell_angle_gamma 90.000000
_cell_volume 3365.824466
_symmetry_space_group_name_H-M "C M M 2"
_symmetry_group_IT_number 35
_symmetry_cell_setting 'orthorhombic'
loop_
_space_group_symop_operation_xyz
x,y,z
-x,-y,z
-x,y,z
x,-y,z
1/2+x,1/2+y,z
1/2-x,1/2-y,z
1/2-x,1/2+y,z
1/2+x,1/2-y,z
loop_
_atom_site_type_symbol
_atom_site_label
_atom_site_fract_x
_atom_site_fract_y
_atom_site_fract_z
Si Si1 0.182042 0.705701 0.512930
Si Si2 0.815434 0.205366 0.986069
Si Si3 0.816315 0.415644 0.748991
Si Si4 0.182953 0.822243 0.741941
Si Si5 0.684197 0.952308 0.511420
Si Si6 0.683542 0.373493 0.381120
Si Si7 0.684853 0.624126 0.125990
Si Si8 0.315376 0.952365 0.986537
O O1 0.250000 0.750000 0.472479
O O2 0.235249 0.698951 0.638674
O O3 0.244593 0.666123 0.444466
O O4 0.000000 0.706663 0.507800
O O5 0.750000 0.250000 0.023682
O O6 0.770176 0.197015 0.859337
O O7 0.000000 0.206775 0.989790
O O8 0.764038 0.165718 0.059326
O O9 0.728911 0.371390 0.743354
O O10 0.783617 0.442208 0.639434
O O11 0.776238 0.439698 0.861109
O O12 0.000000 0.407329 0.750461
O O13 0.000000 0.817958 0.729539
O O14 0.500000 0.949442 0.497512
O O15 0.762000 0.916477 0.438648
O O16 0.732033 0.000000 0.484366
O O17 0.500000 0.370367 0.388066
O O18 0.729749 0.373445 0.253333
O O19 0.500000 0.622837 0.120726
O O20 0.748242 0.582610 0.067168
O O21 0.500000 0.951522 0.994506
O O22 0.263298 0.000000 0.010403
#
# Coordination Sequence:
#
# PCOD9348622 Si02
#       8
#     8   8   8   8   8   8   8   8
#     4  12  25  42  64  91 124 158 198 244 299 361
#     4  10  22  39  60  87 119 152 191 238 292 351
#     4  10  19  34  59  89 122 158 195 242 301 360
#     4  11  21  36  61  91 124 157 194 241 295 359
#     4  10  21  38  61  89 122 159 198 244 302 362
#     4  11  24  42  63  86 118 158 206 256 302 354
#     4  10  23  43  61  83 117 158 202 251 301 350
#     4  10  21  37  60  91 123 157 200 246 295 357
#
# _framework density 19.014657
#
# number of rings (size 3 to 8) (size 9 to 14) (size 15 to 20)
#    0.000    1.500    2.500    2.625    0.000    6.500 
#    0.000    3.750    0.000    2.250    0.000    0.000 
#    0.000    0.000    0.000    0.000    0.000    0.000 
#
# Total GULP energy -178879.930691 kJ/mol
# GULP energy per Si atom -5589.997834 kJ/mol
# Density = 1.897138 g / cm^3
# Si number density = 19.014657 Si / 1000 Ang^3
#
#
#
# Elastic Constant Matrix: (Units=GPa)
#
#
# Indices 1 2 3 4 5 6 
#
# 1 43.2339 48.5416 47.7211 0.0000 0.0000 0.0000
# 2 48.5416 186.8386 81.4513 0.0000 0.0000 0.0000
# 3 47.7211 81.4513 145.6435 0.0000 0.0000 0.0000
# 4 0.0000 0.0000 0.0000 7.1313 0.0000 0.0000
# 5 0.0000 0.0000 0.0000 0.0000 14.5871 0.0000
# 6 0.0000 0.0000 0.0000 0.0000 0.0000 35.1440
#
#
#
# Elastic Compliance Matrix: (Units=1/GPa)
#
#
# Indices 1 2 3 4 5 6 
#
# 1 0.041292 -0.006387 -0.009958 0.000000 0.000000 0.000000
# 2 -0.006387 0.008066 -0.002418 0.000000 0.000000 0.000000
# 3 -0.009958 -0.002418 0.011481 0.000000 0.000000 0.000000
# 4 0.000000 0.000000 0.000000 0.140228 0.000000 0.000000
# 5 0.000000 0.000000 0.000000 0.000000 0.068554 0.000000
# 6 0.000000 0.000000 0.000000 0.000000 0.000000 0.028454
#
#
# Mechanical properties :
#
#
# Convention : Reuss Voigt Hill
#
# Bulk Modulus (GPa) = 42.89343 81.23820 62.06581
# Shear Modulus (GPa) = 14.56148 24.57261 19.56704
#
# Velocity S-wave (km/s) = 2.77032 3.59876 3.21136
# Velocity P-wave (km/s) = 5.73061 7.75144 6.81633
#
# Compressibility (1/GPa) = 0.02331360
#
# Stress axis : x y z
#
# Youngs Moduli (GPa) = 24.21762 123.98204 87.09953
#
# Poissons Ratio (x) = 0.79186 0.86732
# Poissons Ratio (y) = 0.15467 0.21061
# Poissons Ratio (z) = 0.24115 0.29979
#
# Static dielectric constant tensor:
#      x y z
#    x 1.642770 0.000000 0.000000 
#    y 0.000000 1.630120 0.000000 
#    z 0.000000 0.000000 1.646350 
# 
# From -- ./inp_files/11836.got.cif
#   From: 2010.05.17/outbox.cif.g08.bks.cpg/sg35_6_cif.got.tgz:11836.got - 2010.06.03 17:29:28.
