data_PCOD9348992
_publ_section_title
;
Structure prediction by ZEFSAII (Michael W. Deem and Ramdas Pophale) SiO2 
 PCOD9348992
Probable space group: C M M 2
;
_chemical_formula_sum "Si O2"
_cell_formula_units_Z 64
_cell_length_a 12.405844
_cell_length_b 25.761587
_cell_length_c 10.231718
_cell_angle_alpha 90.000000
_cell_angle_beta 90.000000
_cell_angle_gamma 90.000000
_cell_volume 3269.998031
_symmetry_space_group_name_H-M "C M M 2"
_symmetry_group_IT_number 35
_symmetry_cell_setting 'orthorhombic'
loop_
_space_group_symop_operation_xyz
x,y,z
-x,-y,z
-x,y,z
x,-y,z
1/2+x,1/2+y,z
1/2-x,1/2-y,z
1/2-x,1/2+y,z
1/2+x,1/2-y,z
loop_
_atom_site_type_symbol
_atom_site_label
_atom_site_fract_x
_atom_site_fract_y
_atom_site_fract_z
Si Si1 0.618976 0.404965 0.227550
Si Si2 0.785855 0.439592 0.010554
Si Si3 0.376681 0.140756 0.457540
Si Si4 0.369378 0.780391 0.698613
Si Si5 0.384246 0.562775 0.788613
Si Si6 0.193713 0.061478 0.506703
Si Si7 0.382265 0.166308 0.977678
Si Si8 0.751891 0.308971 0.222649
O O1 0.500000 0.416754 0.176508
O O2 0.711526 0.430823 0.138567
O O3 0.629480 0.424927 0.375416
O O4 0.643857 0.343349 0.228737
O O5 0.818130 0.500000 0.002742
O O6 0.709485 0.424718 0.888391
O O7 0.875896 0.395626 0.001380
O O8 0.500000 0.126043 0.446573
O O9 0.365214 0.185028 0.567833
O O10 0.305071 0.091929 0.497449
O O11 0.332735 0.161237 0.319484
O O12 0.500000 0.758894 0.699826
O O13 0.250000 0.750000 0.700374
O O14 0.365831 0.815942 0.828876
O O15 0.500000 0.582949 0.833522
O O16 0.388390 0.500000 0.787872
O O17 0.363125 0.579164 0.640251
O O18 0.208645 0.000000 0.513454
O O19 0.500000 0.185560 0.018652
O O20 0.293893 0.189309 0.074769
O O21 0.750000 0.250000 0.267284
#
# Coordination Sequence:
#
# PCOD9348992 Si02
#       8
#     8   8   8   8   8   8   8   8
#     4  10  21  35  53  79 108 141 182 226 277 339
#     4  10  20  34  53  78 109 144 182 222 266 323
#     4  10  21  37  57  81 110 143 182 227 276 331
#     4  10  21  40  63  86 115 151 189 236 292 343
#     4   9  17  30  49  72 100 137 176 214 259 308
#     4  10  20  34  53  78 109 144 182 222 266 323
#     4  10  21  37  57  81 110 143 182 227 276 331
#     4  10  21  38  58  80 106 136 179 228 279 333
#
# _framework density 19.571877000000001
#
# number of rings (size 3 to 8) (size 9 to 14) (size 15 to 20)
#    0.000    2.125    0.000    3.000    0.000    3.500 
#    0.000   10.000    0.000    9.000    0.000    0.000 
#    0.000    0.000    0.000    0.000    0.000    0.000 
#
# Total GULP energy -178235.947712 kJ/mol
# GULP energy per Si atom -5569.873366 kJ/mol
# Density = 1.952733 g / cm^3
# Si number density = 19.571877 Si / 1000 Ang^3
#
#
#
# Elastic Constant Matrix: (Units=GPa)
#
#
# Indices 1 2 3 4 5 6 
#
# 1 92.6876 17.6279 4.4390 0.0000 0.0000 0.0000
# 2 17.6279 59.4889 -11.8162 0.0000 0.0000 0.0000
# 3 4.4390 -11.8162 89.5300 0.0000 0.0000 0.0000
# 4 0.0000 0.0000 0.0000 23.0535 0.0000 0.0000
# 5 0.0000 0.0000 0.0000 0.0000 -12.8016 0.0000
# 6 0.0000 0.0000 0.0000 0.0000 0.0000 -138.2633
#
#
#
# Elastic Compliance Matrix: (Units=1/GPa)
#
#
# Indices 1 2 3 4 5 6 
#
# 1 0.011529 -0.003625 -0.001050 0.000000 0.000000 0.000000
# 2 -0.003625 0.018402 0.002608 0.000000 0.000000 0.000000
# 3 -0.001050 0.002608 0.011566 0.000000 0.000000 0.000000
# 4 0.000000 0.000000 0.000000 0.043377 0.000000 0.000000
# 5 0.000000 0.000000 0.000000 0.000000 -0.078115 0.000000
# 6 0.000000 0.000000 0.000000 0.000000 0.000000 -0.007233
#
#
# Mechanical properties :
#
#
# Convention : Reuss Voigt Hill
#
# Bulk Modulus (GPa) = 26.76387 29.13422 27.94905
# Shear Modulus (GPa) = 310.30273 -10.17189 150.06542
#
# Velocity S-wave (km/s) = 12.60513 -2.28221 8.76587
# Velocity P-wave (km/s) = 15.01855 2.82373 10.80579
#
# Compressibility (1/GPa) = 0.03736380
#
# Stress axis : x y z
#
# Youngs Moduli (GPa) = 86.74089 54.34175 86.46209
#
# Poissons Ratio (x) = 0.19697 0.09078
# Poissons Ratio (y) = 0.31441 -0.22553
# Poissons Ratio (z) = 0.09108 -0.14175
#
# Static dielectric constant tensor:
#      x y z
#    x 1.717820 0.000000 0.000000 
#    y 0.000000 1.684370 0.000000 
#    z 0.000000 0.000000 1.670820 
# 
# From -- ./inp_files/6575.got.cif
#   From: 2010.05.17/outbox.cif.g08.bks.cpg/sg35_4_cif.got.tgz:6575.got - 2010.06.03 17:29:28.
