data_PCOD9348301
_publ_section_title
;
Structure prediction by ZEFSAII (Michael W. Deem and Ramdas Pophale) SiO2 
 PCOD9348301
Probable space group: C M M 2
;
_chemical_formula_sum "Si O2"
_cell_formula_units_Z 64
_cell_length_a 29.671212
_cell_length_b 8.075648
_cell_length_c 16.206016
_cell_angle_alpha 90.000000
_cell_angle_beta 90.000000
_cell_angle_gamma 90.000000
_cell_volume 3883.192594
_symmetry_space_group_name_H-M "C M M 2"
_symmetry_group_IT_number 35
_symmetry_cell_setting 'orthorhombic'
loop_
_space_group_symop_operation_xyz
x,y,z
-x,-y,z
-x,y,z
x,-y,z
1/2+x,1/2+y,z
1/2-x,1/2-y,z
1/2-x,1/2+y,z
1/2+x,1/2-y,z
loop_
_atom_site_type_symbol
_atom_site_label
_atom_site_fract_x
_atom_site_fract_y
_atom_site_fract_z
Si Si1 0.799584 0.802327 0.483020
Si Si2 0.200502 0.800583 0.673243
Si Si3 0.051713 0.299881 0.901033
Si Si4 0.447653 0.203129 0.260886
Si Si5 0.054765 0.691480 0.080741
Si Si6 0.106484 0.200178 0.741421
Si Si7 0.393830 0.196771 0.420371
Si Si8 0.448844 0.300979 0.581575
O O1 0.750000 0.750000 0.454044
O O2 0.804525 0.741031 0.578142
O O3 0.841440 0.739349 0.430341
O O4 0.801831 0.000000 0.485132
O O5 0.250000 0.750000 0.702949
O O6 0.157758 0.742662 0.725951
O O7 0.199133 0.000000 0.670854
O O8 0.050273 0.500000 0.906504
O O9 0.083977 0.252319 0.826639
O O10 0.000000 0.243749 0.885299
O O11 0.066980 0.235737 0.991494
O O12 0.500000 0.249567 0.274716
O O13 0.432656 0.263575 0.169916
O O14 0.416822 0.259912 0.336329
O O15 0.446891 0.000000 0.258128
O O16 0.070201 0.500000 0.080856
O O17 0.000000 0.688780 0.080901
O O18 0.076468 0.259580 0.663804
O O19 0.106665 0.000000 0.739042
O O20 0.420290 0.261635 0.500394
O O21 0.398803 0.000000 0.420256
O O22 0.500000 0.237104 0.575790
O O23 0.450943 0.500000 0.588017
#
# Coordination Sequence:
#
# PCOD9348301 Si02
#       8
#     8   8   8   8   8   8   8   8
#     4  10  19  34  51  67  89 117 153 192 232 276
#     4   9  18  32  49  65  84 111 148 187 225 267
#     4   9  17  28  44  68  93 117 151 192 227 262
#     4   8  14  25  42  65  93 123 154 187 222 265
#     4   7  11  23  42  62  87 118 149 185 228 266
#     4  10  19  32  46  63  88 122 154 182 223 274
#     4  11  20  29  45  70  95 120 153 192 231 268
#     4  10  20  33  45  58  87 131 165 185 217 267
#
# _framework density 16.481285
#
# number of rings (size 3 to 8) (size 9 to 14) (size 15 to 20)
#    0.000    2.750    1.250    3.000    0.000    3.000 
#    0.000    0.000    0.000    1.500    0.000    4.375 
#    0.000    2.000    0.000    0.000    0.000    0.000 
#
# Total GULP energy -178296.378861 kJ/mol
# GULP energy per Si atom -5571.761839 kJ/mol
# Density = 1.644377 g / cm^3
# Si number density = 16.481285 Si / 1000 Ang^3
#
#
#
# Elastic Constant Matrix: (Units=GPa)
#
#
# Indices 1 2 3 4 5 6 
#
# 1 124.0915 5.1279 81.5928 0.0000 0.0000 0.0000
# 2 5.1279 8.7734 5.6666 0.0000 0.0000 0.0000
# 3 81.5928 5.6666 152.9623 0.0000 0.0000 0.0000
# 4 0.0000 0.0000 0.0000 10.1828 0.0000 0.0000
# 5 0.0000 0.0000 0.0000 0.0000 7.5795 0.0000
# 6 0.0000 0.0000 0.0000 0.0000 0.0000 20.6159
#
#
#
# Elastic Compliance Matrix: (Units=1/GPa)
#
#
# Indices 1 2 3 4 5 6 
#
# 1 0.012492 -0.003071 -0.006550 0.000000 0.000000 0.000000
# 2 -0.003071 0.117529 -0.002716 0.000000 0.000000 0.000000
# 3 -0.006550 -0.002716 0.010132 0.000000 0.000000 0.000000
# 4 0.000000 0.000000 0.000000 0.098205 0.000000 0.000000
# 5 0.000000 0.000000 0.000000 0.000000 0.131936 0.000000
# 6 0.000000 0.000000 0.000000 0.000000 0.000000 0.048506
#
#
# Mechanical properties :
#
#
# Convention : Reuss Voigt Hill
#
# Bulk Modulus (GPa) = 8.65950 52.28910 30.47430
# Shear Modulus (GPa) = 10.37417 20.57163 15.47290
#
# Velocity S-wave (km/s) = 2.51161 3.53679 3.06734
# Velocity P-wave (km/s) = 3.69817 6.96231 5.57451
#
# Compressibility (1/GPa) = 0.11548013
#
# Stress axis : x y z
#
# Youngs Moduli (GPa) = 80.05088 8.50852 98.69814
#
# Poissons Ratio (x) = 0.02613 0.64644
# Poissons Ratio (y) = 0.24584 0.26804
# Poissons Ratio (z) = 0.52431 0.02311
#
# Static dielectric constant tensor:
#      x y z
#    x 1.539780 0.000000 0.000000 
#    y 0.000000 1.592220 0.000000 
#    z 0.000000 0.000000 1.571970 
# 
# From -- ./inp_files/16206.got.cif
#   From: 2010.05.17/outbox.cif.g08.bks.cpg/sg35_9_cif.got.tgz:16206.got - 2010.06.03 17:29:28.
