data_PCOD9348085
_publ_section_title
;
Structure prediction by ZEFSAII (Michael W. Deem and Ramdas Pophale) SiO2 
 PCOD9348085
Probable space group: C M M 2
;
_chemical_formula_sum "Si O2"
_cell_formula_units_Z 56
_cell_length_a 23.270831
_cell_length_b 9.649194
_cell_length_c 11.945049
_cell_angle_alpha 90.000000
_cell_angle_beta 90.000000
_cell_angle_gamma 90.000000
_cell_volume 2682.198195
_symmetry_space_group_name_H-M "C M M 2"
_symmetry_group_IT_number 35
_symmetry_cell_setting 'orthorhombic'
loop_
_space_group_symop_operation_xyz
x,y,z
-x,-y,z
-x,y,z
x,-y,z
1/2+x,1/2+y,z
1/2-x,1/2-y,z
1/2-x,1/2+y,z
1/2+x,1/2-y,z
loop_
_atom_site_type_symbol
_atom_site_label
_atom_site_fract_x
_atom_site_fract_y
_atom_site_fract_z
Si Si1 0.690987 0.164618 0.747520
Si Si2 0.197851 0.155350 0.398344
Si Si3 0.500000 0.833054 0.234775
Si Si4 0.804577 0.841938 0.128257
Si Si5 0.436728 0.840141 0.671093
Si Si6 0.000000 0.332983 0.977161
Si Si7 0.626152 0.837954 0.974285
Si Si8 0.592318 0.842442 0.418199
O O1 0.750000 0.250000 0.724067
O O2 0.628660 0.212646 0.695966
O O3 0.674405 0.174684 0.879122
O O4 0.698752 0.000000 0.719376
O O5 0.250000 0.250000 0.435365
O O6 0.195686 0.153755 0.262732
O O7 0.141252 0.231742 0.434364
O O8 0.203665 0.000000 0.439485
O O9 0.500000 0.783602 0.107443
O O10 0.554207 0.798262 0.312407
O O11 0.500000 0.000000 0.228153
O O12 0.750000 0.750000 0.095168
O O13 0.801085 0.000000 0.087189
O O14 0.858084 0.760567 0.076886
O O15 0.500000 0.781598 0.706661
O O16 0.439543 0.846734 0.536267
O O17 0.435307 0.000000 0.714197
O O18 0.000000 0.500000 0.976271
O O19 0.062748 0.296121 0.929513
O O20 0.624053 0.000000 0.009353
O O21 0.614179 0.000000 0.396461
#
# Coordination Sequence:
#
# PCOD9348085 Si02
#       8
#     8   8   4   8   8   4   8   8
#     4  10  22  38  59  85 115 151 190 242 296 345
#     4  10  21  35  51  76 109 146 185 229 280 336
#     4   9  16  28  50  80 112 143 179 225 274 327
#     4  10  20  34  53  76 106 145 187 230 280 338
#     4   9  18  35  60  88 114 145 192 242 288 340
#     4   9  18  30  48  80 114 143 183 233 276 327
#     4  10  20  34  54  81 111 147 190 235 287 335
#     4  10  18  32  56  82 108 144 185 226 278 338
#
# _framework density 20.878398000000001
#
# number of rings (size 3 to 8) (size 9 to 14) (size 15 to 20)
#    0.000    2.286    0.714    2.143    1.000    5.143 
#    0.000    2.857    0.000    3.857    0.000    0.000 
#    0.000    0.000    0.000    0.000    0.000    0.000 
#
# Total GULP energy -156030.911898 kJ/mol
# GULP energy per Si atom -5572.532568 kJ/mol
# Density = 2.083088 g / cm^3
# Si number density = 20.878398 Si / 1000 Ang^3
#
#
#
# Elastic Constant Matrix: (Units=GPa)
#
#
# Indices 1 2 3 4 5 6 
#
# 1 173.3196 67.9371 23.8425 0.0000 0.0000 0.0000
# 2 67.9371 103.0564 16.1756 0.0000 0.0000 0.0000
# 3 23.8425 16.1756 45.0029 0.0000 0.0000 0.0000
# 4 0.0000 0.0000 0.0000 14.4898 0.0000 0.0000
# 5 0.0000 0.0000 0.0000 0.0000 32.0967 0.0000
# 6 0.0000 0.0000 0.0000 0.0000 0.0000 26.4722
#
#
#
# Elastic Compliance Matrix: (Units=1/GPa)
#
#
# Indices 1 2 3 4 5 6 
#
# 1 0.008036 -0.004906 -0.002494 0.000000 0.000000 0.000000
# 2 -0.004906 0.013279 -0.002174 0.000000 0.000000 0.000000
# 3 -0.002494 -0.002174 0.024323 0.000000 0.000000 0.000000
# 4 0.000000 0.000000 0.000000 0.069014 0.000000 0.000000
# 5 0.000000 0.000000 0.000000 0.000000 0.031156 0.000000
# 6 0.000000 0.000000 0.000000 0.000000 0.000000 0.037775
#
#
# Mechanical properties :
#
#
# Convention : Reuss Voigt Hill
#
# Bulk Modulus (GPa) = 37.74911 59.69881 48.72396
# Shear Modulus (GPa) = 23.63392 28.84001 26.23696
#
# Velocity S-wave (km/s) = 3.36814 3.72066 3.54878
# Velocity P-wave (km/s) = 5.76589 6.86392 6.33873
#
# Compressibility (1/GPa) = 0.02649069
#
# Stress axis : x y z
#
# Youngs Moduli (GPa) = 124.44367 75.30866 41.11269
#
# Poissons Ratio (x) = 0.36946 0.10253
# Poissons Ratio (y) = 0.61051 0.08937
# Poissons Ratio (z) = 0.31036 0.16370
#
# Static dielectric constant tensor:
#      x y z
#    x 1.783160 0.000000 0.000000 
#    y 0.000000 1.712420 0.000000 
#    z 0.000000 0.000000 1.805940 
# 
# From -- ./inp_files/17490.got.cif
#   From: 2010.05.17/outbox.cif.g08.bks.cpg/sg35_9_cif.got.tgz:17490.got - 2010.06.03 17:29:28.
