data_PCOD9348375
_publ_section_title
;
Structure prediction by ZEFSAII (Michael W. Deem and Ramdas Pophale) SiO2 
 PCOD9348375
Probable space group: C M M 2
;
_chemical_formula_sum "Si O2"
_cell_formula_units_Z 56
_cell_length_a 8.175618
_cell_length_b 19.122862
_cell_length_c 18.915312
_cell_angle_alpha 90.000000
_cell_angle_beta 90.000000
_cell_angle_gamma 90.000000
_cell_volume 2957.242856
_symmetry_space_group_name_H-M "C M M 2"
_symmetry_group_IT_number 35
_symmetry_cell_setting 'orthorhombic'
loop_
_space_group_symop_operation_xyz
x,y,z
-x,-y,z
-x,y,z
x,-y,z
1/2+x,1/2+y,z
1/2-x,1/2-y,z
1/2-x,1/2+y,z
1/2+x,1/2-y,z
loop_
_atom_site_type_symbol
_atom_site_label
_atom_site_fract_x
_atom_site_fract_y
_atom_site_fract_z
Si Si1 0.197890 0.830868 0.690720
Si Si2 0.803769 0.830903 0.999353
Si Si3 0.697168 0.331028 0.844942
Si Si4 0.697165 0.079552 0.133220
Si Si5 0.195379 0.670017 0.265199
Si Si6 0.200387 0.080514 0.555699
Si Si7 0.195372 0.170036 0.421970
O O1 0.250000 0.750000 0.682603
O O2 0.253598 0.858137 0.768287
O O3 0.254985 0.877403 0.625237
O O4 0.000000 0.832023 0.690527
O O5 0.750000 0.750000 0.007388
O O6 0.740802 0.877405 0.063325
O O7 0.000000 0.832090 0.000206
O O8 0.746374 0.857840 0.921645
O O9 0.500000 0.335259 0.845101
O O10 0.750000 0.250000 0.844705
O O11 0.500000 0.077237 0.138005
O O12 0.758476 0.120614 0.202620
O O13 0.758252 0.000000 0.130295
O O14 0.250000 0.750000 0.253829
O O15 0.248963 0.648258 0.343732
O O16 0.000000 0.669273 0.263570
O O17 0.255295 0.120614 0.485038
O O18 0.000000 0.081220 0.555746
O O19 0.252012 0.000000 0.556724
O O20 0.250000 0.250000 0.433606
O O21 0.000000 0.169186 0.422706
#
# Coordination Sequence:
#
# PCOD9348375 Si02
#       7
#     8   8   8   8   8   8   8
#     4   9  16  29  50  72  96 127 162 201 242 284
#     4  10  19  32  52  77 103 131 167 209 251 296
#     4   8  15  27  45  72  99 124 159 201 244 286
#     4  10  22  38  53  72 101 135 168 203 247 298
#     4  10  20  35  55  76  98 125 160 201 244 292
#     4   9  18  31  47  70  99 130 163 197 236 284
#     4  10  19  32  52  75  98 124 158 200 242 286
#
# _framework density 18.936558000000002
#
# number of rings (size 3 to 8) (size 9 to 14) (size 15 to 20)
#    0.000    2.571    0.000    3.000    0.000    3.714 
#    0.000    1.429    0.000    6.000    0.000    0.000 
#    0.000    0.000    0.000    0.000    0.000    0.000 
#
# Total GULP energy -156111.722951 kJ/mol
# GULP energy per Si atom -5575.418677 kJ/mol
# Density = 1.889346 g / cm^3
# Si number density = 18.936558 Si / 1000 Ang^3
#
#
#
# Elastic Constant Matrix: (Units=GPa)
#
#
# Indices 1 2 3 4 5 6 
#
# 1 18.4047 8.9242 16.1775 0.0000 0.0000 0.0000
# 2 8.9242 103.9355 120.6820 0.0000 0.0000 0.0000
# 3 16.1775 120.6820 235.2787 0.0000 0.0000 0.0000
# 4 0.0000 0.0000 0.0000 -0.9180 0.0000 0.0000
# 5 0.0000 0.0000 0.0000 0.0000 12.0170 0.0000
# 6 0.0000 0.0000 0.0000 0.0000 0.0000 14.5662
#
#
#
# Elastic Compliance Matrix: (Units=1/GPa)
#
#
# Indices 1 2 3 4 5 6 
#
# 1 0.057860 -0.000862 -0.003536 0.000000 0.000000 0.000000
# 2 -0.000862 0.023803 -0.012150 0.000000 0.000000 0.000000
# 3 -0.003536 -0.012150 0.010726 0.000000 0.000000 0.000000
# 4 0.000000 0.000000 0.000000 -1.089282 0.000000 0.000000
# 5 0.000000 0.000000 0.000000 0.000000 0.083216 0.000000
# 6 0.000000 0.000000 0.000000 0.000000 0.000000 0.068652
#
#
# Mechanical properties :
#
#
# Convention : Reuss Voigt Hill
#
# Bulk Modulus (GPa) = 16.86561 72.13181 44.49871
# Shear Modulus (GPa) = -6.31183 19.25537 6.47177
#
# Velocity S-wave (km/s) = -1.82767 3.19225 1.85068
# Velocity P-wave (km/s) = 2.11468 7.19453 5.30250
#
# Compressibility (1/GPa) = 0.05929225
#
# Stress axis : x y z
#
# Youngs Moduli (GPa) = 17.28299 42.01116 93.23471
#
# Poissons Ratio (x) = 0.03622 0.32970
# Poissons Ratio (y) = 0.01490 1.13281
# Poissons Ratio (z) = 0.06112 0.51044
#
# Static dielectric constant tensor:
#      x y z
#    x 1.660020 0.000000 0.000000 
#    y 0.000000 1.614130 0.000000 
#    z 0.000000 0.000000 1.695690 
# 
# From -- ./inp_files/18221.got.cif
#   From: 2010.05.17/outbox.cif.g08.bks.cpg/sg35_10_cif.got.tgz:18221.got - 2010.06.03 17:29:28.
