data_PCOD9348852
_publ_section_title
;
Structure prediction by ZEFSAII (Michael W. Deem and Ramdas Pophale) SiO2 
 PCOD9348852
Probable space group: C M M 2
;
_chemical_formula_sum "Si O2"
_cell_formula_units_Z 64
_cell_length_a 20.698324
_cell_length_b 18.191309
_cell_length_c 9.650425
_cell_angle_alpha 90.000000
_cell_angle_beta 90.000000
_cell_angle_gamma 90.000000
_cell_volume 3633.670739
_symmetry_space_group_name_H-M "C M M 2"
_symmetry_group_IT_number 35
_symmetry_cell_setting 'orthorhombic'
loop_
_space_group_symop_operation_xyz
x,y,z
-x,-y,z
-x,y,z
x,-y,z
1/2+x,1/2+y,z
1/2-x,1/2-y,z
1/2-x,1/2+y,z
1/2+x,1/2-y,z
loop_
_atom_site_type_symbol
_atom_site_label
_atom_site_fract_x
_atom_site_fract_y
_atom_site_fract_z
Si Si1 0.739423 0.418040 0.112770
Si Si2 0.296656 0.313188 0.871802
Si Si3 0.574829 0.802008 0.314583
Si Si4 0.301322 0.411869 0.606122
Si Si5 0.183707 0.586309 0.396967
Si Si6 0.570194 0.356914 0.458845
Si Si7 0.089491 0.079170 0.168938
Si Si8 0.072971 0.230418 0.017982
O O1 0.752245 0.500000 0.051822
O O2 0.784754 0.407872 0.244322
O O3 0.666852 0.419280 0.171034
O O4 0.737372 0.351729 0.004410
O O5 0.250000 0.250000 0.818046
O O6 0.299813 0.376378 0.757439
O O7 0.366101 0.277784 0.914497
O O8 0.500000 0.826292 0.319418
O O9 0.622509 0.860059 0.385628
O O10 0.579024 0.724878 0.396789
O O11 0.588869 0.781902 0.152157
O O12 0.304288 0.500000 0.610968
O O13 0.238688 0.393026 0.510377
O O14 0.367244 0.380620 0.541697
O O15 0.167092 0.500000 0.419992
O O16 0.500000 0.360398 0.531102
O O17 0.567611 0.409123 0.324892
O O18 0.068218 0.148136 0.079782
O O19 0.070295 0.000000 0.112636
O O20 0.000000 0.250145 0.966811
#
# Coordination Sequence:
#
# PCOD9348852 Si02
#       8
#     8   8   8   8   8   8   8   8
#     4   9  17  33  54  78 106 139 179 224 273 322
#     4  11  23  36  54  79 106 148 187 223 275 334
#     4   9  19  35  57  85 113 141 182 237 286 334
#     4  11  24  39  53  80 115 147 187 233 274 324
#     4  10  20  35  59  84 110 144 184 234 287 334
#     4  10  20  33  51  76 109 147 180 217 268 323
#     4   9  15  27  48  76 107 139 175 212 257 317
#     4   9  19  35  53  79 111 141 181 234 279 324
#
# _framework density 17.613043999999999
#
# number of rings (size 3 to 8) (size 9 to 14) (size 15 to 20)
#    0.000    2.250    1.250    2.625    1.750    3.000 
#    0.000    0.000    0.000    0.000    0.000    0.000 
#    0.000    4.000    0.000    0.000    0.000    0.000 
#
# Total GULP energy -178250.685169 kJ/mol
# GULP energy per Si atom -5570.333912 kJ/mol
# Density = 1.757296 g / cm^3
# Si number density = 17.613044 Si / 1000 Ang^3
#
#
#
# Elastic Constant Matrix: (Units=GPa)
#
#
# Indices 1 2 3 4 5 6 
#
# 1 110.1418 47.0963 30.4419 0.0000 0.0000 0.0000
# 2 47.0963 51.5374 13.0268 0.0000 0.0000 0.0000
# 3 30.4419 13.0268 45.1619 0.0000 0.0000 0.0000
# 4 0.0000 0.0000 0.0000 18.7624 0.0000 0.0000
# 5 0.0000 0.0000 0.0000 0.0000 9.9056 0.0000
# 6 0.0000 0.0000 0.0000 0.0000 0.0000 20.2859
#
#
#
# Elastic Compliance Matrix: (Units=1/GPa)
#
#
# Indices 1 2 3 4 5 6 
#
# 1 0.016979 -0.013616 -0.007517 0.000000 0.000000 0.000000
# 2 -0.013616 0.031848 -0.000009 0.000000 0.000000 0.000000
# 3 -0.007517 -0.000009 0.027212 0.000000 0.000000 0.000000
# 4 0.000000 0.000000 0.000000 0.053298 0.000000 0.000000
# 5 0.000000 0.000000 0.000000 0.000000 0.100953 0.000000
# 6 0.000000 0.000000 0.000000 0.000000 0.000000 0.049295
#
#
# Mechanical properties :
#
#
# Convention : Reuss Voigt Hill
#
# Bulk Modulus (GPa) = 29.62471 43.10789 36.36630
# Shear Modulus (GPa) = 15.00955 17.54252 16.27604
#
# Velocity S-wave (km/s) = 2.92239 3.15936 3.04318
# Velocity P-wave (km/s) = 5.31445 6.15117 5.74806
#
# Compressibility (1/GPa) = 0.03375560
#
# Stress axis : x y z
#
# Youngs Moduli (GPa) = 58.89644 31.39923 36.74815
#
# Poissons Ratio (x) = 0.42752 0.27625
# Poissons Ratio (y) = 0.80191 0.00032
# Poissons Ratio (z) = 0.44275 0.00027
#
# Static dielectric constant tensor:
#      x y z
#    x 1.635660 0.000000 0.000000 
#    y 0.000000 1.602880 0.000000 
#    z 0.000000 0.000000 1.606880 
# 
# From -- ./inp_files/9457.got.cif
#   From: 2010.05.17/outbox.cif.g08.bks.cpg/sg35_5_cif.got.tgz:9457.got - 2010.06.03 17:29:28.
