data_PCOD9348594
_publ_section_title
;
Structure prediction by ZEFSAII (Michael W. Deem and Ramdas Pophale) SiO2 
 PCOD9348594
Probable space group: C M M 2
;
_chemical_formula_sum "Si O2"
_cell_formula_units_Z 48
_cell_length_a 15.794699
_cell_length_b 8.597799
_cell_length_c 17.946377
_cell_angle_alpha 90.000000
_cell_angle_beta 90.000000
_cell_angle_gamma 90.000000
_cell_volume 2437.111666
_symmetry_space_group_name_H-M "C M M 2"
_symmetry_group_IT_number 35
_symmetry_cell_setting 'orthorhombic'
loop_
_space_group_symop_operation_xyz
x,y,z
-x,-y,z
-x,y,z
x,-y,z
1/2+x,1/2+y,z
1/2-x,1/2-y,z
1/2-x,1/2+y,z
1/2+x,1/2-y,z
loop_
_atom_site_type_symbol
_atom_site_label
_atom_site_fract_x
_atom_site_fract_y
_atom_site_fract_z
Si Si1 0.598244 0.178622 0.572080
Si Si2 0.846419 0.812812 0.257779
Si Si3 0.500000 0.810301 0.995571
Si Si4 0.661212 0.188332 0.728195
Si Si5 0.500000 0.810206 0.824525
Si Si6 0.154797 0.814957 0.419371
Si Si7 0.153926 0.686486 0.100642
O O1 0.500000 0.177425 0.594477
O O2 0.647820 0.244776 0.642980
O O3 0.608284 0.262320 0.493672
O O4 0.625696 0.000000 0.560339
O O5 0.750000 0.750000 0.260604
O O6 0.883386 0.767463 0.338741
O O7 0.880362 0.741683 0.181430
O O8 0.846863 0.000000 0.251580
O O9 0.414537 0.762666 0.039024
O O10 0.500000 0.000000 0.995953
O O11 0.500000 0.758263 0.910013
O O12 0.750000 0.250000 0.757039
O O13 0.583317 0.238745 0.779534
O O14 0.660841 0.000000 0.725803
O O15 0.500000 0.000000 0.824839
O O16 0.250000 0.750000 0.424215
O O17 0.159158 0.000000 0.418377
O O18 0.159348 0.500000 0.100672
O O19 0.250000 0.750000 0.090178
#
# Coordination Sequence:
#
# PCOD9348594 Si02
#       7
#     8   8   4   8   4   8   8
#     4  10  20  35  53  76 108 146 187 228 273 327
#     4   9  17  31  51  75 104 141 182 224 271 320
#     4   9  20  36  57  84 111 144 182 221 269 333
#     4  10  20  36  60  85 110 145 185 224 271 327
#     4   9  18  38  61  80 111 148 180 219 271 331
#     4  10  20  33  51  76 106 142 185 229 274 324
#     4  10  19  34  56  82 111 143 184 226 272 326
#
# _framework density 19.695446
#
# number of rings (size 3 to 8) (size 9 to 14) (size 15 to 20)
#    0.000    2.333    0.833    3.000    0.000    5.000 
#    1.500    2.083    0.000    3.000    0.000    0.000 
#    0.000    0.000    0.000    0.000    0.000    0.000 
#
# Total GULP energy -133851.871924 kJ/mol
# GULP energy per Si atom -5577.161330 kJ/mol
# Density = 1.965062 g / cm^3
# Si number density = 19.695446 Si / 1000 Ang^3
#
#
#
# Elastic Constant Matrix: (Units=GPa)
#
#
# Indices 1 2 3 4 5 6 
#
# 1 104.4610 15.8895 73.1475 0.0000 0.0000 0.0000
# 2 15.8895 33.1654 29.5919 0.0000 0.0000 0.0000
# 3 73.1475 29.5919 171.2646 0.0000 0.0000 0.0000
# 4 0.0000 0.0000 0.0000 -3.7344 0.0000 0.0000
# 5 0.0000 0.0000 0.0000 0.0000 22.7051 0.0000
# 6 0.0000 0.0000 0.0000 0.0000 0.0000 21.1446
#
#
#
# Elastic Compliance Matrix: (Units=1/GPa)
#
#
# Indices 1 2 3 4 5 6 
#
# 1 0.013728 -0.001591 -0.005588 0.000000 0.000000 0.000000
# 2 -0.001591 0.035832 -0.005512 0.000000 0.000000 0.000000
# 3 -0.005588 -0.005512 0.009178 0.000000 0.000000 0.000000
# 4 0.000000 0.000000 0.000000 -0.267777 0.000000 0.000000
# 5 0.000000 0.000000 0.000000 0.000000 0.044043 0.000000
# 6 0.000000 0.000000 0.000000 0.000000 0.000000 0.047293
#
#
# Mechanical properties :
#
#
# Convention : Reuss Voigt Hill
#
# Bulk Modulus (GPa) = 29.97952 60.68319 45.33135
# Shear Modulus (GPa) = -61.57491 20.70719 -20.43386
#
# Velocity S-wave (km/s) = -5.59745 3.24600 -3.22451
# Velocity P-wave (km/s) = 5.14982 6.70271 3.03362
#
# Compressibility (1/GPa) = 0.03335611
#
# Stress axis : x y z
#
# Youngs Moduli (GPa) = 72.84281 27.90809 108.95489
#
# Poissons Ratio (x) = 0.04440 0.60889
# Poissons Ratio (y) = 0.11588 0.60053
# Poissons Ratio (z) = 0.40708 0.15382
#
# Static dielectric constant tensor:
#      x y z
#    x 1.663530 0.000000 0.000000 
#    y 0.000000 1.681630 0.000000 
#    z 0.000000 0.000000 1.720850 
# 
# From -- ./inp_files/18779.got.cif
#   From: 2010.05.17/outbox.cif.g08.bks.cpg/sg35_10_cif.got.tgz:18779.got - 2010.06.03 17:29:28.
