data_PCOD9348307
_publ_section_title
;
Structure prediction by ZEFSAII (Michael W. Deem and Ramdas Pophale) SiO2 
 PCOD9348307
Probable space group: C M M 2
;
_chemical_formula_sum "Si O2"
_cell_formula_units_Z 64
_cell_length_a 29.292992
_cell_length_b 8.651532
_cell_length_c 16.083610
_cell_angle_alpha 90.000000
_cell_angle_beta 90.000000
_cell_angle_gamma 90.000000
_cell_volume 4076.057343
_symmetry_space_group_name_H-M "C M M 2"
_symmetry_group_IT_number 35
_symmetry_cell_setting 'orthorhombic'
loop_
_space_group_symop_operation_xyz
x,y,z
-x,-y,z
-x,y,z
x,-y,z
1/2+x,1/2+y,z
1/2-x,1/2-y,z
1/2-x,1/2+y,z
1/2+x,1/2-y,z
loop_
_atom_site_type_symbol
_atom_site_label
_atom_site_fract_x
_atom_site_fract_y
_atom_site_fract_z
Si Si1 0.052733 0.311238 0.184870
Si Si2 0.798919 0.184388 0.413108
Si Si3 0.446583 0.686199 0.501753
Si Si4 0.447534 0.314335 0.827408
Si Si5 0.109623 0.186990 0.667943
Si Si6 0.109354 0.314639 0.346050
Si Si7 0.055434 0.678681 0.002420
Si Si8 0.298870 0.815666 0.599453
O O1 0.052231 0.500000 0.182338
O O2 0.084207 0.264278 0.261436
O O3 0.000000 0.262556 0.197908
O O4 0.069234 0.259715 0.093336
O O5 0.750000 0.250000 0.385230
O O6 0.841029 0.240796 0.358056
O O7 0.806668 0.248655 0.506558
O O8 0.797324 0.000000 0.416905
O O9 0.500000 0.727372 0.504668
O O10 0.443244 0.500000 0.492384
O O11 0.421320 0.726960 0.587720
O O12 0.421367 0.764167 0.424422
O O13 0.500000 0.258474 0.816746
O O14 0.448934 0.500000 0.823925
O O15 0.415807 0.261640 0.751818
O O16 0.430882 0.265346 0.918719
O O17 0.159094 0.260343 0.655092
O O18 0.113913 0.000000 0.669276
O O19 0.113437 0.500000 0.345637
O O20 0.069496 0.500000 0.995394
O O21 0.000000 0.682008 0.004973
O O22 0.250000 0.750000 0.627753
O O23 0.296894 0.000000 0.594568
#
# Coordination Sequence:
#
# PCOD9348307 Si02
#       8
#     8   8   8   8   8   8   8   8
#     4   8  15  28  46  68  96 129 162 196 236 280
#     4  11  21  35  52  70  93 122 157 199 243 287
#     4  10  20  32  45  63  93 133 168 195 229 276
#     4   9  17  29  46  69  97 129 162 196 236 280
#     4  10  19  32  48  67  96 131 162 194 236 285
#     4  11  20  31  48  71  96 126 162 200 239 283
#     4   8  14  27  46  66  90 123 161 200 239 277
#     4  11  21  34  52  72  93 120 157 200 242 284
#
# _framework density 15.701447
#
# number of rings (size 3 to 8) (size 9 to 14) (size 15 to 20)
#    0.000    2.250    1.250    4.875    0.000    2.750 
#    0.000    1.250    0.000    5.250    0.000    0.875 
#    0.000    6.000    0.000    0.000    0.000    0.000 
#
# Total GULP energy -178466.224262 kJ/mol
# GULP energy per Si atom -5577.069508 kJ/mol
# Density = 1.566571 g / cm^3
# Si number density = 15.701447 Si / 1000 Ang^3
#
#
#
# Elastic Constant Matrix: (Units=GPa)
#
#
# Indices 1 2 3 4 5 6 
#
# 1 119.9468 39.5585 77.7120 0.0000 0.0000 0.0000
# 2 39.5585 51.3977 38.4187 0.0000 0.0000 0.0000
# 3 77.7120 38.4187 140.5714 0.0000 0.0000 0.0000
# 4 0.0000 0.0000 0.0000 19.6337 0.0000 0.0000
# 5 0.0000 0.0000 0.0000 0.0000 8.4088 0.0000
# 6 0.0000 0.0000 0.0000 0.0000 0.0000 18.3618
#
#
#
# Elastic Compliance Matrix: (Units=1/GPa)
#
#
# Indices 1 2 3 4 5 6 
#
# 1 0.014539 -0.006513 -0.006258 0.000000 0.000000 0.000000
# 2 -0.006513 0.027368 -0.003880 0.000000 0.000000 0.000000
# 3 -0.006258 -0.003880 0.011634 0.000000 0.000000 0.000000
# 4 0.000000 0.000000 0.000000 0.050933 0.000000 0.000000
# 5 0.000000 0.000000 0.000000 0.000000 0.118922 0.000000
# 6 0.000000 0.000000 0.000000 0.000000 0.000000 0.054461
#
#
# Mechanical properties :
#
#
# Convention : Reuss Voigt Hill
#
# Bulk Modulus (GPa) = 49.40369 69.25490 59.32930
# Shear Modulus (GPa) = 15.72800 19.69599 17.71200
#
# Velocity S-wave (km/s) = 3.16838 3.54560 3.36229
# Velocity P-wave (km/s) = 6.70206 7.80800 7.27607
#
# Compressibility (1/GPa) = 0.02024140
#
# Stress axis : x y z
#
# Youngs Moduli (GPa) = 68.77934 36.53842 85.95786
#
# Poissons Ratio (x) = 0.23796 0.53791
# Poissons Ratio (y) = 0.44793 0.33348
# Poissons Ratio (z) = 0.43041 0.14175
#
# Static dielectric constant tensor:
#      x y z
#    x 1.513690 0.000000 0.000000 
#    y 0.000000 1.534110 0.000000 
#    z 0.000000 0.000000 1.522380 
# 
# From -- ./inp_files/17720.got.cif
#   From: 2010.05.17/outbox.cif.g08.bks.cpg/sg35_9_cif.got.tgz:17720.got - 2010.06.03 17:29:28.
