data_PCOD9348907
_publ_section_title
;
Structure prediction by ZEFSAII (Michael W. Deem and Ramdas Pophale) SiO2 
 PCOD9348907
Probable space group: C M M 2
;
_chemical_formula_sum "Si O2"
_cell_formula_units_Z 56
_cell_length_a 20.186620
_cell_length_b 14.172761
_cell_length_c 10.262364
_cell_angle_alpha 90.000000
_cell_angle_beta 90.000000
_cell_angle_gamma 90.000000
_cell_volume 2936.063784
_symmetry_space_group_name_H-M "C M M 2"
_symmetry_group_IT_number 35
_symmetry_cell_setting 'orthorhombic'
loop_
_space_group_symop_operation_xyz
x,y,z
-x,-y,z
-x,y,z
x,-y,z
1/2+x,1/2+y,z
1/2-x,1/2-y,z
1/2-x,1/2+y,z
1/2+x,1/2-y,z
loop_
_atom_site_type_symbol
_atom_site_label
_atom_site_fract_x
_atom_site_fract_y
_atom_site_fract_z
Si Si1 0.243831 0.889726 0.708710
Si Si2 0.641142 0.778572 0.061963
Si Si3 0.229130 0.111709 0.133178
Si Si4 0.079012 0.394954 0.293120
Si Si5 0.636671 0.762621 0.777347
Si Si6 0.805302 0.889330 0.422342
Si Si7 0.922903 0.246477 0.499689
O O1 0.314279 0.849915 0.750541
O O2 0.186074 0.828025 0.775551
O O3 0.236086 0.872037 0.553548
O O4 0.235995 0.000000 0.734989
O O5 0.708346 0.842158 0.060650
O O6 0.665291 0.672799 0.093670
O O7 0.600471 0.825849 0.177539
O O8 0.607727 0.776877 0.920689
O O9 0.234386 0.129820 0.289380
O O10 0.224251 0.000000 0.110178
O O11 0.108658 0.500000 0.279839
O O12 0.094536 0.345426 0.430195
O O13 0.000000 0.225018 0.472230
O O14 0.588958 0.751352 0.654368
O O15 0.871722 0.828270 0.438401
O O16 0.822820 0.000000 0.419653
O O17 0.000000 0.403196 0.287394
#
# Coordination Sequence:
#
# PCOD9348907 Si02
#       7
#     8   8   8   8   8   8   8
#     4   9  18  33  53  79 115 147 176 223 276 327
#     4  11  22  35  55  83 115 150 184 225 278 336
#     4  10  20  33  55  86 117 147 181 226 279 336
#     4  10  22  40  59  78 104 143 189 233 279 331
#     4  10  22  34  53  84 111 145 187 222 270 332
#     4   9  18  33  56  87 112 139 180 229 282 329
#     4  10  21  39  59  79 107 145 188 235 277 322
#
# _framework density 19.073156000000001
#
# number of rings (size 3 to 8) (size 9 to 14) (size 15 to 20)
#    0.000    2.143    1.429    2.143    2.000    5.429 
#    0.000    0.000    0.000    2.143    0.000    2.000 
#    0.000    0.000    0.000    0.000    0.000    0.000 
#
# Total GULP energy -156278.326672 kJ/mol
# GULP energy per Si atom -5581.368810 kJ/mol
# Density = 1.902974 g / cm^3
# Si number density = 19.073156 Si / 1000 Ang^3
#
#
#
# Elastic Constant Matrix: (Units=GPa)
#
#
# Indices 1 2 3 4 5 6 
#
# 1 25.0612 8.0309 -0.6632 0.0000 0.0000 0.0000
# 2 8.0309 99.3398 21.8507 0.0000 0.0000 0.0000
# 3 -0.6632 21.8507 85.1313 0.0000 0.0000 0.0000
# 4 0.0000 0.0000 0.0000 16.5254 0.0000 0.0000
# 5 0.0000 0.0000 0.0000 0.0000 10.3639 0.0000
# 6 0.0000 0.0000 0.0000 0.0000 0.0000 18.9555
#
#
#
# Elastic Compliance Matrix: (Units=1/GPa)
#
#
# Indices 1 2 3 4 5 6 
#
# 1 0.041087 -0.003595 0.001243 0.000000 0.000000 0.000000
# 2 -0.003595 0.010983 -0.002847 0.000000 0.000000 0.000000
# 3 0.001243 -0.002847 0.012487 0.000000 0.000000 0.000000
# 4 0.000000 0.000000 0.000000 0.060513 0.000000 0.000000
# 5 0.000000 0.000000 0.000000 0.000000 0.096489 0.000000
# 6 0.000000 0.000000 0.000000 0.000000 0.000000 0.052755
#
#
# Mechanical properties :
#
#
# Convention : Reuss Voigt Hill
#
# Bulk Modulus (GPa) = 18.46416 29.77434 24.11925
# Shear Modulus (GPa) = 16.51440 21.18989 18.85215
#
# Velocity S-wave (km/s) = 2.94572 3.33675 3.14731
# Velocity P-wave (km/s) = 4.61209 5.52175 5.08729
#
# Compressibility (1/GPa) = 0.05415898
#
# Stress axis : x y z
#
# Youngs Moduli (GPa) = 24.33851 91.04710 80.08328
#
# Poissons Ratio (x) = 0.32731 -0.09953
# Poissons Ratio (y) = 0.08750 0.22800
# Poissons Ratio (z) = -0.03025 0.25922
#
# Static dielectric constant tensor:
#      x y z
#    x 1.642610 0.000000 0.000000 
#    y 0.000000 1.662810 0.000000 
#    z 0.000000 0.000000 1.699970 
# 
# From -- ./inp_files/7596.got.cif
#   From: 2010.05.17/outbox.cif.g08.bks.cpg/sg35_4_cif.got.tgz:7596.got - 2010.06.03 17:29:28.
