data_PCOD9348940
_publ_section_title
;
Structure prediction by ZEFSAII (Michael W. Deem and Ramdas Pophale) SiO2 
 PCOD9348940
Probable space group: C M M 2
;
_chemical_formula_sum "Si O2"
_cell_formula_units_Z 48
_cell_length_a 18.677227
_cell_length_b 8.256230
_cell_length_c 16.195771
_cell_angle_alpha 90.000000
_cell_angle_beta 90.000000
_cell_angle_gamma 90.000000
_cell_volume 2497.444280
_symmetry_space_group_name_H-M "C M M 2"
_symmetry_group_IT_number 35
_symmetry_cell_setting 'orthorhombic'
loop_
_space_group_symop_operation_xyz
x,y,z
-x,-y,z
-x,y,z
x,-y,z
1/2+x,1/2+y,z
1/2-x,1/2-y,z
1/2-x,1/2+y,z
1/2+x,1/2-y,z
loop_
_atom_site_type_symbol
_atom_site_label
_atom_site_fract_x
_atom_site_fract_y
_atom_site_fract_z
Si Si1 0.331542 0.305960 0.843790
Si Si2 0.917866 0.695824 0.683230
Si Si3 0.668321 0.195832 0.521362
Si Si4 0.586890 0.188779 0.179542
Si Si5 0.081909 0.193732 0.002268
Si Si6 0.916748 0.301755 0.359834
O O1 0.332447 0.500000 0.845239
O O2 0.250000 0.250000 0.838057
O O3 0.376362 0.249059 0.764856
O O4 0.369094 0.244302 0.927926
O O5 0.918818 0.500000 0.681286
O O6 0.876290 0.751741 0.601212
O O7 0.000000 0.752706 0.683957
O O8 0.750000 0.250000 0.526549
O O9 0.630874 0.251753 0.436623
O O10 0.666245 0.000000 0.521007
O O11 0.500000 0.199639 0.181719
O O12 0.609739 0.253818 0.269289
O O13 0.606090 0.000000 0.174795
O O14 0.609906 0.268902 0.094126
O O15 0.000000 0.256983 0.995040
O O16 0.078188 0.000000 0.994604
O O17 0.916250 0.500000 0.357552
O O18 0.000000 0.254657 0.371356
#
# Coordination Sequence:
#
# PCOD9348940 Si02
#       6
#     8   8   8   8   8   8
#     4  11  23  38  55  76 105 140 174 211 259 311
#     4  10  21  37  58  82 104 131 171 215 258 307
#     4  10  20  34  52  75 105 138 169 205 251 303
#     4   8  14  26  48  76 100 126 166 213 254 293
#     4   9  18  33  52  74 101 133 168 208 257 308
#     4   8  14  28  51  75  98 129 171 213 250 293
#
# _framework density 19.219649
#
# number of rings (size 3 to 8) (size 9 to 14) (size 15 to 20)
#    0.000    2.667    0.000    3.000    0.000    6.333 
#    0.000    3.333    0.000    6.500    0.000    0.000 
#    0.000    0.000    0.000    0.000    0.000    0.000 
#
# Total GULP energy -133857.605851 kJ/mol
# GULP energy per Si atom -5577.400244 kJ/mol
# Density = 1.917590 g / cm^3
# Si number density = 19.219649 Si / 1000 Ang^3
#
#
#
# Elastic Constant Matrix: (Units=GPa)
#
#
# Indices 1 2 3 4 5 6 
#
# 1 136.3999 12.3968 114.7429 0.0000 0.0000 0.0000
# 2 12.3968 7.1025 21.0043 0.0000 0.0000 0.0000
# 3 114.7429 21.0043 225.6685 0.0000 0.0000 0.0000
# 4 0.0000 0.0000 0.0000 48.8569 0.0000 0.0000
# 5 0.0000 0.0000 0.0000 0.0000 -24.6783 0.0000
# 6 0.0000 0.0000 0.0000 0.0000 0.0000 19.8906
#
#
#
# Elastic Compliance Matrix: (Units=1/GPa)
#
#
# Indices 1 2 3 4 5 6 
#
# 1 0.012906 -0.004305 -0.006161 0.000000 0.000000 0.000000
# 2 -0.004305 0.195705 -0.016026 0.000000 0.000000 0.000000
# 3 -0.006161 -0.016026 0.009056 0.000000 0.000000 0.000000
# 4 0.000000 0.000000 0.000000 0.020468 0.000000 0.000000
# 5 0.000000 0.000000 0.000000 0.000000 -0.040521 0.000000
# 6 0.000000 0.000000 0.000000 0.000000 0.000000 0.050275
#
#
# Mechanical properties :
#
#
# Convention : Reuss Voigt Hill
#
# Bulk Modulus (GPa) = 6.07236 73.93988 40.00612
# Shear Modulus (GPa) = 14.05415 23.54896 18.80156
#
# Velocity S-wave (km/s) = 2.70708 3.50416 3.13109
# Velocity P-wave (km/s) = 3.59685 7.41125 5.82512
#
# Compressibility (1/GPa) = 0.16468070
#
# Stress axis : x y z
#
# Youngs Moduli (GPa) = 77.48526 5.10974 110.42741
#
# Poissons Ratio (x) = 0.02200 0.68038
# Poissons Ratio (y) = 0.33357 1.76976
# Poissons Ratio (z) = 0.47741 0.08189
#
# Static dielectric constant tensor:
#      x y z
#    x 1.639230 0.000000 0.000000 
#    y 0.000000 1.678600 0.000000 
#    z 0.000000 0.000000 1.683540 
# 
# From -- ./inp_files/12279.got.cif
#   From: 2010.05.17/outbox.cif.g08.bks.cpg/sg35_7_cif.got.tgz:12279.got - 2010.06.03 17:29:28.
