data_PCOD9348777
_publ_section_title
;
Structure prediction by ZEFSAII (Michael W. Deem and Ramdas Pophale) SiO2 
 PCOD9348777
Probable space group: C M M 2
;
_chemical_formula_sum "Si O2"
_cell_formula_units_Z 64
_cell_length_a 18.758898
_cell_length_b 20.691230
_cell_length_c 9.207948
_cell_angle_alpha 90.000000
_cell_angle_beta 90.000000
_cell_angle_gamma 90.000000
_cell_volume 3574.015966
_symmetry_space_group_name_H-M "C M M 2"
_symmetry_group_IT_number 35
_symmetry_cell_setting 'orthorhombic'
loop_
_space_group_symop_operation_xyz
x,y,z
-x,-y,z
-x,y,z
x,-y,z
1/2+x,1/2+y,z
1/2-x,1/2-y,z
1/2-x,1/2+y,z
1/2+x,1/2-y,z
loop_
_atom_site_type_symbol
_atom_site_label
_atom_site_fract_x
_atom_site_fract_y
_atom_site_fract_z
Si Si1 0.922484 0.424444 0.628600
Si Si2 0.581926 0.736532 0.396659
Si Si3 0.583763 0.274660 0.740475
Si Si4 0.788011 0.820652 0.248379
Si Si5 0.582952 0.132413 0.209288
Si Si6 0.367208 0.858938 0.884314
Si Si7 0.215620 0.177987 0.906168
Si Si8 0.688648 0.073507 0.400804
O O1 0.925630 0.500000 0.594832
O O2 0.909411 0.413770 0.798359
O O3 0.852178 0.400710 0.544634
O O4 0.000000 0.395109 0.586214
O O5 0.500000 0.717785 0.376144
O O6 0.596020 0.736820 0.569032
O O7 0.635691 0.687767 0.321405
O O8 0.591015 0.805163 0.314321
O O9 0.500000 0.292122 0.761846
O O10 0.600042 0.206600 0.817933
O O11 0.643314 0.321847 0.811880
O O12 0.750000 0.750000 0.262169
O O13 0.744168 0.875731 0.333416
O O14 0.796617 0.834345 0.077030
O O15 0.500000 0.120405 0.187974
O O16 0.623588 0.074519 0.286445
O O17 0.619551 0.144749 0.055207
O O18 0.282582 0.865131 0.856997
O O19 0.250000 0.250000 0.895379
O O20 0.715375 0.000000 0.420626
#
# Coordination Sequence:
#
# PCOD9348777 Si02
#       8
#     8   8   8   8   8   8   8   8
#     4  10  22  38  53  73 108 152 194 231 272 329
#     4  10  21  34  55  85 114 144 187 235 284 335
#     4  10  20  32  50  81 113 142 178 225 280 337
#     4  11  20  37  58  82 111 146 187 234 281 333
#     4  11  20  34  55  80 114 154 189 228 276 328
#     4  11  20  34  50  77 109 148 189 226 271 324
#     4   9  19  33  50  75 108 143 179 225 277 328
#     4  11  23  38  56  81 113 150 190 235 281 335
#
# _framework density 17.907028
#
# number of rings (size 3 to 8) (size 9 to 14) (size 15 to 20)
#    0.000    1.625    2.500    3.750    1.750    4.250 
#    0.000    0.000    0.000    0.375    0.000    0.000 
#    0.000    0.500    0.000    0.000    0.000    0.000 
#
# Total GULP energy -178411.150932 kJ/mol
# GULP energy per Si atom -5575.348467 kJ/mol
# Density = 1.786627 g / cm^3
# Si number density = 17.907028 Si / 1000 Ang^3
#
#
#
# Elastic Constant Matrix: (Units=GPa)
#
#
# Indices 1 2 3 4 5 6 
#
# 1 107.2936 30.9423 57.5717 0.0000 0.0000 0.0000
# 2 30.9423 41.4933 18.6411 0.0000 0.0000 0.0000
# 3 57.5717 18.6411 113.4801 0.0000 0.0000 0.0000
# 4 0.0000 0.0000 0.0000 14.6594 0.0000 0.0000
# 5 0.0000 0.0000 0.0000 0.0000 33.7497 0.0000
# 6 0.0000 0.0000 0.0000 0.0000 0.0000 14.8607
#
#
#
# Elastic Compliance Matrix: (Units=1/GPa)
#
#
# Indices 1 2 3 4 5 6 
#
# 1 0.015134 -0.008461 -0.006288 0.000000 0.000000 0.000000
# 2 -0.008461 0.030751 -0.000759 0.000000 0.000000 0.000000
# 3 -0.006288 -0.000759 0.012127 0.000000 0.000000 0.000000
# 4 0.000000 0.000000 0.000000 0.068215 0.000000 0.000000
# 5 0.000000 0.000000 0.000000 0.000000 0.029630 0.000000
# 6 0.000000 0.000000 0.000000 0.000000 0.000000 0.067292
#
#
# Mechanical properties :
#
#
# Convention : Reuss Voigt Hill
#
# Bulk Modulus (GPa) = 37.04263 52.95304 44.99783
# Shear Modulus (GPa) = 18.99956 22.99475 20.99716
#
# Velocity S-wave (km/s) = 3.26085 3.58735 3.42799
# Velocity P-wave (km/s) = 5.90834 6.84062 6.39150
#
# Compressibility (1/GPa) = 0.02699593
#
# Stress axis : x y z
#
# Youngs Moduli (GPa) = 66.07445 32.51962 82.46068
#
# Poissons Ratio (x) = 0.27515 0.51854
# Poissons Ratio (y) = 0.55905 0.06257
# Poissons Ratio (z) = 0.41549 0.02468
#
# Static dielectric constant tensor:
#      x y z
#    x 1.650530 0.000000 0.000000 
#    y 0.000000 1.628620 0.000000 
#    z 0.000000 0.000000 1.652010 
# 
# From -- ./inp_files/8730.got.cif
#   From: 2010.05.17/outbox.cif.g08.bks.cpg/sg35_5_cif.got.tgz:8730.got - 2010.06.03 17:29:28.
