data_PCOD9348663
_publ_section_title
;
Structure prediction by ZEFSAII (Michael W. Deem and Ramdas Pophale) SiO2 
 PCOD9348663
Probable space group: C M M 2
;
_chemical_formula_sum "Si O2"
_cell_formula_units_Z 40
_cell_length_a 13.628948
_cell_length_b 30.765004
_cell_length_c 5.301112
_cell_angle_alpha 90.000000
_cell_angle_beta 90.000000
_cell_angle_gamma 90.000000
_cell_volume 2222.727846
_symmetry_space_group_name_H-M "C M M 2"
_symmetry_group_IT_number 35
_symmetry_cell_setting 'orthorhombic'
loop_
_space_group_symop_operation_xyz
x,y,z
-x,-y,z
-x,y,z
x,-y,z
1/2+x,1/2+y,z
1/2-x,1/2-y,z
1/2-x,1/2+y,z
1/2+x,1/2-y,z
loop_
_atom_site_type_symbol
_atom_site_label
_atom_site_fract_x
_atom_site_fract_y
_atom_site_fract_z
Si Si1 0.731283 0.415204 0.141280
Si Si2 0.884889 0.832079 0.183991
Si Si3 0.773900 0.800666 0.685911
Si Si4 0.305628 0.951465 0.648109
Si Si5 0.611815 0.867695 0.850847
O O1 0.639615 0.383411 0.164910
O O2 0.750541 0.443231 0.387103
O O3 0.733622 0.443345 0.886349
O O4 0.825138 0.382716 0.095635
O O5 0.829609 0.814898 0.432442
O O6 0.000000 0.823993 0.202172
O O7 0.840307 0.810830 0.931141
O O8 0.750000 0.750000 0.675773
O O9 0.676121 0.830027 0.721919
O O10 0.382077 0.911998 0.685347
O O11 0.346817 0.000000 0.658844
O O12 0.500000 0.855641 0.900491
#
# Coordination Sequence:
#
# PCOD9348663 Si02
#       5
#     8   8   8   8   8
#     4   9  19  37  54  84 114 151 190 242 284 340
#     4  11  21  40  65  86 113 157 200 242 295 344
#     4  11  23  41  59  90 121 151 196 248 292 355
#     4  10  19  35  58  81 117 155 191 235 293 347
#     4   9  21  37  56  83 119 155 189 237 295 346
#
# _framework density 17.995903999999999
#
# number of rings (size 3 to 8) (size 9 to 14) (size 15 to 20)
#    1.200    0.800    2.000    1.800    0.000    2.800 
#    0.000    0.000    0.000    3.600    0.000    0.000 
#    0.000    0.000    0.000    0.000    0.000    0.000 
#
# Total GULP energy -111348.924404 kJ/mol
# GULP energy per Si atom -5567.446220 kJ/mol
# Density = 1.795494 g / cm^3
# Si number density = 17.995904 Si / 1000 Ang^3
#
#
#
# Elastic Constant Matrix: (Units=GPa)
#
#
# Indices 1 2 3 4 5 6 
#
# 1 88.4989 44.0043 27.3036 0.0000 0.0000 0.0000
# 2 44.0043 114.7440 23.2161 0.0000 0.0000 0.0000
# 3 27.3036 23.2161 132.1087 0.0000 0.0000 0.0000
# 4 0.0000 0.0000 0.0000 25.9401 0.0000 0.0000
# 5 0.0000 0.0000 0.0000 0.0000 14.6058 0.0000
# 6 0.0000 0.0000 0.0000 0.0000 0.0000 2.6494
#
#
#
# Elastic Compliance Matrix: (Units=1/GPa)
#
#
# Indices 1 2 3 4 5 6 
#
# 1 0.014500 -0.005137 -0.002094 0.000000 0.000000 0.000000
# 2 -0.005137 0.010856 -0.000846 0.000000 0.000000 0.000000
# 3 -0.002094 -0.000846 0.008151 0.000000 0.000000 0.000000
# 4 0.000000 0.000000 0.000000 0.038550 0.000000 0.000000
# 5 0.000000 0.000000 0.000000 0.000000 0.068466 0.000000
# 6 0.000000 0.000000 0.000000 0.000000 0.000000 0.377439
#
#
# Mechanical properties :
#
#
# Convention : Reuss Voigt Hill
#
# Bulk Modulus (GPa) = 57.62742 58.26661 57.94701
# Shear Modulus (GPa) = 9.26096 24.69425 16.97760
#
# Velocity S-wave (km/s) = 2.27097 3.70836 3.07484
# Velocity P-wave (km/s) = 6.24247 7.12628 6.69897
#
# Compressibility (1/GPa) = 0.01735285
#
# Stress axis : x y z
#
# Youngs Moduli (GPa) = 68.96598 92.11244 122.68435
#
# Poissons Ratio (x) = 0.47318 0.25690
# Poissons Ratio (y) = 0.35428 0.10381
# Poissons Ratio (z) = 0.14442 0.07794
#
# Static dielectric constant tensor:
#      x y z
#    x 1.598540 0.000000 0.000000 
#    y 0.000000 1.611260 0.000000 
#    z 0.000000 0.000000 1.625940 
# 
# From -- ./inp_files/1822.got.cif
#   From: 2010.05.17/outbox.cif.g08.bks.cpg/sg35_1_cif.got.tgz:1822.got - 2010.06.03 17:29:28.
