data_PCOD9348160
_publ_section_title
;
Structure prediction by ZEFSAII (Michael W. Deem and Ramdas Pophale) SiO2 
 PCOD9348160
Probable space group: C M M 2
;
_chemical_formula_sum "Si O2"
_cell_formula_units_Z 56
_cell_length_a 22.925952
_cell_length_b 8.251577
_cell_length_c 15.298192
_cell_angle_alpha 90.000000
_cell_angle_beta 90.000000
_cell_angle_gamma 90.000000
_cell_volume 2894.039422
_symmetry_space_group_name_H-M "C M M 2"
_symmetry_group_IT_number 35
_symmetry_cell_setting 'orthorhombic'
loop_
_space_group_symop_operation_xyz
x,y,z
-x,-y,z
-x,y,z
x,-y,z
1/2+x,1/2+y,z
1/2-x,1/2-y,z
1/2-x,1/2+y,z
1/2+x,1/2-y,z
loop_
_atom_site_type_symbol
_atom_site_label
_atom_site_fract_x
_atom_site_fract_y
_atom_site_fract_z
Si Si1 0.000000 0.178276 0.674690
Si Si2 0.684307 0.695755 0.298135
Si Si3 0.374788 0.691722 0.473407
Si Si4 0.932081 0.309207 0.992614
Si Si5 0.892600 0.187317 0.806503
Si Si6 0.684119 0.303560 0.653009
Si Si7 0.500000 0.183205 0.495868
Si Si8 0.182511 0.805891 0.100442
O O1 0.944463 0.185443 0.736206
O O2 0.000000 0.311589 0.601121
O O3 0.000000 0.000000 0.630422
O O4 0.679244 0.500000 0.297137
O O5 0.750000 0.750000 0.311170
O O6 0.651527 0.759434 0.383707
O O7 0.669190 0.751595 0.199992
O O8 0.362380 0.500000 0.475011
O O9 0.350713 0.755034 0.566642
O O10 0.442631 0.724395 0.468312
O O11 0.934445 0.500000 0.010302
O O12 0.914961 0.278886 0.891461
O O13 0.000000 0.246468 0.007350
O O14 0.874904 0.242669 0.044411
O O15 0.839991 0.254493 0.747171
O O16 0.880431 0.000000 0.832744
O O17 0.679011 0.500000 0.655894
O O18 0.750000 0.250000 0.641674
O O19 0.500000 0.000000 0.463863
O O20 0.250000 0.750000 0.077575
O O21 0.185625 0.000000 0.098869
#
# Coordination Sequence:
#
# PCOD9348160 Si02
#       8
#     4   8   8   8   8   8   4   8
#     4  10  18  36  60  77 104 147 190 229 276 336
#     4   9  19  36  62  89 113 147 190 235 286 343
#     4  10  20  38  58  79 113 154 191 230 280 342
#     4  11  24  40  60  89 122 158 197 247 305 356
#     4  10  20  36  59  82 107 149 195 234 282 341
#     4  10  21  35  54  81 113 150 188 229 280 331
#     4  12  24  34  52  83 114 149 194 241 286 328
#     4  10  21  40  65  92 119 153 197 246 301 362
#
# _framework density 19.350117999999998
#
# number of rings (size 3 to 8) (size 9 to 14) (size 15 to 20)
#    0.000    1.857    2.143    1.929    0.000    4.286 
#    1.286    1.429    0.000    0.000    0.000    0.000 
#    0.000    0.000    0.000    0.000    0.000    0.000 
#
# Total GULP energy -155954.565094 kJ/mol
# GULP energy per Si atom -5569.805896 kJ/mol
# Density = 1.930608 g / cm^3
# Si number density = 19.350118 Si / 1000 Ang^3
#
#
#
# Elastic Constant Matrix: (Units=GPa)
#
#
# Indices 1 2 3 4 5 6 
#
# 1 128.8147 6.2191 70.7346 0.0000 0.0000 0.0000
# 2 6.2191 17.2895 12.1136 0.0000 0.0000 0.0000
# 3 70.7346 12.1136 102.3112 0.0000 0.0000 0.0000
# 4 0.0000 0.0000 0.0000 10.1952 0.0000 0.0000
# 5 0.0000 0.0000 0.0000 0.0000 29.3433 0.0000
# 6 0.0000 0.0000 0.0000 0.0000 0.0000 26.4390
#
#
#
# Elastic Compliance Matrix: (Units=1/GPa)
#
#
# Indices 1 2 3 4 5 6 
#
# 1 0.012560 0.001708 -0.008886 0.000000 0.000000 0.000000
# 2 0.001708 0.063303 -0.008676 0.000000 0.000000 0.000000
# 3 -0.008886 -0.008676 0.016945 0.000000 0.000000 0.000000
# 4 0.000000 0.000000 0.000000 0.098085 0.000000 0.000000
# 5 0.000000 0.000000 0.000000 0.000000 0.034079 0.000000
# 6 0.000000 0.000000 0.000000 0.000000 0.000000 0.037823
#
#
# Mechanical properties :
#
#
# Convention : Reuss Voigt Hill
#
# Bulk Modulus (GPa) = 16.36662 47.39443 31.88053
# Shear Modulus (GPa) = 15.87964 23.81872 19.84918
#
# Velocity S-wave (km/s) = 2.86780 3.51227 3.20627
# Velocity P-wave (km/s) = 4.40934 6.40268 5.49712
#
# Compressibility (1/GPa) = 0.06109996
#
# Stress axis : x y z
#
# Youngs Moduli (GPa) = 79.61799 15.79711 59.01583
#
# Poissons Ratio (x) = -0.02698 0.52440
# Poissons Ratio (y) = -0.13597 0.51200
# Poissons Ratio (z) = 0.70747 0.13705
#
# Static dielectric constant tensor:
#      x y z
#    x 1.692120 0.000000 0.000000 
#    y 0.000000 1.699330 0.000000 
#    z 0.000000 0.000000 1.702770 
# 
# From -- ./inp_files/15760.got.cif
#   From: 2010.05.17/outbox.cif.g08.bks.cpg/sg35_8_cif.got.tgz:15760.got - 2010.06.03 17:29:28.
