data_PCOD9348474
_publ_section_title
;
Structure prediction by ZEFSAII (Michael W. Deem and Ramdas Pophale) SiO2 
 PCOD9348474
Probable space group: C M M 2
;
_chemical_formula_sum "Si O2"
_cell_formula_units_Z 40
_cell_length_a 16.026615
_cell_length_b 7.375373
_cell_length_c 15.224740
_cell_angle_alpha 90.000000
_cell_angle_beta 90.000000
_cell_angle_gamma 90.000000
_cell_volume 1799.598730
_symmetry_space_group_name_H-M "C M M 2"
_symmetry_group_IT_number 35
_symmetry_cell_setting 'orthorhombic'
loop_
_space_group_symop_operation_xyz
x,y,z
-x,-y,z
-x,y,z
x,-y,z
1/2+x,1/2+y,z
1/2-x,1/2-y,z
1/2-x,1/2+y,z
1/2+x,1/2-y,z
loop_
_atom_site_type_symbol
_atom_site_label
_atom_site_fract_x
_atom_site_fract_y
_atom_site_fract_z
Si Si1 0.500000 0.277885 0.842911
Si Si2 0.848365 0.784036 0.362001
Si Si3 0.500000 0.278193 0.044982
Si Si4 0.151397 0.217058 0.166947
Si Si5 0.404703 0.281066 0.549652
Si Si6 0.841970 0.783928 0.730806
O O1 0.500000 0.500000 0.842707
O O2 0.417296 0.217434 0.791219
O O3 0.500000 0.220652 0.943974
O O4 0.750000 0.750000 0.370561
O O5 0.870911 0.713683 0.265127
O O6 0.887978 0.711533 0.451628
O O7 0.864952 0.000000 0.359991
O O8 0.500000 0.500000 0.045114
O O9 0.416266 0.219036 0.096326
O O10 0.250000 0.250000 0.149410
O O11 0.143447 0.000000 0.170069
O O12 0.500000 0.245536 0.574545
O O13 0.394086 0.500000 0.544325
O O14 0.349488 0.213399 0.630639
O O15 0.750000 0.750000 0.766620
O O16 0.853029 0.000000 0.725161
#
# Coordination Sequence:
#
# PCOD9348474 Si02
#       6
#     4   8   4   8   8   8
#     4   9  18  34  52  72  98 127 161 199 242 292
#     4   9  17  28  45  68  95 124 156 194 233 276
#     4   9  18  32  52  74  96 125 163 203 240 284
#     4   9  18  32  50  73  99 127 161 199 239 284
#     4   9  16  27  46  71  96 124 161 198 230 276
#     4  10  19  33  53  74  97 128 162 197 240 287
#
# _framework density 22.227177999999999
#
# number of rings (size 3 to 8) (size 9 to 14) (size 15 to 20)
#    0.000    2.800    1.000    0.600    1.400    0.800 
#    0.000    1.000    0.000    3.000    0.000    0.000 
#    0.000    0.000    0.000    0.000    0.000    0.000 
#
# Total GULP energy -111614.025325 kJ/mol
# GULP energy per Si atom -5580.701266 kJ/mol
# Density = 2.217659 g / cm^3
# Si number density = 22.227178 Si / 1000 Ang^3
#
#
#
# Elastic Constant Matrix: (Units=GPa)
#
#
# Indices 1 2 3 4 5 6 
#
# 1 145.0733 -2.7465 113.8181 0.0000 0.0000 0.0000
# 2 -2.7465 81.1412 10.4798 0.0000 0.0000 0.0000
# 3 113.8181 10.4798 186.5764 0.0000 0.0000 0.0000
# 4 0.0000 0.0000 0.0000 -56.4574 0.0000 0.0000
# 5 0.0000 0.0000 0.0000 0.0000 17.1108 0.0000
# 6 0.0000 0.0000 0.0000 0.0000 0.0000 16.5608
#
#
#
# Elastic Compliance Matrix: (Units=1/GPa)
#
#
# Indices 1 2 3 4 5 6 
#
# 1 0.013404 0.001521 -0.008262 0.000000 0.000000 0.000000
# 2 0.001521 0.012587 -0.001635 0.000000 0.000000 0.000000
# 3 -0.008262 -0.001635 0.010492 0.000000 0.000000 0.000000
# 4 0.000000 0.000000 0.000000 -0.017712 0.000000 0.000000
# 5 0.000000 0.000000 0.000000 0.000000 0.058443 0.000000
# 6 0.000000 0.000000 0.000000 0.000000 0.000000 0.060384
#
#
# Mechanical properties :
#
#
# Convention : Reuss Voigt Hill
#
# Bulk Modulus (GPa) = 50.68362 72.87705 61.78034
# Shear Modulus (GPa) = 31.07010 14.85880 22.96445
#
# Velocity S-wave (km/s) = 3.74283 2.58834 3.21778
# Velocity P-wave (km/s) = 6.44441 6.46461 6.45452
#
# Compressibility (1/GPa) = 0.01973024
#
# Stress axis : x y z
#
# Youngs Moduli (GPa) = 74.60332 79.44826 95.31116
#
# Poissons Ratio (x) = -0.12083 0.78751
# Poissons Ratio (y) = -0.11346 0.15581
# Poissons Ratio (z) = 0.61641 0.12988
#
# Static dielectric constant tensor:
#      x y z
#    x 1.777750 0.000000 0.000000 
#    y 0.000000 1.901770 0.000000 
#    z 0.000000 0.000000 1.818570 
# 
# From -- ./inp_files/14729.got.cif
#   From: 2010.05.17/outbox.cif.g08.bks.cpg/sg35_8_cif.got.tgz:14729.got - 2010.06.03 17:29:28.
