data_PCOD9348815
_publ_section_title
;
Structure prediction by ZEFSAII (Michael W. Deem and Ramdas Pophale) SiO2 
 PCOD9348815
Probable space group: C M M 2
;
_chemical_formula_sum "Si O2"
_cell_formula_units_Z 56
_cell_length_a 8.189794
_cell_length_b 19.968263
_cell_length_c 18.442199
_cell_angle_alpha 90.000000
_cell_angle_beta 90.000000
_cell_angle_gamma 90.000000
_cell_volume 3015.962727
_symmetry_space_group_name_H-M "C M M 2"
_symmetry_group_IT_number 35
_symmetry_cell_setting 'orthorhombic'
loop_
_space_group_symop_operation_xyz
x,y,z
-x,-y,z
-x,y,z
x,-y,z
1/2+x,1/2+y,z
1/2-x,1/2-y,z
1/2-x,1/2+y,z
1/2+x,1/2-y,z
loop_
_atom_site_type_symbol
_atom_site_label
_atom_site_fract_x
_atom_site_fract_y
_atom_site_fract_z
Si Si1 0.802506 0.173666 0.380930
Si Si2 0.694575 0.826866 0.800597
Si Si3 0.305304 0.673936 0.218893
Si Si4 0.800626 0.422990 0.928447
Si Si5 0.699194 0.423481 0.507598
Si Si6 0.302741 0.576710 0.672566
Si Si7 0.303448 0.924202 0.092739
O O1 0.750000 0.250000 0.392972
O O2 0.745941 0.153914 0.299793
O O3 0.742164 0.126323 0.445394
O O4 0.000000 0.170966 0.381143
O O5 0.500000 0.826321 0.805315
O O6 0.750000 0.750000 0.799065
O O7 0.758304 0.869449 0.869708
O O8 0.743025 0.869054 0.729678
O O9 0.500000 0.672823 0.220601
O O10 0.250000 0.750000 0.206110
O O11 0.248548 0.626126 0.154918
O O12 0.751492 0.500000 0.911797
O O13 0.000000 0.422636 0.927333
O O14 0.748975 0.406733 0.010833
O O15 0.500000 0.421708 0.507467
O O16 0.747126 0.500000 0.492169
O O17 0.749993 0.407419 0.590007
O O18 0.500000 0.576568 0.673549
O O19 0.249561 0.500000 0.689779
O O20 0.500000 0.925186 0.090912
O O21 0.246583 0.000000 0.108162
#
# Coordination Sequence:
#
# PCOD9348815 Si02
#       7
#     8   8   8   8   8   8   8
#     4   9  18  32  50  71  97 131 167 203 244 291
#     4  11  22  35  52  75 104 134 167 207 248 293
#     4  10  20  33  50  73 102 135 171 209 248 294
#     4   8  16  33  55  75  96 128 167 203 245 299
#     4   8  15  30  52  75  98 127 163 201 243 292
#     4   9  18  34  55  77 102 132 166 204 248 299
#     4   9  18  34  55  77 102 131 163 202 250 301
#
# _framework density 18.567869000000002
#
# number of rings (size 3 to 8) (size 9 to 14) (size 15 to 20)
#    0.000    2.857    0.000    3.000    0.000    3.429 
#    0.000    6.429    0.000    3.000    0.000    0.000 
#    0.000    0.000    0.000    0.000    0.000    0.000 
#
# Total GULP energy -156119.944979 kJ/mol
# GULP energy per Si atom -5575.712321 kJ/mol
# Density = 1.852561 g / cm^3
# Si number density = 18.567869 Si / 1000 Ang^3
#
#
#
# Elastic Constant Matrix: (Units=GPa)
#
#
# Indices 1 2 3 4 5 6 
#
# 1 12.4446 17.4162 20.2563 0.0000 0.0000 0.0000
# 2 17.4162 151.6241 148.0612 0.0000 0.0000 0.0000
# 3 20.2563 148.0612 193.2569 0.0000 0.0000 0.0000
# 4 0.0000 0.0000 0.0000 1315.0335 0.0000 0.0000
# 5 0.0000 0.0000 0.0000 0.0000 17.1901 0.0000
# 6 0.0000 0.0000 0.0000 0.0000 0.0000 14.1945
#
#
#
# Elastic Compliance Matrix: (Units=1/GPa)
#
#
# Indices 1 2 3 4 5 6 
#
# 1 0.097779 -0.004857 -0.006527 0.000000 0.000000 0.000000
# 2 -0.004857 0.026427 -0.019737 0.000000 0.000000 0.000000
# 3 -0.006527 -0.019737 0.020980 0.000000 0.000000 0.000000
# 4 0.000000 0.000000 0.000000 0.000760 0.000000 0.000000
# 5 0.000000 0.000000 0.000000 0.000000 0.058173 0.000000
# 6 0.000000 0.000000 0.000000 0.000000 0.000000 0.070450
#
#
# Mechanical properties :
#
#
# Convention : Reuss Voigt Hill
#
# Bulk Modulus (GPa) = 12.05670 80.97701 46.51686
# Shear Modulus (GPa) = 13.71891 280.72308 147.22100
#
# Velocity S-wave (km/s) = 2.72113 12.30917 8.91404
# Velocity P-wave (km/s) = 4.04724 15.67568 11.44787
#
# Compressibility (1/GPa) = 0.08294145
#
# Stress axis : x y z
#
# Youngs Moduli (GPa) = 10.22718 37.84035 47.66404
#
# Poissons Ratio (x) = 0.18380 0.31112
# Poissons Ratio (y) = 0.04968 0.94076
# Poissons Ratio (z) = 0.06676 0.74687
#
# Static dielectric constant tensor:
#      x y z
#    x 1.653380 0.000000 0.000000 
#    y 0.000000 1.579310 0.000000 
#    z 0.000000 0.000000 1.652840 
# 
# From -- ./inp_files/15631.got.cif
#   From: 2010.05.17/outbox.cif.g08.bks.cpg/sg35_8_cif.got.tgz:15631.got - 2010.06.03 17:29:28.
