data_PCOD9348589
_publ_section_title
;
Structure prediction by ZEFSAII (Michael W. Deem and Ramdas Pophale) SiO2 
 PCOD9348589
Probable space group: C M M 2
;
_chemical_formula_sum "Si O2"
_cell_formula_units_Z 48
_cell_length_a 15.445628
_cell_length_b 10.177970
_cell_length_c 14.527556
_cell_angle_alpha 90.000000
_cell_angle_beta 90.000000
_cell_angle_gamma 90.000000
_cell_volume 2283.806452
_symmetry_space_group_name_H-M "C M M 2"
_symmetry_group_IT_number 35
_symmetry_cell_setting 'orthorhombic'
loop_
_space_group_symop_operation_xyz
x,y,z
-x,-y,z
-x,y,z
x,-y,z
1/2+x,1/2+y,z
1/2-x,1/2-y,z
1/2-x,1/2+y,z
1/2+x,1/2-y,z
loop_
_atom_site_type_symbol
_atom_site_label
_atom_site_fract_x
_atom_site_fract_y
_atom_site_fract_z
Si Si1 0.857049 0.000000 0.255680
Si Si2 0.146154 0.237884 0.919477
Si Si3 0.144172 0.262229 0.355966
Si Si4 0.663669 0.839649 0.555386
Si Si5 0.854335 0.500000 0.229341
Si Si6 0.356165 0.500000 0.044079
Si Si7 0.898148 0.850841 0.713608
Si Si8 0.644162 0.000000 0.017917
O O1 0.884944 0.875648 0.315367
O O2 0.751457 0.000000 0.241724
O O3 0.885106 0.000000 0.149549
O O4 0.250000 0.250000 0.924207
O O5 0.125806 0.195100 0.816057
O O6 0.114280 0.127272 0.989288
O O7 0.114959 0.375540 0.959093
O O8 0.250000 0.250000 0.355943
O O9 0.117396 0.306003 0.458335
O O10 0.116966 0.372036 0.283733
O O11 0.750000 0.750000 0.548242
O O12 0.622880 0.767994 0.643696
O O13 0.674059 0.000000 0.562391
O O14 0.883536 0.500000 0.124108
O O15 0.250173 0.500000 0.031812
O O16 0.000000 0.866165 0.709507
O O17 0.860390 0.000000 0.694669
#
# Coordination Sequence:
#
# PCOD9348589 Si02
#       8
#     4   8   8   8   4   4   8   4
#     4   9  16  24  45  75 112 154 183 221 270 329
#     4  10  19  34  55  83 115 147 187 234 285 338
#     4   9  17  27  46  76 115 151 180 221 275 335
#     4  11  23  38  61  89 118 151 189 239 289 344
#     4   9  14  28  41  73 118 146 181 219 272 331
#     4   9  16  30  48  77 116 152 187 223 276 335
#     4  11  25  43  61  81 110 151 196 245 297 349
#     4   9  18  26  50  81 114 152 179 223 276 335
#
# _framework density 21.017544000000001
#
# number of rings (size 3 to 8) (size 9 to 14) (size 15 to 20)
#    0.000    2.167    1.667    2.000    5.833    4.333 
#    0.000    0.000    0.000    0.000    0.000    7.000 
#    0.000    0.000    0.000    0.000    0.000    0.000 
#
# Total GULP energy -133758.994651 kJ/mol
# GULP energy per Si atom -5573.291444 kJ/mol
# Density = 2.096971 g / cm^3
# Si number density = 21.017544 Si / 1000 Ang^3
#
#
#
# Elastic Constant Matrix: (Units=GPa)
#
#
# Indices 1 2 3 4 5 6 
#
# 1 23.9315 16.1078 10.6867 0.0000 0.0000 0.0000
# 2 16.1078 263.4562 126.2880 0.0000 0.0000 0.0000
# 3 10.6867 126.2880 181.5471 0.0000 0.0000 0.0000
# 4 0.0000 0.0000 0.0000 131.5706 0.0000 0.0000
# 5 0.0000 0.0000 0.0000 0.0000 -40.4353 0.0000
# 6 0.0000 0.0000 0.0000 0.0000 0.0000 -19.9614
#
#
#
# Elastic Compliance Matrix: (Units=1/GPa)
#
#
# Indices 1 2 3 4 5 6 
#
# 1 0.043718 -0.002159 -0.001071 0.000000 0.000000 0.000000
# 2 -0.002159 0.005801 -0.003908 0.000000 0.000000 0.000000
# 3 -0.001071 -0.003908 0.008290 0.000000 0.000000 0.000000
# 4 0.000000 0.000000 0.000000 0.007600 0.000000 0.000000
# 5 0.000000 0.000000 0.000000 0.000000 -0.024731 0.000000
# 6 0.000000 0.000000 0.000000 0.000000 0.000000 -0.050097
#
#
# Mechanical properties :
#
#
# Convention : Reuss Voigt Hill
#
# Bulk Modulus (GPa) = 22.97218 86.12221 54.54719
# Shear Modulus (GPa) = 258.12777 35.29159 146.70968
#
# Velocity S-wave (km/s) = 11.09423 4.10219 8.36391
# Velocity P-wave (km/s) = 13.23114 7.96885 10.92167
#
# Compressibility (1/GPa) = 0.04353092
#
# Stress axis : x y z
#
# Youngs Moduli (GPa) = 22.87399 172.37889 120.62766
#
# Poissons Ratio (x) = 0.37223 0.12923
# Poissons Ratio (y) = 0.04939 0.47145
# Poissons Ratio (z) = 0.02450 0.67371
#
# Static dielectric constant tensor:
#      x y z
#    x 1.805490 0.000000 0.000000 
#    y 0.000000 1.166580 0.000000 
#    z 0.000000 0.000000 1.767480 
# 
# From -- ./inp_files/15354.got.cif
#   From: 2010.05.17/outbox.cif.g08.bks.cpg/sg35_8_cif.got.tgz:15354.got - 2010.06.03 17:29:28.
