data_PCOD9348118
_publ_section_title
;
Structure prediction by ZEFSAII (Michael W. Deem and Ramdas Pophale) SiO2 
 PCOD9348118
Probable space group: C M M 2
;
_chemical_formula_sum "Si O2"
_cell_formula_units_Z 56
_cell_length_a 10.650909
_cell_length_b 25.958643
_cell_length_c 11.589000
_cell_angle_alpha 90.000000
_cell_angle_beta 90.000000
_cell_angle_gamma 90.000000
_cell_volume 3204.163160
_symmetry_space_group_name_H-M "C M M 2"
_symmetry_group_IT_number 35
_symmetry_cell_setting 'orthorhombic'
loop_
_space_group_symop_operation_xyz
x,y,z
-x,-y,z
-x,y,z
x,-y,z
1/2+x,1/2+y,z
1/2-x,1/2-y,z
1/2-x,1/2+y,z
1/2+x,1/2-y,z
loop_
_atom_site_type_symbol
_atom_site_label
_atom_site_fract_x
_atom_site_fract_y
_atom_site_fract_z
Si Si1 0.349386 0.442987 0.051130
Si Si2 0.364164 0.809999 0.300781
Si Si3 0.250000 0.250000 0.501582
Si Si4 0.848204 0.838807 0.669121
Si Si5 0.651796 0.338807 0.932442
Si Si6 0.750000 0.250000 0.099980
Si Si7 0.849386 0.057013 0.550433
Si Si8 0.647385 0.604809 0.300781
O O1 0.500000 0.445108 0.033055
O O2 0.298684 0.500000 0.025565
O O3 0.332010 0.428148 0.185181
O O4 0.303205 0.395022 0.975323
O O5 0.500000 0.836336 0.300781
O O6 0.350615 0.774565 0.413874
O O7 0.350615 0.774566 0.187688
O O8 0.245469 0.848385 0.300782
O O9 0.198396 0.204707 0.582005
O O10 0.808878 0.828960 0.800781
O O11 0.803205 0.895022 0.626240
O O12 0.000000 0.838999 0.665697
O O13 0.500000 0.338999 0.935865
O O14 0.698395 0.295293 0.019557
O O15 0.832012 0.071852 0.416382
O O16 0.000000 0.054892 0.568511
O O17 0.798683 0.000000 0.575997
O O18 0.500000 0.621892 0.300780
#
# Coordination Sequence:
#
# PCOD9348118 Si02
#       8
#     8   8   4   8   8   4   8   8
#     4   9  17  30  51  79 107 136 173 219 271 324
#     4  11  23  34  54  82 107 142 183 224 270 323
#     4  11  21  36  52  72 107 147 178 220 268 327
#     4  10  20  33  51  77 107 139 178 223 266 312
#     4  10  20  33  51  77 107 139 178 223 266 312
#     4  11  21  36  52  72 107 147 178 220 268 327
#     4   9  17  30  51  79 107 136 173 219 271 324
#     4  10  18  33  55  80 110 142 175 220 275 327
#
# _framework density 17.477262
#
# number of rings (size 3 to 8) (size 9 to 14) (size 15 to 20)
#    0.000    2.000    2.857    1.714    0.000    4.571 
#    0.000    2.857    0.000    1.714    0.000    0.000 
#    0.000    2.286    0.000    0.000    0.000    0.000 
#
# Total GULP energy -156093.067453 kJ/mol
# GULP energy per Si atom -5574.752409 kJ/mol
# Density = 1.743748 g / cm^3
# Si number density = 17.477262 Si / 1000 Ang^3
#
#
#
# Elastic Constant Matrix: (Units=GPa)
#
#
# Indices 1 2 3 4 5 6 
#
# 1 45.5574 30.3208 20.1292 0.0000 0.0000 0.0000
# 2 30.3208 148.1197 65.0590 0.0000 0.0000 0.0000
# 3 20.1292 65.0590 126.2451 0.0000 0.0000 0.0000
# 4 0.0000 0.0000 0.0000 4.4411 0.0000 0.0000
# 5 0.0000 0.0000 0.0000 0.0000 -1.3586 0.0000
# 6 0.0000 0.0000 0.0000 0.0000 0.0000 20.4913
#
#
#
# Elastic Compliance Matrix: (Units=1/GPa)
#
#
# Indices 1 2 3 4 5 6 
#
# 1 0.025723 -0.004478 -0.001794 0.000000 0.000000 0.000000
# 2 -0.004478 0.009506 -0.004185 0.000000 0.000000 0.000000
# 3 -0.001794 -0.004185 0.010364 0.000000 0.000000 0.000000
# 4 0.000000 0.000000 0.000000 0.225171 0.000000 0.000000
# 5 0.000000 0.000000 0.000000 0.000000 -0.736058 0.000000
# 6 0.000000 0.000000 0.000000 0.000000 0.000000 0.048801
#
#
# Mechanical properties :
#
#
# Convention : Reuss Voigt Hill
#
# Bulk Modulus (GPa) = 40.51872 61.21559 50.86715
# Shear Modulus (GPa) = -12.90813 18.34230 2.71709
#
# Velocity S-wave (km/s) = -2.72061 3.24311 1.24821
# Velocity P-wave (km/s) = 3.65583 7.00896 5.58975
#
# Compressibility (1/GPa) = 0.02467995
#
# Stress axis : x y z
#
# Youngs Moduli (GPa) = 38.87553 105.19628 96.49012
#
# Poissons Ratio (x) = 0.47104 0.17309
# Poissons Ratio (y) = 0.17407 0.40380
# Poissons Ratio (z) = 0.06974 0.44023
#
# Static dielectric constant tensor:
#      x y z
#    x 1.586940 0.000000 0.000000 
#    y 0.000000 1.613800 0.000000 
#    z 0.000000 0.000000 1.593850 
# 
# From -- ./inp_files/12517.got.cif
#   From: 2010.05.17/outbox.cif.g08.bks.cpg/sg35_7_cif.got.tgz:12517.got - 2010.06.03 17:29:28.
