data_PCOD9348306
_publ_section_title
;
Structure prediction by ZEFSAII (Michael W. Deem and Ramdas Pophale) SiO2 
 PCOD9348306
Probable space group: C M M 2
;
_chemical_formula_sum "Si O2"
_cell_formula_units_Z 64
_cell_length_a 29.513475
_cell_length_b 8.428398
_cell_length_c 16.233598
_cell_angle_alpha 90.000000
_cell_angle_beta 90.000000
_cell_angle_gamma 90.000000
_cell_volume 4038.128828
_symmetry_space_group_name_H-M "C M M 2"
_symmetry_group_IT_number 35
_symmetry_cell_setting 'orthorhombic'
loop_
_space_group_symop_operation_xyz
x,y,z
-x,-y,z
-x,y,z
x,-y,z
1/2+x,1/2+y,z
1/2-x,1/2-y,z
1/2-x,1/2+y,z
1/2+x,1/2-y,z
loop_
_atom_site_type_symbol
_atom_site_label
_atom_site_fract_x
_atom_site_fract_y
_atom_site_fract_z
Si Si1 0.948822 0.808571 0.081470
Si Si2 0.449577 0.693210 0.889236
Si Si3 0.301821 0.692232 0.659705
Si Si4 0.644872 0.305977 0.820865
Si Si5 0.198191 0.190460 0.299337
Si Si6 0.856014 0.312319 0.142492
Si Si7 0.698250 0.308747 0.479732
Si Si8 0.801237 0.810144 0.984246
O O1 0.908248 0.738500 0.134192
O O2 0.000000 0.761855 0.105390
O O3 0.946224 0.000000 0.084783
O O4 0.942403 0.763052 0.985195
O O5 0.500000 0.746534 0.864200
O O6 0.449896 0.500000 0.887512
O O7 0.406817 0.746467 0.835907
O O8 0.300988 0.500000 0.661219
O O9 0.250000 0.750000 0.668882
O O10 0.332131 0.747412 0.736144
O O11 0.319979 0.742961 0.569172
O O12 0.644801 0.500000 0.820293
O O13 0.674470 0.255809 0.899953
O O14 0.250000 0.250000 0.289806
O O15 0.167555 0.250714 0.225202
O O16 0.180377 0.242850 0.390153
O O17 0.199211 0.000000 0.297238
O O18 0.852325 0.500000 0.139996
O O19 0.829569 0.243806 0.063400
O O20 0.697464 0.500000 0.479616
O O21 0.750000 0.250000 0.480117
O O22 0.750000 0.750000 0.988668
O O23 0.800904 0.000000 0.983376
#
# Coordination Sequence:
#
# PCOD9348306 Si02
#       8
#     8   8   8   8   8   8   8   8
#     4   9  17  32  53  71  89 117 153 191 231 274
#     4   8  13  24  44  67  87 111 147 186 222 261
#     4   9  16  27  43  65  91 118 148 183 223 266
#     4   9  16  26  43  65  90 119 150 185 222 265
#     4  10  19  32  48  66  90 120 155 193 233 279
#     4  12  23  33  46  67  93 122 154 191 230 270
#     4   8  15  27  44  64  86 114 147 186 230 269
#     4  11  21  33  45  61  90 126 161 189 221 267
#
# _framework density 15.848924
#
# number of rings (size 3 to 8) (size 9 to 14) (size 15 to 20)
#    0.000    2.500    1.250    3.375    0.000    0.750 
#    0.000    0.625    0.000    0.000    0.000    0.875 
#    0.000    5.000    0.000    0.000    0.000    0.000 
#
# Total GULP energy -178297.953032 kJ/mol
# GULP energy per Si atom -5571.811032 kJ/mol
# Density = 1.581285 g / cm^3
# Si number density = 15.848924 Si / 1000 Ang^3
#
#
#
# Elastic Constant Matrix: (Units=GPa)
#
#
# Indices 1 2 3 4 5 6 
#
# 1 115.3260 20.2403 77.7866 0.0000 0.0000 0.0000
# 2 20.2403 25.8290 23.8575 0.0000 0.0000 0.0000
# 3 77.7866 23.8575 156.3164 0.0000 0.0000 0.0000
# 4 0.0000 0.0000 0.0000 7.3201 0.0000 0.0000
# 5 0.0000 0.0000 0.0000 0.0000 8.1107 0.0000
# 6 0.0000 0.0000 0.0000 0.0000 0.0000 17.3782
#
#
#
# Elastic Compliance Matrix: (Units=1/GPa)
#
#
# Indices 1 2 3 4 5 6 
#
# 1 0.013613 -0.005134 -0.005990 0.000000 0.000000 0.000000
# 2 -0.005134 0.047006 -0.004619 0.000000 0.000000 0.000000
# 3 -0.005990 -0.004619 0.010083 0.000000 0.000000 0.000000
# 4 0.000000 0.000000 0.000000 0.136610 0.000000 0.000000
# 5 0.000000 0.000000 0.000000 0.000000 0.123294 0.000000
# 6 0.000000 0.000000 0.000000 0.000000 0.000000 0.057543
#
#
# Mechanical properties :
#
#
# Convention : Reuss Voigt Hill
#
# Bulk Modulus (GPa) = 25.50087 60.13780 42.81933
# Shear Modulus (GPa) = 11.55511 18.26760 14.91136
#
# Velocity S-wave (km/s) = 2.70307 3.39869 3.07064
# Velocity P-wave (km/s) = 5.08597 7.30946 6.29664
#
# Compressibility (1/GPa) = 0.03921435
#
# Stress axis : x y z
#
# Youngs Moduli (GPa) = 73.46149 21.27381 99.17437
#
# Poissons Ratio (x) = 0.10922 0.59409
# Poissons Ratio (y) = 0.37715 0.45813
# Poissons Ratio (z) = 0.44006 0.09827
#
# Static dielectric constant tensor:
#      x y z
#    x 1.512220 0.000000 0.000000 
#    y 0.000000 1.542220 0.000000 
#    z 0.000000 0.000000 1.553640 
# 
# From -- ./inp_files/16254.got.cif
#   From: 2010.05.17/outbox.cif.g08.bks.cpg/sg35_9_cif.got.tgz:16254.got - 2010.06.03 17:29:28.
