data_PCOD9348236
_publ_section_title
;
Structure prediction by ZEFSAII (Michael W. Deem and Ramdas Pophale) SiO2 
 PCOD9348236
Probable space group: C M M 2
;
_chemical_formula_sum "Si O2"
_cell_formula_units_Z 56
_cell_length_a 9.084656
_cell_length_b 18.784919
_cell_length_c 18.985048
_cell_angle_alpha 90.000000
_cell_angle_beta 90.000000
_cell_angle_gamma 90.000000
_cell_volume 3239.884388
_symmetry_space_group_name_H-M "C M M 2"
_symmetry_group_IT_number 35
_symmetry_cell_setting 'orthorhombic'
loop_
_space_group_symop_operation_xyz
x,y,z
-x,-y,z
-x,y,z
x,-y,z
1/2+x,1/2+y,z
1/2-x,1/2-y,z
1/2-x,1/2+y,z
1/2+x,1/2-y,z
loop_
_atom_site_type_symbol
_atom_site_label
_atom_site_fract_x
_atom_site_fract_y
_atom_site_fract_z
Si Si1 0.176749 0.327276 0.439210
Si Si2 0.823086 0.328622 0.594609
Si Si3 0.830053 0.913195 0.159623
Si Si4 0.322900 0.672052 0.734231
Si Si5 0.323441 0.916379 0.303298
Si Si6 0.324368 0.583210 0.873920
Si Si7 0.330095 0.086784 0.017243
O O1 0.250000 0.250000 0.434567
O O2 0.207942 0.359671 0.516903
O O3 0.223570 0.374688 0.373160
O O4 0.000000 0.318782 0.435965
O O5 0.750000 0.250000 0.591599
O O6 0.747629 0.361753 0.663496
O O7 0.000000 0.323967 0.603837
O O8 0.750941 0.889950 0.231381
O O9 0.751662 0.888980 0.087986
O O10 0.000000 0.892339 0.159736
O O11 0.823387 0.000000 0.159354
O O12 0.500000 0.677928 0.726599
O O13 0.250000 0.750000 0.741872
O O14 0.289135 0.626959 0.803870
O O15 0.500000 0.910216 0.296158
O O16 0.288787 0.000000 0.311454
O O17 0.500000 0.587061 0.885247
O O18 0.285926 0.500000 0.863690
O O19 0.244964 0.609876 0.944482
O O20 0.500000 0.107566 0.019204
O O21 0.323145 0.000000 0.017314
#
# Coordination Sequence:
#
# PCOD9348236 Si02
#       7
#     8   8   8   8   8   8   8
#     4   9  18  31  48  69  91 119 153 189 229 270
#     4   9  16  28  46  67  90 117 153 191 225 266
#     4   9  16  26  42  65  92 121 153 187 223 265
#     4  10  19  31  49  70  92 120 153 189 228 270
#     4   9  17  30  47  67  93 122 152 187 227 271
#     4   9  18  32  48  67  93 123 153 186 226 271
#     4   9  16  26  43  67  92 119 152 188 225 265
#
# _framework density 17.284566999999999
#
# number of rings (size 3 to 8) (size 9 to 14) (size 15 to 20)
#    0.000    2.857    0.000    2.571    0.000    5.714 
#    0.000    0.714    0.000    1.714    0.000    6.000 
#    0.000    0.000    0.000    0.000    0.000    0.000 
#
# Total GULP energy -155946.932113 kJ/mol
# GULP energy per Si atom -5569.533290 kJ/mol
# Density = 1.724523 g / cm^3
# Si number density = 17.284567 Si / 1000 Ang^3
#
#
#
# Elastic Constant Matrix: (Units=GPa)
#
#
# Indices 1 2 3 4 5 6 
#
# 1 66.6282 24.7991 86.1380 0.0000 0.0000 0.0000
# 2 24.7991 22.0213 49.5891 0.0000 0.0000 0.0000
# 3 86.1380 49.5891 227.0292 0.0000 0.0000 0.0000
# 4 0.0000 0.0000 0.0000 48.2059 0.0000 0.0000
# 5 0.0000 0.0000 0.0000 0.0000 33.8816 0.0000
# 6 0.0000 0.0000 0.0000 0.0000 0.0000 11.7874
#
#
#
# Elastic Compliance Matrix: (Units=1/GPa)
#
#
# Indices 1 2 3 4 5 6 
#
# 1 0.032525 -0.017394 -0.008541 0.000000 0.000000 0.000000
# 2 -0.017394 0.098670 -0.014952 0.000000 0.000000 0.000000
# 3 -0.008541 -0.014952 0.010911 0.000000 0.000000 0.000000
# 4 0.000000 0.000000 0.000000 0.020744 0.000000 0.000000
# 5 0.000000 0.000000 0.000000 0.000000 0.029515 0.000000
# 6 0.000000 0.000000 0.000000 0.000000 0.000000 0.084836
#
#
# Mechanical properties :
#
#
# Convention : Reuss Voigt Hill
#
# Bulk Modulus (GPa) = 16.57538 70.74791 43.66165
# Shear Modulus (GPa) = 13.18958 29.11848 21.15403
#
# Velocity S-wave (km/s) = 2.76539 4.10890 3.50218
# Velocity P-wave (km/s) = 4.45051 7.97063 6.45515
#
# Compressibility (1/GPa) = 0.06033043
#
# Stress axis : x y z
#
# Youngs Moduli (GPa) = 30.74574 10.13479 91.64836
#
# Poissons Ratio (x) = 0.17629 0.78277
# Poissons Ratio (y) = 0.53481 1.37036
# Poissons Ratio (z) = 0.26260 0.15154
#
# Static dielectric constant tensor:
#      x y z
#    x 1.579220 0.000000 0.000000 
#    y 0.000000 1.571400 0.000000 
#    z 0.000000 0.000000 1.614400 
# 
# From -- ./inp_files/17403.got.cif
#   From: 2010.05.17/outbox.cif.g08.bks.cpg/sg35_9_cif.got.tgz:17403.got - 2010.06.03 17:29:28.
