data_PCOD9348010
_publ_section_title
;
Structure prediction by ZEFSAII (Michael W. Deem and Ramdas Pophale) SiO2 
 PCOD9348010
Probable space group: P N N 2
;
_chemical_formula_sum "Si O2"
_cell_formula_units_Z 26
_cell_length_a 24.718038
_cell_length_b 8.815589
_cell_length_c 5.297371
_cell_angle_alpha 90.000000
_cell_angle_beta 90.000000
_cell_angle_gamma 90.000000
_cell_volume 1154.318669
_symmetry_space_group_name_H-M "P N N 2"
_symmetry_group_IT_number 34
_symmetry_cell_setting 'orthorhombic'
loop_
_space_group_symop_operation_xyz
x,y,z
-x,-y,z
1/2-x,1/2+y,1/2+z
1/2+x,1/2-y,1/2+z
loop_
_atom_site_type_symbol
_atom_site_label
_atom_site_fract_x
_atom_site_fract_y
_atom_site_fract_z
Si Si1 0.000000 0.000000 0.310791
Si Si2 0.523484 0.242870 0.130819
Si Si3 0.715590 0.150408 0.946114
Si Si4 0.899613 0.502900 0.408121
Si Si5 0.597590 0.460174 0.439476
Si Si6 0.580699 0.813852 0.400061
Si Si7 0.217713 0.158782 0.963500
O O1 0.984859 0.146467 0.472319
O O2 0.051517 0.048848 0.151665
O O3 0.570988 0.355182 0.223004
O O4 0.484589 0.188033 0.355521
O O5 0.549195 0.110434 0.967366
O O6 0.653113 0.107807 0.896157
O O7 0.735418 0.248161 0.708974
O O8 0.747479 0.993020 0.948235
O O9 0.721747 0.241697 0.208272
O O10 0.895107 0.400280 0.658646
O O11 0.905718 0.403494 0.156123
O O12 0.601395 0.640673 0.396412
O O13 0.655445 0.391667 0.500229
#
# Coordination Sequence:
#
# PCOD9348010 Si02
#       7
#     2   4   4   4   4   4   4
#     4  12  22  44  76 106 150 196 264 294 362 468
#     4  12  25  47  70 108 153 206 248 304 373 454
#     4  12  28  55  79 115 146 200 255 317 383 450
#     4  12  29  47  75 106 163 191 251 309 386 434
#     4  12  26  45  76 107 152 199 256 303 374 448
#     4  12  27  45  73 113 146 206 247 306 361 462
#     4  12  29  51  84 110 150 196 253 320 382 442
#
# _framework density 22.52411
#
# number of rings (size 3 to 8) (size 9 to 14) (size 15 to 20)
#    0.000    0.000    4.615    4.154    6.462    2.462 
#    0.000    0.000    0.000    0.000    0.000    0.000 
#    0.000    0.000    0.000    0.000    0.000    0.000 
#
# Total GULP energy -145623.283964 kJ/mol
# GULP energy per Si atom -5600.895537 kJ/mol
# Density = 2.247284 g / cm^3
# Si number density = 22.524110 Si / 1000 Ang^3
#
#
#
# Elastic Constant Matrix: (Units=GPa)
#
#
# Indices 1 2 3 4 5 6 
#
# 1 74.4694 36.2767 27.6538 0.0000 0.0000 0.0000
# 2 36.2767 159.1765 90.3398 0.0000 0.0000 0.0000
# 3 27.6538 90.3398 173.5944 0.0000 0.0000 0.0000
# 4 0.0000 0.0000 0.0000 58.4700 0.0000 0.0000
# 5 0.0000 0.0000 0.0000 0.0000 1.2175 0.0000
# 6 0.0000 0.0000 0.0000 0.0000 0.0000 11.1217
#
#
#
# Elastic Compliance Matrix: (Units=1/GPa)
#
#
# Indices 1 2 3 4 5 6 
#
# 1 0.015199 -0.002966 -0.000878 0.000000 0.000000 0.000000
# 2 -0.002966 0.009494 -0.004468 0.000000 0.000000 0.000000
# 3 -0.000878 -0.004468 0.008226 0.000000 0.000000 0.000000
# 4 0.000000 0.000000 0.000000 0.017103 0.000000 0.000000
# 5 0.000000 0.000000 0.000000 0.000000 0.821383 0.000000
# 6 0.000000 0.000000 0.000000 0.000000 0.000000 0.089914
#
#
# Mechanical properties :
#
#
# Convention : Reuss Voigt Hill
#
# Bulk Modulus (GPa) = 61.36806 79.53122 70.44964
# Shear Modulus (GPa) = 5.08453 31.02649 18.05551
#
# Velocity S-wave (km/s) = 1.50409 3.71547 2.83434
# Velocity P-wave (km/s) = 5.50645 7.33432 6.48511
#
# Compressibility (1/GPa) = 0.01629512
#
# Stress axis : x y z
#
# Youngs Moduli (GPa) = 65.79376 105.32674 121.56852
#
# Poissons Ratio (x) = 0.31236 0.10672
# Poissons Ratio (y) = 0.19512 0.54322
# Poissons Ratio (z) = 0.05776 0.47065
#
# Static dielectric constant tensor:
#      x y z
#    x 1.916090 0.000000 0.000000 
#    y 0.000000 1.862240 0.000000 
#    z 0.000000 0.000000 1.871310 
# 
# From -- ./inp_files/1673.got.cif
#   From: 2010.05.17/outbox.cif.g08.bks.cpg/sg34_1_cif.got.tgz:1673.got - 2010.06.03 17:23:11.
