data_PCOD9348149
_publ_section_title
;
Structure prediction by ZEFSAII (Michael W. Deem and Ramdas Pophale) SiO2 
 PCOD9348149
Probable space group: C M M 2
;
_chemical_formula_sum "Si O2"
_cell_formula_units_Z 48
_cell_length_a 25.524903
_cell_length_b 15.276196
_cell_length_c 5.548020
_cell_angle_alpha 90.000000
_cell_angle_beta 90.000000
_cell_angle_gamma 90.000000
_cell_volume 2163.302939
_symmetry_space_group_name_H-M "C M M 2"
_symmetry_group_IT_number 35
_symmetry_cell_setting 'orthorhombic'
loop_
_space_group_symop_operation_xyz
x,y,z
-x,-y,z
-x,y,z
x,-y,z
1/2+x,1/2+y,z
1/2-x,1/2-y,z
1/2-x,1/2+y,z
1/2+x,1/2-y,z
loop_
_atom_site_type_symbol
_atom_site_label
_atom_site_fract_x
_atom_site_fract_y
_atom_site_fract_z
Si Si1 0.806362 0.593435 0.182820
Si Si2 0.291446 0.593596 0.542316
Si Si3 0.500000 0.215315 0.677619
Si Si4 0.607399 0.833222 0.488129
Si Si5 0.317304 0.256700 0.857494
Si Si6 0.612496 0.348794 0.215653
Si Si7 0.000000 0.169898 0.182932
O O1 0.805808 0.500000 0.042975
O O2 0.756985 0.590348 0.360298
O O3 0.862211 0.597856 0.322160
O O4 0.799462 0.687895 0.057499
O O5 0.294125 0.500000 0.672348
O O6 0.281544 0.677221 0.707969
O O7 0.345843 0.606875 0.394904
O O8 0.447758 0.157555 0.626554
O O9 0.500000 0.285078 0.452864
O O10 0.500000 0.263630 0.943245
O O11 0.650056 0.805081 0.682627
O O12 0.601357 0.748089 0.320175
O O13 0.357062 0.328143 0.971665
O O14 0.554319 0.384149 0.172522
#
# Coordination Sequence:
#
# PCOD9348149 Si02
#       7
#     8   8   4   8   8   8   4
#     4  10  23  41  61  91 131 172 220 282 345 411
#     4  10  23  41  61  91 131 172 220 282 345 411
#     4  10  18  34  61  96 131 169 223 281 337 404
#     4   9  19  34  59  91 125 163 215 270 334 401
#     4  10  20  38  64  90 120 171 222 269 336 418
#     4   9  19  34  59  91 125 163 215 270 334 401
#     4  10  18  34  61  96 131 169 223 281 337 404
#
# _framework density 22.188292000000001
#
# number of rings (size 3 to 8) (size 9 to 14) (size 15 to 20)
#    0.000    2.333    1.667    0.000    0.000   10.000 
#    0.000    4.167    0.000    1.000    0.000    0.000 
#    0.000    0.000    0.000    0.000    0.000    0.000 
#
# Total GULP energy -133641.147941 kJ/mol
# GULP energy per Si atom -5568.381164 kJ/mol
# Density = 2.213779 g / cm^3
# Si number density = 22.188292 Si / 1000 Ang^3
#
#
#
# Elastic Constant Matrix: (Units=GPa)
#
#
# Indices 1 2 3 4 5 6 
#
# 1 98.0631 30.2297 2.6036 0.0000 0.0000 0.0000
# 2 30.2297 123.9945 17.2583 0.0000 0.0000 0.0000
# 3 2.6036 17.2583 57.1880 0.0000 0.0000 0.0000
# 4 0.0000 0.0000 0.0000 -450.3169 0.0000 0.0000
# 5 0.0000 0.0000 0.0000 0.0000 31.3426 0.0000
# 6 0.0000 0.0000 0.0000 0.0000 0.0000 14.1265
#
#
#
# Elastic Compliance Matrix: (Units=1/GPa)
#
#
# Indices 1 2 3 4 5 6 
#
# 1 0.011032 -0.002735 0.000323 0.000000 0.000000 0.000000
# 2 -0.002735 0.009096 -0.002621 0.000000 0.000000 0.000000
# 3 0.000323 -0.002621 0.018262 0.000000 0.000000 0.000000
# 4 0.000000 0.000000 0.000000 -0.002221 0.000000 0.000000
# 5 0.000000 0.000000 0.000000 0.000000 0.031905 0.000000
# 6 0.000000 0.000000 0.000000 0.000000 0.000000 0.070789
#
#
# Mechanical properties :
#
#
# Convention : Reuss Voigt Hill
#
# Bulk Modulus (GPa) = 35.30294 42.15876 38.73085
# Shear Modulus (GPa) = 31.57146 -65.69264 -17.06059
#
# Velocity S-wave (km/s) = 3.77621 -5.44712 -2.77591
# Velocity P-wave (km/s) = 5.91254 4.52988 2.68685
#
# Compressibility (1/GPa) = 0.02832625
#
# Stress axis : x y z
#
# Youngs Moduli (GPa) = 90.64620 109.93484 54.75748
#
# Poissons Ratio (x) = 0.30062 -0.01769
# Poissons Ratio (y) = 0.24787 0.14350
# Poissons Ratio (z) = -0.02928 0.28810
#
# Static dielectric constant tensor:
#      x y z
#    x 1.926520 0.000000 0.000000 
#    y 0.000000 6.353760 0.000000 
#    z 0.000000 0.000000 1.904910 
# 
# From -- ./inp_files/3704.got.cif
#   From: 2010.05.17/outbox.cif.g08.bks.cpg/sg35_2_cif.got.tgz:3704.got - 2010.06.03 17:29:28.
