data_PCOD9348386
_publ_section_title
;
Structure prediction by ZEFSAII (Michael W. Deem and Ramdas Pophale) SiO2 
 PCOD9348386
Probable space group: C M M 2
;
_chemical_formula_sum "Si O2"
_cell_formula_units_Z 64
_cell_length_a 8.558180
_cell_length_b 19.272765
_cell_length_c 21.511227
_cell_angle_alpha 90.000000
_cell_angle_beta 90.000000
_cell_angle_gamma 90.000000
_cell_volume 3548.057306
_symmetry_space_group_name_H-M "C M M 2"
_symmetry_group_IT_number 35
_symmetry_cell_setting 'orthorhombic'
loop_
_space_group_symop_operation_xyz
x,y,z
-x,-y,z
-x,y,z
x,-y,z
1/2+x,1/2+y,z
1/2-x,1/2-y,z
1/2-x,1/2+y,z
1/2+x,1/2-y,z
loop_
_atom_site_type_symbol
_atom_site_label
_atom_site_fract_x
_atom_site_fract_y
_atom_site_fract_z
Si Si1 0.311344 0.919702 0.373050
Si Si2 0.313234 0.419310 0.873664
Si Si3 0.687880 0.171257 0.760681
Si Si4 0.187059 0.419457 0.008941
Si Si5 0.189273 0.328568 0.489375
Si Si6 0.688318 0.828784 0.624845
Si Si7 0.311529 0.580227 0.238653
Si Si8 0.312581 0.328070 0.121666
O O1 0.500000 0.917427 0.371426
O O2 0.256835 0.873827 0.431023
O O3 0.248577 0.896539 0.306064
O O4 0.263940 0.000000 0.381428
O O5 0.500000 0.414566 0.877496
O O6 0.269667 0.500000 0.863651
O O7 0.252701 0.373564 0.817028
O O8 0.242050 0.398231 0.940092
O O9 0.500000 0.172387 0.763460
O O10 0.750000 0.250000 0.765193
O O11 0.736575 0.142239 0.692215
O O12 0.237296 0.500000 0.018590
O O13 0.000000 0.417153 0.011797
O O14 0.256847 0.370266 0.061420
O O15 0.250000 0.250000 0.484295
O O16 0.237276 0.357990 0.557531
O O17 0.000000 0.327101 0.488135
O O18 0.500000 0.827921 0.625002
O O19 0.750000 0.750000 0.624595
O O20 0.500000 0.580338 0.239484
O O21 0.260285 0.500000 0.228767
O O22 0.258656 0.629568 0.182821
O O23 0.500000 0.326390 0.122138
O O24 0.250000 0.250000 0.121584
#
# Coordination Sequence:
#
# PCOD9348386 Si02
#       8
#     8   8   8   8   8   8   8   8
#     4   9  18  32  50  72  99 131 167 208 251 298
#     4  10  21  37  56  78 106 139 173 211 256 305
#     4  10  19  32  52  77 104 135 174 217 261 309
#     4  10  21  38  60  83 106 135 172 211 252 304
#     4   9  17  30  48  71  98 129 167 208 253 302
#     4   8  15  28  46  69  97 130 167 207 251 301
#     4   9  19  36  56  75  98 133 173 209 249 302
#     4  11  23  38  56  80 110 139 170 211 258 304
#
# _framework density 18.038041
#
# number of rings (size 3 to 8) (size 9 to 14) (size 15 to 20)
#    0.000    2.500    0.000    1.875    0.000    5.000 
#    0.000    6.875    0.000    2.250    0.000    1.750 
#    0.000    0.000    0.000    0.000    0.000    0.000 
#
# Total GULP energy -178422.974623 kJ/mol
# GULP energy per Si atom -5575.717957 kJ/mol
# Density = 1.799699 g / cm^3
# Si number density = 18.038041 Si / 1000 Ang^3
#
#
#
# Elastic Constant Matrix: (Units=GPa)
#
#
# Indices 1 2 3 4 5 6 
#
# 1 24.1990 22.2806 36.8116 0.0000 0.0000 0.0000
# 2 22.2806 75.8578 102.1826 0.0000 0.0000 0.0000
# 3 36.8116 102.1826 220.9617 0.0000 0.0000 0.0000
# 4 0.0000 0.0000 0.0000 39.0740 0.0000 0.0000
# 5 0.0000 0.0000 0.0000 0.0000 25.5197 0.0000
# 6 0.0000 0.0000 0.0000 0.0000 0.0000 20.8936
#
#
#
# Elastic Compliance Matrix: (Units=1/GPa)
#
#
# Indices 1 2 3 4 5 6 
#
# 1 0.058480 -0.010748 -0.004772 0.000000 0.000000 0.000000
# 2 -0.010748 0.036936 -0.015290 0.000000 0.000000 0.000000
# 3 -0.004772 -0.015290 0.012391 0.000000 0.000000 0.000000
# 4 0.000000 0.000000 0.000000 0.025592 0.000000 0.000000
# 5 0.000000 0.000000 0.000000 0.000000 0.039185 0.000000
# 6 0.000000 0.000000 0.000000 0.000000 0.000000 0.047862
#
#
# Mechanical properties :
#
#
# Convention : Reuss Voigt Hill
#
# Bulk Modulus (GPa) = 21.65163 71.50758 46.57960
# Shear Modulus (GPa) = 16.80887 27.74704 22.27795
#
# Velocity S-wave (km/s) = 3.05594 3.92631 3.51815
# Velocity P-wave (km/s) = 4.94784 7.76423 6.51016
#
# Compressibility (1/GPa) = 0.04618591
#
# Stress axis : x y z
#
# Youngs Moduli (GPa) = 17.10000 27.07415 80.70054
#
# Poissons Ratio (x) = 0.29100 0.38511
# Poissons Ratio (y) = 0.18380 1.23392
# Poissons Ratio (z) = 0.08160 0.41397
#
# Static dielectric constant tensor:
#      x y z
#    x 1.613720 0.000000 0.000000 
#    y 0.000000 1.591100 0.000000 
#    z 0.000000 0.000000 1.634050 
# 
# From -- ./inp_files/18341.got.cif
#   From: 2010.05.17/outbox.cif.g08.bks.cpg/sg35_10_cif.got.tgz:18341.got - 2010.06.03 17:29:28.
