data_PCOD9348836
_publ_section_title
;
Structure prediction by ZEFSAII (Michael W. Deem and Ramdas Pophale) SiO2 
 PCOD9348836
Probable space group: C M M 2
;
_chemical_formula_sum "Si O2"
_cell_formula_units_Z 64
_cell_length_a 7.771254
_cell_length_b 19.073588
_cell_length_c 21.214547
_cell_angle_alpha 90.000000
_cell_angle_beta 90.000000
_cell_angle_gamma 90.000000
_cell_volume 3144.541016
_symmetry_space_group_name_H-M "C M M 2"
_symmetry_group_IT_number 35
_symmetry_cell_setting 'orthorhombic'
loop_
_space_group_symop_operation_xyz
x,y,z
-x,-y,z
-x,y,z
x,-y,z
1/2+x,1/2+y,z
1/2-x,1/2-y,z
1/2-x,1/2+y,z
1/2+x,1/2-y,z
loop_
_atom_site_type_symbol
_atom_site_label
_atom_site_fract_x
_atom_site_fract_y
_atom_site_fract_z
Si Si1 0.292510 0.168399 0.001350
Si Si2 0.294907 0.079065 0.882817
Si Si3 0.707093 0.669510 0.621182
Si Si4 0.293060 0.080227 0.120401
Si Si5 0.294954 0.330401 0.763116
Si Si6 0.292861 0.668321 0.380787
Si Si7 0.289099 0.419243 0.502312
Si Si8 0.206995 0.080277 0.261814
O O1 0.500000 0.163330 0.001412
O O2 0.250000 0.250000 0.999118
O O3 0.229062 0.130451 0.064970
O O4 0.226826 0.126878 0.939903
O O5 0.500000 0.074106 0.892229
O O6 0.267663 0.117082 0.816395
O O7 0.224712 0.000000 0.883669
O O8 0.500000 0.663776 0.623108
O O9 0.750000 0.750000 0.605178
O O10 0.772561 0.655637 0.692194
O O11 0.769173 0.617445 0.566981
O O12 0.500000 0.077689 0.115801
O O13 0.249951 0.103988 0.191097
O O14 0.229120 0.000000 0.112834
O O15 0.500000 0.335766 0.761067
O O16 0.250000 0.250000 0.779323
O O17 0.500000 0.662759 0.380604
O O18 0.250000 0.750000 0.383352
O O19 0.231699 0.626259 0.442379
O O20 0.228570 0.630648 0.317128
O O21 0.500000 0.418664 0.502444
O O22 0.235604 0.500000 0.497647
O O23 0.000000 0.077785 0.266484
O O24 0.270708 0.000000 0.269401
#
# Coordination Sequence:
#
# PCOD9348836 Si02
#       8
#     8   8   8   8   8   8   8   8
#     4  10  21  36  54  76 102 132 168 209 251 299
#     4  10  21  37  56  77 103 136 172 212 259 308
#     4   9  18  32  52  76 102 133 167 206 250 297
#     4   9  18  34  55  76  99 130 166 203 246 296
#     4  10  20  34  53  78 107 138 172 211 255 304
#     4  10  20  33  51  74 100 131 166 206 249 294
#     4   9  17  31  52  75  98 129 170 210 248 293
#     4   9  18  33  52  74 100 130 165 204 245 291
#
# _framework density 20.352733000000001
#
# number of rings (size 3 to 8) (size 9 to 14) (size 15 to 20)
#    0.000    2.500    0.000    1.875    0.000    7.250 
#    0.000    3.750    0.000    4.500    0.000    0.000 
#    0.000    0.000    0.000    0.000    0.000    0.000 
#
# Total GULP energy -178660.008459 kJ/mol
# GULP energy per Si atom -5583.125264 kJ/mol
# Density = 2.030641 g / cm^3
# Si number density = 20.352733 Si / 1000 Ang^3
#
#
#
# Elastic Constant Matrix: (Units=GPa)
#
#
# Indices 1 2 3 4 5 6 
#
# 1 27.7601 2.8828 6.1890 0.0000 0.0000 0.0000
# 2 2.8828 181.2816 146.9232 0.0000 0.0000 0.0000
# 3 6.1890 146.9232 187.9048 0.0000 0.0000 0.0000
# 4 0.0000 0.0000 0.0000 59.6283 0.0000 0.0000
# 5 0.0000 0.0000 0.0000 0.0000 -9.8230 0.0000
# 6 0.0000 0.0000 0.0000 0.0000 0.0000 23.5259
#
#
#
# Elastic Compliance Matrix: (Units=1/GPa)
#
#
# Indices 1 2 3 4 5 6 
#
# 1 0.036366 0.001071 -0.002035 0.000000 0.000000 0.000000
# 2 0.001071 0.015091 -0.011835 0.000000 0.000000 0.000000
# 3 -0.002035 -0.011835 0.014643 0.000000 0.000000 0.000000
# 4 0.000000 0.000000 0.000000 0.016771 0.000000 0.000000
# 5 0.000000 0.000000 0.000000 0.000000 -0.101802 0.000000
# 6 0.000000 0.000000 0.000000 0.000000 0.000000 0.042506
#
#
# Mechanical properties :
#
#
# Convention : Reuss Voigt Hill
#
# Bulk Modulus (GPa) = 24.69070 78.77073 51.73071
# Shear Modulus (GPa) = 79.77788 30.72967 55.25377
#
# Velocity S-wave (km/s) = 6.26759 3.88990 5.21604
# Velocity P-wave (km/s) = 8.03335 7.67867 7.85801
#
# Compressibility (1/GPa) = 0.04050108
#
# Stress axis : x y z
#
# Youngs Moduli (GPa) = 27.49858 66.26312 68.29250
#
# Poissons Ratio (x) = -0.07099 0.13901
# Poissons Ratio (y) = -0.02946 0.80826
# Poissons Ratio (z) = 0.05597 0.78424
#
# Static dielectric constant tensor:
#      x y z
#    x 1.756190 0.000000 0.000000 
#    y 0.000000 1.678510 0.000000 
#    z 0.000000 0.000000 1.719430 
# 
# From -- ./inp_files/18334.got.cif
#   From: 2010.05.17/outbox.cif.g08.bks.cpg/sg35_10_cif.got.tgz:18334.got - 2010.06.03 17:29:28.
