data_PCOD9348452
_publ_section_title
;
Structure prediction by ZEFSAII (Michael W. Deem and Ramdas Pophale) SiO2 
 PCOD9348452
Probable space group: C M M 2
;
_chemical_formula_sum "Si O2"
_cell_formula_units_Z 48
_cell_length_a 17.355421
_cell_length_b 15.517734
_cell_length_c 9.176641
_cell_angle_alpha 90.000000
_cell_angle_beta 90.000000
_cell_angle_gamma 90.000000
_cell_volume 2471.423649
_symmetry_space_group_name_H-M "C M M 2"
_symmetry_group_IT_number 35
_symmetry_cell_setting 'orthorhombic'
loop_
_space_group_symop_operation_xyz
x,y,z
-x,-y,z
-x,y,z
x,-y,z
1/2+x,1/2+y,z
1/2-x,1/2-y,z
1/2-x,1/2+y,z
1/2+x,1/2-y,z
loop_
_atom_site_type_symbol
_atom_site_label
_atom_site_fract_x
_atom_site_fract_y
_atom_site_fract_z
Si Si1 0.090007 0.500000 0.904610
Si Si2 0.592357 0.669664 0.388489
Si Si3 0.408462 0.642489 0.050535
Si Si4 0.174396 0.307745 0.571151
Si Si5 0.166018 0.000000 0.856138
Si Si6 0.687264 0.000000 0.639056
Si Si7 0.091526 0.317157 0.880970
Si Si8 0.909582 0.000000 0.554203
O O1 0.107264 0.500000 0.730626
O O2 0.121362 0.406939 0.950278
O O3 0.000000 0.500000 0.940576
O O4 0.500000 0.676044 0.403349
O O5 0.608954 0.645522 0.221651
O O6 0.627098 0.759382 0.444812
O O7 0.621031 0.589041 0.486317
O O8 0.500000 0.617992 0.033005
O O9 0.352930 0.580919 0.958430
O O10 0.398215 0.737462 0.986437
O O11 0.250000 0.250000 0.585514
O O12 0.190896 0.409857 0.553047
O O13 0.130498 0.301110 0.725655
O O14 0.246236 0.000000 0.765642
O O15 0.104424 0.000000 0.725168
O O16 0.000000 0.326509 0.854865
O O17 0.000000 0.000000 0.520768
#
# Coordination Sequence:
#
# PCOD9348452 Si02
#       8
#     4   8   8   8   4   4   8   4
#     4   8  16  32  52  73  99 133 179 237 287 327
#     4  10  21  37  56  82 117 154 192 239 298 361
#     4  10  20  34  55  84 115 148 187 232 289 357
#     4  11  21  36  56  80 112 149 192 241 293 351
#     4  12  21  35  57  83 117 148 184 237 293 346
#     4  10  22  35  54  84 111 143 193 244 289 345
#     4   9  17  32  55  79 103 138 187 239 289 341
#     4  10  19  32  55  84 111 144 186 232 291 358
#
# _framework density 19.422004999999999
#
# number of rings (size 3 to 8) (size 9 to 14) (size 15 to 20)
#    0.000    2.000    0.000    4.750    0.000    4.667 
#    0.000    5.000    0.000    2.000    0.000    0.000 
#    0.000    0.000    0.000    0.000    0.000    0.000 
#
# Total GULP energy -133797.200968 kJ/mol
# GULP energy per Si atom -5574.883374 kJ/mol
# Density = 1.937780 g / cm^3
# Si number density = 19.422005 Si / 1000 Ang^3
#
#
#
# Elastic Constant Matrix: (Units=GPa)
#
#
# Indices 1 2 3 4 5 6 
#
# 1 37.2798 36.9873 23.8356 0.0000 0.0000 0.0000
# 2 36.9873 160.1069 61.1628 0.0000 0.0000 0.0000
# 3 23.8356 61.1628 86.5436 0.0000 0.0000 0.0000
# 4 0.0000 0.0000 0.0000 -11.6925 0.0000 0.0000
# 5 0.0000 0.0000 0.0000 0.0000 17.2991 0.0000
# 6 0.0000 0.0000 0.0000 0.0000 0.0000 22.1842
#
#
#
# Elastic Compliance Matrix: (Units=1/GPa)
#
#
# Indices 1 2 3 4 5 6 
#
# 1 0.036705 -0.006325 -0.005639 0.000000 0.000000 0.000000
# 2 -0.006325 0.009646 -0.005075 0.000000 0.000000 0.000000
# 3 -0.005639 -0.005075 0.016694 0.000000 0.000000 0.000000
# 4 0.000000 0.000000 0.000000 -0.085525 0.000000 0.000000
# 5 0.000000 0.000000 0.000000 0.000000 0.057807 0.000000
# 6 0.000000 0.000000 0.000000 0.000000 0.000000 0.045077
#
#
# Mechanical properties :
#
#
# Convention : Reuss Voigt Hill
#
# Bulk Modulus (GPa) = 34.52180 58.65575 46.58878
# Shear Modulus (GPa) = 40.27772 16.35447 28.31610
#
# Velocity S-wave (km/s) = 4.55886 2.90497 3.82244
# Velocity P-wave (km/s) = 6.74716 6.44345 6.59705
#
# Compressibility (1/GPa) = 0.02896720
#
# Stress axis : x y z
#
# Youngs Moduli (GPa) = 27.24406 103.67303 59.90024
#
# Poissons Ratio (x) = 0.65577 0.33778
# Poissons Ratio (y) = 0.17233 0.30398
# Poissons Ratio (z) = 0.15363 0.52612
#
# Static dielectric constant tensor:
#      x y z
#    x 1.730560 0.000000 0.000000 
#    y 0.000000 1.733670 0.000000 
#    z 0.000000 0.000000 1.629600 
# 
# From -- ./inp_files/7376.got.cif
#   From: 2010.05.17/outbox.cif.g08.bks.cpg/sg35_4_cif.got.tgz:7376.got - 2010.06.03 17:29:28.
