data_PCOD9348662
_publ_section_title
;
Structure prediction by ZEFSAII (Michael W. Deem and Ramdas Pophale) SiO2 
 PCOD9348662
Probable space group: C M M 2
;
_chemical_formula_sum "Si O2"
_cell_formula_units_Z 48
_cell_length_a 8.522489
_cell_length_b 15.269258
_cell_length_c 19.411041
_cell_angle_alpha 90.000000
_cell_angle_beta 90.000000
_cell_angle_gamma 90.000000
_cell_volume 2525.999205
_symmetry_space_group_name_H-M "C M M 2"
_symmetry_group_IT_number 35
_symmetry_cell_setting 'orthorhombic'
loop_
_space_group_symop_operation_xyz
x,y,z
-x,-y,z
-x,y,z
x,-y,z
1/2+x,1/2+y,z
1/2-x,1/2-y,z
1/2-x,1/2+y,z
1/2+x,1/2-y,z
loop_
_atom_site_type_symbol
_atom_site_label
_atom_site_fract_x
_atom_site_fract_y
_atom_site_fract_z
Si Si1 0.189262 0.344228 0.596920
Si Si2 0.317062 0.000000 0.984760
Si Si3 0.191888 0.500000 0.497989
Si Si4 0.183537 0.605218 0.750328
Si Si5 0.688449 0.850328 0.233970
Si Si6 0.190961 0.500000 0.340426
Si Si7 0.315064 0.500000 0.135974
Si Si8 0.315596 0.343987 0.894903
O O1 0.250000 0.250000 0.576544
O O2 0.242157 0.416344 0.542303
O O3 0.240442 0.364803 0.675233
O O4 0.000000 0.346467 0.598403
O O5 0.274060 0.082887 0.938097
O O6 0.500000 0.000000 0.002014
O O7 0.220579 0.000000 0.055212
O O8 0.245409 0.500000 0.419194
O O9 0.000000 0.500000 0.496640
O O10 0.189419 0.500000 0.752056
O O11 0.280441 0.641872 0.814007
O O12 0.000000 0.631143 0.758836
O O13 0.500000 0.846050 0.233462
O O14 0.750000 0.750000 0.234002
O O15 0.743256 0.912070 0.170546
O O16 0.738278 0.911689 0.299220
O O17 0.000000 0.500000 0.340204
O O18 0.500000 0.500000 0.149263
O O19 0.500000 0.351129 0.907457
O O20 0.250000 0.250000 0.915076
#
# Coordination Sequence:
#
# PCOD9348662 Si02
#       8
#     8   4   4   8   8   4   4   8
#     4  10  20  34  54  79 108 148 195 242 294 351
#     4  12  25  44  65  89 123 158 191 238 290 346
#     4   9  17  34  55  77 111 155 194 233 290 352
#     4  10  19  35  58  81 109 149 196 247 301 354
#     4  10  20  37  61  91 121 155 196 238 286 342
#     4   8  17  33  56  84 116 152 194 240 286 342
#     4  11  23  41  64  92 122 155 193 237 284 340
#     4  12  25  41  61  88 117 154 199 245 296 352
#
# _framework density 19.002381
#
# number of rings (size 3 to 8) (size 9 to 14) (size 15 to 20)
#    0.000    1.667    1.667    4.500    0.000    3.333 
#    0.000    3.750    0.000    5.000    0.000    0.000 
#    0.000    0.000    0.000    0.000    0.000    0.000 
#
# Total GULP energy -134046.131435 kJ/mol
# GULP energy per Si atom -5585.255476 kJ/mol
# Density = 1.895913 g / cm^3
# Si number density = 19.002381 Si / 1000 Ang^3
#
#
#
# Elastic Constant Matrix: (Units=GPa)
#
#
# Indices 1 2 3 4 5 6 
#
# 1 44.7013 20.6221 1.3360 0.0000 0.0000 0.0000
# 2 20.6221 167.5406 58.6009 0.0000 0.0000 0.0000
# 3 1.3360 58.6009 112.4302 0.0000 0.0000 0.0000
# 4 0.0000 0.0000 0.0000 73.6806 0.0000 0.0000
# 5 0.0000 0.0000 0.0000 0.0000 7.2675 0.0000
# 6 0.0000 0.0000 0.0000 0.0000 0.0000 28.5039
#
#
#
# Elastic Compliance Matrix: (Units=1/GPa)
#
#
# Indices 1 2 3 4 5 6 
#
# 1 0.023931 -0.003481 0.001530 0.000000 0.000000 0.000000
# 2 -0.003481 0.007806 -0.004027 0.000000 0.000000 0.000000
# 3 0.001530 -0.004027 0.010975 0.000000 0.000000 0.000000
# 4 0.000000 0.000000 0.000000 0.013572 0.000000 0.000000
# 5 0.000000 0.000000 0.000000 0.000000 0.137600 0.000000
# 6 0.000000 0.000000 0.000000 0.000000 0.000000 0.035083
#
#
# Mechanical properties :
#
#
# Convention : Reuss Voigt Hill
#
# Bulk Modulus (GPa) = 32.51424 53.97667 43.24546
# Shear Modulus (GPa) = 19.90650 38.16460 29.03555
#
# Velocity S-wave (km/s) = 3.24014 4.48639 3.91320
# Velocity P-wave (km/s) = 5.58084 7.43665 6.57456
#
# Compressibility (1/GPa) = 0.03075575
#
# Stress axis : x y z
#
# Youngs Moduli (GPa) = 41.78730 128.11152 91.11412
#
# Poissons Ratio (x) = 0.44591 -0.13939
# Poissons Ratio (y) = 0.14545 0.36693
# Poissons Ratio (z) = -0.06393 0.51592
#
# Static dielectric constant tensor:
#      x y z
#    x 1.652410 0.000000 0.000000 
#    y 0.000000 1.636750 0.000000 
#    z 0.000000 0.000000 1.647880 
# 
# From -- ./inp_files/17953.got.cif
#   From: 2010.05.17/outbox.cif.g08.bks.cpg/sg35_9_cif.got.tgz:17953.got - 2010.06.03 17:29:28.
