data_PCOD9348275
_publ_section_title
;
Structure prediction by ZEFSAII (Michael W. Deem and Ramdas Pophale) SiO2 
 PCOD9348275
Probable space group: C M M 2
;
_chemical_formula_sum "Si O2"
_cell_formula_units_Z 64
_cell_length_a 14.788738
_cell_length_b 18.028261
_cell_length_c 12.254406
_cell_angle_alpha 90.000000
_cell_angle_beta 90.000000
_cell_angle_gamma 90.000000
_cell_volume 3267.211256
_symmetry_space_group_name_H-M "C M M 2"
_symmetry_group_IT_number 35
_symmetry_cell_setting 'orthorhombic'
loop_
_space_group_symop_operation_xyz
x,y,z
-x,-y,z
-x,y,z
x,-y,z
1/2+x,1/2+y,z
1/2-x,1/2-y,z
1/2-x,1/2+y,z
1/2+x,1/2-y,z
loop_
_atom_site_type_symbol
_atom_site_label
_atom_site_fract_x
_atom_site_fract_y
_atom_site_fract_z
Si Si1 0.100473 0.702738 0.275220
Si Si2 0.394029 0.345348 0.130331
Si Si3 0.097638 0.412586 0.934189
Si Si4 0.161686 0.802761 0.464730
Si Si5 0.720370 0.335603 0.926028
Si Si6 0.598858 0.912494 0.669941
Si Si7 0.719031 0.666357 0.681265
Si Si8 0.738418 0.413995 0.296009
O O1 0.124259 0.764087 0.183540
O O2 0.100714 0.751480 0.387304
O O3 0.173728 0.637840 0.279067
O O4 0.000000 0.673722 0.255991
O O5 0.500000 0.360590 0.144946
O O6 0.330148 0.401577 0.195793
O O7 0.363404 0.345290 0.005715
O O8 0.099254 0.500000 0.957305
O O9 0.190426 0.376752 0.971916
O O10 0.098115 0.403811 0.801907
O O11 0.000000 0.382249 0.973009
O O12 0.250000 0.750000 0.473281
O O13 0.142298 0.827348 0.588725
O O14 0.186892 0.876340 0.397944
O O15 0.750000 0.250000 0.924991
O O16 0.698775 0.363051 0.802628
O O17 0.500000 0.884338 0.630206
O O18 0.691766 0.874737 0.633363
O O19 0.602627 0.000000 0.646248
O O20 0.750000 0.750000 0.702281
O O21 0.760128 0.500000 0.311535
#
# Coordination Sequence:
#
# PCOD9348275 Si02
#       8
#     8   8   8   8   8   8   8   8
#     4   9  18  36  61  82 105 140 176 217 273 332
#     4  10  21  38  57  76 104 145 186 220 262 319
#     4   8  15  29  48  70  99 136 176 218 267 321
#     4   8  16  33  52  73 105 145 180 207 250 316
#     4  10  19  31  50  79 111 144 183 225 263 307
#     4   8  14  26  45  69  98 134 176 219 263 313
#     4   9  17  30  48  73 110 148 180 214 255 310
#     4  10  20  35  58  85 108 132 172 228 276 317
#
# _framework density 19.588571000000002
#
# number of rings (size 3 to 8) (size 9 to 14) (size 15 to 20)
#    0.000    3.000    0.000    2.625    0.000    2.000 
#    0.000    8.750    0.000    0.750    0.000    0.000 
#    0.000    5.500    0.000    0.000    0.000    0.000 
#
# Total GULP energy -178197.218730 kJ/mol
# GULP energy per Si atom -5568.663085 kJ/mol
# Density = 1.954399 g / cm^3
# Si number density = 19.588571 Si / 1000 Ang^3
#
#
#
# Elastic Constant Matrix: (Units=GPa)
#
#
# Indices 1 2 3 4 5 6 
#
# 1 73.9295 43.8010 24.8380 0.0000 0.0000 0.0000
# 2 43.8010 73.9912 11.1848 0.0000 0.0000 0.0000
# 3 24.8380 11.1848 90.1494 0.0000 0.0000 0.0000
# 4 0.0000 0.0000 0.0000 28.8425 0.0000 0.0000
# 5 0.0000 0.0000 0.0000 0.0000 10.5079 0.0000
# 6 0.0000 0.0000 0.0000 0.0000 0.0000 17.0493
#
#
#
# Elastic Compliance Matrix: (Units=1/GPa)
#
#
# Indices 1 2 3 4 5 6 
#
# 1 0.022599 -0.012675 -0.004654 0.000000 0.000000 0.000000
# 2 -0.012675 0.020882 0.000901 0.000000 0.000000 0.000000
# 3 -0.004654 0.000901 0.012263 0.000000 0.000000 0.000000
# 4 0.000000 0.000000 0.000000 0.034671 0.000000 0.000000
# 5 0.000000 0.000000 0.000000 0.000000 0.095166 0.000000
# 6 0.000000 0.000000 0.000000 0.000000 0.000000 0.058653
#
#
# Mechanical properties :
#
#
# Convention : Reuss Voigt Hill
#
# Bulk Modulus (GPa) = 43.68795 44.19088 43.93942
# Shear Modulus (GPa) = 17.56111 21.82971 19.69541
#
# Velocity S-wave (km/s) = 2.99741 3.34190 3.17433
# Velocity P-wave (km/s) = 5.85922 6.12369 5.99291
#
# Compressibility (1/GPa) = 0.02288961
#
# Stress axis : x y z
#
# Youngs Moduli (GPa) = 44.24886 47.88802 81.54510
#
# Poissons Ratio (x) = 0.60697 0.37952
# Poissons Ratio (y) = 0.56085 -0.07350
# Poissons Ratio (z) = 0.20594 -0.04316
#
# Static dielectric constant tensor:
#      x y z
#    x 1.707850 0.000000 0.000000 
#    y 0.000000 1.660570 0.000000 
#    z 0.000000 0.000000 1.778910 
# 
# From -- ./inp_files/13238.got.cif
#   From: 2010.05.17/outbox.cif.g08.bks.cpg/sg35_7_cif.got.tgz:13238.got - 2010.06.03 17:29:28.
