data_PCOD9348325
_publ_section_title
;
Structure prediction by ZEFSAII (Michael W. Deem and Ramdas Pophale) SiO2 
 PCOD9348325
Probable space group: C M M 2
;
_chemical_formula_sum "Si O2"
_cell_formula_units_Z 64
_cell_length_a 31.790776
_cell_length_b 13.456379
_cell_length_c 10.212752
_cell_angle_alpha 90.000000
_cell_angle_beta 90.000000
_cell_angle_gamma 90.000000
_cell_volume 4368.900214
_symmetry_space_group_name_H-M "C M M 2"
_symmetry_group_IT_number 35
_symmetry_cell_setting 'orthorhombic'
loop_
_space_group_symop_operation_xyz
x,y,z
-x,-y,z
-x,y,z
x,-y,z
1/2+x,1/2+y,z
1/2-x,1/2-y,z
1/2-x,1/2+y,z
1/2+x,1/2-y,z
loop_
_atom_site_type_symbol
_atom_site_label
_atom_site_fract_x
_atom_site_fract_y
_atom_site_fract_z
Si Si1 0.222375 0.614834 0.511040
Si Si2 0.270813 0.886422 0.824678
Si Si3 0.682800 0.301859 0.918161
Si Si4 0.860393 0.119833 0.174944
Si Si5 0.629668 0.618193 0.688547
Si Si6 0.046396 0.879376 0.547628
Si Si7 0.314691 0.680602 0.442278
Si Si8 0.547012 0.379412 0.242564
O O1 0.209717 0.500000 0.491487
O O2 0.227529 0.632322 0.667875
O O3 0.267947 0.633858 0.446040
O O4 0.191814 0.700616 0.457222
O O5 0.301273 0.810146 0.897876
O O6 0.223585 0.866067 0.874915
O O7 0.282258 0.000000 0.847421
O O8 0.646308 0.327062 0.815776
O O9 0.666560 0.329819 0.060815
O O10 0.840447 0.149711 0.314335
O O11 0.909860 0.150155 0.171032
O O12 0.858358 0.000000 0.161689
O O13 0.628613 0.500000 0.713621
O O14 0.584229 0.653498 0.638875
O O15 0.661349 0.639342 0.569273
O O16 0.051817 0.850392 0.395652
O O17 0.000000 0.848134 0.591313
O O18 0.047508 0.000000 0.547678
O O19 0.500000 0.346868 0.198299
O O20 0.546426 0.500000 0.239381
#
# Coordination Sequence:
#
# PCOD9348325 Si02
#       8
#     8   8   8   8   8   8   8   8
#     4  10  19  32  50  70  92 119 157 204 241 268
#     4  10  19  34  51  66  91 124 158 197 240 277
#     4  11  21  33  46  70  93 126 163 191 225 278
#     4  11  21  31  45  70 101 128 155 190 228 272
#     4  11  17  27  47  67  91 121 157 193 224 267
#     4   8  14  24  41  66  92 120 153 188 227 271
#     4  11  19  31  47  70  90 120 161 194 228 273
#     4   8  14  26  43  63  90 124 154 181 225 280
#
# _framework density 14.648996
#
# number of rings (size 3 to 8) (size 9 to 14) (size 15 to 20)
#    0.000    2.000    3.750    3.750    0.000    2.000 
#    0.000    2.500    0.000    3.000    0.000    0.000 
#    0.000    6.000    0.000    0.000    0.000    0.000 
#
# Total GULP energy -178321.052683 kJ/mol
# GULP energy per Si atom -5572.532896 kJ/mol
# Density = 1.461565 g / cm^3
# Si number density = 14.648996 Si / 1000 Ang^3
#
#
#
# Elastic Constant Matrix: (Units=GPa)
#
#
# Indices 1 2 3 4 5 6 
#
# 1 67.4374 20.7068 8.2208 0.0000 0.0000 0.0000
# 2 20.7068 69.8177 13.1368 0.0000 0.0000 0.0000
# 3 8.2208 13.1368 42.3312 0.0000 0.0000 0.0000
# 4 0.0000 0.0000 0.0000 17.5817 0.0000 0.0000
# 5 0.0000 0.0000 0.0000 0.0000 14.9261 0.0000
# 6 0.0000 0.0000 0.0000 0.0000 0.0000 9.0807
#
#
#
# Elastic Compliance Matrix: (Units=1/GPa)
#
#
# Indices 1 2 3 4 5 6 
#
# 1 0.016440 -0.004540 -0.001784 0.000000 0.000000 0.000000
# 2 -0.004540 0.016465 -0.004228 0.000000 0.000000 0.000000
# 3 -0.001784 -0.004228 0.025282 0.000000 0.000000 0.000000
# 4 0.000000 0.000000 0.000000 0.056877 0.000000 0.000000
# 5 0.000000 0.000000 0.000000 0.000000 0.066997 0.000000
# 6 0.000000 0.000000 0.000000 0.000000 0.000000 0.110123
#
#
# Mechanical properties :
#
#
# Convention : Reuss Voigt Hill
#
# Bulk Modulus (GPa) = 26.96644 29.30167 28.13405
# Shear Modulus (GPa) = 15.35394 17.48582 16.41988
#
# Velocity S-wave (km/s) = 3.24098 3.45868 3.35160
# Velocity P-wave (km/s) = 5.69681 5.99965 5.85019
#
# Compressibility (1/GPa) = 0.03708313
#
# Stress axis : x y z
#
# Youngs Moduli (GPa) = 60.82688 60.73454 39.55423
#
# Poissons Ratio (x) = 0.27575 0.07055
# Poissons Ratio (y) = 0.27617 0.16723
# Poissons Ratio (z) = 0.10850 0.25678
#
# Static dielectric constant tensor:
#      x y z
#    x 1.503180 0.000000 0.000000 
#    y 0.000000 1.480330 0.000000 
#    z 0.000000 0.000000 1.475740 
# 
# From -- ./inp_files/8016.got.cif
#   From: 2010.05.17/outbox.cif.g08.bks.cpg/sg35_5_cif.got.tgz:8016.got - 2010.06.03 17:29:28.
