data_PCOD9348631
_publ_section_title
;
Structure prediction by ZEFSAII (Michael W. Deem and Ramdas Pophale) SiO2 
 PCOD9348631
Probable space group: C M M 2
;
_chemical_formula_sum "Si O2"
_cell_formula_units_Z 64
_cell_length_a 8.767014
_cell_length_b 31.546538
_cell_length_c 12.118292
_cell_angle_alpha 90.000000
_cell_angle_beta 90.000000
_cell_angle_gamma 90.000000
_cell_volume 3351.543177
_symmetry_space_group_name_H-M "C M M 2"
_symmetry_group_IT_number 35
_symmetry_cell_setting 'orthorhombic'
loop_
_space_group_symop_operation_xyz
x,y,z
-x,-y,z
-x,y,z
x,-y,z
1/2+x,1/2+y,z
1/2-x,1/2-y,z
1/2-x,1/2+y,z
1/2+x,1/2-y,z
loop_
_atom_site_type_symbol
_atom_site_label
_atom_site_fract_x
_atom_site_fract_y
_atom_site_fract_z
Si Si1 0.180861 0.076345 0.944850
Si Si2 0.681898 0.048201 0.173868
Si Si3 0.183509 0.871416 0.562415
Si Si4 0.818343 0.705084 0.702615
Si Si5 0.818428 0.127172 0.302260
Si Si6 0.819389 0.821872 0.936621
Si Si7 0.314324 0.547128 0.701098
Si Si8 0.318414 0.794415 0.168406
O O1 0.199490 0.127176 0.941612
O O2 0.229818 0.057745 0.826923
O O3 0.000000 0.067552 0.959202
O O4 0.270075 0.057288 0.047733
O O5 0.500000 0.052476 0.184348
O O6 0.762479 0.083468 0.248285
O O7 0.725469 0.000000 0.202936
O O8 0.262474 0.832310 0.622952
O O9 0.213979 0.872199 0.432435
O O10 0.234081 0.915128 0.620665
O O11 0.000000 0.867516 0.578329
O O12 0.750000 0.750000 0.666128
O O13 0.754734 0.695109 0.824790
O O14 0.000000 0.707130 0.705465
O O15 0.737860 0.166260 0.241493
O O16 0.000000 0.131080 0.285281
O O17 0.000000 0.812632 0.936198
O O18 0.743367 0.802280 0.044787
O O19 0.500000 0.547097 0.699585
O O20 0.262459 0.500000 0.669926
O O21 0.500000 0.792458 0.167432
O O22 0.250000 0.750000 0.209443
#
# Coordination Sequence:
#
# PCOD9348631 Si02
#       8
#     8   8   8   8   8   8   8   8
#     4  10  19  34  62  91 123 161 201 249 304 368
#     4  11  24  40  60  89 128 168 206 254 310 370
#     4  10  22  42  64  89 122 159 206 260 308 359
#     4  12  25  41  64  92 125 164 205 250 307 367
#     4  11  24  42  65  90 120 162 211 262 313 367
#     4  11  21  38  64  94 128 161 201 250 307 367
#     4   9  17  33  60  92 122 154 194 243 298 353
#     4  12  25  42  65  92 125 160 202 252 310 375
#
# _framework density 19.095680000000002
#
# number of rings (size 3 to 8) (size 9 to 14) (size 15 to 20)
#    0.000    1.250    2.500    4.125    0.000    4.000 
#    0.000    1.250    0.000    0.375    0.000    0.000 
#    0.000    0.000    0.000    0.000    0.000    0.000 
#
# Total GULP energy -178980.843392 kJ/mol
# GULP energy per Si atom -5593.151356 kJ/mol
# Density = 1.905222 g / cm^3
# Si number density = 19.095680 Si / 1000 Ang^3
#
#
#
# Elastic Constant Matrix: (Units=GPa)
#
#
# Indices 1 2 3 4 5 6 
#
# 1 91.9652 76.1458 68.5913 0.0000 0.0000 0.0000
# 2 76.1458 176.8411 81.2478 0.0000 0.0000 0.0000
# 3 68.5913 81.2478 111.4338 0.0000 0.0000 0.0000
# 4 0.0000 0.0000 0.0000 -5.7468 0.0000 0.0000
# 5 0.0000 0.0000 0.0000 0.0000 11.1551 0.0000
# 6 0.0000 0.0000 0.0000 0.0000 0.0000 28.2682
#
#
#
# Elastic Compliance Matrix: (Units=1/GPa)
#
#
# Indices 1 2 3 4 5 6 
#
# 1 0.022760 -0.005058 -0.010322 0.000000 0.000000 0.000000
# 2 -0.005058 0.009627 -0.003906 0.000000 0.000000 0.000000
# 3 -0.010322 -0.003906 0.018175 0.000000 0.000000 0.000000
# 4 0.000000 0.000000 0.000000 -0.174010 0.000000 0.000000
# 5 0.000000 0.000000 0.000000 0.000000 0.089645 0.000000
# 6 0.000000 0.000000 0.000000 0.000000 0.000000 0.035375
#
#
# Mechanical properties :
#
#
# Convention : Reuss Voigt Hill
#
# Bulk Modulus (GPa) = 83.39534 92.46776 87.93155
# Shear Modulus (GPa) = 113.27408 17.01899 65.14654
#
# Velocity S-wave (km/s) = 7.71025 2.98862 5.84721
# Velocity P-wave (km/s) = 11.09194 7.77416 9.57781
#
# Compressibility (1/GPa) = 0.01199108
#
# Stress axis : x y z
#
# Youngs Moduli (GPa) = 43.93688 103.87145 55.02008
#
# Poissons Ratio (x) = 0.52538 0.56790
# Poissons Ratio (y) = 0.22223 0.21491
# Poissons Ratio (z) = 0.45350 0.40572
#
# Static dielectric constant tensor:
#      x y z
#    x 1.638960 0.000000 0.000000 
#    y 0.000000 1.661610 0.000000 
#    z 0.000000 0.000000 1.629620 
# 
# From -- ./inp_files/11949.got.cif
#   From: 2010.05.17/outbox.cif.g08.bks.cpg/sg35_6_cif.got.tgz:11949.got - 2010.06.03 17:29:28.
