data_PCOD9348437
_publ_section_title
;
Structure prediction by ZEFSAII (Michael W. Deem and Ramdas Pophale) SiO2 
 PCOD9348437
Probable space group: C M M 2
;
_chemical_formula_sum "Si O2"
_cell_formula_units_Z 64
_cell_length_a 8.935721
_cell_length_b 29.634851
_cell_length_c 12.643981
_cell_angle_alpha 90.000000
_cell_angle_beta 90.000000
_cell_angle_gamma 90.000000
_cell_volume 3348.236935
_symmetry_space_group_name_H-M "C M M 2"
_symmetry_group_IT_number 35
_symmetry_cell_setting 'orthorhombic'
loop_
_space_group_symop_operation_xyz
x,y,z
-x,-y,z
-x,y,z
x,-y,z
1/2+x,1/2+y,z
1/2-x,1/2-y,z
1/2-x,1/2+y,z
1/2+x,1/2-y,z
loop_
_atom_site_type_symbol
_atom_site_label
_atom_site_fract_x
_atom_site_fract_y
_atom_site_fract_z
Si Si1 0.179148 0.049882 0.925830
Si Si2 0.677512 0.551521 0.475979
Si Si3 0.819555 0.356657 0.991166
Si Si4 0.179118 0.361849 0.398184
Si Si5 0.824097 0.204329 0.560615
Si Si6 0.180191 0.700268 0.197410
Si Si7 0.828988 0.674182 0.760818
Si Si8 0.672552 0.068804 0.702687
O O1 0.248108 0.093524 0.983906
O O2 0.241785 0.051060 0.805892
O O3 0.000000 0.054352 0.923551
O O4 0.216579 0.000000 0.970420
O O5 0.500000 0.560125 0.482228
O O6 0.701288 0.500000 0.441356
O O7 0.754183 0.588071 0.400199
O O8 0.747597 0.556879 0.593233
O O9 0.783418 0.329775 0.882993
O O10 0.000000 0.362410 0.991572
O O11 0.774951 0.327109 0.091956
O O12 0.248644 0.336738 0.499032
O O13 0.219135 0.331344 0.297186
O O14 0.000000 0.363789 0.407520
O O15 0.750000 0.250000 0.518420
O O16 0.781884 0.199944 0.683710
O O17 0.000000 0.204584 0.544569
O O18 0.250000 0.750000 0.203436
O O19 0.000000 0.705035 0.196050
O O20 0.830326 0.622659 0.719566
O O21 0.000000 0.691662 0.751800
O O22 0.500000 0.053505 0.701290
#
# Coordination Sequence:
#
# PCOD9348437 Si02
#       8
#     8   8   8   8   8   8   8   8
#     4  10  20  33  52  83 122 161 202 244 288 344
#     4  11  23  37  56  85 120 158 200 244 293 351
#     4   9  20  39  61  86 117 152 195 245 296 353
#     4  11  23  41  63  87 118 153 197 247 299 357
#     4  12  24  37  57  84 118 156 194 239 295 356
#     4  10  23  43  67  92 115 147 195 250 302 357
#     4   9  18  34  55  82 118 154 190 236 289 350
#     4  10  19  32  54  82 117 160 201 241 289 346
#
# _framework density 19.114538
#
# number of rings (size 3 to 8) (size 9 to 14) (size 15 to 20)
#    0.000    1.750    1.250    4.125    0.000    8.500 
#    0.000    1.875    0.000    3.750    0.000    0.000 
#    0.000    0.000    0.000    0.000    0.000    0.000 
#
# Total GULP energy -178727.108003 kJ/mol
# GULP energy per Si atom -5585.222125 kJ/mol
# Density = 1.907103 g / cm^3
# Si number density = 19.114538 Si / 1000 Ang^3
#
#
#
# Elastic Constant Matrix: (Units=GPa)
#
#
# Indices 1 2 3 4 5 6 
#
# 1 76.0450 54.5312 46.2753 0.0000 0.0000 0.0000
# 2 54.5312 126.4335 64.0133 0.0000 0.0000 0.0000
# 3 46.2753 64.0133 110.4598 0.0000 0.0000 0.0000
# 4 0.0000 0.0000 0.0000 15.0676 0.0000 0.0000
# 5 0.0000 0.0000 0.0000 0.0000 14.9844 0.0000
# 6 0.0000 0.0000 0.0000 0.0000 0.0000 31.3432
#
#
#
# Elastic Compliance Matrix: (Units=1/GPa)
#
#
# Indices 1 2 3 4 5 6 
#
# 1 0.020807 -0.006455 -0.004976 0.000000 0.000000 0.000000
# 2 -0.006455 0.013196 -0.004943 0.000000 0.000000 0.000000
# 3 -0.004976 -0.004943 0.014002 0.000000 0.000000 0.000000
# 4 0.000000 0.000000 0.000000 0.066368 0.000000 0.000000
# 5 0.000000 0.000000 0.000000 0.000000 0.066736 0.000000
# 6 0.000000 0.000000 0.000000 0.000000 0.000000 0.031905
#
#
# Mechanical properties :
#
#
# Convention : Reuss Voigt Hill
#
# Bulk Modulus (GPa) = 65.54263 71.39752 68.47008
# Shear Modulus (GPa) = 19.93247 22.15361 21.04304
#
# Velocity S-wave (km/s) = 3.23273 3.40809 3.32157
# Velocity P-wave (km/s) = 6.94967 7.27464 7.11401
#
# Compressibility (1/GPa) = 0.01525725
#
# Stress axis : x y z
#
# Youngs Moduli (GPa) = 48.06136 75.78083 71.41645
#
# Poissons Ratio (x) = 0.48914 0.35537
# Poissons Ratio (y) = 0.31022 0.35303
# Poissons Ratio (z) = 0.23916 0.37460
#
# Static dielectric constant tensor:
#      x y z
#    x 1.641420 0.000000 0.000000 
#    y 0.000000 1.675840 0.000000 
#    z 0.000000 0.000000 1.659650 
# 
# From -- ./inp_files/11849.got.cif
#   From: 2010.05.17/outbox.cif.g08.bks.cpg/sg35_6_cif.got.tgz:11849.got - 2010.06.03 17:29:28.
