data_PCOD9348984
_publ_section_title
;
Structure prediction by ZEFSAII (Michael W. Deem and Ramdas Pophale) SiO2 
 PCOD9348984
Probable space group: C M M 2
;
_chemical_formula_sum "Si O2"
_cell_formula_units_Z 56
_cell_length_a 9.041253
_cell_length_b 18.221885
_cell_length_c 18.634386
_cell_angle_alpha 90.000000
_cell_angle_beta 90.000000
_cell_angle_gamma 90.000000
_cell_volume 3069.990355
_symmetry_space_group_name_H-M "C M M 2"
_symmetry_group_IT_number 35
_symmetry_cell_setting 'orthorhombic'
loop_
_space_group_symop_operation_xyz
x,y,z
-x,-y,z
-x,y,z
x,-y,z
1/2+x,1/2+y,z
1/2-x,1/2-y,z
1/2-x,1/2+y,z
1/2+x,1/2-y,z
loop_
_atom_site_type_symbol
_atom_site_label
_atom_site_fract_x
_atom_site_fract_y
_atom_site_fract_z
Si Si1 0.169136 0.910609 0.837330
Si Si2 0.177890 0.328949 0.393477
Si Si3 0.823721 0.829849 0.115745
Si Si4 0.175918 0.413110 0.247205
Si Si5 0.828544 0.589515 0.692992
Si Si6 0.173136 0.588413 0.984102
Si Si7 0.180395 0.415165 0.534736
O O1 0.235145 0.885675 0.761301
O O2 0.000000 0.886984 0.846675
O O3 0.170355 0.000000 0.835560
O O4 0.267377 0.889453 0.905653
O O5 0.250000 0.250000 0.384166
O O6 0.211607 0.379731 0.325033
O O7 0.228147 0.366618 0.467664
O O8 0.000000 0.321667 0.396673
O O9 0.750000 0.750000 0.116460
O O10 0.767861 0.873350 0.185652
O O11 0.766447 0.873076 0.045919
O O12 0.000000 0.823924 0.115360
O O13 0.201945 0.500000 0.246369
O O14 0.000000 0.401018 0.234041
O O15 0.826676 0.500000 0.691878
O O16 0.773359 0.611806 0.613883
O O17 0.000000 0.611226 0.701806
O O18 0.188222 0.500000 0.990294
O O19 0.000000 0.606324 0.991759
O O20 0.226530 0.500000 0.525123
O O21 0.000000 0.415583 0.535946
#
# Coordination Sequence:
#
# PCOD9348984 Si02
#       7
#     8   8   8   8   8   8   8
#     4   9  16  26  43  71 106 139 172 214 265 317
#     4  10  20  34  53  77 106 140 176 215 261 313
#     4  12  25  40  58  80 109 143 178 216 262 316
#     4  10  21  38  60  84 109 138 175 219 266 316
#     4   8  13  23  42  68  96 127 168 219 269 313
#     4  10  20  35  56  81 109 141 179 222 267 316
#     4   8  14  27  49  74  98 130 176 223 263 309
#
# _framework density 18.241098999999998
#
# number of rings (size 3 to 8) (size 9 to 14) (size 15 to 20)
#    0.000    2.429    0.000    4.286    0.000    8.000 
#    0.000    0.714    0.000    3.000    0.000    4.000 
#    0.000    0.000    0.000    0.000    0.000    0.000 
#
# Total GULP energy -156237.166122 kJ/mol
# GULP energy per Si atom -5579.898790 kJ/mol
# Density = 1.819958 g / cm^3
# Si number density = 18.241099 Si / 1000 Ang^3
#
#
#
# Elastic Constant Matrix: (Units=GPa)
#
#
# Indices 1 2 3 4 5 6 
#
# 1 91.1578 48.4777 77.4322 0.0000 0.0000 0.0000
# 2 48.4777 57.4737 54.0790 0.0000 0.0000 0.0000
# 3 77.4322 54.0790 165.6076 0.0000 0.0000 0.0000
# 4 0.0000 0.0000 0.0000 -13.7975 0.0000 0.0000
# 5 0.0000 0.0000 0.0000 0.0000 -22.2126 0.0000
# 6 0.0000 0.0000 0.0000 0.0000 0.0000 21.4576
#
#
#
# Elastic Compliance Matrix: (Units=1/GPa)
#
#
# Indices 1 2 3 4 5 6 
#
# 1 0.024129 -0.014056 -0.006692 0.000000 0.000000 0.000000
# 2 -0.014056 0.033304 -0.004304 0.000000 0.000000 0.000000
# 3 -0.006692 -0.004304 0.010573 0.000000 0.000000 0.000000
# 4 0.000000 0.000000 0.000000 -0.072477 0.000000 0.000000
# 5 0.000000 0.000000 0.000000 0.000000 -0.045019 0.000000
# 6 0.000000 0.000000 0.000000 0.000000 0.000000 0.046603
#
#
# Mechanical properties :
#
#
# Convention : Reuss Voigt Hill
#
# Bulk Modulus (GPa) = 55.85479 74.91299 65.38389
# Shear Modulus (GPa) = 94.01324 6.03950 50.02637
#
# Velocity S-wave (km/s) = 7.18687 1.82157 5.24258
# Velocity P-wave (km/s) = 9.97772 6.75141 8.51870
#
# Compressibility (1/GPa) = 0.01790357
#
# Stress axis : x y z
#
# Youngs Moduli (GPa) = 41.44345 30.02624 94.58323
#
# Poissons Ratio (x) = 0.42204 0.63296
# Poissons Ratio (y) = 0.58251 0.40705
# Poissons Ratio (z) = 0.27735 0.12922
#
# Static dielectric constant tensor:
#      x y z
#    x 1.611090 0.000000 0.000000 
#    y 0.000000 1.604230 0.000000 
#    z 0.000000 0.000000 1.627330 
# 
# From -- ./inp_files/18205.got.cif
#   From: 2010.05.17/outbox.cif.g08.bks.cpg/sg35_10_cif.got.tgz:18205.got - 2010.06.03 17:29:28.
