data_PCOD9348601
_publ_section_title
;
Structure prediction by ZEFSAII (Michael W. Deem and Ramdas Pophale) SiO2 
 PCOD9348601
Probable space group: C M M 2
;
_chemical_formula_sum "Si O2"
_cell_formula_units_Z 64
_cell_length_a 19.756632
_cell_length_b 15.013743
_cell_length_c 10.038435
_cell_angle_alpha 90.000000
_cell_angle_beta 90.000000
_cell_angle_gamma 90.000000
_cell_volume 2977.610582
_symmetry_space_group_name_H-M "C M M 2"
_symmetry_group_IT_number 35
_symmetry_cell_setting 'orthorhombic'
loop_
_space_group_symop_operation_xyz
x,y,z
-x,-y,z
-x,y,z
x,-y,z
1/2+x,1/2+y,z
1/2-x,1/2-y,z
1/2-x,1/2+y,z
1/2+x,1/2-y,z
loop_
_atom_site_type_symbol
_atom_site_label
_atom_site_fract_x
_atom_site_fract_y
_atom_site_fract_z
Si Si1 0.576024 0.346960 0.643610
Si Si2 0.669942 0.101882 0.772354
Si Si3 0.424188 0.108501 0.001426
Si Si4 0.922311 0.352452 0.535937
Si Si5 0.076709 0.104055 0.350592
Si Si6 0.154850 0.607732 0.270821
Si Si7 0.686473 0.392036 0.855843
Si Si8 0.302101 0.609167 0.166131
O O1 0.500000 0.379661 0.671669
O O2 0.573068 0.244587 0.600345
O O3 0.599654 0.391811 0.504842
O O4 0.623569 0.359606 0.769371
O O5 0.628900 0.099169 0.636183
O O6 0.745509 0.138366 0.778018
O O7 0.679620 0.000000 0.817590
O O8 0.621925 0.144648 0.882978
O O9 0.500000 0.143375 0.992575
O O10 0.389023 0.126953 0.140337
O O11 0.428158 0.000000 0.990013
O O12 0.884335 0.351068 0.395375
O O13 0.000000 0.387488 0.526414
O O14 0.133402 0.141481 0.251441
O O15 0.000000 0.143203 0.342773
O O16 0.070898 0.000000 0.315730
O O17 0.155449 0.500000 0.291438
O O18 0.231684 0.635997 0.237011
O O19 0.681194 0.500000 0.855872
O O20 0.692726 0.364064 0.010778
O O21 0.301243 0.500000 0.166663
#
# Coordination Sequence:
#
# PCOD9348601 Si02
#       8
#     8   8   8   8   8   8   8   8
#     4  10  23  41  58  81 116 156 195 236 285 345
#     4  10  20  35  56  84 115 149 191 240 290 342
#     4   9  16  29  52  79 110 148 187 231 283 336
#     4  11  24  39  55  80 118 159 198 240 282 335
#     4   9  18  35  60  86 111 144 187 237 295 351
#     4  10  19  34  56  85 118 151 192 241 289 342
#     4  10  20  37  62  89 116 147 187 240 296 348
#     4   9  18  34  58  89 118 141 181 243 298 348
#
# _framework density 21.493744
#
# number of rings (size 3 to 8) (size 9 to 14) (size 15 to 20)
#    0.000    2.250    1.250    1.500    1.750    3.750 
#    0.000    2.500    2.750    3.000    0.000    0.000 
#    0.000    0.000    0.000    0.000    0.000    0.000 
#
# Total GULP energy -178598.705523 kJ/mol
# GULP energy per Si atom -5581.209548 kJ/mol
# Density = 2.144482 g / cm^3
# Si number density = 21.493744 Si / 1000 Ang^3
#
#
#
# Elastic Constant Matrix: (Units=GPa)
#
#
# Indices 1 2 3 4 5 6 
#
# 1 159.5463 9.9481 91.7262 0.0000 0.0000 0.0000
# 2 9.9481 31.7954 3.3206 0.0000 0.0000 0.0000
# 3 91.7262 3.3206 138.0089 0.0000 0.0000 0.0000
# 4 0.0000 0.0000 0.0000 -1.2903 0.0000 0.0000
# 5 0.0000 0.0000 0.0000 0.0000 41.6547 0.0000
# 6 0.0000 0.0000 0.0000 0.0000 0.0000 -9.4504
#
#
#
# Elastic Compliance Matrix: (Units=1/GPa)
#
#
# Indices 1 2 3 4 5 6 
#
# 1 0.010342 -0.002524 -0.006813 0.000000 0.000000 0.000000
# 2 -0.002524 0.032146 0.000904 0.000000 0.000000 0.000000
# 3 -0.006813 0.000904 0.011752 0.000000 0.000000 0.000000
# 4 0.000000 0.000000 0.000000 -0.775002 0.000000 0.000000
# 5 0.000000 0.000000 0.000000 0.000000 0.024007 0.000000
# 6 0.000000 0.000000 0.000000 0.000000 0.000000 -0.105816
#
#
# Mechanical properties :
#
#
# Convention : Reuss Voigt Hill
#
# Bulk Modulus (GPa) = 26.75600 59.92671 43.34135
# Shear Modulus (GPa) = -6.46625 21.13986 7.33680
#
# Velocity S-wave (km/s) = -1.73637 3.13954 1.84956
# Velocity P-wave (km/s) = 2.90781 6.40966 4.97690
#
# Compressibility (1/GPa) = 0.03737480
#
# Stress axis : x y z
#
# Youngs Moduli (GPa) = 96.69200 31.10765 85.08924
#
# Poissons Ratio (x) = 0.07853 0.57972
# Poissons Ratio (y) = 0.24408 -0.07695
# Poissons Ratio (z) = 0.65877 -0.02813
#
# Static dielectric constant tensor:
#      x y z
#    x 1.797180 0.000000 0.000000 
#    y 0.000000 1.864500 0.000000 
#    z 0.000000 0.000000 1.749560 
# 
# From -- ./inp_files/8766.got.cif
#   From: 2010.05.17/outbox.cif.g08.bks.cpg/sg35_5_cif.got.tgz:8766.got - 2010.06.03 17:29:28.
