data_PCOD9348012
_publ_section_title
;
Structure prediction by ZEFSAII (Michael W. Deem and Ramdas Pophale) SiO2 
 PCOD9348012
Probable space group: P N N 2
;
_chemical_formula_sum "Si O2"
_cell_formula_units_Z 18
_cell_length_a 7.043487
_cell_length_b 16.696445
_cell_length_c 6.212095
_cell_angle_alpha 90.000000
_cell_angle_beta 90.000000
_cell_angle_gamma 90.000000
_cell_volume 730.549785
_symmetry_space_group_name_H-M "P N N 2"
_symmetry_group_IT_number 34
_symmetry_cell_setting 'orthorhombic'
loop_
_space_group_symop_operation_xyz
x,y,z
-x,-y,z
1/2-x,1/2+y,1/2+z
1/2+x,1/2-y,1/2+z
loop_
_atom_site_type_symbol
_atom_site_label
_atom_site_fract_x
_atom_site_fract_y
_atom_site_fract_z
Si Si1 0.951438 0.347603 0.797230
Si Si2 0.121909 0.188456 0.988931
Si Si3 0.244332 0.928105 0.012263
Si Si4 0.730334 0.931060 0.664937
Si Si5 0.000000 0.000000 0.369224
O O1 0.748521 0.316176 0.705397
O O2 0.065571 0.275573 0.908301
O O3 0.071310 0.383623 0.599600
O O4 0.923951 0.413295 0.983750
O O5 0.254466 0.145895 0.813694
O O6 0.930592 0.134187 0.991693
O O7 0.172366 0.981700 0.211877
O O8 0.276534 0.988750 0.812400
O O9 0.927865 0.932964 0.531036
#
# Coordination Sequence:
#
# PCOD9348012 Si02
#       5
#     4   4   4   4   2
#     4  12  31  48  83 120 163 212 271 333 416 485
#     4  12  27  52  74 120 164 214 267 332 412 484
#     4  12  26  51  80 117 162 208 284 328 404 485
#     4  12  25  51  81 113 160 214 267 338 394 473
#     4  12  22  46  80 114 148 206 272 340 380 462
#
# _framework density 24.638977000000001
#
# number of rings (size 3 to 8) (size 9 to 14) (size 15 to 20)
#    0.000    0.000    6.667    1.333    3.111   12.444 
#    0.000    0.000    0.000    0.000    0.000    0.000 
#    0.000    0.000    0.000    0.000    0.000    0.000 
#
# Total GULP energy -100719.611424 kJ/mol
# GULP energy per Si atom -5595.533968 kJ/mol
# Density = 2.458290 g / cm^3
# Si number density = 24.638977 Si / 1000 Ang^3
#
#
#
# Elastic Constant Matrix: (Units=GPa)
#
#
# Indices 1 2 3 4 5 6 
#
# 1 137.0685 69.7336 81.0784 0.0000 0.0000 0.0000
# 2 69.7336 139.7859 77.9347 0.0000 0.0000 0.0000
# 3 81.0784 77.9347 150.9914 0.0000 0.0000 0.0000
# 4 0.0000 0.0000 0.0000 31.3658 0.0000 0.0000
# 5 0.0000 0.0000 0.0000 0.0000 47.7576 0.0000
# 6 0.0000 0.0000 0.0000 0.0000 0.0000 8.3043
#
#
#
# Elastic Compliance Matrix: (Units=1/GPa)
#
#
# Indices 1 2 3 4 5 6 
#
# 1 0.011666 -0.003267 -0.004578 0.000000 0.000000 0.000000
# 2 -0.003267 0.010959 -0.003902 0.000000 0.000000 0.000000
# 3 -0.004578 -0.003902 0.011095 0.000000 0.000000 0.000000
# 4 0.000000 0.000000 0.000000 0.031882 0.000000 0.000000
# 5 0.000000 0.000000 0.000000 0.000000 0.020939 0.000000
# 6 0.000000 0.000000 0.000000 0.000000 0.000000 0.120419
#
#
# Mechanical properties :
#
#
# Convention : Reuss Voigt Hill
#
# Bulk Modulus (GPa) = 97.79356 98.37101 98.08228
# Shear Modulus (GPa) = 21.38001 30.75882 26.06942
#
# Velocity S-wave (km/s) = 2.94892 3.53708 3.25631
# Velocity P-wave (km/s) = 7.16740 7.52946 7.35066
#
# Compressibility (1/GPa) = 0.01022562
#
# Stress axis : x y z
#
# Youngs Moduli (GPa) = 85.72152 91.24633 90.12933
#
# Poissons Ratio (x) = 0.29813 0.41259
# Poissons Ratio (y) = 0.28008 0.35171
# Poissons Ratio (z) = 0.39241 0.35606
#
# Static dielectric constant tensor:
#      x y z
#    x 2.001830 0.000000 0.000000 
#    y 0.000000 1.935480 0.000000 
#    z 0.000000 0.000000 1.923310 
# 
# From -- ./inp_files/382.got.cif
#   From: 2010.05.17/outbox.cif.g08.bks.cpg/sg34_1_cif.got.tgz:382.got - 2010.06.03 17:23:11.
