data_PCOD9348886
_publ_section_title
;
Structure prediction by ZEFSAII (Michael W. Deem and Ramdas Pophale) SiO2 
 PCOD9348886
Probable space group: C M M 2
;
_chemical_formula_sum "Si O2"
_cell_formula_units_Z 64
_cell_length_a 9.348580
_cell_length_b 31.470735
_cell_length_c 11.759299
_cell_angle_alpha 90.000000
_cell_angle_beta 90.000000
_cell_angle_gamma 90.000000
_cell_volume 3459.664363
_symmetry_space_group_name_H-M "C M M 2"
_symmetry_group_IT_number 35
_symmetry_cell_setting 'orthorhombic'
loop_
_space_group_symop_operation_xyz
x,y,z
-x,-y,z
-x,y,z
x,-y,z
1/2+x,1/2+y,z
1/2-x,1/2-y,z
1/2-x,1/2+y,z
1/2+x,1/2-y,z
loop_
_atom_site_type_symbol
_atom_site_label
_atom_site_fract_x
_atom_site_fract_y
_atom_site_fract_z
Si Si1 0.337898 0.786515 0.518530
Si Si2 0.673165 0.296039 0.980472
Si Si3 0.656561 0.450283 0.801439
Si Si4 0.330952 0.824951 0.752326
Si Si5 0.664737 0.914790 0.618866
Si Si6 0.836878 0.373946 0.381793
Si Si7 0.670546 0.625160 0.150357
Si Si8 0.330103 0.949346 0.019811
O O1 0.500000 0.772389 0.531792
O O2 0.250000 0.750000 0.460145
O O3 0.282970 0.796359 0.645276
O O4 0.336373 0.828867 0.445509
O O5 0.500000 0.290649 0.973571
O O6 0.750000 0.250000 0.999832
O O7 0.736981 0.315206 0.862570
O O8 0.703902 0.331947 0.077299
O O9 0.500000 0.429680 0.816110
O O10 0.640915 0.500000 0.821890
O O11 0.719801 0.444341 0.676938
O O12 0.772405 0.436872 0.894719
O O13 0.500000 0.817135 0.777308
O O14 0.323866 0.871784 0.695493
O O15 0.500000 0.929534 0.628933
O O16 0.693718 0.905695 0.486572
O O17 0.728677 0.372112 0.278404
O O18 0.000000 0.382201 0.341097
O O19 0.500000 0.619785 0.146394
O O20 0.747099 0.583370 0.099666
O O21 0.500000 0.943344 0.026950
O O22 0.301969 0.000000 0.040735
#
# Coordination Sequence:
#
# PCOD9348886 Si02
#       8
#     8   8   8   8   8   8   8   8
#     4   9  18  32  51  76 104 134 172 220 271 322
#     4  11  24  38  53  78 111 147 187 228 274 330
#     4  10  20  33  52  82 117 145 171 212 267 323
#     4   9  18  33  53  78 107 137 172 219 274 327
#     4   9  18  34  56  80 106 140 181 221 266 324
#     4   9  20  38  56  75 103 141 184 226 268 320
#     4  11  24  40  58  82 111 145 188 236 284 330
#     4  10  21  38  62  89 114 145 185 225 272 333
#
# _framework density 18.498904
#
# number of rings (size 3 to 8) (size 9 to 14) (size 15 to 20)
#    0.000    2.250    0.000    4.125    0.000    9.000 
#    0.000    5.625    0.000    0.750    0.000    0.000 
#    0.000    0.000    0.000    0.000    0.000    0.000 
#
# Total GULP energy -178301.858576 kJ/mol
# GULP energy per Si atom -5571.933080 kJ/mol
# Density = 1.845680 g / cm^3
# Si number density = 18.498904 Si / 1000 Ang^3
#
#
#
# Elastic Constant Matrix: (Units=GPa)
#
#
# Indices 1 2 3 4 5 6 
#
# 1 95.5022 44.4297 65.4741 0.0000 0.0000 0.0000
# 2 44.4297 42.6445 34.1690 0.0000 0.0000 0.0000
# 3 65.4741 34.1690 100.6214 0.0000 0.0000 0.0000
# 4 0.0000 0.0000 0.0000 -2.3985 0.0000 0.0000
# 5 0.0000 0.0000 0.0000 0.0000 42.5605 0.0000
# 6 0.0000 0.0000 0.0000 0.0000 0.0000 19.5024
#
#
#
# Elastic Compliance Matrix: (Units=1/GPa)
#
#
# Indices 1 2 3 4 5 6 
#
# 1 0.027007 -0.019311 -0.011016 0.000000 0.000000 0.000000
# 2 -0.019311 0.046024 -0.003063 0.000000 0.000000 0.000000
# 3 -0.011016 -0.003063 0.018146 0.000000 0.000000 0.000000
# 4 0.000000 0.000000 0.000000 -0.416935 0.000000 0.000000
# 5 0.000000 0.000000 0.000000 0.000000 0.023496 0.000000
# 6 0.000000 0.000000 0.000000 0.000000 0.000000 0.051276
#
#
# Mechanical properties :
#
#
# Convention : Reuss Voigt Hill
#
# Bulk Modulus (GPa) = 40.98842 58.54596 49.76719
# Shear Modulus (GPa) = -28.39726 18.24590 -5.07568
#
# Velocity S-wave (km/s) = -3.92226 3.14399 -1.65823
# Velocity P-wave (km/s) = 1.30122 6.70049 4.82648
#
# Compressibility (1/GPa) = 0.02439714
#
# Stress axis : x y z
#
# Youngs Moduli (GPa) = 37.02708 21.72796 55.10781
#
# Poissons Ratio (x) = 0.41960 0.60706
# Poissons Ratio (y) = 0.71505 0.16878
# Poissons Ratio (z) = 0.40788 0.06655
#
# Static dielectric constant tensor:
#      x y z
#    x 1.642830 0.000000 0.000000 
#    y 0.000000 1.694380 0.000000 
#    z 0.000000 0.000000 1.636900 
# 
# From -- ./inp_files/11831.got.cif
#   From: 2010.05.17/outbox.cif.g08.bks.cpg/sg35_6_cif.got.tgz:11831.got - 2010.06.03 17:29:28.
