data_PCOD9348578
_publ_section_title
;
Structure prediction by ZEFSAII (Michael W. Deem and Ramdas Pophale) SiO2 
 PCOD9348578
Probable space group: C M M 2
;
_chemical_formula_sum "Si O2"
_cell_formula_units_Z 48
_cell_length_a 8.660667
_cell_length_b 33.801602
_cell_length_c 9.463695
_cell_angle_alpha 90.000000
_cell_angle_beta 90.000000
_cell_angle_gamma 90.000000
_cell_volume 2770.443894
_symmetry_space_group_name_H-M "C M M 2"
_symmetry_group_IT_number 35
_symmetry_cell_setting 'orthorhombic'
loop_
_space_group_symop_operation_xyz
x,y,z
-x,-y,z
-x,y,z
x,-y,z
1/2+x,1/2+y,z
1/2-x,1/2-y,z
1/2-x,1/2+y,z
1/2+x,1/2-y,z
loop_
_atom_site_type_symbol
_atom_site_label
_atom_site_fract_x
_atom_site_fract_y
_atom_site_fract_z
Si Si1 0.816317 0.292887 0.319790
Si Si2 0.813262 0.867324 0.149307
Si Si3 0.823783 0.916560 0.402017
Si Si4 0.315876 0.120610 0.837397
Si Si5 0.177000 0.165514 0.580645
Si Si6 0.812281 0.044755 0.677092
O O1 0.500000 0.206731 0.309210
O O2 0.750000 0.250000 0.283871
O O3 0.746459 0.326656 0.218321
O O4 0.765325 0.304256 0.479398
O O5 0.755949 0.903107 0.252231
O O6 0.000000 0.867246 0.153906
O O7 0.754399 0.872479 0.991437
O O8 0.827155 0.875541 0.491160
O O9 0.756516 0.947035 0.515603
O O10 0.000000 0.929485 0.374586
O O11 0.500000 0.121224 0.842332
O O12 0.256153 0.153837 0.727286
O O13 0.258019 0.078506 0.775884
O O14 0.000000 0.178095 0.601998
O O15 0.000000 0.049424 0.677502
O O16 0.776196 0.000000 0.719618
#
# Coordination Sequence:
#
# PCOD9348578 Si02
#       6
#     8   8   8   8   8   8
#     4  11  21  35  55  81 109 138 173 215 263 310
#     4  10  19  34  54  76 105 142 179 216 261 315
#     4   7  13  27  49  73  95 123 164 209 250 298
#     4  11  21  33  51  77 108 141 176 218 267 317
#     4   9  17  33  54  75  99 132 173 213 253 304
#     4   9  17  32  54  77 101 133 175 222 269 317
#
# _framework density 17.325744
#
# number of rings (size 3 to 8) (size 9 to 14) (size 15 to 20)
#    0.000    2.500    0.000    6.000    0.000    0.333 
#    0.000    2.500    0.000    3.000    0.000    0.000 
#    0.000    0.000    0.000    0.000    0.000    0.000 
#
# Total GULP energy -133717.277264 kJ/mol
# GULP energy per Si atom -5571.553219 kJ/mol
# Density = 1.728631 g / cm^3
# Si number density = 17.325744 Si / 1000 Ang^3
#
#
#
# Elastic Constant Matrix: (Units=GPa)
#
#
# Indices 1 2 3 4 5 6 
#
# 1 103.2177 33.8105 50.4208 0.0000 0.0000 0.0000
# 2 33.8105 76.9140 49.7453 0.0000 0.0000 0.0000
# 3 50.4208 49.7453 154.2971 0.0000 0.0000 0.0000
# 4 0.0000 0.0000 0.0000 16.9167 0.0000 0.0000
# 5 0.0000 0.0000 0.0000 0.0000 25.2414 0.0000
# 6 0.0000 0.0000 0.0000 0.0000 0.0000 20.6915
#
#
#
# Elastic Compliance Matrix: (Units=1/GPa)
#
#
# Indices 1 2 3 4 5 6 
#
# 1 0.012243 -0.003531 -0.002863 0.000000 0.000000 0.000000
# 2 -0.003531 0.017445 -0.004471 0.000000 0.000000 0.000000
# 3 -0.002863 -0.004471 0.008858 0.000000 0.000000 0.000000
# 4 0.000000 0.000000 0.000000 0.059113 0.000000 0.000000
# 5 0.000000 0.000000 0.000000 0.000000 0.039617 0.000000
# 6 0.000000 0.000000 0.000000 0.000000 0.000000 0.048329
#
#
# Mechanical properties :
#
#
# Convention : Reuss Voigt Hill
#
# Bulk Modulus (GPa) = 59.45830 66.93134 63.19482
# Shear Modulus (GPa) = 23.48096 25.93340 24.70718
#
# Velocity S-wave (km/s) = 3.68538 3.87306 3.78039
# Velocity P-wave (km/s) = 7.24581 7.66263 7.45713
#
# Compressibility (1/GPa) = 0.01681851
#
# Stress axis : x y z
#
# Youngs Moduli (GPa) = 81.67897 57.32340 112.89601
#
# Poissons Ratio (x) = 0.20238 0.32317
# Poissons Ratio (y) = 0.28837 0.50470
# Poissons Ratio (z) = 0.23381 0.25627
#
# Static dielectric constant tensor:
#      x y z
#    x 1.590280 0.000000 0.000000 
#    y 0.000000 1.589540 0.000000 
#    z 0.000000 0.000000 1.596100 
# 
# From -- ./inp_files/5283.got.cif
#   From: 2010.05.17/outbox.cif.g08.bks.cpg/sg35_3_cif.got.tgz:5283.got - 2010.06.03 17:29:28.
