data_PCOD9348317
_publ_section_title
;
Structure prediction by ZEFSAII (Michael W. Deem and Ramdas Pophale) SiO2 
 PCOD9348317
Probable space group: C M M 2
;
_chemical_formula_sum "Si O2"
_cell_formula_units_Z 64
_cell_length_a 29.159717
_cell_length_b 8.650054
_cell_length_c 16.104923
_cell_angle_alpha 90.000000
_cell_angle_beta 90.000000
_cell_angle_gamma 90.000000
_cell_volume 4062.195083
_symmetry_space_group_name_H-M "C M M 2"
_symmetry_group_IT_number 35
_symmetry_cell_setting 'orthorhombic'
loop_
_space_group_symop_operation_xyz
x,y,z
-x,-y,z
-x,y,z
x,-y,z
1/2+x,1/2+y,z
1/2-x,1/2-y,z
1/2-x,1/2+y,z
1/2+x,1/2-y,z
loop_
_atom_site_type_symbol
_atom_site_label
_atom_site_fract_x
_atom_site_fract_y
_atom_site_fract_z
Si Si1 0.801553 0.314180 0.123310
Si Si2 0.353367 0.314564 0.782399
Si Si3 0.198622 0.684902 0.621141
Si Si4 0.052389 0.684357 0.521817
Si Si5 0.697998 0.186357 0.305609
Si Si6 0.301948 0.814069 0.941195
Si Si7 0.948444 0.814349 0.706910
Si Si8 0.144411 0.183624 0.462582
O O1 0.799938 0.500000 0.123276
O O2 0.750000 0.250000 0.123379
O O3 0.820732 0.268783 0.213572
O O4 0.820588 0.267743 0.033069
O O5 0.349304 0.500000 0.781887
O O6 0.325125 0.248173 0.704451
O O7 0.332614 0.249855 0.867082
O O8 0.406657 0.272762 0.767004
O O9 0.199565 0.500000 0.623072
O O10 0.250000 0.750000 0.615510
O O11 0.170042 0.741487 0.541565
O O12 0.057884 0.500000 0.515460
O O13 0.058515 0.734332 0.617855
O O14 0.091408 0.767621 0.469259
O O15 0.000000 0.724816 0.498827
O O16 0.750000 0.250000 0.312812
O O17 0.667809 0.254482 0.379201
O O18 0.699281 0.000000 0.311700
O O19 0.250000 0.750000 0.933004
O O20 0.300029 0.000000 0.936515
O O21 0.000000 0.776333 0.736318
O O22 0.946395 0.000000 0.693670
O O23 0.149068 0.000000 0.467899
#
# Coordination Sequence:
#
# PCOD9348317 Si02
#       8
#     8   8   8   8   8   8   8   8
#     4   8  16  30  49  70  94 125 161 203 247 288
#     4  11  21  33  49  72  99 129 164 201 244 294
#     4  12  24  37  50  66  95 133 170 204 239 284
#     4  10  20  34  53  75  97 124 162 206 249 290
#     4  10  19  33  51  73 100 130 165 205 247 294
#     4  10  19  32  49  71  99 131 166 203 243 289
#     4   9  18  33  52  71  94 125 161 203 248 292
#     4  12  23  35  50  72 100 132 166 200 243 294
#
# _framework density 15.755027999999999
#
# number of rings (size 3 to 8) (size 9 to 14) (size 15 to 20)
#    0.000    1.750    1.250    4.500    0.000    2.250 
#    0.000    0.000    0.000    0.000    0.000    0.875 
#    0.000    5.000    0.000    0.000    0.000    0.000 
#
# Total GULP energy -178530.619827 kJ/mol
# GULP energy per Si atom -5579.081870 kJ/mol
# Density = 1.571917 g / cm^3
# Si number density = 15.755028 Si / 1000 Ang^3
#
#
#
# Elastic Constant Matrix: (Units=GPa)
#
#
# Indices 1 2 3 4 5 6 
#
# 1 99.6259 41.9129 66.3383 0.0000 0.0000 0.0000
# 2 41.9129 71.3818 46.4298 0.0000 0.0000 0.0000
# 3 66.3383 46.4298 149.4332 0.0000 0.0000 0.0000
# 4 0.0000 0.0000 0.0000 0.2273 0.0000 0.0000
# 5 0.0000 0.0000 0.0000 0.0000 4.3509 0.0000
# 6 0.0000 0.0000 0.0000 0.0000 0.0000 19.5883
#
#
#
# Elastic Compliance Matrix: (Units=1/GPa)
#
#
# Indices 1 2 3 4 5 6 
#
# 1 0.016075 -0.006012 -0.005268 0.000000 0.000000 0.000000
# 2 -0.006012 0.019806 -0.003485 0.000000 0.000000 0.000000
# 3 -0.005268 -0.003485 0.010113 0.000000 0.000000 0.000000
# 4 0.000000 0.000000 0.000000 4.399589 0.000000 0.000000
# 5 0.000000 0.000000 0.000000 0.000000 0.229836 0.000000
# 6 0.000000 0.000000 0.000000 0.000000 0.000000 0.051051
#
#
# Mechanical properties :
#
#
# Convention : Reuss Voigt Hill
#
# Bulk Modulus (GPa) = 60.73823 69.97809 65.35816
# Shear Modulus (GPa) = 1.05009 15.88396 8.46703
#
# Velocity S-wave (km/s) = 0.81729 3.17864 2.32074
# Velocity P-wave (km/s) = 6.28697 7.61475 6.98249
#
# Compressibility (1/GPa) = 0.01646410
#
# Stress axis : x y z
#
# Youngs Moduli (GPa) = 62.20954 50.49011 98.87809
#
# Poissons Ratio (x) = 0.30354 0.52091
# Poissons Ratio (y) = 0.37399 0.34458
# Poissons Ratio (z) = 0.32773 0.17595
#
# Static dielectric constant tensor:
#      x y z
#    x 1.515170 0.000000 0.000000 
#    y 0.000000 1.527130 0.000000 
#    z 0.000000 0.000000 1.531640 
# 
# From -- ./inp_files/17772.got.cif
#   From: 2010.05.17/outbox.cif.g08.bks.cpg/sg35_9_cif.got.tgz:17772.got - 2010.06.03 17:29:28.
