data_PCOD9348322
_publ_section_title
;
Structure prediction by ZEFSAII (Michael W. Deem and Ramdas Pophale) SiO2 
 PCOD9348322
Probable space group: C M M 2
;
_chemical_formula_sum "Si O2"
_cell_formula_units_Z 56
_cell_length_a 7.229093
_cell_length_b 31.948012
_cell_length_c 10.597367
_cell_angle_alpha 90.000000
_cell_angle_beta 90.000000
_cell_angle_gamma 90.000000
_cell_volume 2447.516484
_symmetry_space_group_name_H-M "C M M 2"
_symmetry_group_IT_number 35
_symmetry_cell_setting 'orthorhombic'
loop_
_space_group_symop_operation_xyz
x,y,z
-x,-y,z
-x,y,z
x,-y,z
1/2+x,1/2+y,z
1/2-x,1/2-y,z
1/2-x,1/2+y,z
1/2+x,1/2-y,z
loop_
_atom_site_type_symbol
_atom_site_label
_atom_site_fract_x
_atom_site_fract_y
_atom_site_fract_z
Si Si1 0.774301 0.136578 0.328380
Si Si2 0.276104 0.337421 0.780989
Si Si3 0.223492 0.068795 0.701118
Si Si4 0.774896 0.862842 0.051457
Si Si5 0.274618 0.545877 0.420939
Si Si6 0.780315 0.202818 0.535014
Si Si7 0.224913 0.955419 0.977487
O O1 0.718049 0.151770 0.189556
O O2 0.717094 0.088456 0.351665
O O3 0.710800 0.167701 0.438316
O O4 0.000000 0.136311 0.331480
O O5 0.500000 0.335452 0.787919
O O6 0.229032 0.382550 0.720296
O O7 0.211215 0.304032 0.678187
O O8 0.212540 0.338336 0.926080
O O9 0.283533 0.050969 0.567425
O O10 0.280274 0.046633 0.830219
O O11 0.000000 0.066517 0.698813
O O12 0.000000 0.862487 0.048857
O O13 0.717646 0.911532 0.037071
O O14 0.500000 0.546008 0.417672
O O15 0.216789 0.500000 0.373733
O O16 0.750000 0.250000 0.491496
O O17 0.000000 0.196218 0.540675
O O18 0.000000 0.954874 0.981761
O O19 0.283971 0.000000 0.032632
#
# Coordination Sequence:
#
# PCOD9348322 Si02
#       7
#     8   8   8   8   8   8   8
#     4   9  16  26  37  55  84 115 143 176 216 258
#     4   8  13  24  40  56  75 103 138 175 212 253
#     4   8  11  17  28  44  68 100 137 174 208 241
#     4   8  14  22  34  50  74 109 143 171 209 256
#     4   9  14  18  28  48  76 111 146 174 204 248
#     4  10  19  32  50  68  87 112 145 182 222 265
#     4   8  12  16  24  41  67 101 142 178 201 235
#
# _framework density 22.880334000000001
#
# number of rings (size 3 to 8) (size 9 to 14) (size 15 to 20)
#    0.000    3.429    1.429    2.143    0.000    2.286 
#    0.000    3.571    0.000    0.000    0.000    0.000 
#    0.000    0.571    0.000    0.000    0.000    5.286 
#
# Total GULP energy -156214.494849 kJ/mol
# GULP energy per Si atom -5579.089102 kJ/mol
# Density = 2.282826 g / cm^3
# Si number density = 22.880334 Si / 1000 Ang^3
#
#
#
# Elastic Constant Matrix: (Units=GPa)
#
#
# Indices 1 2 3 4 5 6 
#
# 1 107.2753 -0.9335 5.2732 0.0000 0.0000 0.0000
# 2 -0.9335 96.1525 59.1099 0.0000 0.0000 0.0000
# 3 5.2732 59.1099 160.2950 0.0000 0.0000 0.0000
# 4 0.0000 0.0000 0.0000 -0.5842 0.0000 0.0000
# 5 0.0000 0.0000 0.0000 0.0000 -31.6344 0.0000
# 6 0.0000 0.0000 0.0000 0.0000 0.0000 -37.9951
#
#
#
# Elastic Compliance Matrix: (Units=1/GPa)
#
#
# Indices 1 2 3 4 5 6 
#
# 1 0.009347 0.000362 -0.000441 0.000000 0.000000 0.000000
# 2 0.000362 0.013463 -0.004976 0.000000 0.000000 0.000000
# 3 -0.000441 -0.004976 0.008088 0.000000 0.000000 0.000000
# 4 0.000000 0.000000 0.000000 -1.711656 0.000000 0.000000
# 5 0.000000 0.000000 0.000000 0.000000 -0.031611 0.000000
# 6 0.000000 0.000000 0.000000 0.000000 0.000000 -0.026319
#
#
# Mechanical properties :
#
#
# Convention : Reuss Voigt Hill
#
# Bulk Modulus (GPa) = 48.10803 54.51356 51.31079
# Shear Modulus (GPa) = -2.90419 5.97547 1.53564
#
# Velocity S-wave (km/s) = -1.12785 1.61780 0.82013
# Velocity P-wave (km/s) = 4.40176 5.23134 4.83438
#
# Compressibility (1/GPa) = 0.02078655
#
# Stress axis : x y z
#
# Youngs Moduli (GPa) = 106.99042 74.27801 123.63841
#
# Poissons Ratio (x) = -0.02687 0.05451
# Poissons Ratio (y) = -0.03871 0.61528
# Poissons Ratio (z) = 0.04717 0.36964
#
# Static dielectric constant tensor:
#      x y z
#    x 1.988630 0.000000 0.000000 
#    y 0.000000 1.815930 0.000000 
#    z 0.000000 0.000000 1.840450 
# 
# From -- ./inp_files/12569.got.cif
#   From: 2010.05.17/outbox.cif.g08.bks.cpg/sg35_7_cif.got.tgz:12569.got - 2010.06.03 17:29:28.
