data_PCOD9348521
_publ_section_title
;
Structure prediction by ZEFSAII (Michael W. Deem and Ramdas Pophale) SiO2 
 PCOD9348521
Probable space group: C M M 2
;
_chemical_formula_sum "Si O2"
_cell_formula_units_Z 48
_cell_length_a 15.670708
_cell_length_b 8.767837
_cell_length_c 17.772895
_cell_angle_alpha 90.000000
_cell_angle_beta 90.000000
_cell_angle_gamma 90.000000
_cell_volume 2441.964020
_symmetry_space_group_name_H-M "C M M 2"
_symmetry_group_IT_number 35
_symmetry_cell_setting 'orthorhombic'
loop_
_space_group_symop_operation_xyz
x,y,z
-x,-y,z
-x,y,z
x,-y,z
1/2+x,1/2+y,z
1/2-x,1/2-y,z
1/2-x,1/2+y,z
1/2+x,1/2-y,z
loop_
_atom_site_type_symbol
_atom_site_label
_atom_site_fract_x
_atom_site_fract_y
_atom_site_fract_z
Si Si1 0.099550 0.325909 0.527720
Si Si2 0.662426 0.318555 0.376661
Si Si3 0.500000 0.817692 0.109670
Si Si4 0.154649 0.816643 0.844684
Si Si5 0.000000 0.815429 0.276171
Si Si6 0.654190 0.316752 0.681864
Si Si7 0.153347 0.815584 0.011867
O O1 0.130530 0.500000 0.532460
O O2 0.147888 0.240077 0.461363
O O3 0.108946 0.248737 0.608736
O O4 0.000000 0.325933 0.507280
O O5 0.667067 0.500000 0.377976
O O6 0.750000 0.250000 0.346759
O O7 0.582942 0.273177 0.324834
O O8 0.500000 0.764108 0.195897
O O9 0.415218 0.750896 0.069628
O O10 0.500000 0.000000 0.103933
O O11 0.250000 0.750000 0.843495
O O12 0.115387 0.772618 0.763808
O O13 0.158905 0.000000 0.844215
O O14 0.120734 0.774030 0.926997
O O15 0.000000 0.000000 0.266471
O O16 0.656528 0.500000 0.677324
O O17 0.750000 0.250000 0.679933
O O18 0.250000 0.750000 0.020890
O O19 0.156841 0.000000 0.017820
#
# Coordination Sequence:
#
# PCOD9348521 Si02
#       7
#     8   8   4   8   4   8   8
#     4  11  23  38  56  81 118 160 203 251 301 351
#     4  11  23  42  68  95 122 157 200 244 300 361
#     4  12  26  42  64  95 128 165 204 247 306 371
#     4   8  16  31  54  82 112 153 199 249 302 352
#     4  10  24  46  68  91 124 159 196 249 304 363
#     4  10  19  33  54  81 114 153 201 250 299 354
#     4  10  20  39  65  92 126 164 208 258 310 368
#
# _framework density 19.656310000000001
#
# number of rings (size 3 to 8) (size 9 to 14) (size 15 to 20)
#    0.000    1.833    0.833    3.250    0.000    4.333 
#    1.500    1.667    0.000    0.000    0.000    0.000 
#    0.000    0.000    0.000    0.000    0.000    0.000 
#
# Total GULP energy -133964.662026 kJ/mol
# GULP energy per Si atom -5581.860918 kJ/mol
# Density = 1.961157 g / cm^3
# Si number density = 19.656310 Si / 1000 Ang^3
#
#
#
# Elastic Constant Matrix: (Units=GPa)
#
#
# Indices 1 2 3 4 5 6 
#
# 1 110.8608 46.5645 69.5938 0.0000 0.0000 0.0000
# 2 46.5645 73.7752 62.8547 0.0000 0.0000 0.0000
# 3 69.5938 62.8547 164.8060 0.0000 0.0000 0.0000
# 4 0.0000 0.0000 0.0000 23.8994 0.0000 0.0000
# 5 0.0000 0.0000 0.0000 0.0000 31.2242 0.0000
# 6 0.0000 0.0000 0.0000 0.0000 0.0000 25.0605
#
#
#
# Elastic Compliance Matrix: (Units=1/GPa)
#
#
# Indices 1 2 3 4 5 6 
#
# 1 0.013620 -0.005476 -0.003663 0.000000 0.000000 0.000000
# 2 -0.005476 0.022280 -0.006185 0.000000 0.000000 0.000000
# 3 -0.003663 -0.006185 0.009973 0.000000 0.000000 0.000000
# 4 0.000000 0.000000 0.000000 0.041842 0.000000 0.000000
# 5 0.000000 0.000000 0.000000 0.000000 0.032026 0.000000
# 6 0.000000 0.000000 0.000000 0.000000 0.000000 0.039903
#
#
# Mechanical properties :
#
#
# Convention : Reuss Voigt Hill
#
# Bulk Modulus (GPa) = 65.67697 78.60755 72.14226
# Shear Modulus (GPa) = 25.59270 27.39874 26.49572
#
# Velocity S-wave (km/s) = 3.61225 3.73753 3.67543
# Velocity P-wave (km/s) = 7.13323 7.66181 7.40224
#
# Compressibility (1/GPa) = 0.01522604
#
# Stress axis : x y z
#
# Youngs Moduli (GPa) = 73.42323 44.88266 100.26585
#
# Poissons Ratio (x) = 0.24576 0.36727
# Poissons Ratio (y) = 0.40203 0.62016
# Poissons Ratio (z) = 0.26895 0.27761
#
# Static dielectric constant tensor:
#      x y z
#    x 1.675400 0.000000 0.000000 
#    y 0.000000 1.668930 0.000000 
#    z 0.000000 0.000000 1.701680 
# 
# From -- ./inp_files/17916.got.cif
#   From: 2010.05.17/outbox.cif.g08.bks.cpg/sg35_9_cif.got.tgz:17916.got - 2010.06.03 17:29:28.
