data_PCOD9348812
_publ_section_title
;
Structure prediction by ZEFSAII (Michael W. Deem and Ramdas Pophale) SiO2 
 PCOD9348812
Probable space group: C M M 2
;
_chemical_formula_sum "Si O2"
_cell_formula_units_Z 64
_cell_length_a 9.100173
_cell_length_b 19.185316
_cell_length_c 21.101034
_cell_angle_alpha 90.000000
_cell_angle_beta 90.000000
_cell_angle_gamma 90.000000
_cell_volume 3684.023083
_symmetry_space_group_name_H-M "C M M 2"
_symmetry_group_IT_number 35
_symmetry_cell_setting 'orthorhombic'
loop_
_space_group_symop_operation_xyz
x,y,z
-x,-y,z
-x,y,z
x,-y,z
1/2+x,1/2+y,z
1/2-x,1/2-y,z
1/2-x,1/2+y,z
1/2+x,1/2-y,z
loop_
_atom_site_type_symbol
_atom_site_label
_atom_site_fract_x
_atom_site_fract_y
_atom_site_fract_z
Si Si1 0.322401 0.174513 0.827810
Si Si2 0.327095 0.083513 0.567099
Si Si3 0.174641 0.175162 0.461938
Si Si4 0.678903 0.080052 0.709914
Si Si5 0.327008 0.916274 0.209472
Si Si6 0.676008 0.081797 0.949855
Si Si7 0.668886 0.584739 0.079917
Si Si8 0.175569 0.825366 0.316271
O O1 0.500000 0.180965 0.826052
O O2 0.250000 0.250000 0.830347
O O3 0.274711 0.132016 0.765170
O O4 0.284874 0.128596 0.889587
O O5 0.500000 0.101333 0.561133
O O6 0.237449 0.122041 0.513125
O O7 0.277333 0.101504 0.638762
O O8 0.314660 0.000000 0.561469
O O9 0.250000 0.250000 0.471473
O O10 0.205787 0.153105 0.389216
O O11 0.000000 0.182187 0.468490
O O12 0.500000 0.078749 0.709929
O O13 0.726193 0.000000 0.721674
O O14 0.500000 0.900386 0.211473
O O15 0.258597 0.893630 0.142097
O O16 0.243330 0.878667 0.266331
O O17 0.309834 0.000000 0.214419
O O18 0.500000 0.085652 0.959274
O O19 0.711344 0.000000 0.938094
O O20 0.756227 0.105506 0.013923
O O21 0.500000 0.607711 0.083543
O O22 0.670178 0.500000 0.079883
O O23 0.250000 0.750000 0.306969
O O24 0.000000 0.820010 0.308377
#
# Coordination Sequence:
#
# PCOD9348812 Si02
#       8
#     8   8   8   8   8   8   8   8
#     4  10  20  33  50  73 102 133 165 206 253 299
#     4   9  18  33  54  79 106 135 169 212 259 307
#     4  10  21  36  54  75 102 137 175 214 256 306
#     4   8  15  31  54  76  98 130 172 210 246 295
#     4  10  20  34  54  80 108 137 171 212 255 302
#     4   9  17  31  52  74  95 126 169 210 248 297
#     4   9  17  30  50  76 104 132 164 207 257 304
#     4  10  21  37  55  75 102 137 175 214 257 307
#
# _framework density 17.372312999999998
#
# number of rings (size 3 to 8) (size 9 to 14) (size 15 to 20)
#    0.000    2.625    0.000    2.625    0.000    7.000 
#    0.000    5.000    0.000    3.375    0.000    0.000 
#    0.000    0.000    0.000    0.000    0.000    0.000 
#
# Total GULP energy -178477.347542 kJ/mol
# GULP energy per Si atom -5577.417111 kJ/mol
# Density = 1.733277 g / cm^3
# Si number density = 17.372313 Si / 1000 Ang^3
#
#
#
# Elastic Constant Matrix: (Units=GPa)
#
#
# Indices 1 2 3 4 5 6 
#
# 1 71.4117 46.8400 82.1459 0.0000 0.0000 0.0000
# 2 46.8400 63.2262 81.7278 0.0000 0.0000 0.0000
# 3 82.1459 81.7278 176.1730 0.0000 0.0000 0.0000
# 4 0.0000 0.0000 0.0000 -25.8695 0.0000 0.0000
# 5 0.0000 0.0000 0.0000 0.0000 25.8921 0.0000
# 6 0.0000 0.0000 0.0000 0.0000 0.0000 30.1183
#
#
#
# Elastic Compliance Matrix: (Units=1/GPa)
#
#
# Indices 1 2 3 4 5 6 
#
# 1 0.033227 -0.011462 -0.010175 0.000000 0.000000 0.000000
# 2 -0.011462 0.043461 -0.014817 0.000000 0.000000 0.000000
# 3 -0.010175 -0.014817 0.017295 0.000000 0.000000 0.000000
# 4 0.000000 0.000000 0.000000 -0.038656 0.000000 0.000000
# 5 0.000000 0.000000 0.000000 0.000000 0.038622 0.000000
# 6 0.000000 0.000000 0.000000 0.000000 0.000000 0.033202
#
#
# Mechanical properties :
#
#
# Convention : Reuss Voigt Hill
#
# Bulk Modulus (GPa) = 47.45561 81.35980 64.40771
# Shear Modulus (GPa) = 24.14475 12.70132 18.42304
#
# Velocity S-wave (km/s) = 3.73210 2.70686 3.26004
# Velocity P-wave (km/s) = 6.77846 7.53022 7.16421
#
# Compressibility (1/GPa) = 0.02107232
#
# Stress axis : x y z
#
# Youngs Moduli (GPa) = 30.09644 23.00924 57.82140
#
# Poissons Ratio (x) = 0.26374 0.58836
# Poissons Ratio (y) = 0.34497 0.85675
# Poissons Ratio (z) = 0.30625 0.34093
#
# Static dielectric constant tensor:
#      x y z
#    x 1.581230 0.000000 0.000000 
#    y 0.000000 1.563710 0.000000 
#    z 0.000000 0.000000 1.583160 
# 
# From -- ./inp_files/18305.got.cif
#   From: 2010.05.17/outbox.cif.g08.bks.cpg/sg35_10_cif.got.tgz:18305.got - 2010.06.03 17:29:28.
