data_PCOD9348996
_publ_section_title
;
Structure prediction by ZEFSAII (Michael W. Deem and Ramdas Pophale) SiO2 
 PCOD9348996
Probable space group: C M M 2
;
_chemical_formula_sum "Si O2"
_cell_formula_units_Z 40
_cell_length_a 8.529212
_cell_length_b 16.129020
_cell_length_c 14.861908
_cell_angle_alpha 90.000000
_cell_angle_beta 90.000000
_cell_angle_gamma 90.000000
_cell_volume 2044.520447
_symmetry_space_group_name_H-M "C M M 2"
_symmetry_group_IT_number 35
_symmetry_cell_setting 'orthorhombic'
loop_
_space_group_symop_operation_xyz
x,y,z
-x,-y,z
-x,y,z
x,-y,z
1/2+x,1/2+y,z
1/2-x,1/2-y,z
1/2-x,1/2+y,z
1/2+x,1/2-y,z
loop_
_atom_site_type_symbol
_atom_site_label
_atom_site_fract_x
_atom_site_fract_y
_atom_site_fract_z
Si Si1 0.308784 0.000000 0.924181
Si Si2 0.312065 0.844171 0.803996
Si Si3 0.813559 0.336789 0.237760
Si Si4 0.188390 0.843186 0.609696
Si Si5 0.188582 0.093579 0.415648
Si Si6 0.808232 0.500000 0.131827
O O1 0.259271 0.084570 0.873515
O O2 0.500000 0.000000 0.922225
O O3 0.259555 0.000000 0.027960
O O4 0.500000 0.839489 0.805890
O O5 0.250000 0.750000 0.819503
O O6 0.258310 0.872318 0.704335
O O7 0.750000 0.250000 0.201879
O O8 0.762765 0.347602 0.341404
O O9 0.755095 0.416954 0.182925
O O10 0.000000 0.335770 0.233100
O O11 0.250000 0.750000 0.598410
O O12 0.234835 0.890146 0.518738
O O13 0.000000 0.844136 0.616589
O O14 0.000000 0.101624 0.411286
O O15 0.233163 0.000000 0.391171
O O16 0.000000 0.500000 0.133975
#
# Coordination Sequence:
#
# PCOD9348996 Si02
#       6
#     4   8   8   8   8   4
#     4   9  20  38  60  83 112 148 185 231 286 341
#     4  10  20  36  58  84 113 148 188 232 279 330
#     4  11  22  38  61  87 114 151 191 233 284 337
#     4  10  20  34  53  78 112 151 187 227 274 327
#     4  10  21  36  55  82 117 153 189 233 281 331
#     4   9  20  40  60  83 114 146 187 233 284 345
#
# _framework density 19.564491
#
# number of rings (size 3 to 8) (size 9 to 14) (size 15 to 20)
#    0.000    2.000    1.000    3.600    1.400    4.000 
#    0.000    1.500    0.000    8.400    0.000    0.000 
#    0.000    0.000    0.000    0.000    0.000    0.000 
#
# Total GULP energy -111645.977439 kJ/mol
# GULP energy per Si atom -5582.298872 kJ/mol
# Density = 1.951996 g / cm^3
# Si number density = 19.564491 Si / 1000 Ang^3
#
#
#
# Elastic Constant Matrix: (Units=GPa)
#
#
# Indices 1 2 3 4 5 6 
#
# 1 27.4562 27.3086 22.8426 0.0000 0.0000 0.0000
# 2 27.3086 142.0387 85.0125 0.0000 0.0000 0.0000
# 3 22.8426 85.0125 135.4729 0.0000 0.0000 0.0000
# 4 0.0000 0.0000 0.0000 18.2990 0.0000 0.0000
# 5 0.0000 0.0000 0.0000 0.0000 9.7129 0.0000
# 6 0.0000 0.0000 0.0000 0.0000 0.0000 24.1071
#
#
#
# Elastic Compliance Matrix: (Units=1/GPa)
#
#
# Indices 1 2 3 4 5 6 
#
# 1 0.046069 -0.006739 -0.003539 0.000000 0.000000 0.000000
# 2 -0.006739 0.012261 -0.006558 0.000000 0.000000 0.000000
# 3 -0.003539 -0.006558 0.012093 0.000000 0.000000 0.000000
# 4 0.000000 0.000000 0.000000 0.054648 0.000000 0.000000
# 5 0.000000 0.000000 0.000000 0.000000 0.102956 0.000000
# 6 0.000000 0.000000 0.000000 0.000000 0.000000 0.041482
#
#
# Mechanical properties :
#
#
# Convention : Reuss Voigt Hill
#
# Bulk Modulus (GPa) = 27.20969 63.92169 45.56569
# Shear Modulus (GPa) = 15.85135 21.74408 18.79772
#
# Velocity S-wave (km/s) = 2.84951 3.33739 3.10305
# Velocity P-wave (km/s) = 4.97636 6.89885 6.01491
#
# Compressibility (1/GPa) = 0.03675161
#
# Stress axis : x y z
#
# Youngs Moduli (GPa) = 21.70665 81.55994 82.69008
#
# Poissons Ratio (x) = 0.54965 0.29262
# Poissons Ratio (y) = 0.14629 0.54226
# Poissons Ratio (z) = 0.07682 0.53484
#
# Static dielectric constant tensor:
#      x y z
#    x 1.666780 0.000000 0.000000 
#    y 0.000000 1.686380 0.000000 
#    z 0.000000 0.000000 1.680160 
# 
# From -- ./inp_files/14793.got.cif
#   From: 2010.05.17/outbox.cif.g08.bks.cpg/sg35_8_cif.got.tgz:14793.got - 2010.06.03 17:29:28.
