data_PCOD9348312
_publ_section_title
;
Structure prediction by ZEFSAII (Michael W. Deem and Ramdas Pophale) SiO2 
 PCOD9348312
Probable space group: C M M 2
;
_chemical_formula_sum "Si O2"
_cell_formula_units_Z 64
_cell_length_a 8.731566
_cell_length_b 29.251906
_cell_length_c 15.910449
_cell_angle_alpha 90.000000
_cell_angle_beta 90.000000
_cell_angle_gamma 90.000000
_cell_volume 4063.766502
_symmetry_space_group_name_H-M "C M M 2"
_symmetry_group_IT_number 35
_symmetry_cell_setting 'orthorhombic'
loop_
_space_group_symop_operation_xyz
x,y,z
-x,-y,z
-x,y,z
x,-y,z
1/2+x,1/2+y,z
1/2-x,1/2-y,z
1/2-x,1/2+y,z
1/2+x,1/2-y,z
loop_
_atom_site_type_symbol
_atom_site_label
_atom_site_fract_x
_atom_site_fract_y
_atom_site_fract_z
Si Si1 0.684059 0.798689 0.380870
Si Si2 0.313627 0.052366 0.472209
Si Si3 0.817309 0.053847 0.789828
Si Si4 0.683156 0.553333 0.145207
Si Si5 0.316994 0.700977 0.568147
Si Si6 0.683839 0.110231 0.636037
Si Si7 0.184715 0.394331 0.303868
Si Si8 0.323915 0.055429 0.967391
O O1 0.500000 0.796161 0.388185
O O2 0.750000 0.750000 0.352152
O O3 0.751488 0.807344 0.473990
O O4 0.723604 0.841481 0.321932
O O5 0.500000 0.052006 0.472054
O O6 0.267177 0.080539 0.554454
O O7 0.265849 0.077141 0.386419
O O8 0.260931 0.000000 0.475430
O O9 0.736353 0.083663 0.718805
O O10 0.765211 0.068683 0.883028
O O11 0.000000 0.057559 0.782287
O O12 0.775877 0.000000 0.779378
O O13 0.500000 0.554400 0.142194
O O14 0.730524 0.500000 0.158338
O O15 0.743716 0.583871 0.221225
O O16 0.748664 0.569317 0.055403
O O17 0.500000 0.702848 0.564885
O O18 0.250000 0.750000 0.594922
O O19 0.259252 0.659763 0.625832
O O20 0.500000 0.114547 0.634285
O O21 0.000000 0.397608 0.298065
O O22 0.500000 0.070336 0.962920
O O23 0.321477 0.000000 0.968318
#
# Coordination Sequence:
#
# PCOD9348312 Si02
#       8
#     8   8   8   8   8   8   8   8
#     4  10  19  33  51  72  95 125 164 209 254 297
#     4   9  17  29  45  65  94 132 169 202 235 277
#     4  10  20  33  49  73 105 136 167 207 252 295
#     4  10  20  32  47  71 102 132 163 204 251 294
#     4  11  21  34  52  72  96 127 164 209 258 301
#     4  11  20  33  50  72 100 132 172 209 246 296
#     4  10  19  32  49  69  96 130 169 204 241 292
#     4   9  17  31  51  72  94 127 169 208 247 292
#
# _framework density 15.748936
#
# number of rings (size 3 to 8) (size 9 to 14) (size 15 to 20)
#    0.000    2.000    1.250    4.500    0.000    5.000 
#    0.000    0.000    0.000    2.250    0.000    0.875 
#    0.000    2.000    0.000    0.000    0.000    0.000 
#
# Total GULP energy -178574.679582 kJ/mol
# GULP energy per Si atom -5580.458737 kJ/mol
# Density = 1.571309 g / cm^3
# Si number density = 15.748936 Si / 1000 Ang^3
#
#
#
# Elastic Constant Matrix: (Units=GPa)
#
#
# Indices 1 2 3 4 5 6 
#
# 1 67.2631 44.0043 39.6829 0.0000 0.0000 0.0000
# 2 44.0043 108.8852 62.6937 0.0000 0.0000 0.0000
# 3 39.6829 62.6937 120.0016 0.0000 0.0000 0.0000
# 4 0.0000 0.0000 0.0000 7.6867 0.0000 0.0000
# 5 0.0000 0.0000 0.0000 0.0000 24.6967 0.0000
# 6 0.0000 0.0000 0.0000 0.0000 0.0000 21.9636
#
#
#
# Elastic Compliance Matrix: (Units=1/GPa)
#
#
# Indices 1 2 3 4 5 6 
#
# 1 0.021265 -0.006500 -0.003636 0.000000 0.000000 0.000000
# 2 -0.006500 0.015122 -0.005751 0.000000 0.000000 0.000000
# 3 -0.003636 -0.005751 0.012540 0.000000 0.000000 0.000000
# 4 0.000000 0.000000 0.000000 0.130094 0.000000 0.000000
# 5 0.000000 0.000000 0.000000 0.000000 0.040491 0.000000
# 6 0.000000 0.000000 0.000000 0.000000 0.000000 0.045530
#
#
# Mechanical properties :
#
#
# Convention : Reuss Voigt Hill
#
# Bulk Modulus (GPa) = 58.29981 65.43463 61.86722
# Shear Modulus (GPa) = 16.52706 20.85401 18.69054
#
# Velocity S-wave (km/s) = 3.24297 3.64284 3.44871
# Velocity P-wave (km/s) = 7.14990 7.70276 7.43147
#
# Compressibility (1/GPa) = 0.01715272
#
# Stress axis : x y z
#
# Youngs Moduli (GPa) = 47.02645 66.12783 79.74434
#
# Poissons Ratio (x) = 0.42985 0.28994
# Poissons Ratio (y) = 0.30569 0.45860
# Poissons Ratio (z) = 0.17098 0.38030
#
# Static dielectric constant tensor:
#      x y z
#    x 1.527940 0.000000 0.000000 
#    y 0.000000 1.521180 0.000000 
#    z 0.000000 0.000000 1.501790 
# 
# From -- ./inp_files/16177.got.cif
#   From: 2010.05.17/outbox.cif.g08.bks.cpg/sg35_9_cif.got.tgz:16177.got - 2010.06.03 17:29:28.
