data_PCOD9348720
_publ_section_title
;
Structure prediction by ZEFSAII (Michael W. Deem and Ramdas Pophale) SiO2 
 PCOD9348720
Probable space group: C M M 2
;
_chemical_formula_sum "Si O2"
_cell_formula_units_Z 48
_cell_length_a 10.352856
_cell_length_b 17.244236
_cell_length_c 14.389687
_cell_angle_alpha 90.000000
_cell_angle_beta 90.000000
_cell_angle_gamma 90.000000
_cell_volume 2568.948977
_symmetry_space_group_name_H-M "C M M 2"
_symmetry_group_IT_number 35
_symmetry_cell_setting 'orthorhombic'
loop_
_space_group_symop_operation_xyz
x,y,z
-x,-y,z
-x,y,z
x,-y,z
1/2+x,1/2+y,z
1/2-x,1/2-y,z
1/2-x,1/2+y,z
1/2+x,1/2-y,z
loop_
_atom_site_type_symbol
_atom_site_label
_atom_site_fract_x
_atom_site_fract_y
_atom_site_fract_z
Si Si1 0.500000 0.593819 0.930450
Si Si2 0.650029 0.092486 0.635856
Si Si3 0.000000 0.406829 0.912815
Si Si4 0.000000 0.594093 0.124099
Si Si5 0.761683 0.406121 0.251364
Si Si6 0.653957 0.822692 0.439778
Si Si7 0.000000 0.905583 0.148509
Si Si8 0.255491 0.342407 0.817337
O O1 0.500000 0.500000 0.928288
O O2 0.623838 0.625586 0.875299
O O3 0.500000 0.617973 0.039745
O O4 0.500000 0.109545 0.662868
O O5 0.667498 0.126806 0.533332
O O6 0.746787 0.129222 0.710709
O O7 0.664939 0.000000 0.635461
O O8 0.872305 0.376652 0.864182
O O9 0.000000 0.500000 0.909998
O O10 0.000000 0.378983 0.018966
O O11 0.126542 0.617580 0.179776
O O12 0.000000 0.500000 0.121517
O O13 0.761284 0.500000 0.259089
O O14 0.798063 0.370341 0.350162
O O15 0.626317 0.381225 0.206036
O O16 0.500000 0.803529 0.429842
O O17 0.750000 0.750000 0.448025
O O18 0.000000 0.000000 0.146700
O O19 0.250000 0.250000 0.819859
#
# Coordination Sequence:
#
# PCOD9348720 Si02
#       8
#     4   8   4   4   8   8   4   8
#     4  11  23  41  64  91 128 171 215 262 314 373
#     4  10  21  41  69  93 116 157 214 261 302 367
#     4  11  21  39  66  89 118 165 223 264 300 373
#     4   9  18  33  60  91 114 149 213 270 296 343
#     4  10  19  37  63  90 118 157 210 259 304 358
#     4  11  24  41  62  91 127 163 199 250 317 377
#     4   9  20  37  60  89 124 165 207 258 310 357
#     4  12  24  40  61  94 131 166 204 259 327 375
#
# _framework density 18.684683
#
# number of rings (size 3 to 8) (size 9 to 14) (size 15 to 20)
#    0.000    1.500    1.667    4.000    1.167    3.333 
#    1.500    5.000    0.000    0.000    0.000    0.000 
#    0.000    0.000    0.000    0.000    0.000    0.000 
#
# Total GULP energy -134062.678688 kJ/mol
# GULP energy per Si atom -5585.944945 kJ/mol
# Density = 1.864216 g / cm^3
# Si number density = 18.684683 Si / 1000 Ang^3
#
#
#
# Elastic Constant Matrix: (Units=GPa)
#
#
# Indices 1 2 3 4 5 6 
#
# 1 167.7392 43.7062 85.0664 0.0000 0.0000 0.0000
# 2 43.7062 78.4508 44.3038 0.0000 0.0000 0.0000
# 3 85.0664 44.3038 168.9141 0.0000 0.0000 0.0000
# 4 0.0000 0.0000 0.0000 -8.6748 0.0000 0.0000
# 5 0.0000 0.0000 0.0000 0.0000 27.5192 0.0000
# 6 0.0000 0.0000 0.0000 0.0000 0.0000 21.4387
#
#
#
# Elastic Compliance Matrix: (Units=1/GPa)
#
#
# Indices 1 2 3 4 5 6 
#
# 1 0.008471 -0.002712 -0.003555 0.000000 0.000000 0.000000
# 2 -0.002712 0.015831 -0.002787 0.000000 0.000000 0.000000
# 3 -0.003555 -0.002787 0.008441 0.000000 0.000000 0.000000
# 4 0.000000 0.000000 0.000000 -0.115276 0.000000 0.000000
# 5 0.000000 0.000000 0.000000 0.000000 0.036338 0.000000
# 6 0.000000 0.000000 0.000000 0.000000 0.000000 0.046645
#
#
# Mechanical properties :
#
#
# Convention : Reuss Voigt Hill
#
# Bulk Modulus (GPa) = 68.31943 84.58410 76.45176
# Shear Modulus (GPa) = 213.34540 24.19178 118.76859
#
# Velocity S-wave (km/s) = 10.69719 3.60215 7.98140
# Velocity P-wave (km/s) = 13.75561 7.91632 11.22241
#
# Compressibility (1/GPa) = 0.01463712
#
# Stress axis : x y z
#
# Youngs Moduli (GPa) = 118.05012 63.16580 118.46546
#
# Poissons Ratio (x) = 0.17129 0.42112
# Poissons Ratio (y) = 0.32013 0.33012
# Poissons Ratio (z) = 0.41964 0.17602
#
# Static dielectric constant tensor:
#      x y z
#    x 1.742280 0.000000 0.000000 
#    y 0.000000 1.623960 0.000000 
#    z 0.000000 0.000000 1.635850 
# 
# From -- ./inp_files/15301.got.cif
#   From: 2010.05.17/outbox.cif.g08.bks.cpg/sg35_8_cif.got.tgz:15301.got - 2010.06.03 17:29:28.
