data_PCOD9348572
_publ_section_title
;
Structure prediction by ZEFSAII (Michael W. Deem and Ramdas Pophale) SiO2 
 PCOD9348572
Probable space group: C M M 2
;
_chemical_formula_sum "Si O2"
_cell_formula_units_Z 56
_cell_length_a 24.446225
_cell_length_b 18.783018
_cell_length_c 7.795954
_cell_angle_alpha 90.000000
_cell_angle_beta 90.000000
_cell_angle_gamma 90.000000
_cell_volume 3579.698479
_symmetry_space_group_name_H-M "C M M 2"
_symmetry_group_IT_number 35
_symmetry_cell_setting 'orthorhombic'
loop_
_space_group_symop_operation_xyz
x,y,z
-x,-y,z
-x,y,z
x,-y,z
1/2+x,1/2+y,z
1/2-x,1/2-y,z
1/2-x,1/2+y,z
1/2+x,1/2-y,z
loop_
_atom_site_type_symbol
_atom_site_label
_atom_site_fract_x
_atom_site_fract_y
_atom_site_fract_z
Si Si1 0.808775 0.278988 0.799510
Si Si2 0.435605 0.585155 0.596833
Si Si3 0.258056 0.919445 0.890346
Si Si4 0.191225 0.721012 0.394155
Si Si5 0.138481 0.142751 0.294741
Si Si6 0.638481 0.357249 0.898925
Si Si7 0.741944 0.919445 0.303319
O O1 0.750000 0.250000 0.864374
O O2 0.803382 0.362969 0.829521
O O3 0.812389 0.265414 0.596833
O O4 0.853007 0.228155 0.886363
O O5 0.500000 0.601030 0.596833
O O6 0.428401 0.500000 0.596833
O O7 0.406392 0.616640 0.428267
O O8 0.406392 0.616640 0.765398
O O9 0.197075 0.891768 0.843373
O O10 0.265872 0.000000 0.828661
O O11 0.259436 0.919415 0.096833
O O12 0.250000 0.750000 0.329291
O O13 0.146993 0.771845 0.307302
O O14 0.196618 0.637031 0.364145
O O15 0.197075 0.108232 0.350292
O O16 0.128023 0.122578 0.096833
O O17 0.734128 0.000000 0.365004
#
# Coordination Sequence:
#
# PCOD9348572 Si02
#       7
#     8   8   8   8   8   8   8
#     4   9  16  27  44  68  94 125 161 191 225 273
#     4  11  24  38  51  70  93 117 156 209 250 280
#     4   9  17  27  42  69 101 131 161 190 224 274
#     4   9  16  27  44  68  94 125 161 191 225 273
#     4  10  19  34  52  68  92 129 164 194 234 281
#     4  10  19  34  52  68  92 129 164 194 234 281
#     4   9  17  27  42  69 101 131 161 190 224 274
#
# _framework density 15.643776000000001
#
# number of rings (size 3 to 8) (size 9 to 14) (size 15 to 20)
#    0.000    2.429    1.429    1.714    2.000    6.286 
#    0.000    1.429    0.000    0.000    0.000    0.000 
#    0.000    2.286    0.000    6.000    0.000    0.000 
#
# Total GULP energy -156007.523415 kJ/mol
# GULP energy per Si atom -5571.697265 kJ/mol
# Density = 1.560817 g / cm^3
# Si number density = 15.643776 Si / 1000 Ang^3
#
#
#
# Elastic Constant Matrix: (Units=GPa)
#
#
# Indices 1 2 3 4 5 6 
#
# 1 61.5434 39.2816 40.0571 0.0000 0.0000 0.0000
# 2 39.2816 116.8870 26.9382 0.0000 0.0000 0.0000
# 3 40.0571 26.9382 75.6839 0.0000 0.0000 0.0000
# 4 0.0000 0.0000 0.0000 22.7923 0.0000 0.0000
# 5 0.0000 0.0000 0.0000 0.0000 14.1418 0.0000
# 6 0.0000 0.0000 0.0000 0.0000 0.0000 19.8905
#
#
#
# Elastic Compliance Matrix: (Units=1/GPa)
#
#
# Indices 1 2 3 4 5 6 
#
# 1 0.028980 -0.006759 -0.012933 0.000000 0.000000 0.000000
# 2 -0.006759 0.010896 -0.000301 0.000000 0.000000 0.000000
# 3 -0.012933 -0.000301 0.020165 0.000000 0.000000 0.000000
# 4 0.000000 0.000000 0.000000 0.043874 0.000000 0.000000
# 5 0.000000 0.000000 0.000000 0.000000 0.070713 0.000000
# 6 0.000000 0.000000 0.000000 0.000000 0.000000 0.050275
#
#
# Mechanical properties :
#
#
# Convention : Reuss Voigt Hill
#
# Bulk Modulus (GPa) = 49.85990 51.85201 50.85596
# Shear Modulus (GPa) = 18.41123 21.22075 19.81599
#
# Velocity S-wave (km/s) = 3.43433 3.68706 3.56294
# Velocity P-wave (km/s) = 6.90415 7.16543 7.03600
#
# Compressibility (1/GPa) = 0.02005620
#
# Stress axis : x y z
#
# Youngs Moduli (GPa) = 34.50637 91.77677 49.59123
#
# Poissons Ratio (x) = 0.62029 0.64135
# Poissons Ratio (y) = 0.23322 0.01493
# Poissons Ratio (z) = 0.44626 0.02763
#
# Static dielectric constant tensor:
#      x y z
#    x 1.485130 0.000000 0.000000 
#    y 0.000000 1.577340 0.000000 
#    z 0.000000 0.000000 1.546060 
# 
# From -- ./inp_files/8804.got.cif
#   From: 2010.05.17/outbox.cif.g08.bks.cpg/sg35_5_cif.got.tgz:8804.got - 2010.06.03 17:29:28.
