data_PCOD9348790
_publ_section_title
;
Structure prediction by ZEFSAII (Michael W. Deem and Ramdas Pophale) SiO2 
 PCOD9348790
Probable space group: C M M 2
;
_chemical_formula_sum "Si O2"
_cell_formula_units_Z 64
_cell_length_a 9.014812
_cell_length_b 15.130604
_cell_length_c 22.215216
_cell_angle_alpha 90.000000
_cell_angle_beta 90.000000
_cell_angle_gamma 90.000000
_cell_volume 3030.145477
_symmetry_space_group_name_H-M "C M M 2"
_symmetry_group_IT_number 35
_symmetry_cell_setting 'orthorhombic'
loop_
_space_group_symop_operation_xyz
x,y,z
-x,-y,z
-x,y,z
x,-y,z
1/2+x,1/2+y,z
1/2-x,1/2-y,z
1/2-x,1/2+y,z
1/2+x,1/2-y,z
loop_
_atom_site_type_symbol
_atom_site_label
_atom_site_fract_x
_atom_site_fract_y
_atom_site_fract_z
Si Si1 0.668491 0.108700 0.987230
Si Si2 0.821333 0.847787 0.367536
Si Si3 0.163616 0.895899 0.869208
Si Si4 0.179728 0.846787 0.238049
Si Si5 0.178296 0.348543 0.617293
Si Si6 0.321161 0.348862 0.498313
Si Si7 0.333004 0.604732 0.105830
Si Si8 0.176761 0.653744 0.748855
O O1 0.500000 0.137555 0.981247
O O2 0.760574 0.139845 0.929426
O O3 0.668540 0.000000 0.987129
O O4 0.735736 0.138775 0.050794
O O5 0.750000 0.750000 0.367525
O O6 0.779937 0.889688 0.302849
O O7 0.784939 0.889320 0.432566
O O8 0.000000 0.838596 0.367463
O O9 0.259058 0.888365 0.808938
O O10 0.000000 0.856757 0.859521
O O11 0.148057 0.000000 0.880404
O O12 0.250000 0.750000 0.239775
O O13 0.227144 0.884663 0.173596
O O14 0.000000 0.844804 0.236541
O O15 0.250000 0.250000 0.619624
O O16 0.250293 0.391020 0.557967
O O17 0.210181 0.388688 0.683295
O O18 0.000000 0.342606 0.610302
O O19 0.500000 0.344012 0.504688
O O20 0.250000 0.250000 0.495948
O O21 0.500000 0.642498 0.102970
O O22 0.345142 0.500000 0.096263
O O23 0.250000 0.750000 0.747597
O O24 0.000000 0.659804 0.753032
#
# Coordination Sequence:
#
# PCOD9348790 Si02
#       8
#     8   8   8   8   8   8   8   8
#     4   9  17  30  49  71  93 117 148 188 229 268
#     4   8  14  23  35  54  80 110 143 178 219 263
#     4  10  20  34  53  75  97 122 154 192 232 276
#     4   9  17  29  44  63  90 120 148 181 223 269
#     4   9  16  25  38  58  85 116 149 184 223 266
#     4   9  14  20  33  53  78 109 144 182 221 261
#     4   9  17  30  48  68  89 115 148 185 224 267
#     4  10  20  33  49  70  98 129 158 191 233 280
#
# _framework density 21.121096999999999
#
# number of rings (size 3 to 8) (size 9 to 14) (size 15 to 20)
#    0.000    2.875    0.000    2.625    0.000    4.750 
#    0.000    0.625    0.000    1.500    0.000    0.875 
#    0.000    3.000    0.000    0.000    0.000    0.250 
#
# Total GULP energy -178193.258593 kJ/mol
# GULP energy per Si atom -5568.539331 kJ/mol
# Density = 2.107302 g / cm^3
# Si number density = 21.121097 Si / 1000 Ang^3
#
#
#
# Elastic Constant Matrix: (Units=GPa)
#
#
# Indices 1 2 3 4 5 6 
#
# 1 86.3948 5.4652 86.9461 0.0000 0.0000 0.0000
# 2 5.4652 29.6405 10.7700 0.0000 0.0000 0.0000
# 3 86.9461 10.7700 249.4193 0.0000 0.0000 0.0000
# 4 0.0000 0.0000 0.0000 -66.1249 0.0000 0.0000
# 5 0.0000 0.0000 0.0000 0.0000 -140.3103 0.0000
# 6 0.0000 0.0000 0.0000 0.0000 0.0000 5.1274
#
#
#
# Elastic Compliance Matrix: (Units=1/GPa)
#
#
# Indices 1 2 3 4 5 6 
#
# 1 0.017862 -0.001047 -0.006181 0.000000 0.000000 0.000000
# 2 -0.001047 0.034337 -0.001118 0.000000 0.000000 0.000000
# 3 -0.006181 -0.001118 0.006212 0.000000 0.000000 0.000000
# 4 0.000000 0.000000 0.000000 -0.015123 0.000000 0.000000
# 5 0.000000 0.000000 0.000000 0.000000 -0.007127 0.000000
# 6 0.000000 0.000000 0.000000 0.000000 0.000000 0.195031
#
#
# Mechanical properties :
#
#
# Convention : Reuss Voigt Hill
#
# Bulk Modulus (GPa) = 23.97022 63.53524 43.75273
# Shear Modulus (GPa) = 19.09922 -22.77667 -1.83873
#
# Velocity S-wave (km/s) = 3.01037 -3.28744 -0.93405
# Velocity P-wave (km/s) = 4.84321 3.96699 4.42684
#
# Compressibility (1/GPa) = 0.04171843
#
# Stress axis : x y z
#
# Youngs Moduli (GPa) = 55.98559 29.12327 160.97033
#
# Poissons Ratio (x) = 0.03050 0.99500
# Poissons Ratio (y) = 0.05864 0.17989
# Poissons Ratio (z) = 0.34606 0.03255
#
# Static dielectric constant tensor:
#      x y z
#    x 1.732650 0.000000 0.000000 
#    y 0.000000 1.783090 0.000000 
#    z 0.000000 0.000000 1.843520 
# 
# From -- ./inp_files/18485.got.cif
#   From: 2010.05.17/outbox.cif.g08.bks.cpg/sg35_10_cif.got.tgz:18485.got - 2010.06.03 17:29:28.
