data_PCOD9348675
_publ_section_title
;
Structure prediction by ZEFSAII (Michael W. Deem and Ramdas Pophale) SiO2 
 PCOD9348675
Probable space group: C M M 2
;
_chemical_formula_sum "Si O2"
_cell_formula_units_Z 64
_cell_length_a 8.515202
_cell_length_b 31.890702
_cell_length_c 12.232350
_cell_angle_alpha 90.000000
_cell_angle_beta 90.000000
_cell_angle_gamma 90.000000
_cell_volume 3321.765216
_symmetry_space_group_name_H-M "C M M 2"
_symmetry_group_IT_number 35
_symmetry_cell_setting 'orthorhombic'
loop_
_space_group_symop_operation_xyz
x,y,z
-x,-y,z
-x,y,z
x,-y,z
1/2+x,1/2+y,z
1/2-x,1/2-y,z
1/2-x,1/2+y,z
1/2+x,1/2-y,z
loop_
_atom_site_type_symbol
_atom_site_label
_atom_site_fract_x
_atom_site_fract_y
_atom_site_fract_z
Si Si1 0.809764 0.373773 0.022180
Si Si2 0.689158 0.046589 0.162653
Si Si3 0.312614 0.794910 0.630627
Si Si4 0.189770 0.953003 0.632257
Si Si5 0.310270 0.124983 0.770194
Si Si6 0.188169 0.795108 0.159188
Si Si7 0.810780 0.823778 0.398917
Si Si8 0.189188 0.077725 0.393032
O O1 0.754763 0.415689 0.085129
O O2 0.749724 0.333013 0.085504
O O3 0.000000 0.373290 0.024548
O O4 0.758990 0.373798 0.896095
O O5 0.500000 0.046503 0.157235
O O6 0.738658 0.056608 0.286448
O O7 0.745212 0.000000 0.131479
O O8 0.500000 0.794258 0.635151
O O9 0.250000 0.750000 0.668474
O O10 0.255003 0.834030 0.703464
O O11 0.260565 0.802807 0.505943
O O12 0.253698 0.916813 0.709901
O O13 0.237748 0.943189 0.507182
O O14 0.000000 0.951454 0.634766
O O15 0.239997 0.000000 0.662962
O O16 0.500000 0.125241 0.768616
O O17 0.250000 0.750000 0.122487
O O18 0.240366 0.803349 0.284671
O O19 0.000000 0.795417 0.157703
O O20 0.768597 0.873052 0.396352
O O21 0.000000 0.820896 0.406286
O O22 0.000000 0.074845 0.384741
#
# Coordination Sequence:
#
# PCOD9348675 Si02
#       8
#     8   8   8   8   8   8   8   8
#     4  10  22  41  61  82 114 153 196 242 287 335
#     4  10  21  36  57  86 117 151 191 236 287 341
#     4  11  23  38  59  86 116 149 190 235 287 344
#     4  10  21  37  59  87 118 153 191 234 287 342
#     4  10  23  41  60  84 113 152 197 241 287 336
#     4  11  23  39  60  88 118 150 190 234 286 344
#     4  10  20  36  60  88 117 150 187 230 286 345
#     4  10  19  35  59  86 118 152 186 230 287 345
#
# _framework density 19.266864000000002
#
# number of rings (size 3 to 8) (size 9 to 14) (size 15 to 20)
#    0.000    1.750    2.500    1.500    0.000    6.000 
#    0.000    2.500    0.000    0.000    0.000    0.000 
#    0.000    0.000    0.000    0.000    0.000    0.000 
#
# Total GULP energy -178807.586936 kJ/mol
# GULP energy per Si atom -5587.737092 kJ/mol
# Density = 1.922301 g / cm^3
# Si number density = 19.266864 Si / 1000 Ang^3
#
#
#
# Elastic Constant Matrix: (Units=GPa)
#
#
# Indices 1 2 3 4 5 6 
#
# 1 9.7070 27.5901 22.3834 0.0000 0.0000 0.0000
# 2 27.5901 203.5280 94.7342 0.0000 0.0000 0.0000
# 3 22.3834 94.7342 157.9508 0.0000 0.0000 0.0000
# 4 0.0000 0.0000 0.0000 -2.0112 0.0000 0.0000
# 5 0.0000 0.0000 0.0000 0.0000 13.4343 0.0000
# 6 0.0000 0.0000 0.0000 0.0000 0.0000 25.9278
#
#
#
# Elastic Compliance Matrix: (Units=1/GPa)
#
#
# Indices 1 2 3 4 5 6 
#
# 1 0.193524 -0.018685 -0.016218 0.000000 0.000000 0.000000
# 2 -0.018685 0.008620 -0.002522 0.000000 0.000000 0.000000
# 3 -0.016218 -0.002522 0.010142 0.000000 0.000000 0.000000
# 4 0.000000 0.000000 0.000000 -0.497221 0.000000 0.000000
# 5 0.000000 0.000000 0.000000 0.000000 0.074436 0.000000
# 6 0.000000 0.000000 0.000000 0.000000 0.000000 0.038569
#
#
# Mechanical properties :
#
#
# Convention : Reuss Voigt Hill
#
# Bulk Modulus (GPa) = 7.27612 73.40014 40.33813
# Shear Modulus (GPa) = -97.52816 22.56873 -37.47971
#
# Velocity S-wave (km/s) = -7.12247 3.42625 -4.41533
# Velocity P-wave (km/s) = 7.99091 7.33700 2.23866
#
# Compressibility (1/GPa) = 0.13743597
#
# Stress axis : x y z
#
# Youngs Moduli (GPa) = 5.16732 116.00475 98.59905
#
# Poissons Ratio (x) = 2.16759 1.59903
# Poissons Ratio (y) = 0.09655 0.24870
# Poissons Ratio (z) = 0.08380 0.29260
#
# Static dielectric constant tensor:
#      x y z
#    x 1.662170 0.000000 0.000000 
#    y 0.000000 1.677280 0.000000 
#    z 0.000000 0.000000 1.642760 
# 
# From -- ./inp_files/11850.got.cif
#   From: 2010.05.17/outbox.cif.g08.bks.cpg/sg35_6_cif.got.tgz:11850.got - 2010.06.03 17:29:28.
