data_PCOD9348844
_publ_section_title
;
Structure prediction by ZEFSAII (Michael W. Deem and Ramdas Pophale) SiO2 
 PCOD9348844
Probable space group: C M M 2
;
_chemical_formula_sum "Si O2"
_cell_formula_units_Z 48
_cell_length_a 19.270728
_cell_length_b 9.228749
_cell_length_c 15.784387
_cell_angle_alpha 90.000000
_cell_angle_beta 90.000000
_cell_angle_gamma 90.000000
_cell_volume 2807.169756
_symmetry_space_group_name_H-M "C M M 2"
_symmetry_group_IT_number 35
_symmetry_cell_setting 'orthorhombic'
loop_
_space_group_symop_operation_xyz
x,y,z
-x,-y,z
-x,y,z
x,-y,z
1/2+x,1/2+y,z
1/2-x,1/2-y,z
1/2-x,1/2+y,z
1/2+x,1/2-y,z
loop_
_atom_site_type_symbol
_atom_site_label
_atom_site_fract_x
_atom_site_fract_y
_atom_site_fract_z
Si Si1 0.084513 0.334125 0.786760
Si Si2 0.582506 0.326872 0.143935
Si Si3 0.415510 0.667482 0.953438
Si Si4 0.675802 0.172492 0.477402
Si Si5 0.823745 0.671865 0.280952
Si Si6 0.916611 0.829621 0.615431
O O1 0.107206 0.500000 0.776922
O O2 0.108213 0.265692 0.875618
O O3 0.104443 0.237882 0.706030
O O4 0.000000 0.333959 0.788780
O O5 0.500000 0.301395 0.150317
O O6 0.593622 0.500000 0.153112
O O7 0.622733 0.240070 0.215265
O O8 0.605466 0.286660 0.048151
O O9 0.500000 0.669269 0.953616
O O10 0.395090 0.500000 0.940030
O O11 0.750000 0.250000 0.489485
O O12 0.655042 0.195460 0.379070
O O13 0.621417 0.243320 0.541236
O O14 0.681958 0.000000 0.491451
O O15 0.816568 0.500000 0.267944
O O16 0.750000 0.750000 0.269260
O O17 0.000000 0.814454 0.607810
O O18 0.899953 0.000000 0.611942
#
# Coordination Sequence:
#
# PCOD9348844 Si02
#       6
#     8   8   8   8   8   8
#     4   9  16  26  43  69 100 132 165 203 246 291
#     4   9  18  32  51  76 105 135 167 206 250 294
#     4   8  14  26  44  67  97 132 166 199 240 292
#     4  10  21  37  55  74  98 130 168 208 251 301
#     4  10  21  36  54  74  98 131 169 208 250 300
#     4  10  20  33  51  76 104 134 168 206 248 294
#
# _framework density 17.099074000000002
#
# number of rings (size 3 to 8) (size 9 to 14) (size 15 to 20)
#    0.000    2.667    0.000    3.000    0.000    6.667 
#    0.000    5.000    0.000    1.000    0.000    2.333 
#    0.000    0.000    0.000    0.000    0.000    0.000 
#
# Total GULP energy -133811.228497 kJ/mol
# GULP energy per Si atom -5575.467854 kJ/mol
# Density = 1.706016 g / cm^3
# Si number density = 17.099074 Si / 1000 Ang^3
#
#
#
# Elastic Constant Matrix: (Units=GPa)
#
#
# Indices 1 2 3 4 5 6 
#
# 1 28.8384 47.1092 58.7767 0.0000 0.0000 0.0000
# 2 47.1092 125.3891 107.5489 0.0000 0.0000 0.0000
# 3 58.7767 107.5489 157.4455 0.0000 0.0000 0.0000
# 4 0.0000 0.0000 0.0000 37.6065 0.0000 0.0000
# 5 0.0000 0.0000 0.0000 0.0000 -19.9528 0.0000
# 6 0.0000 0.0000 0.0000 0.0000 0.0000 26.2763
#
#
#
# Elastic Compliance Matrix: (Units=1/GPa)
#
#
# Indices 1 2 3 4 5 6 
#
# 1 0.167691 -0.022477 -0.047248 0.000000 0.000000 0.000000
# 2 -0.022477 0.022272 -0.006823 0.000000 0.000000 0.000000
# 3 -0.047248 -0.006823 0.028650 0.000000 0.000000 0.000000
# 4 0.000000 0.000000 0.000000 0.026591 0.000000 0.000000
# 5 0.000000 0.000000 0.000000 0.000000 -0.050118 0.000000
# 6 0.000000 0.000000 0.000000 0.000000 0.000000 0.038057
#
#
# Mechanical properties :
#
#
# Convention : Reuss Voigt Hill
#
# Bulk Modulus (GPa) = 15.26287 82.06030 48.66158
# Shear Modulus (GPa) = 12.25258 15.33522 13.79390
#
# Velocity S-wave (km/s) = 2.67977 2.99799 2.84334
# Velocity P-wave (km/s) = 4.30354 7.75107 6.26896
#
# Compressibility (1/GPa) = 0.06551846
#
# Stress axis : x y z
#
# Youngs Moduli (GPa) = 5.96334 44.90018 34.90370
#
# Poissons Ratio (x) = 1.00920 1.64914
# Poissons Ratio (y) = 0.13404 0.23813
# Poissons Ratio (z) = 0.28176 0.30634
#
# Static dielectric constant tensor:
#      x y z
#    x 1.554370 0.000000 0.000000 
#    y 0.000000 1.568060 0.000000 
#    z 0.000000 0.000000 1.576060 
# 
# From -- ./inp_files/15118.got.cif
#   From: 2010.05.17/outbox.cif.g08.bks.cpg/sg35_8_cif.got.tgz:15118.got - 2010.06.03 17:29:28.
