data_PCOD9348910
_publ_section_title
;
Structure prediction by ZEFSAII (Michael W. Deem and Ramdas Pophale) SiO2 
 PCOD9348910
Probable space group: C M M 2
;
_chemical_formula_sum "Si O2"
_cell_formula_units_Z 56
_cell_length_a 15.575809
_cell_length_b 15.679781
_cell_length_c 12.266955
_cell_angle_alpha 90.000000
_cell_angle_beta 90.000000
_cell_angle_gamma 90.000000
_cell_volume 2995.900446
_symmetry_space_group_name_H-M "C M M 2"
_symmetry_group_IT_number 35
_symmetry_cell_setting 'orthorhombic'
loop_
_space_group_symop_operation_xyz
x,y,z
-x,-y,z
-x,y,z
x,-y,z
1/2+x,1/2+y,z
1/2-x,1/2-y,z
1/2-x,1/2+y,z
1/2+x,1/2-y,z
loop_
_atom_site_type_symbol
_atom_site_label
_atom_site_fract_x
_atom_site_fract_y
_atom_site_fract_z
Si Si1 0.845201 0.403361 0.687470
Si Si2 0.896088 0.095509 0.421803
Si Si3 0.225158 0.156031 0.984410
Si Si4 0.407509 0.101142 0.930184
Si Si5 0.850320 0.093939 0.763855
Si Si6 0.900702 0.230745 0.594825
Si Si7 0.100346 0.101499 0.165809
O O1 0.873929 0.500000 0.656325
O O2 0.889736 0.378553 0.802862
O O3 0.744678 0.408480 0.712645
O O4 0.859689 0.323346 0.609387
O O5 0.863446 0.169626 0.500468
O O6 0.880791 0.111892 0.294260
O O7 0.000000 0.092749 0.434755
O O8 0.864170 0.000000 0.450440
O O9 0.250000 0.250000 0.944754
O O10 0.320731 0.118505 0.996763
O O11 0.169285 0.110449 0.890805
O O12 0.167254 0.152141 0.091599
O O13 0.500000 0.139016 0.964393
O O14 0.415060 0.000000 0.932719
O O15 0.895333 0.172458 0.703937
O O16 0.890537 0.000000 0.747970
O O17 0.000000 0.246534 0.570024
O O18 0.000000 0.124166 0.146641
O O19 0.109137 0.000000 0.141816
#
# Coordination Sequence:
#
# PCOD9348910 Si02
#       7
#     8   8   8   8   8   8   8
#     4   9  18  32  48  69 103 145 179 204 243 310
#     4   8  16  32  52  74 101 135 174 213 258 315
#     4  11  21  32  49  76 108 136 170 215 262 315
#     4   9  17  31  50  69  96 137 177 208 242 295
#     4  10  20  34  50  70 103 141 172 210 258 308
#     4  11  20  30  50  79 108 135 169 216 264 310
#     4   9  18  35  57  76  99 135 176 218 265 318
#
# _framework density 18.692208999999998
#
# number of rings (size 3 to 8) (size 9 to 14) (size 15 to 20)
#    0.000    2.429    0.000    6.000    0.000    2.857 
#    0.000    1.429    0.000    0.000    0.000    2.000 
#    0.000    4.571    0.000    9.714    0.000    0.714 
#
# Total GULP energy -155980.396872 kJ/mol
# GULP energy per Si atom -5570.728460 kJ/mol
# Density = 1.864967 g / cm^3
# Si number density = 18.692209 Si / 1000 Ang^3
#
#
#
# Elastic Constant Matrix: (Units=GPa)
#
#
# Indices 1 2 3 4 5 6 
#
# 1 53.1890 10.8385 21.6245 0.0000 0.0000 0.0000
# 2 10.8385 105.7775 38.1684 0.0000 0.0000 0.0000
# 3 21.6245 38.1684 58.6872 0.0000 0.0000 0.0000
# 4 0.0000 0.0000 0.0000 2.0024 0.0000 0.0000
# 5 0.0000 0.0000 0.0000 0.0000 21.3724 0.0000
# 6 0.0000 0.0000 0.0000 0.0000 0.0000 6.8306
#
#
#
# Elastic Compliance Matrix: (Units=1/GPa)
#
#
# Indices 1 2 3 4 5 6 
#
# 1 0.022177 0.000884 -0.008746 0.000000 0.000000 0.000000
# 2 0.000884 0.012388 -0.008382 0.000000 0.000000 0.000000
# 3 -0.008746 -0.008382 0.025714 0.000000 0.000000 0.000000
# 4 0.000000 0.000000 0.000000 0.499398 0.000000 0.000000
# 5 0.000000 0.000000 0.000000 0.000000 0.046789 0.000000
# 6 0.000000 0.000000 0.000000 0.000000 0.000000 0.146401
#
#
# Mechanical properties :
#
#
# Convention : Reuss Voigt Hill
#
# Bulk Modulus (GPa) = 35.98585 39.87961 37.93273
# Shear Modulus (GPa) = 6.29233 15.84256 11.06744
#
# Velocity S-wave (km/s) = 1.83673 2.91443 2.43593
# Velocity P-wave (km/s) = 4.87767 5.71895 5.31498
#
# Compressibility (1/GPa) = 0.02778870
#
# Stress axis : x y z
#
# Youngs Moduli (GPa) = 45.09248 80.72383 38.88964
#
# Poissons Ratio (x) = -0.07133 0.34013
# Poissons Ratio (y) = -0.03984 0.32599
# Poissons Ratio (z) = 0.39438 0.67665
#
# Static dielectric constant tensor:
#      x y z
#    x 1.675600 0.000000 0.000000 
#    y 0.000000 1.780010 0.000000 
#    z 0.000000 0.000000 1.649240 
# 
# From -- ./inp_files/12981.got.cif
#   From: 2010.05.17/outbox.cif.g08.bks.cpg/sg35_7_cif.got.tgz:12981.got - 2010.06.03 17:29:28.
