data_PCOD9348930
_publ_section_title
;
Structure prediction by ZEFSAII (Michael W. Deem and Ramdas Pophale) SiO2 
 PCOD9348930
Probable space group: C M M 2
;
_chemical_formula_sum "Si O2"
_cell_formula_units_Z 64
_cell_length_a 8.941964
_cell_length_b 15.147988
_cell_length_c 21.891363
_cell_angle_alpha 90.000000
_cell_angle_beta 90.000000
_cell_angle_gamma 90.000000
_cell_volume 2965.245612
_symmetry_space_group_name_H-M "C M M 2"
_symmetry_group_IT_number 35
_symmetry_cell_setting 'orthorhombic'
loop_
_space_group_symop_operation_xyz
x,y,z
-x,-y,z
-x,y,z
x,-y,z
1/2+x,1/2+y,z
1/2-x,1/2-y,z
1/2-x,1/2+y,z
1/2+x,1/2-y,z
loop_
_atom_site_type_symbol
_atom_site_label
_atom_site_fract_x
_atom_site_fract_y
_atom_site_fract_z
Si Si1 0.179157 0.151344 0.982570
Si Si2 0.824191 0.107195 0.360117
Si Si3 0.671057 0.891577 0.484000
Si Si4 0.177395 0.653189 0.102868
Si Si5 0.831054 0.895196 0.226287
Si Si6 0.822318 0.347099 0.727563
Si Si7 0.165519 0.895561 0.604902
Si Si8 0.679228 0.651355 0.848256
O O1 0.250000 0.250000 0.979833
O O2 0.208531 0.111168 0.915424
O O3 0.000000 0.157432 0.990152
O O4 0.250785 0.108240 0.042737
O O5 0.734630 0.138972 0.418917
O O6 0.775800 0.138136 0.292437
O O7 0.000000 0.127602 0.366302
O O8 0.811267 0.000000 0.361206
O O9 0.500000 0.864903 0.491542
O O10 0.766818 0.860268 0.541878
O O11 0.674793 0.000000 0.483855
O O12 0.250000 0.750000 0.103143
O O13 0.225948 0.617320 0.168481
O O14 0.000000 0.655599 0.096467
O O15 0.000000 0.859700 0.214197
O O16 0.846186 0.000000 0.233722
O O17 0.750000 0.250000 0.726412
O O18 0.772064 0.385673 0.662987
O O19 0.751528 0.391321 0.788167
O O20 0.000000 0.344341 0.733317
O O21 0.000000 0.858118 0.617983
O O22 0.150226 0.000000 0.595452
O O23 0.500000 0.657259 0.840652
O O24 0.750000 0.750000 0.850847
#
# Coordination Sequence:
#
# PCOD9348930 Si02
#       8
#     8   8   8   8   8   8   8   8
#     4   9  16  27  45  68  94 123 158 200 242 284
#     4   8  14  26  45  68  93 123 158 195 237 285
#     4   9  16  26  43  69  98 125 157 199 242 283
#     4  11  21  32  49  72 100 131 164 202 243 290
#     4   9  18  33  52  73  99 130 163 200 243 291
#     4  11  21  33  51  74 102 132 163 200 242 290
#     4  10  20  34  52  73  99 131 166 203 243 289
#     4   9  16  27  45  69  95 123 158 199 241 284
#
# _framework density 21.583372000000001
#
# number of rings (size 3 to 8) (size 9 to 14) (size 15 to 20)
#    0.000    2.500    0.000    6.000    0.000    4.500 
#    0.000    1.250    0.000    1.500    0.000    7.000 
#    0.000    0.000    0.000    0.000    0.000    0.000 
#
# Total GULP energy -178472.003818 kJ/mol
# GULP energy per Si atom -5577.250119 kJ/mol
# Density = 2.153425 g / cm^3
# Si number density = 21.583372 Si / 1000 Ang^3
#
#
#
# Elastic Constant Matrix: (Units=GPa)
#
#
# Indices 1 2 3 4 5 6 
#
# 1 151.1209 8.0746 98.9802 0.0000 0.0000 0.0000
# 2 8.0746 31.8085 10.5784 0.0000 0.0000 0.0000
# 3 98.9802 10.5784 213.1879 0.0000 0.0000 0.0000
# 4 0.0000 0.0000 0.0000 7.2682 0.0000 0.0000
# 5 0.0000 0.0000 0.0000 0.0000 -59.7146 0.0000
# 6 0.0000 0.0000 0.0000 0.0000 0.0000 10.1339
#
#
#
# Elastic Compliance Matrix: (Units=1/GPa)
#
#
# Indices 1 2 3 4 5 6 
#
# 1 0.009538 -0.000964 -0.004380 0.000000 0.000000 0.000000
# 2 -0.000964 0.032063 -0.001143 0.000000 0.000000 0.000000
# 3 -0.004380 -0.001143 0.006781 0.000000 0.000000 0.000000
# 4 0.000000 0.000000 0.000000 0.137585 0.000000 0.000000
# 5 0.000000 0.000000 0.000000 0.000000 -0.016746 0.000000
# 6 0.000000 0.000000 0.000000 0.000000 0.000000 0.098679
#
#
# Mechanical properties :
#
#
# Convention : Reuss Voigt Hill
#
# Bulk Modulus (GPa) = 28.24372 70.15376 49.19874
# Shear Modulus (GPa) = 17.08365 10.10311 13.59338
#
# Velocity S-wave (km/s) = 2.81645 2.16590 2.51232
# Velocity P-wave (km/s) = 4.86732 6.23129 5.59106
#
# Compressibility (1/GPa) = 0.03540610
#
# Stress axis : x y z
#
# Youngs Moduli (GPa) = 104.84595 31.18840 147.46676
#
# Poissons Ratio (x) = 0.03008 0.64597
# Poissons Ratio (y) = 0.10111 0.16859
# Poissons Ratio (z) = 0.45927 0.03566
#
# Static dielectric constant tensor:
#      x y z
#    x 1.743740 0.000000 0.000000 
#    y 0.000000 1.854910 0.000000 
#    z 0.000000 0.000000 1.858410 
# 
# From -- ./inp_files/18498.got.cif
#   From: 2010.05.17/outbox.cif.g08.bks.cpg/sg35_10_cif.got.tgz:18498.got - 2010.06.03 17:29:28.
