data_PCOD9348350
_publ_section_title
;
Structure prediction by ZEFSAII (Michael W. Deem and Ramdas Pophale) SiO2 
 PCOD9348350
Probable space group: C M M 2
;
_chemical_formula_sum "Si O2"
_cell_formula_units_Z 56
_cell_length_a 7.969907
_cell_length_b 18.875279
_cell_length_c 19.067347
_cell_angle_alpha 90.000000
_cell_angle_beta 90.000000
_cell_angle_gamma 90.000000
_cell_volume 2868.381440
_symmetry_space_group_name_H-M "C M M 2"
_symmetry_group_IT_number 35
_symmetry_cell_setting 'orthorhombic'
loop_
_space_group_symop_operation_xyz
x,y,z
-x,-y,z
-x,y,z
x,-y,z
1/2+x,1/2+y,z
1/2-x,1/2-y,z
1/2-x,1/2+y,z
1/2+x,1/2-y,z
loop_
_atom_site_type_symbol
_atom_site_label
_atom_site_fract_x
_atom_site_fract_y
_atom_site_fract_z
Si Si1 0.799171 0.418850 0.800800
Si Si2 0.299707 0.167706 0.088938
Si Si3 0.297776 0.167010 0.240822
Si Si4 0.202531 0.331943 0.667006
Si Si5 0.297249 0.167336 0.393799
Si Si6 0.205510 0.581797 0.529980
Si Si7 0.699118 0.419862 0.953374
O O1 0.733959 0.500000 0.796135
O O2 0.734858 0.370066 0.737871
O O3 0.762960 0.391035 0.878861
O O4 0.000000 0.422662 0.793354
O O5 0.500000 0.164015 0.090265
O O6 0.250000 0.250000 0.083026
O O7 0.236599 0.139527 0.165119
O O8 0.240356 0.125240 0.021554
O O9 0.500000 0.160641 0.240922
O O10 0.250000 0.250000 0.240543
O O11 0.237434 0.140781 0.316915
O O12 0.250000 0.250000 0.663929
O O13 0.260714 0.374732 0.598399
O O14 0.000000 0.335742 0.667318
O O15 0.500000 0.164105 0.393416
O O16 0.250000 0.250000 0.402083
O O17 0.237554 0.121064 0.459192
O O18 0.257827 0.500000 0.532728
O O19 0.000000 0.582297 0.529737
O O20 0.500000 0.423785 0.947612
O O21 0.768001 0.500000 0.960967
#
# Coordination Sequence:
#
# PCOD9348350 Si02
#       7
#     8   8   8   8   8   8   8
#     4   9  18  34  54  72  93 126 166 203 241 289
#     4  10  19  32  51  74 101 132 168 209 251 296
#     4   8  15  27  44  69  97 126 161 199 242 289
#     4  10  20  33  51  75 100 126 159 199 241 286
#     4   9  16  28  48  72  97 126 161 201 243 285
#     4   9  17  30  49  72  98 129 164 199 235 279
#     4  10  21  36  53  74 101 132 166 204 248 299
#
# _framework density 19.523205000000001
#
# number of rings (size 3 to 8) (size 9 to 14) (size 15 to 20)
#    0.000    2.714    0.000    1.714    0.000    4.286 
#    0.000    2.143    0.000    5.143    0.000    0.000 
#    0.000    0.000    0.000    0.000    0.000    0.000 
#
# Total GULP energy -156082.667335 kJ/mol
# GULP energy per Si atom -5574.380976 kJ/mol
# Density = 1.947877 g / cm^3
# Si number density = 19.523205 Si / 1000 Ang^3
#
#
#
# Elastic Constant Matrix: (Units=GPa)
#
#
# Indices 1 2 3 4 5 6 
#
# 1 18.2447 2.8524 11.7862 0.0000 0.0000 0.0000
# 2 2.8524 95.2561 105.6873 0.0000 0.0000 0.0000
# 3 11.7862 105.6873 248.0965 0.0000 0.0000 0.0000
# 4 0.0000 0.0000 0.0000 -126.7732 0.0000 0.0000
# 5 0.0000 0.0000 0.0000 0.0000 -18.6076 0.0000
# 6 0.0000 0.0000 0.0000 0.0000 0.0000 20.3698
#
#
#
# Elastic Compliance Matrix: (Units=1/GPa)
#
#
# Indices 1 2 3 4 5 6 
#
# 1 0.056847 0.002454 -0.003746 0.000000 0.000000 0.000000
# 2 0.002454 0.020013 -0.008642 0.000000 0.000000 0.000000
# 3 -0.003746 -0.008642 0.007890 0.000000 0.000000 0.000000
# 4 0.000000 0.000000 0.000000 -0.007888 0.000000 0.000000
# 5 0.000000 0.000000 0.000000 0.000000 -0.053741 0.000000
# 6 0.000000 0.000000 0.000000 0.000000 0.000000 0.049092
#
#
# Mechanical properties :
#
#
# Convention : Reuss Voigt Hill
#
# Bulk Modulus (GPa) = 15.41271 66.91654 41.16462
# Shear Modulus (GPa) = 43.97267 -8.91744 17.52762
#
# Velocity S-wave (km/s) = 4.75102 -2.13952 2.99955
# Velocity P-wave (km/s) = 6.16506 5.31474 5.75562
#
# Compressibility (1/GPa) = 0.06488154
#
# Stress axis : x y z
#
# Youngs Moduli (GPa) = 17.59122 49.96818 126.74253
#
# Poissons Ratio (x) = -0.12262 0.47477
# Poissons Ratio (y) = -0.04317 1.09529
# Poissons Ratio (z) = 0.06590 0.43182
#
# Static dielectric constant tensor:
#      x y z
#    x 1.716730 0.000000 0.000000 
#    y 0.000000 1.649350 0.000000 
#    z 0.000000 0.000000 1.723730 
# 
# From -- ./inp_files/18178.got.cif
#   From: 2010.05.17/outbox.cif.g08.bks.cpg/sg35_10_cif.got.tgz:18178.got - 2010.06.03 17:29:28.
