data_PCOD9348216
_publ_section_title
;
Structure prediction by ZEFSAII (Michael W. Deem and Ramdas Pophale) SiO2 
 PCOD9348216
Probable space group: C M M 2
;
_chemical_formula_sum "Si O2"
_cell_formula_units_Z 64
_cell_length_a 29.438788
_cell_length_b 8.195314
_cell_length_c 16.249111
_cell_angle_alpha 90.000000
_cell_angle_beta 90.000000
_cell_angle_gamma 90.000000
_cell_volume 3920.262331
_symmetry_space_group_name_H-M "C M M 2"
_symmetry_group_IT_number 35
_symmetry_cell_setting 'orthorhombic'
loop_
_space_group_symop_operation_xyz
x,y,z
-x,-y,z
-x,y,z
x,-y,z
1/2+x,1/2+y,z
1/2-x,1/2-y,z
1/2-x,1/2+y,z
1/2+x,1/2-y,z
loop_
_atom_site_type_symbol
_atom_site_label
_atom_site_fract_x
_atom_site_fract_y
_atom_site_fract_z
Si Si1 0.854334 0.694191 0.772370
Si Si2 0.643352 0.805090 0.451905
Si Si3 0.449018 0.304710 0.715439
Si Si4 0.802492 0.302534 0.934549
Si Si5 0.697479 0.197886 0.293780
Si Si6 0.949271 0.302246 0.526255
Si Si7 0.802575 0.696686 0.113926
Si Si8 0.301751 0.307964 0.610273
O O1 0.847761 0.500000 0.767366
O O2 0.907619 0.732185 0.766613
O O3 0.831567 0.754952 0.856789
O O4 0.829458 0.769282 0.693118
O O5 0.667692 0.740288 0.370025
O O6 0.592754 0.742224 0.471685
O O7 0.674100 0.773677 0.532005
O O8 0.639586 0.000000 0.441643
O O9 0.500000 0.250334 0.739119
O O10 0.447205 0.500000 0.720637
O O11 0.442338 0.254824 0.620086
O O12 0.803422 0.500000 0.934386
O O13 0.750000 0.250000 0.925529
O O14 0.820208 0.246566 0.024690
O O15 0.750000 0.250000 0.303165
O O16 0.679932 0.252382 0.203318
O O17 0.696964 0.000000 0.294861
O O18 0.948402 0.500000 0.526834
O O19 0.000000 0.250312 0.500393
O O20 0.805063 0.500000 0.113854
O O21 0.750000 0.750000 0.113843
O O22 0.302120 0.500000 0.595978
O O23 0.250000 0.250000 0.618981
#
# Coordination Sequence:
#
# PCOD9348216 Si02
#       8
#     8   8   8   8   8   8   8   8
#     4  11  21  33  48  68  92 121 156 190 228 276
#     4  10  19  31  46  67  92 120 155 189 225 273
#     4  10  20  33  49  69  91 116 151 193 235 274
#     4   9  18  30  46  67  91 120 153 189 227 271
#     4   9  17  28  44  65  90 120 151 186 225 268
#     4   9  17  30  48  66  87 117 152 191 231 270
#     4   8  14  27  44  63  87 115 148 186 228 267
#     4  12  24  35  46  62  90 127 159 189 224 266
#
# _framework density 16.325437000000001
#
# number of rings (size 3 to 8) (size 9 to 14) (size 15 to 20)
#    0.000    2.250    1.250    2.625    0.000    4.250 
#    0.000    0.000    0.000    0.000    0.000    0.875 
#    0.000    5.000    0.000    3.375    0.000    3.125 
#
# Total GULP energy -178357.823640 kJ/mol
# GULP energy per Si atom -5573.681989 kJ/mol
# Density = 1.628828 g / cm^3
# Si number density = 16.325437 Si / 1000 Ang^3
#
#
#
# Elastic Constant Matrix: (Units=GPa)
#
#
# Indices 1 2 3 4 5 6 
#
# 1 95.8088 -4.5940 55.9333 0.0000 0.0000 0.0000
# 2 -4.5940 3.6934 -7.4737 0.0000 0.0000 0.0000
# 3 55.9333 -7.4737 133.5533 0.0000 0.0000 0.0000
# 4 0.0000 0.0000 0.0000 3.1393 0.0000 0.0000
# 5 0.0000 0.0000 0.0000 0.0000 8.0731 0.0000
# 6 0.0000 0.0000 0.0000 0.0000 0.0000 16.3718
#
#
#
# Elastic Compliance Matrix: (Units=1/GPa)
#
#
# Indices 1 2 3 4 5 6 
#
# 1 0.013941 0.006231 -0.005490 0.000000 0.000000 0.000000
# 2 0.006231 0.308112 0.014632 0.000000 0.000000 0.000000
# 3 -0.005490 0.014632 0.010606 0.000000 0.000000 0.000000
# 4 0.000000 0.000000 0.000000 0.318544 0.000000 0.000000
# 5 0.000000 0.000000 0.000000 0.000000 0.123868 0.000000
# 6 0.000000 0.000000 0.000000 0.000000 0.000000 0.061081
#
#
# Mechanical properties :
#
#
# Convention : Reuss Voigt Hill
#
# Bulk Modulus (GPa) = 2.75174 35.64297 19.19735
# Shear Modulus (GPa) = 5.39642 18.12950 11.76296
#
# Velocity S-wave (km/s) = 1.82008 3.33604 2.68718
# Velocity P-wave (km/s) = 2.47106 6.05963 4.62738
#
# Compressibility (1/GPa) = 0.36340702
#
# Stress axis : x y z
#
# Youngs Moduli (GPa) = 71.72910 3.24557 94.28847
#
# Poissons Ratio (x) = -0.02022 0.51765
# Poissons Ratio (y) = -0.44698 -1.37966
# Poissons Ratio (z) = 0.39380 -0.04749
#
# Static dielectric constant tensor:
#      x y z
#    x 1.537180 0.000000 0.000000 
#    y 0.000000 1.563070 0.000000 
#    z 0.000000 0.000000 1.574120 
# 
# From -- ./inp_files/16223.got.cif
#   From: 2010.05.17/outbox.cif.g08.bks.cpg/sg35_9_cif.got.tgz:16223.got - 2010.06.03 17:29:28.
