data_PCOD9348167
_publ_section_title
;
Structure prediction by ZEFSAII (Michael W. Deem and Ramdas Pophale) SiO2 
 PCOD9348167
Probable space group: C M M 2
;
_chemical_formula_sum "Si O2"
_cell_formula_units_Z 64
_cell_length_a 7.344121
_cell_length_b 19.282174
_cell_length_c 21.862723
_cell_angle_alpha 90.000000
_cell_angle_beta 90.000000
_cell_angle_gamma 90.000000
_cell_volume 3095.993737
_symmetry_space_group_name_H-M "C M M 2"
_symmetry_group_IT_number 35
_symmetry_cell_setting 'orthorhombic'
loop_
_space_group_symop_operation_xyz
x,y,z
-x,-y,z
-x,y,z
x,-y,z
1/2+x,1/2+y,z
1/2-x,1/2-y,z
1/2-x,1/2+y,z
1/2+x,1/2-y,z
loop_
_atom_site_type_symbol
_atom_site_label
_atom_site_fract_x
_atom_site_fract_y
_atom_site_fract_z
Si Si1 0.212602 0.084252 0.571540
Si Si2 0.777173 0.919367 0.705421
Si Si3 0.282582 0.668299 0.187931
Si Si4 0.722857 0.580588 0.438427
Si Si5 0.778130 0.080403 0.936702
Si Si6 0.782659 0.168237 0.323222
Si Si7 0.782715 0.168183 0.821403
Si Si8 0.721681 0.580275 0.073482
O O1 0.286760 0.104413 0.637971
O O2 0.286434 0.106240 0.505438
O O3 0.000000 0.104072 0.571841
O O4 0.220448 0.000000 0.570934
O O5 0.715588 0.870722 0.760533
O O6 0.000000 0.918837 0.703845
O O7 0.725642 0.000000 0.715233
O O8 0.500000 0.657566 0.189397
O O9 0.250000 0.750000 0.180081
O O10 0.212654 0.648431 0.255569
O O11 0.212337 0.626188 0.129825
O O12 0.500000 0.582353 0.439931
O O13 0.773609 0.500000 0.431158
O O14 0.786205 0.625223 0.380970
O O15 0.714422 0.130238 0.882650
O O16 0.000000 0.081121 0.936680
O O17 0.725449 0.000000 0.926387
O O18 0.720397 0.101690 0.005137
O O19 0.750000 0.250000 0.331332
O O20 0.000000 0.157651 0.321860
O O21 0.750000 0.250000 0.821039
O O22 0.000000 0.158281 0.821374
O O23 0.500000 0.582939 0.073416
O O24 0.772368 0.500000 0.081914
#
# Coordination Sequence:
#
# PCOD9348167 Si02
#       8
#     8   8   8   8   8   8   8   8
#     4   7  10  18  34  57  81 100 124 165 209 238
#     4   8  13  23  41  61  78 102 138 172 198 231
#     4   9  17  28  42  60  82 109 137 164 197 238
#     4   8  13  22  38  60  82 102 129 169 210 239
#     4   8  14  26  44  63  81 104 136 170 200 233
#     4   9  17  28  41  58  82 110 137 164 196 238
#     4  10  19  29  42  62  87 110 133 165 202 238
#     4   8  14  25  42  64  85 102 128 170 210 237
#
# _framework density 20.671876999999999
#
# number of rings (size 3 to 8) (size 9 to 14) (size 15 to 20)
#    0.000    3.625    0.000    2.625    0.000    2.500 
#    0.000    3.125    0.000    2.250    0.000    5.250 
#    0.000    3.000    0.000    0.000    0.000    0.000 
#
# Total GULP energy -178366.772030 kJ/mol
# GULP energy per Si atom -5573.961626 kJ/mol
# Density = 2.062483 g / cm^3
# Si number density = 20.671877 Si / 1000 Ang^3
#
#
#
# Elastic Constant Matrix: (Units=GPa)
#
#
# Indices 1 2 3 4 5 6 
#
# 1 78.6300 -0.3055 13.5668 0.0000 0.0000 0.0000
# 2 -0.3055 87.6070 130.1632 0.0000 0.0000 0.0000
# 3 13.5668 130.1632 287.4314 0.0000 0.0000 0.0000
# 4 0.0000 0.0000 0.0000 5.9598 0.0000 0.0000
# 5 0.0000 0.0000 0.0000 0.0000 -11.1566 0.0000
# 6 0.0000 0.0000 0.0000 0.0000 0.0000 10.9507
#
#
#
# Elastic Compliance Matrix: (Units=1/GPa)
#
#
# Indices 1 2 3 4 5 6 
#
# 1 0.013065 0.002940 -0.001948 0.000000 0.000000 0.000000
# 2 0.002940 0.035550 -0.016238 0.000000 0.000000 0.000000
# 3 -0.001948 -0.016238 0.010924 0.000000 0.000000 0.000000
# 4 0.000000 0.000000 0.000000 0.167791 0.000000 0.000000
# 5 0.000000 0.000000 0.000000 0.000000 -0.089633 0.000000
# 6 0.000000 0.000000 0.000000 0.000000 0.000000 0.091318
#
#
# Mechanical properties :
#
#
# Convention : Reuss Voigt Hill
#
# Bulk Modulus (GPa) = 34.42576 82.27971 58.35274
# Shear Modulus (GPa) = 18.57421 21.83370 20.20395
#
# Velocity S-wave (km/s) = 3.00079 3.25345 3.12967
# Velocity P-wave (km/s) = 5.35686 7.34863 6.43033
#
# Compressibility (1/GPa) = 0.02904802
#
# Stress axis : x y z
#
# Youngs Moduli (GPa) = 76.53853 28.12936 91.53977
#
# Poissons Ratio (x) = -0.08269 0.17831
# Poissons Ratio (y) = -0.22500 1.48638
# Poissons Ratio (z) = 0.14909 0.45675
#
# Static dielectric constant tensor:
#      x y z
#    x 1.823440 0.000000 0.000000 
#    y 0.000000 1.669700 0.000000 
#    z 0.000000 0.000000 1.770360 
# 
# From -- ./inp_files/18701.got.cif
#   From: 2010.05.17/outbox.cif.g08.bks.cpg/sg35_10_cif.got.tgz:18701.got - 2010.06.03 17:29:28.
