data_PCOD9348536
_publ_section_title
;
Structure prediction by ZEFSAII (Michael W. Deem and Ramdas Pophale) SiO2 
 PCOD9348536
Probable space group: C M M 2
;
_chemical_formula_sum "Si O2"
_cell_formula_units_Z 56
_cell_length_a 8.277018
_cell_length_b 18.737281
_cell_length_c 18.558731
_cell_angle_alpha 90.000000
_cell_angle_beta 90.000000
_cell_angle_gamma 90.000000
_cell_volume 2878.251545
_symmetry_space_group_name_H-M "C M M 2"
_symmetry_group_IT_number 35
_symmetry_cell_setting 'orthorhombic'
loop_
_space_group_symop_operation_xyz
x,y,z
-x,-y,z
-x,y,z
x,-y,z
1/2+x,1/2+y,z
1/2-x,1/2-y,z
1/2-x,1/2+y,z
1/2+x,1/2-y,z
loop_
_atom_site_type_symbol
_atom_site_label
_atom_site_fract_x
_atom_site_fract_y
_atom_site_fract_z
Si Si1 0.692672 0.831003 0.600910
Si Si2 0.805055 0.081984 0.301298
Si Si3 0.195197 0.668320 0.882673
Si Si4 0.305055 0.581983 0.464047
Si Si5 0.697637 0.917653 0.024490
Si Si6 0.692672 0.168997 0.164435
Si Si7 0.802363 0.417653 0.740856
O O1 0.500000 0.831440 0.603859
O O2 0.750000 0.750000 0.607223
O O3 0.745137 0.866109 0.525885
O O4 0.752911 0.878464 0.668110
O O5 0.752384 0.101168 0.382673
O O6 0.745128 0.133890 0.239461
O O7 0.000000 0.082628 0.300903
O O8 0.753165 0.000000 0.287174
O O9 0.250000 0.750000 0.882673
O O10 0.249673 0.626526 0.811081
O O11 0.000000 0.667431 0.882673
O O12 0.249672 0.626527 0.954265
O O13 0.500000 0.582623 0.464440
O O14 0.253157 0.500000 0.478172
O O15 0.500000 0.917854 0.024601
O O16 0.752915 0.878465 0.097237
O O17 0.749480 0.000000 0.021797
O O18 0.500000 0.168560 0.161483
O O19 0.750000 0.250000 0.158123
O O20 0.750520 0.500000 0.743548
O O21 0.000000 0.417854 0.740746
#
# Coordination Sequence:
#
# PCOD9348536 Si02
#       7
#     8   8   8   8   8   8   8
#     4  11  22  35  53  78 109 142 178 221 266 315
#     4   9  19  37  59  81 106 137 174 217 266 320
#     4  10  19  33  55  79 107 140 172 212 260 310
#     4   9  19  37  59  81 106 137 174 217 266 320
#     4   9  18  33  54  79 104 135 178 221 260 308
#     4  11  22  35  53  78 109 142 178 221 266 315
#     4   9  18  33  54  79 104 135 178 221 260 308
#
# _framework density 19.456256
#
# number of rings (size 3 to 8) (size 9 to 14) (size 15 to 20)
#    0.000    2.286    0.000    3.857    0.000    4.571 
#    0.000    2.857    0.000    5.143    0.000    0.000 
#    0.000    0.000    0.000    0.000    0.000    0.000 
#
# Total GULP energy -156373.852243 kJ/mol
# GULP energy per Si atom -5584.780437 kJ/mol
# Density = 1.941197 g / cm^3
# Si number density = 19.456256 Si / 1000 Ang^3
#
#
#
# Elastic Constant Matrix: (Units=GPa)
#
#
# Indices 1 2 3 4 5 6 
#
# 1 13.6328 18.0512 19.7648 0.0000 0.0000 0.0000
# 2 18.0512 204.4618 135.1202 0.0000 0.0000 0.0000
# 3 19.7648 135.1202 182.7639 0.0000 0.0000 0.0000
# 4 0.0000 0.0000 0.0000 -32.8582 0.0000 0.0000
# 5 0.0000 0.0000 0.0000 0.0000 -5.4459 0.0000
# 6 0.0000 0.0000 0.0000 0.0000 0.0000 3.9790
#
#
#
# Elastic Compliance Matrix: (Units=1/GPa)
#
#
# Indices 1 2 3 4 5 6 
#
# 1 0.087856 -0.002889 -0.007365 0.000000 0.000000 0.000000
# 2 -0.002889 0.009658 -0.006828 0.000000 0.000000 0.000000
# 3 -0.007365 -0.006828 0.011316 0.000000 0.000000 0.000000
# 4 0.000000 0.000000 0.000000 -0.030434 0.000000 0.000000
# 5 0.000000 0.000000 0.000000 0.000000 -0.183626 0.000000
# 6 0.000000 0.000000 0.000000 0.000000 0.000000 0.251318
#
#
# Mechanical properties :
#
#
# Convention : Reuss Voigt Hill
#
# Bulk Modulus (GPa) = 13.39300 82.97010 48.18155
# Shear Modulus (GPa) = 24.37325 8.32981 16.35153
#
# Velocity S-wave (km/s) = 3.54322 2.07138 2.90215
# Velocity P-wave (km/s) = 4.86187 6.96116 6.00398
#
# Compressibility (1/GPa) = 0.07466585
#
# Stress axis : x y z
#
# Youngs Moduli (GPa) = 11.38224 103.53655 88.36888
#
# Poissons Ratio (x) = 0.29915 0.65084
# Poissons Ratio (y) = 0.03289 0.60340
# Poissons Ratio (z) = 0.08383 0.70697
#
# Static dielectric constant tensor:
#      x y z
#    x 1.689220 0.000000 0.000000 
#    y 0.000000 1.650210 0.000000 
#    z 0.000000 0.000000 1.669860 
# 
# From -- ./inp_files/15649.got.cif
#   From: 2010.05.17/outbox.cif.g08.bks.cpg/sg35_8_cif.got.tgz:15649.got - 2010.06.03 17:29:28.
