data_PCOD9348081
_publ_section_title
;
Structure prediction by ZEFSAII (Michael W. Deem and Ramdas Pophale) SiO2 
 PCOD9348081
Probable space group: C M M 2
;
_chemical_formula_sum "Si O2"
_cell_formula_units_Z 64
_cell_length_a 19.818298
_cell_length_b 19.310210
_cell_length_c 9.566659
_cell_angle_alpha 90.000000
_cell_angle_beta 90.000000
_cell_angle_gamma 90.000000
_cell_volume 3661.117313
_symmetry_space_group_name_H-M "C M M 2"
_symmetry_group_IT_number 35
_symmetry_cell_setting 'orthorhombic'
loop_
_space_group_symop_operation_xyz
x,y,z
-x,-y,z
-x,y,z
x,-y,z
1/2+x,1/2+y,z
1/2-x,1/2-y,z
1/2-x,1/2+y,z
1/2+x,1/2-y,z
loop_
_atom_site_type_symbol
_atom_site_label
_atom_site_fract_x
_atom_site_fract_y
_atom_site_fract_z
Si Si1 0.658361 0.824545 0.105630
Si Si2 0.424257 0.166963 0.830715
Si Si3 0.419691 0.919643 0.318887
Si Si4 0.721287 0.673837 0.708171
Si Si5 0.573726 0.323379 0.710807
Si Si6 0.805434 0.833147 0.046595
Si Si7 0.845762 0.580520 0.614542
Si Si8 0.926593 0.918983 0.985256
O O1 0.609208 0.861771 0.214165
O O2 0.734973 0.850780 0.119255
O O3 0.667063 0.740995 0.100666
O O4 0.628666 0.841655 0.953943
O O5 0.500000 0.154370 0.881678
O O6 0.421662 0.245630 0.773482
O O7 0.403056 0.115479 0.709449
O O8 0.500000 0.909310 0.346013
O O9 0.374126 0.913629 0.457748
O O10 0.412587 0.000000 0.267627
O O11 0.750000 0.750000 0.678515
O O12 0.646653 0.664623 0.641633
O O13 0.776357 0.620277 0.650787
O O14 0.711074 0.670462 0.878360
O O15 0.500000 0.328733 0.638304
O O16 0.571969 0.376887 0.839925
O O17 0.863795 0.888607 0.067912
O O18 0.837593 0.500000 0.648307
O O19 0.000000 0.907556 0.053019
O O20 0.918540 0.000000 0.958225
#
# Coordination Sequence:
#
# PCOD9348081 Si02
#       8
#     8   8   8   8   8   8   8   8
#     4  11  19  36  57  84 112 150 192 235 298 351
#     4  11  19  32  58  86 111 148 191 238 297 358
#     4  10  24  44  59  79 120 163 201 248 296 352
#     4  11  16  34  55  82 115 149 182 238 294 347
#     4   9  17  29  48  78 116 149 178 227 291 345
#     4  10  18  32  54  82 118 140 180 243 295 341
#     4  11  23  39  59  83 113 157 201 245 300 355
#     4   9  17  28  45  72 108 150 183 217 281 350
#
# _framework density 17.481000999999999
#
# number of rings (size 3 to 8) (size 9 to 14) (size 15 to 20)
#    0.000    1.750    6.250    0.750    0.000    4.250 
#    2.250    0.000    0.000    0.000    0.000    0.000 
#    0.000    1.000    0.000    0.000    0.000    0.000 
#
# Total GULP energy -178206.269538 kJ/mol
# GULP energy per Si atom -5568.945923 kJ/mol
# Density = 1.744121 g / cm^3
# Si number density = 17.481001 Si / 1000 Ang^3
#
#
#
# Elastic Constant Matrix: (Units=GPa)
#
#
# Indices 1 2 3 4 5 6 
#
# 1 140.8189 58.3106 13.1566 0.0000 0.0000 0.0000
# 2 58.3106 105.6475 29.7654 0.0000 0.0000 0.0000
# 3 13.1566 29.7654 23.9911 0.0000 0.0000 0.0000
# 4 0.0000 0.0000 0.0000 8.7938 0.0000 0.0000
# 5 0.0000 0.0000 0.0000 0.0000 21.5874 0.0000
# 6 0.0000 0.0000 0.0000 0.0000 0.0000 3.2450
#
#
#
# Elastic Compliance Matrix: (Units=1/GPa)
#
#
# Indices 1 2 3 4 5 6 
#
# 1 0.009264 -0.005660 0.001942 0.000000 0.000000 0.000000
# 2 -0.005660 0.018011 -0.019241 0.000000 0.000000 0.000000
# 3 0.001942 -0.019241 0.064489 0.000000 0.000000 0.000000
# 4 0.000000 0.000000 0.000000 0.113717 0.000000 0.000000
# 5 0.000000 0.000000 0.000000 0.000000 0.046323 0.000000
# 6 0.000000 0.000000 0.000000 0.000000 0.000000 0.308163
#
#
# Mechanical properties :
#
#
# Convention : Reuss Voigt Hill
#
# Bulk Modulus (GPa) = 21.81256 52.54695 37.17975
# Shear Modulus (GPa) = 8.04936 18.00690 13.02813
#
# Velocity S-wave (km/s) = 2.14817 3.21297 2.73293
# Velocity P-wave (km/s) = 4.31947 6.62488 5.59226
#
# Compressibility (1/GPa) = 0.04584516
#
# Stress axis : x y z
#
# Youngs Moduli (GPa) = 107.94915 55.52280 15.50642
#
# Poissons Ratio (x) = 0.31427 -0.03012
# Poissons Ratio (y) = 0.61101 0.29837
# Poissons Ratio (z) = -0.20968 1.06834
#
# Static dielectric constant tensor:
#      x y z
#    x 1.641820 0.000000 0.000000 
#    y 0.000000 1.583000 0.000000 
#    z 0.000000 0.000000 1.578690 
# 
# From -- ./inp_files/9432.got.cif
#   From: 2010.05.17/outbox.cif.g08.bks.cpg/sg35_5_cif.got.tgz:9432.got - 2010.06.03 17:29:28.
