data_PCOD9348455
_publ_section_title
;
Structure prediction by ZEFSAII (Michael W. Deem and Ramdas Pophale) SiO2 
 PCOD9348455
Probable space group: C M M 2
;
_chemical_formula_sum "Si O2"
_cell_formula_units_Z 64
_cell_length_a 19.070386
_cell_length_b 15.758497
_cell_length_c 11.465800
_cell_angle_alpha 90.000000
_cell_angle_beta 90.000000
_cell_angle_gamma 90.000000
_cell_volume 3445.709331
_symmetry_space_group_name_H-M "C M M 2"
_symmetry_group_IT_number 35
_symmetry_cell_setting 'orthorhombic'
loop_
_space_group_symop_operation_xyz
x,y,z
-x,-y,z
-x,y,z
x,-y,z
1/2+x,1/2+y,z
1/2-x,1/2-y,z
1/2-x,1/2+y,z
1/2+x,1/2-y,z
loop_
_atom_site_type_symbol
_atom_site_label
_atom_site_fract_x
_atom_site_fract_y
_atom_site_fract_z
Si Si1 0.580347 0.903447 0.244600
Si Si2 0.851076 0.601677 0.758877
Si Si3 0.667050 0.247973 0.347447
Si Si4 0.579753 0.164882 0.992592
Si Si5 0.578161 0.404310 0.742367
Si Si6 0.179609 0.801220 0.108965
Si Si7 0.215689 0.096807 0.891742
Si Si8 0.082233 0.737733 0.583559
O O1 0.500000 0.876573 0.275399
O O2 0.638833 0.841558 0.295915
O O3 0.584385 0.896725 0.104297
O O4 0.589888 0.000000 0.282506
O O5 0.851022 0.500000 0.729987
O O6 0.774619 0.634348 0.805117
O O7 0.880423 0.661306 0.655514
O O8 0.897587 0.619651 0.874034
O O9 0.750000 0.250000 0.375639
O O10 0.650458 0.313260 0.239886
O O11 0.622167 0.257503 0.463866
O O12 0.500000 0.194395 0.980589
O O13 0.628433 0.243497 0.030395
O O14 0.500000 0.400339 0.794873
O O15 0.585162 0.500000 0.689930
O O16 0.639876 0.395713 0.834477
O O17 0.584464 0.325105 0.656651
O O18 0.250000 0.750000 0.135007
O O19 0.207480 0.873014 0.023539
O O20 0.237983 0.000000 0.897010
O O21 0.000000 0.716033 0.565625
#
# Coordination Sequence:
#
# PCOD9348455 Si02
#       8
#     8   8   8   8   8   8   8   8
#     4   9  18  35  60  86 117 159 201 248 309 375
#     4  11  23  36  56  90 127 160 194 243 305 374
#     4  10  23  39  56  83 116 157 208 253 295 352
#     4  10  19  32  55  87 118 152 194 241 302 370
#     4   9  20  39  61  85 113 148 196 248 299 362
#     4  10  19  37  57  80 113 155 193 241 297 356
#     4  10  21  36  59  89 120 151 188 240 309 372
#     4  11  24  40  60  84 116 165 209 250 300 350
#
# _framework density 18.573824999999999
#
# number of rings (size 3 to 8) (size 9 to 14) (size 15 to 20)
#    0.000    2.000    1.250    1.875    1.750    4.000 
#    0.000    1.250    0.000    0.000    0.000    0.000 
#    0.000    0.000    0.000    0.000    0.000    0.000 
#
# Total GULP energy -178215.901531 kJ/mol
# GULP energy per Si atom -5569.246923 kJ/mol
# Density = 1.853155 g / cm^3
# Si number density = 18.573825 Si / 1000 Ang^3
#
#
#
# Elastic Constant Matrix: (Units=GPa)
#
#
# Indices 1 2 3 4 5 6 
#
# 1 104.8216 43.6741 40.7332 0.0000 0.0000 0.0000
# 2 43.6741 44.6819 37.9025 0.0000 0.0000 0.0000
# 3 40.7332 37.9025 92.5450 0.0000 0.0000 0.0000
# 4 0.0000 0.0000 0.0000 8.9470 0.0000 0.0000
# 5 0.0000 0.0000 0.0000 0.0000 -8.5340 0.0000
# 6 0.0000 0.0000 0.0000 0.0000 0.0000 22.1616
#
#
#
# Elastic Compliance Matrix: (Units=1/GPa)
#
#
# Indices 1 2 3 4 5 6 
#
# 1 0.016153 -0.014953 -0.000986 0.000000 0.000000 0.000000
# 2 -0.014953 0.048136 -0.013133 0.000000 0.000000 0.000000
# 3 -0.000986 -0.013133 0.016618 0.000000 0.000000 0.000000
# 4 0.000000 0.000000 0.000000 0.111769 0.000000 0.000000
# 5 0.000000 0.000000 0.000000 0.000000 -0.117178 0.000000
# 6 0.000000 0.000000 0.000000 0.000000 0.000000 0.045123
#
#
# Mechanical properties :
#
#
# Convention : Reuss Voigt Hill
#
# Bulk Modulus (GPa) = 43.92810 54.07422 49.00116
# Shear Modulus (GPa) = 26.83071 12.49749 19.66410
#
# Velocity S-wave (km/s) = 3.80484 2.59676 3.25730
# Velocity P-wave (km/s) = 6.55777 6.17796 6.37069
#
# Compressibility (1/GPa) = 0.02276447
#
# Stress axis : x y z
#
# Youngs Moduli (GPa) = 61.90768 20.77429 60.17467
#
# Poissons Ratio (x) = 0.31063 0.05932
# Poissons Ratio (y) = 0.92568 0.79029
# Poissons Ratio (z) = 0.06103 0.27284
#
# Static dielectric constant tensor:
#      x y z
#    x 2.820390 0.000000 0.000000 
#    y 0.000000 1.664220 0.000000 
#    z 0.000000 0.000000 1.689190 
# 
# From -- ./inp_files/13589.got.cif
#   From: 2010.05.17/outbox.cif.g08.bks.cpg/sg35_7_cif.got.tgz:13589.got - 2010.06.03 17:29:28.
