data_PCOD9348285
_publ_section_title
;
Structure prediction by ZEFSAII (Michael W. Deem and Ramdas Pophale) SiO2 
 PCOD9348285
Probable space group: C M M 2
;
_chemical_formula_sum "Si O2"
_cell_formula_units_Z 64
_cell_length_a 16.444485
_cell_length_b 17.421490
_cell_length_c 11.877996
_cell_angle_alpha 90.000000
_cell_angle_beta 90.000000
_cell_angle_gamma 90.000000
_cell_volume 3402.896559
_symmetry_space_group_name_H-M "C M M 2"
_symmetry_group_IT_number 35
_symmetry_cell_setting 'orthorhombic'
loop_
_space_group_symop_operation_xyz
x,y,z
-x,-y,z
-x,y,z
x,-y,z
1/2+x,1/2+y,z
1/2-x,1/2-y,z
1/2-x,1/2+y,z
1/2+x,1/2-y,z
loop_
_atom_site_type_symbol
_atom_site_label
_atom_site_fract_x
_atom_site_fract_y
_atom_site_fract_z
Si Si1 0.320367 0.909017 0.309630
Si Si2 0.307292 0.590139 0.797008
Si Si3 0.596360 0.777682 0.168044
Si Si4 0.849106 0.826041 0.369094
Si Si5 0.827316 0.691741 0.737599
Si Si6 0.902891 0.322369 0.495846
Si Si7 0.912102 0.091536 0.581032
Si Si8 0.595225 0.289117 0.928089
O O1 0.357894 0.853589 0.213132
O O2 0.233499 0.870715 0.340535
O O3 0.377679 0.894279 0.418730
O O4 0.314547 0.000000 0.284725
O O5 0.316867 0.500000 0.810470
O O6 0.214746 0.616940 0.790181
O O7 0.346879 0.613192 0.675535
O O8 0.353785 0.635992 0.894261
O O9 0.500000 0.793297 0.168560
O O10 0.613114 0.707074 0.254117
O O11 0.621917 0.750095 0.044544
O O12 0.850652 0.747972 0.443172
O O13 0.896855 0.880943 0.454696
O O14 0.750000 0.750000 0.721678
O O15 0.873221 0.672479 0.623118
O O16 0.886845 0.731028 0.826366
O O17 0.000000 0.307561 0.486842
O O18 0.000000 0.121682 0.619182
O O19 0.913363 0.000000 0.580311
O O20 0.500000 0.307213 0.936438
#
# Coordination Sequence:
#
# PCOD9348285 Si02
#       8
#     8   8   8   8   8   8   8   8
#     4  11  23  38  58  83 113 148 184 227 281 339
#     4  10  21  36  57  85 115 147 182 226 283 340
#     4  10  22  40  61  82 107 143 189 236 276 325
#     4  11  20  34  55  82 113 145 186 233 279 327
#     4  10  20  34  55  82 114 150 187 229 274 327
#     4  11  21  34  57  85 114 150 192 235 276 325
#     4  10  19  31  51  81 117 152 183 220 272 333
#     4  10  21  39  61  82 107 143 189 235 276 326
#
# _framework density 18.807506
#
# number of rings (size 3 to 8) (size 9 to 14) (size 15 to 20)
#    0.000    1.625    0.000    7.875    0.000    6.250 
#    0.000    3.125    0.000    3.375    0.000    0.000 
#    0.000    0.000    0.000    0.000    0.000    0.000 
#
# Total GULP energy -178476.766527 kJ/mol
# GULP energy per Si atom -5577.398954 kJ/mol
# Density = 1.876470 g / cm^3
# Si number density = 18.807506 Si / 1000 Ang^3
#
#
#
# Elastic Constant Matrix: (Units=GPa)
#
#
# Indices 1 2 3 4 5 6 
#
# 1 53.1196 44.2500 10.7273 0.0000 0.0000 0.0000
# 2 44.2500 106.1024 54.5407 0.0000 0.0000 0.0000
# 3 10.7273 54.5407 96.7235 0.0000 0.0000 0.0000
# 4 0.0000 0.0000 0.0000 23.7229 0.0000 0.0000
# 5 0.0000 0.0000 0.0000 0.0000 41.8655 0.0000
# 6 0.0000 0.0000 0.0000 0.0000 0.0000 17.8911
#
#
#
# Elastic Compliance Matrix: (Units=1/GPa)
#
#
# Indices 1 2 3 4 5 6 
#
# 1 0.030711 -0.015570 0.005374 0.000000 0.000000 0.000000
# 2 -0.015570 0.021166 -0.010208 0.000000 0.000000 0.000000
# 3 0.005374 -0.010208 0.015499 0.000000 0.000000 0.000000
# 4 0.000000 0.000000 0.000000 0.042153 0.000000 0.000000
# 5 0.000000 0.000000 0.000000 0.000000 0.023886 0.000000
# 6 0.000000 0.000000 0.000000 0.000000 0.000000 0.055894
#
#
# Mechanical properties :
#
#
# Convention : Reuss Voigt Hill
#
# Bulk Modulus (GPa) = 37.64195 52.77573 45.20884
# Shear Modulus (GPa) = 20.92287 26.45774 23.69030
#
# Velocity S-wave (km/s) = 3.33900 3.75476 3.55296
# Velocity P-wave (km/s) = 5.90957 6.84978 6.39697
#
# Compressibility (1/GPa) = 0.02656611
#
# Stress axis : x y z
#
# Youngs Moduli (GPa) = 32.56212 47.24610 64.52039
#
# Poissons Ratio (x) = 0.73563 -0.34671
# Poissons Ratio (y) = 0.50700 0.65864
# Poissons Ratio (z) = -0.17498 0.48230
#
# Static dielectric constant tensor:
#      x y z
#    x 1.679230 0.000000 0.000000 
#    y 0.000000 1.681720 0.000000 
#    z 0.000000 0.000000 1.655410 
# 
# From -- ./inp_files/13212.got.cif
#   From: 2010.05.17/outbox.cif.g08.bks.cpg/sg35_7_cif.got.tgz:13212.got - 2010.06.03 17:29:28.
