data_PCOD9348324
_publ_section_title
;
Structure prediction by ZEFSAII (Michael W. Deem and Ramdas Pophale) SiO2 
 PCOD9348324
Probable space group: C M M 2
;
_chemical_formula_sum "Si O2"
_cell_formula_units_Z 64
_cell_length_a 29.225723
_cell_length_b 8.931956
_cell_length_c 15.944839
_cell_angle_alpha 90.000000
_cell_angle_beta 90.000000
_cell_angle_gamma 90.000000
_cell_volume 4162.286565
_symmetry_space_group_name_H-M "C M M 2"
_symmetry_group_IT_number 35
_symmetry_cell_setting 'orthorhombic'
loop_
_space_group_symop_operation_xyz
x,y,z
-x,-y,z
-x,y,z
x,-y,z
1/2+x,1/2+y,z
1/2-x,1/2-y,z
1/2-x,1/2+y,z
1/2+x,1/2-y,z
loop_
_atom_site_type_symbol
_atom_site_label
_atom_site_fract_x
_atom_site_fract_y
_atom_site_fract_z
Si Si1 0.797518 0.679576 0.444940
Si Si2 0.202383 0.820128 0.629553
Si Si3 0.053176 0.319009 0.858784
Si Si4 0.446346 0.321511 0.218002
Si Si5 0.055501 0.672373 0.044673
Si Si6 0.105486 0.179650 0.703833
Si Si7 0.395123 0.178550 0.373972
Si Si8 0.446123 0.320206 0.532577
O O1 0.793109 0.500000 0.453297
O O2 0.750000 0.750000 0.413582
O O3 0.805521 0.750961 0.537007
O O4 0.841574 0.713411 0.388418
O O5 0.250000 0.750000 0.660434
O O6 0.158554 0.784635 0.686390
O O7 0.206186 0.000000 0.622128
O O8 0.053771 0.500000 0.858204
O O9 0.084015 0.255876 0.784882
O O10 0.000000 0.272321 0.846791
O O11 0.069228 0.272195 0.952191
O O12 0.500000 0.277694 0.229307
O O13 0.443937 0.500000 0.223406
O O14 0.431445 0.267228 0.125711
O O15 0.416313 0.248985 0.290676
O O16 0.070380 0.500000 0.055572
O O17 0.000000 0.671254 0.041797
O O18 0.077537 0.223844 0.620063
O O19 0.101328 0.000000 0.712113
O O20 0.422116 0.241721 0.454379
O O21 0.400147 0.000000 0.371190
O O22 0.500000 0.286631 0.534540
O O23 0.440690 0.500000 0.523401
#
# Coordination Sequence:
#
# PCOD9348324 Si02
#       8
#     8   8   8   8   8   8   8   8
#     4  10  20  33  50  70  91 119 156 198 242 284
#     4  10  19  32  50  69  91 121 157 199 244 283
#     4   9  18  31  48  71  98 128 161 197 236 278
#     4  10  20  32  48  71  97 127 162 197 234 278
#     4   8  15  30  49  68  93 124 157 196 240 280
#     4  10  20  32  47  68  95 128 161 195 237 282
#     4  11  22  33  47  69  95 125 160 196 236 281
#     4  10  20  33  46  62  92 132 166 194 228 272
#
# _framework density 15.376163999999999
#
# number of rings (size 3 to 8) (size 9 to 14) (size 15 to 20)
#    0.000    2.250    1.250    3.750    0.000    6.750 
#    0.000    1.250    0.000    0.000    0.000    0.875 
#    0.000    6.000    0.000    0.000    0.000    0.000 
#
# Total GULP energy -178476.052740 kJ/mol
# GULP energy per Si atom -5577.376648 kJ/mol
# Density = 1.534117 g / cm^3
# Si number density = 15.376164 Si / 1000 Ang^3
#
#
#
# Elastic Constant Matrix: (Units=GPa)
#
#
# Indices 1 2 3 4 5 6 
#
# 1 114.5879 52.4686 79.5686 0.0000 0.0000 0.0000
# 2 52.4686 46.1747 49.2735 0.0000 0.0000 0.0000
# 3 79.5686 49.2735 140.9825 0.0000 0.0000 0.0000
# 4 0.0000 0.0000 0.0000 27.0330 0.0000 0.0000
# 5 0.0000 0.0000 0.0000 0.0000 6.3789 0.0000
# 6 0.0000 0.0000 0.0000 0.0000 0.0000 23.7123
#
#
#
# Elastic Compliance Matrix: (Units=1/GPa)
#
#
# Indices 1 2 3 4 5 6 
#
# 1 0.020543 -0.017496 -0.005479 0.000000 0.000000 0.000000
# 2 -0.017496 0.049439 -0.007404 0.000000 0.000000 0.000000
# 3 -0.005479 -0.007404 0.012773 0.000000 0.000000 0.000000
# 4 0.000000 0.000000 0.000000 0.036992 0.000000 0.000000
# 5 0.000000 0.000000 0.000000 0.000000 0.156766 0.000000
# 6 0.000000 0.000000 0.000000 0.000000 0.000000 0.042172
#
#
# Mechanical properties :
#
#
# Convention : Reuss Voigt Hill
#
# Bulk Modulus (GPa) = 45.46312 73.81849 59.64081
# Shear Modulus (GPa) = 12.92735 19.45381 16.19058
#
# Velocity S-wave (km/s) = 2.90270 3.56081 3.24846
# Velocity P-wave (km/s) = 6.39262 8.06340 7.27613
#
# Compressibility (1/GPa) = 0.02199585
#
# Stress axis : x y z
#
# Youngs Moduli (GPa) = 48.67845 20.22686 78.28794
#
# Poissons Ratio (x) = 0.35389 0.42896
# Poissons Ratio (y) = 0.85168 0.57968
# Poissons Ratio (z) = 0.26672 0.14977
#
# Static dielectric constant tensor:
#      x y z
#    x 1.508210 0.000000 0.000000 
#    y 0.000000 1.516060 0.000000 
#    z 0.000000 0.000000 1.494080 
# 
# From -- ./inp_files/16202.got.cif
#   From: 2010.05.17/outbox.cif.g08.bks.cpg/sg35_9_cif.got.tgz:16202.got - 2010.06.03 17:29:28.
