data_PCOD9348015
_publ_section_title
;
Structure prediction by ZEFSAII (Michael W. Deem and Ramdas Pophale) SiO2 
 PCOD9348015
Probable space group: P N N 2
;
_chemical_formula_sum "Si O2"
_cell_formula_units_Z 20
_cell_length_a 22.223326
_cell_length_b 5.042866
_cell_length_c 7.071045
_cell_angle_alpha 90.000000
_cell_angle_beta 90.000000
_cell_angle_gamma 90.000000
_cell_volume 792.446746
_symmetry_space_group_name_H-M "P N N 2"
_symmetry_group_IT_number 34
_symmetry_cell_setting 'orthorhombic'
loop_
_space_group_symop_operation_xyz
x,y,z
-x,-y,z
1/2-x,1/2+y,1/2+z
1/2+x,1/2-y,1/2+z
loop_
_atom_site_type_symbol
_atom_site_label
_atom_site_fract_x
_atom_site_fract_y
_atom_site_fract_z
Si Si1 0.500000 0.000000 0.224850
Si Si2 0.183394 0.078880 0.497742
Si Si3 0.402804 0.121270 0.495626
Si Si4 0.000000 0.000000 0.122872
Si Si5 0.289744 0.079702 0.231503
Si Si6 0.427701 0.895224 0.880212
O O1 0.447895 0.925647 0.378607
O O2 0.549174 0.930159 0.057637
O O3 0.224135 0.131205 0.314717
O O4 0.205522 0.279124 0.661153
O O5 0.115539 0.167669 0.461340
O O6 0.194308 0.780399 0.563483
O O7 0.444625 0.383498 0.501460
O O8 0.339913 0.135099 0.391052
O O9 0.393912 0.050001 0.714225
O O10 0.021810 0.233894 0.262295
#
# Coordination Sequence:
#
# PCOD9348015 Si02
#       6
#     2   4   4   2   4   4
#     4  12  22  50  66 106 154 196 248 298 390 442
#     4  12  29  51  80 111 151 201 254 317 379 449
#     4  12  27  47  72 110 153 196 254 312 373 453
#     4  12  26  42  74 106 154 200 238 320 366 448
#     4  12  29  51  80 111 151 201 254 317 379 449
#     4  12  27  47  72 110 153 196 254 312 373 453
#
# _framework density 25.238292000000001
#
# number of rings (size 3 to 8) (size 9 to 14) (size 15 to 20)
#    0.000    0.000    6.000    2.400   14.000    0.000 
#    0.000    0.000    0.000    0.000    0.000    0.000 
#    0.000    0.000    0.000    0.000    0.000    0.000 
#
# Total GULP energy -111585.259110 kJ/mol
# GULP energy per Si atom -5579.262955 kJ/mol
# Density = 2.518085 g / cm^3
# Si number density = 25.238292 Si / 1000 Ang^3
#
#
#
# Elastic Constant Matrix: (Units=GPa)
#
#
# Indices 1 2 3 4 5 6 
#
# 1 56.4177 -5.6087 6.8493 0.0000 0.0000 0.0000
# 2 -5.6087 71.7353 3.3575 0.0000 0.0000 0.0000
# 3 6.8493 3.3575 120.1205 0.0000 0.0000 0.0000
# 4 0.0000 0.0000 0.0000 18.9237 0.0000 0.0000
# 5 0.0000 0.0000 0.0000 0.0000 64.7328 0.0000
# 6 0.0000 0.0000 0.0000 0.0000 0.0000 27.5904
#
#
#
# Elastic Compliance Matrix: (Units=1/GPa)
#
#
# Indices 1 2 3 4 5 6 
#
# 1 0.017999 0.001457 -0.001067 0.000000 0.000000 0.000000
# 2 0.001457 0.014076 -0.000477 0.000000 0.000000 0.000000
# 3 -0.001067 -0.000477 0.008399 0.000000 0.000000 0.000000
# 4 0.000000 0.000000 0.000000 0.052844 0.000000 0.000000
# 5 0.000000 0.000000 0.000000 0.000000 0.015448 0.000000
# 6 0.000000 0.000000 0.000000 0.000000 0.000000 0.036244
#
#
# Mechanical properties :
#
#
# Convention : Reuss Voigt Hill
#
# Bulk Modulus (GPa) = 24.81256 28.60773 26.71015
# Shear Modulus (GPa) = 31.52228 38.49441 35.00834
#
# Velocity S-wave (km/s) = 3.53793 3.90967 3.72844
# Velocity P-wave (km/s) = 5.15189 5.63385 5.39825
#
# Compressibility (1/GPa) = 0.04030217
#
# Stress axis : x y z
#
# Youngs Moduli (GPa) = 55.55754 71.04100 119.05988
#
# Poissons Ratio (x) = -0.10352 0.12704
# Poissons Ratio (y) = -0.08096 0.05674
# Poissons Ratio (z) = 0.05928 0.03385
#
# Static dielectric constant tensor:
#      x y z
#    x 2.019960 0.000000 0.000000 
#    y 0.000000 2.071380 0.000000 
#    z 0.000000 0.000000 1.963650 
# 
# From -- ./inp_files/156.got.cif
#   From: 2010.05.17/outbox.cif.g08.bks.cpg/sg34_1_cif.got.tgz:156.got - 2010.06.03 17:23:11.
