data_PCOD9348359
_publ_section_title
;
Structure prediction by ZEFSAII (Michael W. Deem and Ramdas Pophale) SiO2 
 PCOD9348359
Probable space group: C M M 2
;
_chemical_formula_sum "Si O2"
_cell_formula_units_Z 56
_cell_length_a 8.546459
_cell_length_b 19.561424
_cell_length_c 18.456549
_cell_angle_alpha 90.000000
_cell_angle_beta 90.000000
_cell_angle_gamma 90.000000
_cell_volume 3085.582624
_symmetry_space_group_name_H-M "C M M 2"
_symmetry_group_IT_number 35
_symmetry_cell_setting 'orthorhombic'
loop_
_space_group_symop_operation_xyz
x,y,z
-x,-y,z
-x,y,z
x,-y,z
1/2+x,1/2+y,z
1/2-x,1/2-y,z
1/2-x,1/2+y,z
1/2+x,1/2-y,z
loop_
_atom_site_type_symbol
_atom_site_label
_atom_site_fract_x
_atom_site_fract_y
_atom_site_fract_z
Si Si1 0.687622 0.579175 0.093240
Si Si2 0.813672 0.826989 0.381474
Si Si3 0.812834 0.579817 0.252939
Si Si4 0.188210 0.326922 0.536610
Si Si5 0.812147 0.327071 0.964500
Si Si6 0.690531 0.078524 0.668469
Si Si7 0.309394 0.921242 0.831913
O O1 0.500000 0.582071 0.091404
O O2 0.735892 0.500000 0.078825
O O3 0.746174 0.597276 0.173704
O O4 0.756547 0.629989 0.033910
O O5 0.750000 0.750000 0.371773
O O6 0.757531 0.873661 0.315647
O O7 0.748387 0.852578 0.458790
O O8 0.000000 0.824708 0.384654
O O9 0.774615 0.500000 0.266229
O O10 0.000000 0.587039 0.251913
O O11 0.250000 0.250000 0.545133
O O12 0.243051 0.372598 0.604040
O O13 0.000000 0.326114 0.535146
O O14 0.750000 0.250000 0.965452
O O15 0.756795 0.368819 0.893293
O O16 0.000000 0.325354 0.963768
O O17 0.500000 0.079928 0.668397
O O18 0.740212 0.097602 0.750130
O O19 0.737402 0.000000 0.655726
O O20 0.500000 0.921287 0.832493
O O21 0.261195 0.000000 0.846530
#
# Coordination Sequence:
#
# PCOD9348359 Si02
#       7
#     8   8   8   8   8   8   8
#     4  10  21  38  59  82 109 140 175 217 266 318
#     4  11  22  37  56  78 108 144 182 222 267 318
#     4  10  21  38  60  85 111 139 175 217 262 316
#     4  10  19  32  51  75 104 139 177 217 265 319
#     4  11  22  35  53  79 110 143 181 223 267 315
#     4   8  15  29  50  76 103 133 174 221 265 312
#     4   8  15  30  52  76 102 135 176 220 266 318
#
# _framework density 18.148923
#
# number of rings (size 3 to 8) (size 9 to 14) (size 15 to 20)
#    0.000    2.286    0.000    5.143    0.000    4.000 
#    0.000    4.286    0.000    3.857    0.000    8.000 
#    0.000    0.000    0.000    0.000    0.000    0.000 
#
# Total GULP energy -156287.869018 kJ/mol
# GULP energy per Si atom -5581.709608 kJ/mol
# Density = 1.810762 g / cm^3
# Si number density = 18.148923 Si / 1000 Ang^3
#
#
#
# Elastic Constant Matrix: (Units=GPa)
#
#
# Indices 1 2 3 4 5 6 
#
# 1 57.7087 37.3256 48.4357 0.0000 0.0000 0.0000
# 2 37.3256 111.8668 126.3488 0.0000 0.0000 0.0000
# 3 48.4357 126.3488 198.8623 0.0000 0.0000 0.0000
# 4 0.0000 0.0000 0.0000 2376.8272 0.0000 0.0000
# 5 0.0000 0.0000 0.0000 0.0000 17.9673 0.0000
# 6 0.0000 0.0000 0.0000 0.0000 0.0000 16.8269
#
#
#
# Elastic Compliance Matrix: (Units=1/GPa)
#
#
# Indices 1 2 3 4 5 6 
#
# 1 0.022445 -0.004655 -0.002509 0.000000 0.000000 0.000000
# 2 -0.004655 0.032621 -0.019592 0.000000 0.000000 0.000000
# 3 -0.002509 -0.019592 0.018088 0.000000 0.000000 0.000000
# 4 0.000000 0.000000 0.000000 0.000421 0.000000 0.000000
# 5 0.000000 0.000000 0.000000 0.000000 0.055657 0.000000
# 6 0.000000 0.000000 0.000000 0.000000 0.000000 0.059429
#
#
# Mechanical properties :
#
#
# Convention : Reuss Voigt Hill
#
# Bulk Modulus (GPa) = 50.91351 88.07311 69.49331
# Shear Modulus (GPa) = 20.10290 492.74612 256.42451
#
# Velocity S-wave (km/s) = 3.33177 16.49518 11.89940
# Velocity P-wave (km/s) = 6.55095 20.28352 15.07210
#
# Compressibility (1/GPa) = 0.01964115
#
# Stress axis : x y z
#
# Youngs Moduli (GPa) = 44.55277 30.65507 55.28561
#
# Poissons Ratio (x) = 0.14270 0.13873
# Poissons Ratio (y) = 0.20739 1.08317
# Poissons Ratio (z) = 0.11180 0.60060
#
# Static dielectric constant tensor:
#      x y z
#    x 1.618000 0.000000 0.000000 
#    y 0.000000 1.596610 0.000000 
#    z 0.000000 0.000000 1.612530 
# 
# From -- ./inp_files/15612.got.cif
#   From: 2010.05.17/outbox.cif.g08.bks.cpg/sg35_8_cif.got.tgz:15612.got - 2010.06.03 17:29:28.
