data_PCOD9348389
_publ_section_title
;
Structure prediction by ZEFSAII (Michael W. Deem and Ramdas Pophale) SiO2 
 PCOD9348389
Probable space group: C M M 2
;
_chemical_formula_sum "Si O2"
_cell_formula_units_Z 64
_cell_length_a 8.577119
_cell_length_b 19.222671
_cell_length_c 21.531151
_cell_angle_alpha 90.000000
_cell_angle_beta 90.000000
_cell_angle_gamma 90.000000
_cell_volume 3549.951464
_symmetry_space_group_name_H-M "C M M 2"
_symmetry_group_IT_number 35
_symmetry_cell_setting 'orthorhombic'
loop_
_space_group_symop_operation_xyz
x,y,z
-x,-y,z
-x,y,z
x,-y,z
1/2+x,1/2+y,z
1/2-x,1/2-y,z
1/2-x,1/2+y,z
1/2+x,1/2-y,z
loop_
_atom_site_type_symbol
_atom_site_label
_atom_site_fract_x
_atom_site_fract_y
_atom_site_fract_z
Si Si1 0.187968 0.419432 0.000000
Si Si2 0.311370 0.171104 0.517139
Si Si3 0.185957 0.171720 0.748400
Si Si4 0.188898 0.419218 0.635392
Si Si5 0.313600 0.580719 0.132687
Si Si6 0.687247 0.171176 0.245554
Si Si7 0.312415 0.827822 0.882549
Si Si8 0.312094 0.171183 0.381166
O O1 0.235894 0.500000 0.992721
O O2 0.254458 0.393634 0.065582
O O3 0.000000 0.417186 0.003348
O O4 0.236828 0.375391 0.940263
O O5 0.500000 0.174198 0.518197
O O6 0.250000 0.250000 0.524662
O O7 0.260748 0.121952 0.573360
O O8 0.263000 0.143002 0.448686
O O9 0.250000 0.250000 0.737690
O O10 0.245119 0.120977 0.694768
O O11 0.247473 0.148425 0.815953
O O12 0.000000 0.174684 0.749104
O O13 0.235808 0.500000 0.634063
O O14 0.000000 0.416809 0.637918
O O15 0.500000 0.582676 0.133346
O O16 0.262365 0.500000 0.138717
O O17 0.249309 0.625462 0.189283
O O18 0.500000 0.173081 0.243326
O O19 0.750000 0.250000 0.240556
O O20 0.736237 0.141994 0.313898
O O21 0.500000 0.826831 0.879361
O O22 0.250000 0.750000 0.892247
O O23 0.500000 0.171784 0.381090
O O24 0.250000 0.250000 0.381098
#
# Coordination Sequence:
#
# PCOD9348389 Si02
#       8
#     8   8   8   8   8   8   8   8
#     4   9  19  36  56  76 100 134 174 212 252 302
#     4   9  17  31  52  76 100 131 171 212 256 307
#     4  11  22  37  57  79 105 137 174 214 255 304
#     4  10  21  36  53  75 106 141 174 212 258 305
#     4  10  21  36  53  74 103 139 177 216 257 305
#     4  10  19  32  52  77 105 136 171 215 262 308
#     4  10  20  35  56  81 107 134 166 208 256 304
#     4   8  15  28  47  73 101 129 166 210 256 305
#
# _framework density 18.028414999999999
#
# number of rings (size 3 to 8) (size 9 to 14) (size 15 to 20)
#    0.000    2.375    0.000    3.375    0.000    5.000 
#    0.000    3.125    0.000    2.250    0.000    0.000 
#    0.000    0.000    0.000    0.000    0.000    0.000 
#
# Total GULP energy -178448.694042 kJ/mol
# GULP energy per Si atom -5576.521689 kJ/mol
# Density = 1.798738 g / cm^3
# Si number density = 18.028415 Si / 1000 Ang^3
#
#
#
# Elastic Constant Matrix: (Units=GPa)
#
#
# Indices 1 2 3 4 5 6 
#
# 1 34.4769 25.1450 44.9476 0.0000 0.0000 0.0000
# 2 25.1450 74.5689 101.7132 0.0000 0.0000 0.0000
# 3 44.9476 101.7132 233.1374 0.0000 0.0000 0.0000
# 4 0.0000 0.0000 0.0000 -72.2657 0.0000 0.0000
# 5 0.0000 0.0000 0.0000 0.0000 4.7950 0.0000
# 6 0.0000 0.0000 0.0000 0.0000 0.0000 22.1519
#
#
#
# Elastic Compliance Matrix: (Units=1/GPa)
#
#
# Indices 1 2 3 4 5 6 
#
# 1 0.040328 -0.007393 -0.004550 0.000000 0.000000 0.000000
# 2 -0.007393 0.034475 -0.013615 0.000000 0.000000 0.000000
# 3 -0.004550 -0.013615 0.011107 0.000000 0.000000 0.000000
# 4 0.000000 0.000000 0.000000 -0.013838 0.000000 0.000000
# 5 0.000000 0.000000 0.000000 0.000000 0.208549 0.000000
# 6 0.000000 0.000000 0.000000 0.000000 0.000000 0.045143
#
#
# Mechanical properties :
#
#
# Convention : Reuss Voigt Hill
#
# Bulk Modulus (GPa) = 28.74094 76.19942 52.47018
# Shear Modulus (GPa) = 12.87075 2.29476 7.58275
#
# Velocity S-wave (km/s) = 2.67482 1.12943 2.05308
# Velocity P-wave (km/s) = 5.05135 6.63769 5.89809
#
# Compressibility (1/GPa) = 0.03479358
#
# Stress axis : x y z
#
# Youngs Moduli (GPa) = 24.79650 29.00646 90.03664
#
# Poissons Ratio (x) = 0.21445 0.40963
# Poissons Ratio (y) = 0.18333 1.22589
# Poissons Ratio (z) = 0.11281 0.39494
#
# Static dielectric constant tensor:
#      x y z
#    x 1.623250 0.000000 0.000000 
#    y 0.000000 1.586740 0.000000 
#    z 0.000000 0.000000 1.640100 
# 
# From -- ./inp_files/18382.got.cif
#   From: 2010.05.17/outbox.cif.g08.bks.cpg/sg35_10_cif.got.tgz:18382.got - 2010.06.03 17:29:28.
