data_PCOD9348218
_publ_section_title
;
Structure prediction by ZEFSAII (Michael W. Deem and Ramdas Pophale) SiO2 
 PCOD9348218
Probable space group: C M M 2
;
_chemical_formula_sum "Si O2"
_cell_formula_units_Z 64
_cell_length_a 7.604509
_cell_length_b 18.733391
_cell_length_c 22.010452
_cell_angle_alpha 90.000000
_cell_angle_beta 90.000000
_cell_angle_gamma 90.000000
_cell_volume 3135.570264
_symmetry_space_group_name_H-M "C M M 2"
_symmetry_group_IT_number 35
_symmetry_cell_setting 'orthorhombic'
loop_
_space_group_symop_operation_xyz
x,y,z
-x,-y,z
-x,y,z
x,-y,z
1/2+x,1/2+y,z
1/2-x,1/2-y,z
1/2-x,1/2+y,z
1/2+x,1/2-y,z
loop_
_atom_site_type_symbol
_atom_site_label
_atom_site_fract_x
_atom_site_fract_y
_atom_site_fract_z
Si Si1 0.788878 0.582635 0.206260
Si Si2 0.711225 0.833398 0.457170
Si Si3 0.290315 0.418431 0.074071
Si Si4 0.209685 0.918431 0.840268
Si Si5 0.714638 0.083556 0.338598
Si Si6 0.285362 0.083556 0.575742
Si Si7 0.711122 0.082636 0.708079
Si Si8 0.288476 0.666636 0.957170
O O1 0.727056 0.500000 0.204472
O O2 0.739583 0.614072 0.141092
O O3 0.728562 0.611160 0.271823
O O4 0.000000 0.581786 0.207992
O O5 0.500000 0.842344 0.457170
O O6 0.750000 0.750000 0.457170
O O7 0.777809 0.871479 0.395958
O O8 0.777809 0.871479 0.518381
O O9 0.500000 0.423529 0.066883
O O10 0.219751 0.500000 0.072552
O O11 0.221421 0.372177 0.018086
O O12 0.239583 0.885928 0.773247
O O13 0.278579 0.872177 0.896254
O O14 0.000000 0.923529 0.847457
O O15 0.280250 0.000000 0.841788
O O16 0.500000 0.085179 0.339126
O O17 0.763541 0.000000 0.344336
O O18 0.500000 0.085179 0.575214
O O19 0.228562 0.111160 0.642516
O O20 0.236459 0.000000 0.570004
O O21 0.500000 0.081786 0.706347
O O22 0.772944 0.000000 0.709867
O O23 0.500000 0.659234 0.957170
O O24 0.250000 0.750000 0.957170
#
# Coordination Sequence:
#
# PCOD9348218 Si02
#       8
#     8   8   8   8   8   8   8   8
#     4   8  14  26  46  72  96 115 144 190 234 268
#     4  10  19  31  47  67  93 124 156 190 228 270
#     4   9  17  31  51  72  93 119 151 186 227 275
#     4   9  17  31  51  72  93 119 151 186 227 275
#     4   8  14  27  49  72  90 115 155 195 226 263
#     4   8  14  27  49  72  90 115 155 195 226 263
#     4   8  14  26  46  72  96 115 144 190 234 268
#     4  10  21  35  49  67  93 124 156 190 226 266
#
# _framework density 20.410959999999999
#
# number of rings (size 3 to 8) (size 9 to 14) (size 15 to 20)
#    0.000    3.250    0.000    2.250    0.000    4.000 
#    0.000    2.500    0.000   12.750    0.000    0.000 
#    0.000    0.000    0.000    0.000    0.000    0.000 
#
# Total GULP energy -178279.849259 kJ/mol
# GULP energy per Si atom -5571.245289 kJ/mol
# Density = 2.036450 g / cm^3
# Si number density = 20.410960 Si / 1000 Ang^3
#
#
#
# Elastic Constant Matrix: (Units=GPa)
#
#
# Indices 1 2 3 4 5 6 
#
# 1 40.3889 -0.3076 9.7321 0.0000 0.0000 0.0000
# 2 -0.3076 78.0635 99.3020 0.0000 0.0000 0.0000
# 3 9.7321 99.3020 274.4265 0.0000 0.0000 0.0000
# 4 0.0000 0.0000 0.0000 -4.4583 0.0000 0.0000
# 5 0.0000 0.0000 0.0000 0.0000 31.5198 0.0000
# 6 0.0000 0.0000 0.0000 0.0000 0.0000 16.4029
#
#
#
# Elastic Compliance Matrix: (Units=1/GPa)
#
#
# Indices 1 2 3 4 5 6 
#
# 1 0.025192 0.002290 -0.001722 0.000000 0.000000 0.000000
# 2 0.002290 0.023944 -0.008745 0.000000 0.000000 0.000000
# 3 -0.001722 -0.008745 0.006870 0.000000 0.000000 0.000000
# 4 0.000000 0.000000 0.000000 -0.224299 0.000000 0.000000
# 5 0.000000 0.000000 0.000000 0.000000 0.031726 0.000000
# 6 0.000000 0.000000 0.000000 0.000000 0.000000 0.060965
#
#
# Mechanical properties :
#
#
# Convention : Reuss Voigt Hill
#
# Bulk Modulus (GPa) = 25.22084 67.81464 46.51774
# Shear Modulus (GPa) = -108.62034 27.63637 -40.49198
#
# Velocity S-wave (km/s) = -7.30289 3.68366 -4.45886
# Velocity P-wave (km/s) = 7.66331 7.16863 1.91534
#
# Compressibility (1/GPa) = 0.03964976
#
# Stress axis : x y z
#
# Youngs Moduli (GPa) = 39.69577 41.76456 145.57008
#
# Poissons Ratio (x) = -0.09563 0.25066
# Poissons Ratio (y) = -0.09089 1.27306
# Poissons Ratio (z) = 0.06835 0.36524
#
# Static dielectric constant tensor:
#      x y z
#    x 1.773040 0.000000 0.000000 
#    y 0.000000 1.670890 0.000000 
#    z 0.000000 0.000000 1.779980 
# 
# From -- ./inp_files/18656.got.cif
#   From: 2010.05.17/outbox.cif.g08.bks.cpg/sg35_10_cif.got.tgz:18656.got - 2010.06.03 17:29:28.
