data_PCOD9348352
_publ_section_title
;
Structure prediction by ZEFSAII (Michael W. Deem and Ramdas Pophale) SiO2 
 PCOD9348352
Probable space group: C M M 2
;
_chemical_formula_sum "Si O2"
_cell_formula_units_Z 48
_cell_length_a 8.357023
_cell_length_b 19.115143
_cell_length_c 16.009239
_cell_angle_alpha 90.000000
_cell_angle_beta 90.000000
_cell_angle_gamma 90.000000
_cell_volume 2557.406926
_symmetry_space_group_name_H-M "C M M 2"
_symmetry_group_IT_number 35
_symmetry_cell_setting 'orthorhombic'
loop_
_space_group_symop_operation_xyz
x,y,z
-x,-y,z
-x,y,z
x,-y,z
1/2+x,1/2+y,z
1/2-x,1/2-y,z
1/2-x,1/2+y,z
1/2+x,1/2-y,z
loop_
_atom_site_type_symbol
_atom_site_label
_atom_site_fract_x
_atom_site_fract_y
_atom_site_fract_z
Si Si1 0.191880 0.329406 0.735240
Si Si2 0.804367 0.080693 0.075856
Si Si3 0.193297 0.418747 0.391145
Si Si4 0.691104 0.670489 0.235433
Si Si5 0.308360 0.329850 0.916382
Si Si6 0.805038 0.419317 0.578536
O O1 0.250000 0.250000 0.727203
O O2 0.250457 0.355116 0.825622
O O3 0.251378 0.373189 0.655843
O O4 0.000000 0.330530 0.735671
O O5 0.750538 0.124829 0.156371
O O6 0.000000 0.080294 0.076297
O O7 0.752036 0.000000 0.078965
O O8 0.753454 0.120613 0.991742
O O9 0.242117 0.500000 0.377254
O O10 0.256713 0.368211 0.319922
O O11 0.245162 0.397696 0.485056
O O12 0.000000 0.417395 0.389369
O O13 0.500000 0.671492 0.232095
O O14 0.750000 0.750000 0.231609
O O15 0.500000 0.328497 0.916081
O O16 0.250000 0.250000 0.928430
O O17 0.758342 0.500000 0.590049
O O18 0.000000 0.417207 0.578837
#
# Coordination Sequence:
#
# PCOD9348352 Si02
#       6
#     8   8   8   8   8   8
#     4  10  19  32  51  74 102 134 169 208 250 298
#     4   9  19  35  54  76 102 133 167 206 256 309
#     4   9  18  35  57  79 105 137 173 213 259 310
#     4  11  22  36  55  78 106 138 174 214 257 307
#     4  10  19  33  53  74 100 133 168 207 251 300
#     4   8  16  32  53  75 101 135 170 206 252 302
#
# _framework density 18.769010999999999
#
# number of rings (size 3 to 8) (size 9 to 14) (size 15 to 20)
#    0.000    2.500    0.000    4.500    0.000    2.333 
#    0.000    5.833    0.000    9.000    0.000    0.000 
#    0.000    0.000    0.000    0.000    0.000    0.000 
#
# Total GULP energy -133917.929319 kJ/mol
# GULP energy per Si atom -5579.913722 kJ/mol
# Density = 1.872629 g / cm^3
# Si number density = 18.769011 Si / 1000 Ang^3
#
#
#
# Elastic Constant Matrix: (Units=GPa)
#
#
# Indices 1 2 3 4 5 6 
#
# 1 27.4337 20.3177 27.1751 0.0000 0.0000 0.0000
# 2 20.3177 130.2058 129.5291 0.0000 0.0000 0.0000
# 3 27.1751 129.5291 223.4492 0.0000 0.0000 0.0000
# 4 0.0000 0.0000 0.0000 42.9655 0.0000 0.0000
# 5 0.0000 0.0000 0.0000 0.0000 7.3019 0.0000
# 6 0.0000 0.0000 0.0000 0.0000 0.0000 6.1386
#
#
#
# Elastic Compliance Matrix: (Units=1/GPa)
#
#
# Indices 1 2 3 4 5 6 
#
# 1 0.042104 -0.003487 -0.003099 0.000000 0.000000 0.000000
# 2 -0.003487 0.018431 -0.010260 0.000000 0.000000 0.000000
# 3 -0.003099 -0.010260 0.010800 0.000000 0.000000 0.000000
# 4 0.000000 0.000000 0.000000 0.023274 0.000000 0.000000
# 5 0.000000 0.000000 0.000000 0.000000 0.136950 0.000000
# 6 0.000000 0.000000 0.000000 0.000000 0.000000 0.162903
#
#
# Mechanical properties :
#
#
# Convention : Reuss Voigt Hill
#
# Bulk Modulus (GPa) = 26.56577 81.68138 54.12358
# Shear Modulus (GPa) = 11.34554 24.88568 18.11561
#
# Velocity S-wave (km/s) = 2.46129 3.64523 3.11012
# Velocity P-wave (km/s) = 4.71827 7.83139 6.46501
#
# Compressibility (1/GPa) = 0.03764242
#
# Stress axis : x y z
#
# Youngs Moduli (GPa) = 23.75068 54.25674 92.59517
#
# Poissons Ratio (x) = 0.18919 0.28697
# Poissons Ratio (y) = 0.08282 0.95002
# Poissons Ratio (z) = 0.07361 0.55667
#
# Static dielectric constant tensor:
#      x y z
#    x 1.651640 0.000000 0.000000 
#    y 0.000000 1.622300 0.000000 
#    z 0.000000 0.000000 1.655520 
# 
# From -- ./inp_files/17075.got.cif
#   From: 2010.05.17/outbox.cif.g08.bks.cpg/sg35_9_cif.got.tgz:17075.got - 2010.06.03 17:29:28.
