data_PCOD9348690
_publ_section_title
;
Structure prediction by ZEFSAII (Michael W. Deem and Ramdas Pophale) SiO2 
 PCOD9348690
Probable space group: C M M 2
;
_chemical_formula_sum "Si O2"
_cell_formula_units_Z 64
_cell_length_a 15.674592
_cell_length_b 17.647053
_cell_length_c 12.033076
_cell_angle_alpha 90.000000
_cell_angle_beta 90.000000
_cell_angle_gamma 90.000000
_cell_volume 3328.473433
_symmetry_space_group_name_H-M "C M M 2"
_symmetry_group_IT_number 35
_symmetry_cell_setting 'orthorhombic'
loop_
_space_group_symop_operation_xyz
x,y,z
-x,-y,z
-x,y,z
x,-y,z
1/2+x,1/2+y,z
1/2-x,1/2-y,z
1/2-x,1/2+y,z
1/2+x,1/2-y,z
loop_
_atom_site_type_symbol
_atom_site_label
_atom_site_fract_x
_atom_site_fract_y
_atom_site_fract_z
Si Si1 0.400835 0.316643 0.612150
Si Si2 0.863716 0.588754 0.836491
Si Si3 0.246820 0.157940 0.231697
Si Si4 0.406252 0.139815 0.595122
Si Si5 0.763080 0.911777 0.475247
Si Si6 0.596321 0.332926 0.071379
Si Si7 0.694357 0.327534 0.844405
Si Si8 0.093543 0.349917 0.080800
O O1 0.500000 0.339948 0.608094
O O2 0.396040 0.229314 0.573050
O O3 0.337848 0.367250 0.539068
O O4 0.364780 0.318033 0.737449
O O5 0.882031 0.500000 0.833603
O O6 0.903637 0.627521 0.728065
O O7 0.763419 0.606843 0.826698
O O8 0.893019 0.622548 0.954414
O O9 0.250000 0.250000 0.237772
O O10 0.248000 0.123657 0.353574
O O11 0.160214 0.138272 0.165929
O O12 0.327153 0.129186 0.158807
O O13 0.500000 0.115123 0.554811
O O14 0.325893 0.098634 0.541343
O O15 0.783832 0.000000 0.468258
O O16 0.500000 0.362071 0.079179
O O17 0.592928 0.241413 0.080741
O O18 0.639255 0.345770 0.952234
O O19 0.750000 0.250000 0.861155
O O20 0.000000 0.376495 0.119378
#
# Coordination Sequence:
#
# PCOD9348690 Si02
#       8
#     8   8   8   8   8   8   8   8
#     4  11  23  40  67  95 121 160 211 262 306 362
#     4  12  23  35  58  92 132 167 193 235 305 378
#     4  10  21  40  62  87 119 160 210 262 301 356
#     4  11  23  41  65  94 124 161 210 258 307 371
#     4  12  26  43  63  89 125 166 206 259 324 381
#     4  10  19  35  63  94 118 153 206 256 300 349
#     4  12  18  36  64  91 125 162 199 248 300 365
#     4  10  20  36  60  91 123 157 199 247 299 360
#
# _framework density 19.228034000000001
#
# number of rings (size 3 to 8) (size 9 to 14) (size 15 to 20)
#    0.000    1.000    5.000    2.625    0.000    5.500 
#    0.000    2.500    0.000    1.875    0.000    0.000 
#    0.000    0.000    0.000    0.000    0.000    0.000 
#
# Total GULP energy -178816.336005 kJ/mol
# GULP energy per Si atom -5588.010500 kJ/mol
# Density = 1.918427 g / cm^3
# Si number density = 19.228034 Si / 1000 Ang^3
#
#
#
# Elastic Constant Matrix: (Units=GPa)
#
#
# Indices 1 2 3 4 5 6 
#
# 1 158.5939 33.9129 55.6497 0.0000 0.0000 0.0000
# 2 33.9129 54.4307 26.0608 0.0000 0.0000 0.0000
# 3 55.6497 26.0608 111.2828 0.0000 0.0000 0.0000
# 4 0.0000 0.0000 0.0000 -4.5299 0.0000 0.0000
# 5 0.0000 0.0000 0.0000 0.0000 -1.4710 0.0000
# 6 0.0000 0.0000 0.0000 0.0000 0.0000 -13.2923
#
#
#
# Elastic Compliance Matrix: (Units=1/GPa)
#
#
# Indices 1 2 3 4 5 6 
#
# 1 0.008214 -0.003549 -0.003276 0.000000 0.000000 0.000000
# 2 -0.003549 0.022225 -0.003430 0.000000 0.000000 0.000000
# 3 -0.003276 -0.003430 0.011428 0.000000 0.000000 0.000000
# 4 0.000000 0.000000 0.000000 -0.220753 0.000000 0.000000
# 5 0.000000 0.000000 0.000000 0.000000 -0.679829 0.000000
# 6 0.000000 0.000000 0.000000 0.000000 0.000000 -0.075232
#
#
# Mechanical properties :
#
#
# Convention : Reuss Voigt Hill
#
# Bulk Modulus (GPa) = 46.82488 61.72824 54.27656
# Shear Modulus (GPa) = -5.51684 10.05364 2.26840
#
# Velocity S-wave (km/s) = -1.69570 2.28910 1.08733
# Velocity P-wave (km/s) = 4.53557 6.25776 5.46493
#
# Compressibility (1/GPa) = 0.02135617
#
# Stress axis : x y z
#
# Youngs Moduli (GPa) = 121.74326 44.99347 87.50521
#
# Poissons Ratio (x) = 0.15968 0.28671
# Poissons Ratio (y) = 0.43206 0.30015
# Poissons Ratio (z) = 0.39889 0.15433
#
# Static dielectric constant tensor:
#      x y z
#    x 1.686030 0.000000 0.000000 
#    y 0.000000 1.655010 0.000000 
#    z 0.000000 0.000000 1.643330 
# 
# From -- ./inp_files/13196.got.cif
#   From: 2010.05.17/outbox.cif.g08.bks.cpg/sg35_7_cif.got.tgz:13196.got - 2010.06.03 17:29:28.
