data_PCOD9348611
_publ_section_title
;
Structure prediction by ZEFSAII (Michael W. Deem and Ramdas Pophale) SiO2 
 PCOD9348611
Probable space group: C M M 2
;
_chemical_formula_sum "Si O2"
_cell_formula_units_Z 48
_cell_length_a 29.115462
_cell_length_b 8.456743
_cell_length_c 10.559057
_cell_angle_alpha 90.000000
_cell_angle_beta 90.000000
_cell_angle_gamma 90.000000
_cell_volume 2599.871916
_symmetry_space_group_name_H-M "C M M 2"
_symmetry_group_IT_number 35
_symmetry_cell_setting 'orthorhombic'
loop_
_space_group_symop_operation_xyz
x,y,z
-x,-y,z
-x,y,z
x,-y,z
1/2+x,1/2+y,z
1/2-x,1/2-y,z
1/2-x,1/2+y,z
1/2+x,1/2-y,z
loop_
_atom_site_type_symbol
_atom_site_label
_atom_site_fract_x
_atom_site_fract_y
_atom_site_fract_z
Si Si1 0.553168 0.191013 0.789070
Si Si2 0.800255 0.189377 0.944212
Si Si3 0.053119 0.191234 0.288345
Si Si4 0.395089 0.690769 0.541091
Si Si5 0.199967 0.190589 0.650183
Si Si6 0.393780 0.810675 0.042253
O O1 0.500000 0.237762 0.797574
O O2 0.576020 0.259051 0.663425
O O3 0.555372 0.000000 0.783600
O O4 0.580285 0.243546 0.914277
O O5 0.750000 0.250000 0.982271
O O6 0.841431 0.254453 0.028845
O O7 0.800886 0.000000 0.946794
O O8 0.807545 0.241387 0.797014
O O9 0.080259 0.247346 0.413445
O O10 0.079843 0.245475 0.163761
O O11 0.000000 0.245317 0.288441
O O12 0.052544 0.000000 0.290793
O O13 0.394109 0.500000 0.536238
O O14 0.342767 0.745502 0.565332
O O15 0.250000 0.250000 0.610103
O O16 0.200577 0.000000 0.649807
O O17 0.395122 0.000000 0.045917
#
# Coordination Sequence:
#
# PCOD9348611 Si02
#       6
#     8   8   8   8   8   8
#     4  10  21  35  53  80 111 142 182 234 286 337
#     4  10  19  34  57  86 117 148 186 232 284 340
#     4  10  22  39  58  80 111 153 195 235 285 344
#     4  10  20  37  58  83 111 145 188 234 284 338
#     4   9  18  32  54  83 114 144 179 224 278 332
#     4  11  22  37  57  82 114 151 191 235 284 338
#
# _framework density 18.462448999999999
#
# number of rings (size 3 to 8) (size 9 to 14) (size 15 to 20)
#    0.000    2.000    1.667    2.000    0.000    4.667 
#    0.000    0.833    0.000    2.000    0.000    0.000 
#    0.000    0.000    0.000    0.000    0.000    0.000 
#
# Total GULP energy -134009.473089 kJ/mol
# GULP energy per Si atom -5583.728045 kJ/mol
# Density = 1.842043 g / cm^3
# Si number density = 18.462449 Si / 1000 Ang^3
#
#
#
# Elastic Constant Matrix: (Units=GPa)
#
#
# Indices 1 2 3 4 5 6 
#
# 1 196.6285 21.6993 95.3041 0.0000 0.0000 0.0000
# 2 21.6993 7.7485 17.1481 0.0000 0.0000 0.0000
# 3 95.3041 17.1481 143.6163 0.0000 0.0000 0.0000
# 4 0.0000 0.0000 0.0000 23.7794 0.0000 0.0000
# 5 0.0000 0.0000 0.0000 0.0000 31.9550 0.0000
# 6 0.0000 0.0000 0.0000 0.0000 0.0000 26.0762
#
#
#
# Elastic Compliance Matrix: (Units=1/GPa)
#
#
# Indices 1 2 3 4 5 6 
#
# 1 0.008718 -0.015781 -0.003901 0.000000 0.000000 0.000000
# 2 -0.015781 0.203977 -0.013883 0.000000 0.000000 0.000000
# 3 -0.003901 -0.013883 0.011209 0.000000 0.000000 0.000000
# 4 0.000000 0.000000 0.000000 0.042053 0.000000 0.000000
# 5 0.000000 0.000000 0.000000 0.000000 0.031294 0.000000
# 6 0.000000 0.000000 0.000000 0.000000 0.000000 0.038349
#
#
# Mechanical properties :
#
#
# Convention : Reuss Voigt Hill
#
# Bulk Modulus (GPa) = 6.37859 68.47737 37.42798
# Shear Modulus (GPa) = 10.98926 30.61825 20.80375
#
# Velocity S-wave (km/s) = 2.44236 4.07677 3.36045
# Velocity P-wave (km/s) = 3.37875 7.70264 5.94755
#
# Compressibility (1/GPa) = 0.15677446
#
# Stress axis : x y z
#
# Youngs Moduli (GPa) = 114.70386 4.90250 89.21111
#
# Poissons Ratio (x) = 0.07737 0.34801
# Poissons Ratio (y) = 1.81019 1.23850
# Poissons Ratio (z) = 0.44746 0.06806
#
# Static dielectric constant tensor:
#      x y z
#    x 1.633250 0.000000 0.000000 
#    y 0.000000 1.627830 0.000000 
#    z 0.000000 0.000000 1.609780 
# 
# From -- ./inp_files/5265.got.cif
#   From: 2010.05.17/outbox.cif.g08.bks.cpg/sg35_3_cif.got.tgz:5265.got - 2010.06.03 17:29:28.
