data_PCOD9348405
_publ_section_title
;
Structure prediction by ZEFSAII (Michael W. Deem and Ramdas Pophale) SiO2 
 PCOD9348405
Probable space group: C M M 2
;
_chemical_formula_sum "Si O2"
_cell_formula_units_Z 48
_cell_length_a 15.638151
_cell_length_b 8.608799
_cell_length_c 17.885454
_cell_angle_alpha 90.000000
_cell_angle_beta 90.000000
_cell_angle_gamma 90.000000
_cell_volume 2407.841741
_symmetry_space_group_name_H-M "C M M 2"
_symmetry_group_IT_number 35
_symmetry_cell_setting 'orthorhombic'
loop_
_space_group_symop_operation_xyz
x,y,z
-x,-y,z
-x,y,z
x,-y,z
1/2+x,1/2+y,z
1/2-x,1/2-y,z
1/2-x,1/2+y,z
1/2+x,1/2-y,z
loop_
_atom_site_type_symbol
_atom_site_label
_atom_site_fract_x
_atom_site_fract_y
_atom_site_fract_z
Si Si1 0.846867 0.187355 0.250000
Si Si2 0.160064 0.687341 0.777217
Si Si3 0.000000 0.185816 0.684901
Si Si4 0.900749 0.677718 0.935044
Si Si5 0.153685 0.185279 0.089075
Si Si6 0.000000 0.685852 0.517034
Si Si7 0.347548 0.312286 0.415780
O O1 0.750000 0.250000 0.248456
O O2 0.885082 0.236610 0.169663
O O3 0.879708 0.233792 0.331782
O O4 0.846300 0.000000 0.250169
O O5 0.157475 0.500000 0.777577
O O6 0.250000 0.750000 0.748384
O O7 0.082806 0.751309 0.728320
O O8 0.148603 0.742801 0.863419
O O9 0.000000 0.248770 0.600771
O O10 0.000000 0.000000 0.685079
O O11 0.872195 0.500000 0.947100
O O12 0.000000 0.676373 0.912914
O O13 0.891401 0.761796 0.013695
O O14 0.250000 0.250000 0.085314
O O15 0.156579 0.000000 0.089510
O O16 0.084758 0.746149 0.474366
O O17 0.000000 0.500000 0.518019
O O18 0.345567 0.500000 0.420381
O O19 0.250000 0.250000 0.425102
#
# Coordination Sequence:
#
# PCOD9348405 Si02
#       7
#     8   8   4   8   8   4   8
#     4   8  16  31  53  80 114 155 200 251 304 353
#     4  11  23  43  68  96 127 164 205 252 307 368
#     4  12  26  46  70  97 126 159 200 251 308 369
#     4  10  21  38  57  81 119 162 203 253 306 354
#     4  10  19  32  52  81 114 155 204 253 301 355
#     4  12  26  44  66  95 128 163 202 249 306 371
#     4  10  20  39  65  93 126 165 208 257 310 368
#
# _framework density 19.934866
#
# number of rings (size 3 to 8) (size 9 to 14) (size 15 to 20)
#    0.000    1.833    0.833    3.500    0.000    5.000 
#    1.500    3.333    0.000    0.000    0.000    0.000 
#    0.000    0.000    0.000    0.000    0.000    0.000 
#
# Total GULP energy -133937.380507 kJ/mol
# GULP energy per Si atom -5580.724188 kJ/mol
# Density = 1.988949 g / cm^3
# Si number density = 19.934866 Si / 1000 Ang^3
#
#
#
# Elastic Constant Matrix: (Units=GPa)
#
#
# Indices 1 2 3 4 5 6 
#
# 1 109.3080 34.6922 72.5836 0.0000 0.0000 0.0000
# 2 34.6922 77.7122 53.0633 0.0000 0.0000 0.0000
# 3 72.5836 53.0633 177.4801 0.0000 0.0000 0.0000
# 4 0.0000 0.0000 0.0000 28.8684 0.0000 0.0000
# 5 0.0000 0.0000 0.0000 0.0000 0.6855 0.0000
# 6 0.0000 0.0000 0.0000 0.0000 0.0000 28.3648
#
#
#
# Elastic Compliance Matrix: (Units=1/GPa)
#
#
# Indices 1 2 3 4 5 6 
#
# 1 0.013005 -0.002732 -0.004502 0.000000 0.000000 0.000000
# 2 -0.002732 0.016743 -0.003889 0.000000 0.000000 0.000000
# 3 -0.004502 -0.003889 0.008638 0.000000 0.000000 0.000000
# 4 0.000000 0.000000 0.000000 0.034640 0.000000 0.000000
# 5 0.000000 0.000000 0.000000 0.000000 1.458778 0.000000
# 6 0.000000 0.000000 0.000000 0.000000 0.000000 0.035255
#
#
# Mechanical properties :
#
#
# Convention : Reuss Voigt Hill
#
# Bulk Modulus (GPa) = 61.95227 76.13093 69.04160
# Shear Modulus (GPa) = 3.13542 25.19449 14.16495
#
# Velocity S-wave (km/s) = 1.25549 3.55891 2.66853
# Velocity P-wave (km/s) = 5.76598 7.42701 6.64857
#
# Compressibility (1/GPa) = 0.01614146
#
# Stress axis : x y z
#
# Youngs Moduli (GPa) = 76.89491 59.72770 115.76555
#
# Poissons Ratio (x) = 0.16315 0.52115
# Poissons Ratio (y) = 0.21005 0.45017
# Poissons Ratio (z) = 0.34617 0.23226
#
# Static dielectric constant tensor:
#      x y z
#    x 1.696950 0.000000 0.000000 
#    y 0.000000 1.693990 0.000000 
#    z 0.000000 0.000000 1.735970 
# 
# From -- ./inp_files/17915.got.cif
#   From: 2010.05.17/outbox.cif.g08.bks.cpg/sg35_9_cif.got.tgz:17915.got - 2010.06.03 17:29:28.
