data_PCOD9348855
_publ_section_title
;
Structure prediction by ZEFSAII (Michael W. Deem and Ramdas Pophale) SiO2 
 PCOD9348855
Probable space group: C M M 2
;
_chemical_formula_sum "Si O2"
_cell_formula_units_Z 56
_cell_length_a 19.433842
_cell_length_b 8.714822
_cell_length_c 18.399112
_cell_angle_alpha 90.000000
_cell_angle_beta 90.000000
_cell_angle_gamma 90.000000
_cell_volume 3116.119124
_symmetry_space_group_name_H-M "C M M 2"
_symmetry_group_IT_number 35
_symmetry_cell_setting 'orthorhombic'
loop_
_space_group_symop_operation_xyz
x,y,z
-x,-y,z
-x,y,z
x,-y,z
1/2+x,1/2+y,z
1/2-x,1/2-y,z
1/2-x,1/2+y,z
1/2+x,1/2-y,z
loop_
_atom_site_type_symbol
_atom_site_label
_atom_site_fract_x
_atom_site_fract_y
_atom_site_fract_z
Si Si1 0.826485 0.182723 0.585190
Si Si2 0.081770 0.817104 0.304858
Si Si3 0.421094 0.313067 0.139901
Si Si4 0.673763 0.182284 0.431153
Si Si5 0.920008 0.815129 0.869592
Si Si6 0.173314 0.185776 0.006345
Si Si7 0.581174 0.182526 0.712279
O O1 0.750000 0.250000 0.596256
O O2 0.851630 0.248148 0.507718
O O3 0.874736 0.235590 0.650634
O O4 0.822732 0.000000 0.581292
O O5 0.098250 0.767937 0.222052
O O6 0.125068 0.730367 0.365201
O O7 0.000000 0.794314 0.314804
O O8 0.095075 0.000000 0.310862
O O9 0.500000 0.264386 0.125146
O O10 0.421993 0.500000 0.139334
O O11 0.368553 0.262716 0.077951
O O12 0.750000 0.250000 0.418916
O O13 0.678269 0.000000 0.437784
O O14 0.870442 0.768651 0.935255
O O15 0.900307 0.740543 0.792909
O O16 0.000000 0.775440 0.885412
O O17 0.916753 0.000000 0.862504
O O18 0.250000 0.250000 0.004776
O O19 0.175908 0.000000 0.007417
O O20 0.500000 0.215905 0.702318
O O21 0.591156 0.000000 0.707594
#
# Coordination Sequence:
#
# PCOD9348855 Si02
#       7
#     8   8   8   8   8   8   8
#     4  11  22  38  59  81 108 141 179 220 265 318
#     4   9  18  34  56  81 108 139 178 222 268 319
#     4   8  15  31  55  78 101 135 178 219 259 308
#     4  11  22  37  56  78 108 143 180 220 265 318
#     4   9  18  34  55  76 100 136 181 222 261 310
#     4  10  20  33  51  77 107 137 173 218 265 313
#     4  10  21  37  57  82 111 141 176 219 266 316
#
# _framework density 17.971070999999998
#
# number of rings (size 3 to 8) (size 9 to 14) (size 15 to 20)
#    0.000    2.286    0.000    5.143    0.000    5.143 
#    0.000    3.571    0.000    2.143    0.000    0.000 
#    0.000    0.000    0.000    0.000    0.000    0.000 
#
# Total GULP energy -156307.685068 kJ/mol
# GULP energy per Si atom -5582.417324 kJ/mol
# Density = 1.793017 g / cm^3
# Si number density = 17.971071 Si / 1000 Ang^3
#
#
#
# Elastic Constant Matrix: (Units=GPa)
#
#
# Indices 1 2 3 4 5 6 
#
# 1 89.7446 51.2902 108.2025 0.0000 0.0000 0.0000
# 2 51.2902 76.9219 73.7121 0.0000 0.0000 0.0000
# 3 108.2025 73.7121 186.9350 0.0000 0.0000 0.0000
# 4 0.0000 0.0000 0.0000 21.6264 0.0000 0.0000
# 5 0.0000 0.0000 0.0000 0.0000 83.8499 0.0000
# 6 0.0000 0.0000 0.0000 0.0000 0.0000 28.4583
#
#
#
# Elastic Compliance Matrix: (Units=1/GPa)
#
#
# Indices 1 2 3 4 5 6 
#
# 1 0.039123 -0.007050 -0.019865 0.000000 0.000000 0.000000
# 2 -0.007050 0.022167 -0.004660 0.000000 0.000000 0.000000
# 3 -0.019865 -0.004660 0.018686 0.000000 0.000000 0.000000
# 4 0.000000 0.000000 0.000000 0.046240 0.000000 0.000000
# 5 0.000000 0.000000 0.000000 0.000000 0.011926 0.000000
# 6 0.000000 0.000000 0.000000 0.000000 0.000000 0.035139
#
#
# Mechanical properties :
#
#
# Convention : Reuss Voigt Hill
#
# Bulk Modulus (GPa) = 59.43792 91.11236 75.27514
# Shear Modulus (GPa) = 20.65777 34.81336 27.73557
#
# Velocity S-wave (km/s) = 3.39411 4.40613 3.93281
# Velocity P-wave (km/s) = 6.96462 8.75756 7.91204
#
# Compressibility (1/GPa) = 0.01682428
#
# Stress axis : x y z
#
# Youngs Moduli (GPa) = 25.56023 45.11295 53.51735
#
# Poissons Ratio (x) = 0.31806 1.06315
# Poissons Ratio (y) = 0.18021 0.24938
# Poissons Ratio (z) = 0.50777 0.21022
#
# Static dielectric constant tensor:
#      x y z
#    x 1.589360 0.000000 0.000000 
#    y 0.000000 1.606760 0.000000 
#    z 0.000000 0.000000 1.603040 
# 
# From -- ./inp_files/15628.got.cif
#   From: 2010.05.17/outbox.cif.g08.bks.cpg/sg35_8_cif.got.tgz:15628.got - 2010.06.03 17:29:28.
