data_PCOD9348486
_publ_section_title
;
Structure prediction by ZEFSAII (Michael W. Deem and Ramdas Pophale) SiO2 
 PCOD9348486
Probable space group: C M M 2
;
_chemical_formula_sum "Si O2"
_cell_formula_units_Z 64
_cell_length_a 7.999772
_cell_length_b 30.436006
_cell_length_c 12.712566
_cell_angle_alpha 90.000000
_cell_angle_beta 90.000000
_cell_angle_gamma 90.000000
_cell_volume 3095.269663
_symmetry_space_group_name_H-M "C M M 2"
_symmetry_group_IT_number 35
_symmetry_cell_setting 'orthorhombic'
loop_
_space_group_symop_operation_xyz
x,y,z
-x,-y,z
-x,y,z
x,-y,z
1/2+x,1/2+y,z
1/2-x,1/2-y,z
1/2-x,1/2+y,z
1/2+x,1/2-y,z
loop_
_atom_site_type_symbol
_atom_site_label
_atom_site_fract_x
_atom_site_fract_y
_atom_site_fract_z
Si Si1 0.202696 0.047659 0.450320
Si Si2 0.806913 0.671072 0.294633
Si Si3 0.695096 0.643257 0.518208
Si Si4 0.797697 0.922151 0.218722
Si Si5 0.798224 0.360297 0.905331
Si Si6 0.298765 0.796301 0.083771
Si Si7 0.798978 0.951792 0.985928
Si Si8 0.304763 0.800702 0.714996
O O1 0.263250 0.093210 0.503388
O O2 0.237218 0.050795 0.325150
O O3 0.000000 0.048439 0.460170
O O4 0.262068 0.000000 0.490000
O O5 0.714335 0.666297 0.404652
O O6 0.794674 0.623538 0.239020
O O7 0.732691 0.701323 0.202968
O O8 0.000000 0.682150 0.316626
O O9 0.500000 0.639800 0.544037
O O10 0.776524 0.673309 0.606593
O O11 0.000000 0.914989 0.216811
O O12 0.747475 0.942587 0.107341
O O13 0.751554 0.411163 0.913163
O O14 0.731915 0.331625 0.807696
O O15 0.000000 0.358574 0.904985
O O16 0.737712 0.335875 0.011173
O O17 0.500000 0.799091 0.090176
O O18 0.250000 0.750000 0.034130
O O19 0.000000 0.952883 0.986987
O O20 0.737289 0.000000 0.953445
O O21 0.500000 0.798510 0.736233
O O22 0.250000 0.750000 0.711582
#
# Coordination Sequence:
#
# PCOD9348486 Si02
#       8
#     8   8   8   8   8   8   8   8
#     4   8  14  27  50  80 113 150 190 230 274 327
#     4  10  19  33  53  79 117 155 190 235 285 342
#     4  10  21  37  59  86 117 151 193 239 291 345
#     4   9  16  28  49  78 113 154 195 237 281 331
#     4  10  22  41  60  83 115 150 190 239 294 348
#     4  10  21  35  54  81 112 147 185 230 285 348
#     4  10  20  33  54  86 120 156 199 242 283 336
#     4  11  24  43  67  88 110 143 191 246 297 351
#
# _framework density 20.676711999999998
#
# number of rings (size 3 to 8) (size 9 to 14) (size 15 to 20)
#    0.000    2.250    1.250    2.625    0.000    4.750 
#    0.000    1.875    0.000   14.625    0.000    0.000 
#    0.000    0.000    0.000    0.000    0.000    0.000 
#
# Total GULP energy -178460.995569 kJ/mol
# GULP energy per Si atom -5576.906112 kJ/mol
# Density = 2.062965 g / cm^3
# Si number density = 20.676712 Si / 1000 Ang^3
#
#
#
# Elastic Constant Matrix: (Units=GPa)
#
#
# Indices 1 2 3 4 5 6 
#
# 1 15.9806 7.1749 2.5549 0.0000 0.0000 0.0000
# 2 7.1749 166.9027 72.6877 0.0000 0.0000 0.0000
# 3 2.5549 72.6877 93.7998 0.0000 0.0000 0.0000
# 4 0.0000 0.0000 0.0000 17.9654 0.0000 0.0000
# 5 0.0000 0.0000 0.0000 0.0000 12.6917 0.0000
# 6 0.0000 0.0000 0.0000 0.0000 0.0000 22.2042
#
#
#
# Elastic Compliance Matrix: (Units=1/GPa)
#
#
# Indices 1 2 3 4 5 6 
#
# 1 0.063829 -0.002999 0.000585 0.000000 0.000000 0.000000
# 2 -0.002999 0.009184 -0.007036 0.000000 0.000000 0.000000
# 3 0.000585 -0.007036 0.016097 0.000000 0.000000 0.000000
# 4 0.000000 0.000000 0.000000 0.055663 0.000000 0.000000
# 5 0.000000 0.000000 0.000000 0.000000 0.078792 0.000000
# 6 0.000000 0.000000 0.000000 0.000000 0.000000 0.045036
#
#
# Mechanical properties :
#
#
# Convention : Reuss Voigt Hill
#
# Bulk Modulus (GPa) = 14.24253 49.05755 31.65004
# Shear Modulus (GPa) = 16.08215 23.52330 19.80273
#
# Velocity S-wave (km/s) = 2.79192 3.37660 3.09808
# Velocity P-wave (km/s) = 4.15887 6.24335 5.30451
#
# Compressibility (1/GPa) = 0.07021225
#
# Stress axis : x y z
#
# Youngs Moduli (GPa) = 15.66690 108.87910 62.12292
#
# Poissons Ratio (x) = 0.32651 -0.03636
# Poissons Ratio (y) = 0.04698 0.43707
# Poissons Ratio (z) = -0.00917 0.76603
#
# Static dielectric constant tensor:
#      x y z
#    x 1.738090 0.000000 0.000000 
#    y 0.000000 1.792750 0.000000 
#    z 0.000000 0.000000 1.737890 
# 
# From -- ./inp_files/12018.got.cif
#   From: 2010.05.17/outbox.cif.g08.bks.cpg/sg35_7_cif.got.tgz:12018.got - 2010.06.03 17:29:28.
