data_PCOD9348501
_publ_section_title
;
Structure prediction by ZEFSAII (Michael W. Deem and Ramdas Pophale) SiO2 
 PCOD9348501
Probable space group: C M M 2
;
_chemical_formula_sum "Si O2"
_cell_formula_units_Z 40
_cell_length_a 14.426929
_cell_length_b 11.166870
_cell_length_c 11.648833
_cell_angle_alpha 90.000000
_cell_angle_beta 90.000000
_cell_angle_gamma 90.000000
_cell_volume 1876.669406
_symmetry_space_group_name_H-M "C M M 2"
_symmetry_group_IT_number 35
_symmetry_cell_setting 'orthorhombic'
loop_
_space_group_symop_operation_xyz
x,y,z
-x,-y,z
-x,y,z
x,-y,z
1/2+x,1/2+y,z
1/2-x,1/2-y,z
1/2-x,1/2+y,z
1/2+x,1/2-y,z
loop_
_atom_site_type_symbol
_atom_site_label
_atom_site_fract_x
_atom_site_fract_y
_atom_site_fract_z
Si Si1 0.612248 0.866896 0.463880
Si Si2 0.136562 0.871322 0.819823
Si Si3 0.610496 0.369043 0.327851
Si Si4 0.312808 0.632441 0.073607
Si Si5 0.152658 0.370841 0.725826
O O1 0.500000 0.859929 0.480881
O O2 0.642301 0.752239 0.390182
O O3 0.659335 0.862522 0.588451
O O4 0.630005 0.000000 0.412891
O O5 0.102133 0.748344 0.766857
O O6 0.246188 0.872664 0.785513
O O7 0.100645 0.000000 0.778759
O O8 0.127892 0.865610 0.957025
O O9 0.500000 0.370980 0.342158
O O10 0.645956 0.500000 0.369971
O O11 0.633026 0.361706 0.193041
O O12 0.265049 0.500000 0.071738
O O13 0.250000 0.750000 0.067977
O O14 0.109077 0.500000 0.752027
#
# Coordination Sequence:
#
# PCOD9348501 Si02
#       5
#     8   8   8   8   8
#     4   9  18  33  52  73  99 132 169 209 252 299
#     4   9  17  30  49  70  96 129 162 200 247 294
#     4   9  19  36  55  75 102 136 172 211 256 304
#     4  10  19  33  54  77 103 135 170 212 256 303
#     4   9  16  29  49  70  94 127 162 201 246 292
#
# _framework density 21.314354999999999
#
# number of rings (size 3 to 8) (size 9 to 14) (size 15 to 20)
#    0.000    2.800    2.000    0.000    0.000    1.600 
#    3.600    1.000    0.000    1.200    0.000    0.000 
#    0.000    0.000    0.000    0.000    0.000    0.000 
#
# Total GULP energy -111424.465210 kJ/mol
# GULP energy per Si atom -5571.223261 kJ/mol
# Density = 2.126584 g / cm^3
# Si number density = 21.314355 Si / 1000 Ang^3
#
#
#
# Elastic Constant Matrix: (Units=GPa)
#
#
# Indices 1 2 3 4 5 6 
#
# 1 64.9243 11.9481 4.6587 0.0000 0.0000 0.0000
# 2 11.9481 283.0859 73.9069 0.0000 0.0000 0.0000
# 3 4.6587 73.9069 92.6120 0.0000 0.0000 0.0000
# 4 0.0000 0.0000 0.0000 49.2560 0.0000 0.0000
# 5 0.0000 0.0000 0.0000 0.0000 -25.2735 0.0000
# 6 0.0000 0.0000 0.0000 0.0000 0.0000 -22.5523
#
#
#
# Elastic Compliance Matrix: (Units=1/GPa)
#
#
# Indices 1 2 3 4 5 6 
#
# 1 0.015531 -0.000570 -0.000326 0.000000 0.000000 0.000000
# 2 -0.000570 0.004483 -0.003549 0.000000 0.000000 0.000000
# 3 -0.000326 -0.003549 0.013646 0.000000 0.000000 0.000000
# 4 0.000000 0.000000 0.000000 0.020302 0.000000 0.000000
# 5 0.000000 0.000000 0.000000 0.000000 -0.039567 0.000000
# 6 0.000000 0.000000 0.000000 0.000000 0.000000 -0.044341
#
#
# Mechanical properties :
#
#
# Convention : Reuss Voigt Hill
#
# Bulk Modulus (GPa) = 40.37224 69.07218 54.72221
# Shear Modulus (GPa) = -390.66340 23.62661 -183.51840
#
# Velocity S-wave (km/s) = -13.55302 3.33300 -9.28912
# Velocity P-wave (km/s) = 15.03097 6.87667 9.45096
#
# Compressibility (1/GPa) = 0.02476949
#
# Stress axis : x y z
#
# Youngs Moduli (GPa) = 64.38770 223.05910 73.27992
#
# Poissons Ratio (x) = 0.12723 0.02390
# Poissons Ratio (y) = 0.03672 0.26007
# Poissons Ratio (z) = 0.02100 0.79163
#
# Static dielectric constant tensor:
#      x y z
#    x 1.762600 0.000000 0.000000 
#    y 0.000000 1.843050 0.000000 
#    z 0.000000 0.000000 1.728810 
# 
# From -- ./inp_files/5878.got.cif
#   From: 2010.05.17/outbox.cif.g08.bks.cpg/sg35_3_cif.got.tgz:5878.got - 2010.06.03 17:29:28.
