data_PCOD9348577
_publ_section_title
;
Structure prediction by ZEFSAII (Michael W. Deem and Ramdas Pophale) SiO2 
 PCOD9348577
Probable space group: C M M 2
;
_chemical_formula_sum "Si O2"
_cell_formula_units_Z 40
_cell_length_a 9.123218
_cell_length_b 27.139459
_cell_length_c 9.333552
_cell_angle_alpha 90.000000
_cell_angle_beta 90.000000
_cell_angle_gamma 90.000000
_cell_volume 2310.980016
_symmetry_space_group_name_H-M "C M M 2"
_symmetry_group_IT_number 35
_symmetry_cell_setting 'orthorhombic'
loop_
_space_group_symop_operation_xyz
x,y,z
-x,-y,z
-x,y,z
x,-y,z
1/2+x,1/2+y,z
1/2-x,1/2-y,z
1/2-x,1/2+y,z
1/2+x,1/2-y,z
loop_
_atom_site_type_symbol
_atom_site_label
_atom_site_fract_x
_atom_site_fract_y
_atom_site_fract_z
Si Si1 0.169265 0.201067 0.215300
Si Si2 0.831148 0.799188 0.564477
Si Si3 0.678464 0.409461 0.560026
Si Si4 0.823997 0.500000 0.725325
Si Si5 0.678008 0.500000 0.034641
Si Si6 0.822214 0.093777 0.225372
O O1 0.250000 0.250000 0.165046
O O2 0.173226 0.200786 0.389888
O O3 0.231617 0.147498 0.174215
O O4 0.000000 0.204004 0.171781
O O5 0.750000 0.750000 0.614125
O O6 0.778447 0.853835 0.606922
O O7 0.000000 0.795516 0.607294
O O8 0.500000 0.413510 0.572350
O O9 0.757923 0.451885 0.647233
O O10 0.716974 0.414633 0.391490
O O11 0.000000 0.500000 0.721333
O O12 0.761226 0.500000 0.885596
O O13 0.500000 0.500000 0.013900
O O14 0.718114 0.451633 0.126021
O O15 0.000000 0.096995 0.224893
#
# Coordination Sequence:
#
# PCOD9348577 Si02
#       6
#     8   8   8   4   4   8
#     4   8  13  23  40  68 100 124 147 182 227 277
#     4   8  14  24  43  71 101 127 152 186 232 281
#     4   9  17  33  55  76  97 127 165 201 236 286
#     4  12  25  36  46  68 100 130 161 206 254 292
#     4  10  19  34  54  70  88 124 165 202 244 290
#     4   8  15  29  53  78  95 117 160 205 234 273
#
# _framework density 17.308675000000001
#
# number of rings (size 3 to 8) (size 9 to 14) (size 15 to 20)
#    0.000    3.200    0.000    3.900    0.000    2.400 
#    0.000    6.000    0.000    1.200    0.000    2.800 
#    0.000    0.000    0.000    0.000    0.000    0.000 
#
# Total GULP energy -111337.925057 kJ/mol
# GULP energy per Si atom -5566.896253 kJ/mol
# Density = 1.726928 g / cm^3
# Si number density = 17.308675 Si / 1000 Ang^3
#
#
#
# Elastic Constant Matrix: (Units=GPa)
#
#
# Indices 1 2 3 4 5 6 
#
# 1 46.1539 71.5082 29.4101 0.0000 0.0000 0.0000
# 2 71.5082 229.4871 75.5263 0.0000 0.0000 0.0000
# 3 29.4101 75.5263 58.3137 0.0000 0.0000 0.0000
# 4 0.0000 0.0000 0.0000 -5.4018 0.0000 0.0000
# 5 0.0000 0.0000 0.0000 0.0000 10.8505 0.0000
# 6 0.0000 0.0000 0.0000 0.0000 0.0000 28.6938
#
#
#
# Elastic Compliance Matrix: (Units=1/GPa)
#
#
# Indices 1 2 3 4 5 6 
#
# 1 0.043783 -0.011112 -0.007690 0.000000 0.000000 0.000000
# 2 -0.011112 0.010415 -0.007885 0.000000 0.000000 0.000000
# 3 -0.007690 -0.007885 0.031239 0.000000 0.000000 0.000000
# 4 0.000000 0.000000 0.000000 -0.185124 0.000000 0.000000
# 5 0.000000 0.000000 0.000000 0.000000 0.092162 0.000000
# 6 0.000000 0.000000 0.000000 0.000000 0.000000 0.034851
#
#
# Mechanical properties :
#
#
# Convention : Reuss Voigt Hill
#
# Bulk Modulus (GPa) = 31.18761 76.31598 53.75179
# Shear Modulus (GPa) = 54.71207 17.32917 36.02062
#
# Velocity S-wave (km/s) = 5.62834 3.16758 4.56683
# Velocity P-wave (km/s) = 7.76500 7.58716 7.67660
#
# Compressibility (1/GPa) = 0.03206402
#
# Stress axis : x y z
#
# Youngs Moduli (GPa) = 22.83991 96.01425 32.01095
#
# Poissons Ratio (x) = 1.06692 0.24615
# Poissons Ratio (y) = 0.25380 0.25241
# Poissons Ratio (z) = 0.17563 0.75708
#
# Static dielectric constant tensor:
#      x y z
#    x 1.582770 0.000000 0.000000 
#    y 0.000000 1.623600 0.000000 
#    z 0.000000 0.000000 1.564300 
# 
# From -- ./inp_files/5010.got.cif
#   From: 2010.05.17/outbox.cif.g08.bks.cpg/sg35_3_cif.got.tgz:5010.got - 2010.06.03 17:29:28.
