data_PCOD9348952
_publ_section_title
;
Structure prediction by ZEFSAII (Michael W. Deem and Ramdas Pophale) SiO2 
 PCOD9348952
Probable space group: C M M 2
;
_chemical_formula_sum "Si O2"
_cell_formula_units_Z 48
_cell_length_a 8.159110
_cell_length_b 16.006599
_cell_length_c 17.933836
_cell_angle_alpha 90.000000
_cell_angle_beta 90.000000
_cell_angle_gamma 90.000000
_cell_volume 2342.151843
_symmetry_space_group_name_H-M "C M M 2"
_symmetry_group_IT_number 35
_symmetry_cell_setting 'orthorhombic'
loop_
_space_group_symop_operation_xyz
x,y,z
-x,-y,z
-x,y,z
x,-y,z
1/2+x,1/2+y,z
1/2-x,1/2-y,z
1/2-x,1/2+y,z
1/2+x,1/2-y,z
loop_
_atom_site_type_symbol
_atom_site_label
_atom_site_fract_x
_atom_site_fract_y
_atom_site_fract_z
Si Si1 0.302358 0.907134 0.354210
Si Si2 0.798671 0.000000 0.111986
Si Si3 0.198325 0.346687 0.514394
Si Si4 0.304428 0.500000 0.940993
Si Si5 0.302159 0.152903 0.674879
Si Si6 0.194469 0.161305 0.202330
Si Si7 0.303686 0.846766 0.839204
O O1 0.500000 0.905966 0.356607
O O2 0.242242 0.886820 0.437476
O O3 0.248161 0.847238 0.288239
O O4 0.246169 0.000000 0.333444
O O5 0.741608 0.082520 0.155589
O O6 0.744698 0.000000 0.026336
O O7 0.000000 0.000000 0.112784
O O8 0.250000 0.250000 0.512014
O O9 0.254295 0.382789 0.594787
O O10 0.000000 0.351713 0.513940
O O11 0.500000 0.500000 0.942704
O O12 0.250637 0.584229 0.898449
O O13 0.500000 0.146831 0.674997
O O14 0.250000 0.250000 0.672992
O O15 0.244338 0.123978 0.756282
O O16 0.250000 0.250000 0.171360
O O17 0.000000 0.158059 0.200489
O O18 0.500000 0.845735 0.837829
O O19 0.250000 0.750000 0.851886
#
# Coordination Sequence:
#
# PCOD9348952 Si02
#       7
#     8   4   8   4   8   8   8
#     4  10  20  34  52  79 114 150 191 235 279 330
#     4   9  22  43  63  84 115 148 184 231 287 345
#     4   9  17  30  48  74 105 144 188 233 277 325
#     4  11  23  41  63  88 119 152 188 239 295 351
#     4   8  15  29  50  75 106 146 189 232 278 326
#     4  11  22  40  63  87 113 148 188 230 283 342
#     4  10  20  37  60  89 120 156 198 240 289 347
#
# _framework density 20.493974000000001
#
# number of rings (size 3 to 8) (size 9 to 14) (size 15 to 20)
#    0.000    2.333    0.833    1.750    0.000    3.333 
#    1.500    5.000    0.000    0.000    0.000    0.000 
#    0.000    0.000    0.000    0.000    0.000    0.000 
#
# Total GULP energy -133825.816967 kJ/mol
# GULP energy per Si atom -5576.075707 kJ/mol
# Density = 2.044733 g / cm^3
# Si number density = 20.493974 Si / 1000 Ang^3
#
#
#
# Elastic Constant Matrix: (Units=GPa)
#
#
# Indices 1 2 3 4 5 6 
#
# 1 21.1169 12.7248 18.0022 0.0000 0.0000 0.0000
# 2 12.7248 122.1832 77.4624 0.0000 0.0000 0.0000
# 3 18.0022 77.4624 173.7809 0.0000 0.0000 0.0000
# 4 0.0000 0.0000 0.0000 25.8445 0.0000 0.0000
# 5 0.0000 0.0000 0.0000 0.0000 11.8514 0.0000
# 6 0.0000 0.0000 0.0000 0.0000 0.0000 25.2409
#
#
#
# Elastic Compliance Matrix: (Units=1/GPa)
#
#
# Indices 1 2 3 4 5 6 
#
# 1 0.052632 -0.002822 -0.004194 0.000000 0.000000 0.000000
# 2 -0.002822 0.011560 -0.004860 0.000000 0.000000 0.000000
# 3 -0.004194 -0.004860 0.008355 0.000000 0.000000 0.000000
# 4 0.000000 0.000000 0.000000 0.038693 0.000000 0.000000
# 5 0.000000 0.000000 0.000000 0.000000 0.084378 0.000000
# 6 0.000000 0.000000 0.000000 0.000000 0.000000 0.039618
#
#
# Mechanical properties :
#
#
# Convention : Reuss Voigt Hill
#
# Bulk Modulus (GPa) = 20.49472 59.27332 39.88402
# Shear Modulus (GPa) = 18.16503 26.51346 22.33925
#
# Velocity S-wave (km/s) = 2.98041 3.60073 3.30516
# Velocity P-wave (km/s) = 4.67609 6.80236 5.83687
#
# Compressibility (1/GPa) = 0.04879306
#
# Stress axis : x y z
#
# Youngs Moduli (GPa) = 19.00000 86.50691 119.68377
#
# Poissons Ratio (x) = 0.24415 0.50197
# Poissons Ratio (y) = 0.05362 0.58171
# Poissons Ratio (z) = 0.07969 0.42046
#
# Static dielectric constant tensor:
#      x y z
#    x 1.742490 0.000000 0.000000 
#    y 0.000000 1.757810 0.000000 
#    z 0.000000 0.000000 1.770460 
# 
# From -- ./inp_files/17902.got.cif
#   From: 2010.05.17/outbox.cif.g08.bks.cpg/sg35_9_cif.got.tgz:17902.got - 2010.06.03 17:29:28.
