data_PCOD9348436
_publ_section_title
;
Structure prediction by ZEFSAII (Michael W. Deem and Ramdas Pophale) SiO2 
 PCOD9348436
Probable space group: C M M 2
;
_chemical_formula_sum "Si O2"
_cell_formula_units_Z 48
_cell_length_a 29.202050
_cell_length_b 8.456756
_cell_length_c 10.571503
_cell_angle_alpha 90.000000
_cell_angle_beta 90.000000
_cell_angle_gamma 90.000000
_cell_volume 2610.681417
_symmetry_space_group_name_H-M "C M M 2"
_symmetry_group_IT_number 35
_symmetry_cell_setting 'orthorhombic'
loop_
_space_group_symop_operation_xyz
x,y,z
-x,-y,z
-x,y,z
x,-y,z
1/2+x,1/2+y,z
1/2-x,1/2-y,z
1/2-x,1/2+y,z
1/2+x,1/2-y,z
loop_
_atom_site_type_symbol
_atom_site_label
_atom_site_fract_x
_atom_site_fract_y
_atom_site_fract_z
Si Si1 0.104920 0.691069 0.156860
Si Si2 0.799708 0.310407 0.049550
Si Si3 0.894517 0.809473 0.654404
Si Si4 0.700232 0.310333 0.762520
Si Si5 0.553009 0.190943 0.900872
Si Si6 0.052886 0.191023 0.404004
O O1 0.103509 0.500000 0.163307
O O2 0.157784 0.739615 0.136791
O O3 0.079916 0.757608 0.279262
O O4 0.078195 0.740254 0.029596
O O5 0.798914 0.500000 0.044216
O O6 0.750000 0.250000 0.091273
O O7 0.807413 0.249464 0.906234
O O8 0.842122 0.756235 0.676004
O O9 0.922405 0.759321 0.778231
O O10 0.920009 0.751610 0.528527
O O11 0.893817 0.000000 0.648686
O O12 0.701072 0.500000 0.765815
O O13 0.750000 0.250000 0.721324
O O14 0.500000 0.238198 0.904087
O O15 0.555359 0.000000 0.894541
O O16 0.000000 0.246470 0.402742
O O17 0.051834 0.000000 0.408159
#
# Coordination Sequence:
#
# PCOD9348436 Si02
#       6
#     8   8   8   8   8   8
#     4  10  21  37  56  80 111 145 182 225 274 326
#     4  10  19  33  55  82 112 143 177 222 273 324
#     4  10  21  37  56  80 110 144 183 226 274 325
#     4  10  19  32  54  82 111 143 178 221 273 325
#     4  10  20  34  54  80 109 140 178 227 277 325
#     4  10  22  39  57  78 109 149 188 227 273 325
#
# _framework density 18.386005000000001
#
# number of rings (size 3 to 8) (size 9 to 14) (size 15 to 20)
#    0.000    2.000    1.667    3.000    0.000    5.333 
#    0.000    0.833    0.000    4.000    0.000    0.000 
#    0.000    0.000    0.000    0.000    0.000    0.000 
#
# Total GULP energy -133982.367880 kJ/mol
# GULP energy per Si atom -5582.598662 kJ/mol
# Density = 1.834416 g / cm^3
# Si number density = 18.386005 Si / 1000 Ang^3
#
#
#
# Elastic Constant Matrix: (Units=GPa)
#
#
# Indices 1 2 3 4 5 6 
#
# 1 212.2887 29.7005 104.8624 0.0000 0.0000 0.0000
# 2 29.7005 16.1615 14.2377 0.0000 0.0000 0.0000
# 3 104.8624 14.2377 148.4050 0.0000 0.0000 0.0000
# 4 0.0000 0.0000 0.0000 23.9850 0.0000 0.0000
# 5 0.0000 0.0000 0.0000 0.0000 32.8885 0.0000
# 6 0.0000 0.0000 0.0000 0.0000 0.0000 25.2066
#
#
#
# Elastic Compliance Matrix: (Units=1/GPa)
#
#
# Indices 1 2 3 4 5 6 
#
# 1 0.008919 -0.011839 -0.005166 0.000000 0.000000 0.000000
# 2 -0.011839 0.083304 0.000374 0.000000 0.000000 0.000000
# 3 -0.005166 0.000374 0.010353 0.000000 0.000000 0.000000
# 4 0.000000 0.000000 0.000000 0.041693 0.000000 0.000000
# 5 0.000000 0.000000 0.000000 0.000000 0.030406 0.000000
# 6 0.000000 0.000000 0.000000 0.000000 0.000000 0.039672
#
#
# Mechanical properties :
#
#
# Convention : Reuss Voigt Hill
#
# Bulk Modulus (GPa) = 14.42756 74.93962 44.68359
# Shear Modulus (GPa) = 18.46968 31.61966 25.04467
#
# Velocity S-wave (km/s) = 3.17290 4.15151 3.69475
# Velocity P-wave (km/s) = 4.61380 7.98922 6.52360
#
# Compressibility (1/GPa) = 0.06931179
#
# Stress axis : x y z
#
# Youngs Moduli (GPa) = 112.12212 12.00425 96.59137
#
# Poissons Ratio (x) = 0.14212 0.49901
# Poissons Ratio (y) = 1.32744 -0.03608
# Poissons Ratio (z) = 0.57924 -0.00448
#
# Static dielectric constant tensor:
#      x y z
#    x 1.651780 0.000000 0.000000 
#    y 0.000000 1.633880 0.000000 
#    z 0.000000 0.000000 1.592190 
# 
# From -- ./inp_files/5302.got.cif
#   From: 2010.05.17/outbox.cif.g08.bks.cpg/sg35_3_cif.got.tgz:5302.got - 2010.06.03 17:29:28.
