data_PCOD9348418
_publ_section_title
;
Structure prediction by ZEFSAII (Michael W. Deem and Ramdas Pophale) SiO2 
 PCOD9348418
Probable space group: C M M 2
;
_chemical_formula_sum "Si O2"
_cell_formula_units_Z 56
_cell_length_a 8.013740
_cell_length_b 18.632173
_cell_length_c 18.703757
_cell_angle_alpha 90.000000
_cell_angle_beta 90.000000
_cell_angle_gamma 90.000000
_cell_volume 2792.721364
_symmetry_space_group_name_H-M "C M M 2"
_symmetry_group_IT_number 35
_symmetry_cell_setting 'orthorhombic'
loop_
_space_group_symop_operation_xyz
x,y,z
-x,-y,z
-x,y,z
x,-y,z
1/2+x,1/2+y,z
1/2-x,1/2-y,z
1/2-x,1/2+y,z
1/2+x,1/2-y,z
loop_
_atom_site_type_symbol
_atom_site_label
_atom_site_fract_x
_atom_site_fract_y
_atom_site_fract_z
Si Si1 0.701442 0.832715 0.599870
Si Si2 0.801260 0.081758 0.304012
Si Si3 0.201234 0.666934 0.882667
Si Si4 0.200698 0.582311 0.461398
Si Si5 0.704467 0.917028 0.024322
Si Si6 0.698396 0.167419 0.164154
Si Si7 0.795727 0.417058 0.741194
O O1 0.500000 0.836644 0.599444
O O2 0.750000 0.750000 0.605024
O O3 0.762871 0.868866 0.526314
O O4 0.759385 0.877294 0.668993
O O5 0.744976 0.108249 0.382000
O O6 0.749666 0.131152 0.238440
O O7 0.000000 0.078143 0.304832
O O8 0.734653 0.000000 0.294733
O O9 0.250000 0.750000 0.882658
O O10 0.260002 0.626194 0.811321
O O11 0.000000 0.663225 0.882553
O O12 0.259484 0.626292 0.954127
O O13 0.262355 0.500000 0.468327
O O14 0.000000 0.580043 0.466148
O O15 0.500000 0.916612 0.024468
O O16 0.763694 0.877667 0.096279
O O17 0.756313 0.000000 0.022227
O O18 0.500000 0.164584 0.160259
O O19 0.750000 0.250000 0.160173
O O20 0.743456 0.500000 0.743008
O O21 0.000000 0.416828 0.741275
#
# Coordination Sequence:
#
# PCOD9348418 Si02
#       7
#     8   8   8   8   8   8   8
#     4  10  20  33  51  76 105 136 171 214 261 309
#     4  10  21  37  57  81 108 137 173 218 266 318
#     4  10  19  32  53  79 108 139 171 212 259 306
#     4   9  18  34  55  76 100 135 178 218 257 306
#     4   9  18  33  54  79 104 135 178 220 257 305
#     4  11  22  36  55  78 107 141 177 219 266 316
#     4   9  17  31  53  78 102 134 178 219 252 295
#
# _framework density 20.052125
#
# number of rings (size 3 to 8) (size 9 to 14) (size 15 to 20)
#    0.000    2.286    0.000    3.000    0.000    6.000 
#    0.000    2.143    0.000    5.571    0.000    0.000 
#    0.000    0.000    0.000    0.000    0.000    0.000 
#
# Total GULP energy -156391.291919 kJ/mol
# GULP energy per Si atom -5585.403283 kJ/mol
# Density = 2.000649 g / cm^3
# Si number density = 20.052125 Si / 1000 Ang^3
#
#
#
# Elastic Constant Matrix: (Units=GPa)
#
#
# Indices 1 2 3 4 5 6 
#
# 1 17.0654 6.4714 15.1387 0.0000 0.0000 0.0000
# 2 6.4714 191.2534 147.4023 0.0000 0.0000 0.0000
# 3 15.1387 147.4023 236.5743 0.0000 0.0000 0.0000
# 4 0.0000 0.0000 0.0000 15.2794 0.0000 0.0000
# 5 0.0000 0.0000 0.0000 0.0000 -5.0711 0.0000
# 6 0.0000 0.0000 0.0000 0.0000 0.0000 24.5988
#
#
#
# Elastic Compliance Matrix: (Units=1/GPa)
#
#
# Indices 1 2 3 4 5 6 
#
# 1 0.062467 0.001861 -0.005157 0.000000 0.000000 0.000000
# 2 0.001861 0.010115 -0.006421 0.000000 0.000000 0.000000
# 3 -0.005157 -0.006421 0.008558 0.000000 0.000000 0.000000
# 4 0.000000 0.000000 0.000000 0.065447 0.000000 0.000000
# 5 0.000000 0.000000 0.000000 0.000000 -0.197195 0.000000
# 6 0.000000 0.000000 0.000000 0.000000 0.000000 0.040652
#
#
# Mechanical properties :
#
#
# Convention : Reuss Voigt Hill
#
# Bulk Modulus (GPa) = 16.20610 86.99085 51.59847
# Shear Modulus (GPa) = 166.40367 25.35348 95.87857
#
# Velocity S-wave (km/s) = 9.11952 3.55967 6.92232
# Velocity P-wave (km/s) = 10.90812 7.76991 9.46992
#
# Compressibility (1/GPa) = 0.06170516
#
# Stress axis : x y z
#
# Youngs Moduli (GPa) = 16.00843 98.86685 116.85220
#
# Poissons Ratio (x) = -0.18396 0.60257
# Poissons Ratio (y) = -0.02979 0.75033
# Poissons Ratio (z) = 0.08255 0.63484
#
# Static dielectric constant tensor:
#      x y z
#    x 1.722730 0.000000 0.000000 
#    y 0.000000 1.669290 0.000000 
#    z 0.000000 0.000000 1.697760 
# 
# From -- ./inp_files/15645.got.cif
#   From: 2010.05.17/outbox.cif.g08.bks.cpg/sg35_8_cif.got.tgz:15645.got - 2010.06.03 17:29:28.
