data_PCOD9348816
_publ_section_title
;
Structure prediction by ZEFSAII (Michael W. Deem and Ramdas Pophale) SiO2 
 PCOD9348816
Probable space group: C M M 2
;
_chemical_formula_sum "Si O2"
_cell_formula_units_Z 64
_cell_length_a 29.061189
_cell_length_b 8.759306
_cell_length_c 15.889765
_cell_angle_alpha 90.000000
_cell_angle_beta 90.000000
_cell_angle_gamma 90.000000
_cell_volume 4044.832591
_symmetry_space_group_name_H-M "C M M 2"
_symmetry_group_IT_number 35
_symmetry_cell_setting 'orthorhombic'
loop_
_space_group_symop_operation_xyz
x,y,z
-x,-y,z
-x,y,z
x,-y,z
1/2+x,1/2+y,z
1/2-x,1/2-y,z
1/2-x,1/2+y,z
1/2+x,1/2-y,z
loop_
_atom_site_type_symbol
_atom_site_label
_atom_site_fract_x
_atom_site_fract_y
_atom_site_fract_z
Si Si1 0.053523 0.183799 0.897950
Si Si2 0.609652 0.682877 0.732011
Si Si3 0.390022 0.817591 0.406430
Si Si4 0.054025 0.316906 0.575960
Si Si5 0.055826 0.324205 0.074902
Si Si6 0.945754 0.818101 0.251874
Si Si7 0.299115 0.817457 0.663192
Si Si8 0.299079 0.682488 0.475871
O O1 0.084008 0.228246 0.817994
O O2 0.000000 0.229657 0.884467
O O3 0.054169 0.000000 0.904579
O O4 0.070417 0.252947 0.986079
O O5 0.615151 0.500000 0.731117
O O6 0.578431 0.732989 0.653084
O O7 0.658866 0.762010 0.720138
O O8 0.420870 0.778557 0.488434
O O9 0.416458 0.763592 0.323574
O O10 0.341111 0.736161 0.418369
O O11 0.383735 0.000000 0.405529
O O12 0.058654 0.500000 0.588289
O O13 0.000000 0.280033 0.571787
O O14 0.070063 0.500000 0.081551
O O15 0.069407 0.233395 0.158600
O O16 0.000000 0.319145 0.073217
O O17 0.000000 0.777517 0.261390
O O18 0.941752 0.000000 0.259931
O O19 0.250000 0.750000 0.690776
O O20 0.307553 0.751427 0.569218
O O21 0.297148 0.000000 0.658656
O O22 0.296688 0.500000 0.481538
O O23 0.250000 0.750000 0.447821
#
# Coordination Sequence:
#
# PCOD9348816 Si02
#       8
#     8   8   8   8   8   8   8   8
#     4   9  18  32  49  71 101 135 169 206 248 295
#     4  11  21  33  50  73 100 134 171 208 250 300
#     4  11  21  34  51  73 101 135 171 209 251 297
#     4  10  21  34  47  66  98 138 174 207 244 289
#     4   9  17  30  49  72  97 128 167 211 255 296
#     4  10  20  33  50  73 102 136 172 210 252 300
#     4  11  21  35  53  73  97 128 166 211 257 300
#     4  11  21  35  54  75  98 128 166 210 256 301
#
# _framework density 15.822657
#
# number of rings (size 3 to 8) (size 9 to 14) (size 15 to 20)
#    0.000    1.750    1.250    5.250    0.000    5.000 
#    0.000    1.250    0.000    0.000    0.000    0.875 
#    0.000    4.000    0.000    0.000    0.000    0.000 
#
# Total GULP energy -178665.567380 kJ/mol
# GULP energy per Si atom -5583.298981 kJ/mol
# Density = 1.578664 g / cm^3
# Si number density = 15.822657 Si / 1000 Ang^3
#
#
#
# Elastic Constant Matrix: (Units=GPa)
#
#
# Indices 1 2 3 4 5 6 
#
# 1 101.8601 51.5254 58.5983 0.0000 0.0000 0.0000
# 2 51.5254 86.0406 50.8508 0.0000 0.0000 0.0000
# 3 58.5983 50.8508 116.7719 0.0000 0.0000 0.0000
# 4 0.0000 0.0000 0.0000 27.2985 0.0000 0.0000
# 5 0.0000 0.0000 0.0000 0.0000 7.0616 0.0000
# 6 0.0000 0.0000 0.0000 0.0000 0.0000 25.1257
#
#
#
# Elastic Compliance Matrix: (Units=1/GPa)
#
#
# Indices 1 2 3 4 5 6 
#
# 1 0.016163 -0.006579 -0.005246 0.000000 0.000000 0.000000
# 2 -0.006579 0.018328 -0.004680 0.000000 0.000000 0.000000
# 3 -0.005246 -0.004680 0.013234 0.000000 0.000000 0.000000
# 4 0.000000 0.000000 0.000000 0.036632 0.000000 0.000000
# 5 0.000000 0.000000 0.000000 0.000000 0.141610 0.000000
# 6 0.000000 0.000000 0.000000 0.000000 0.000000 0.039800
#
#
# Mechanical properties :
#
#
# Convention : Reuss Voigt Hill
#
# Bulk Modulus (GPa) = 67.95441 69.62465 68.78953
# Shear Modulus (GPa) = 16.46456 21.47705 18.97081
#
# Velocity S-wave (km/s) = 3.22928 3.68823 3.46636
# Velocity P-wave (km/s) = 7.54620 7.88899 7.71950
#
# Compressibility (1/GPa) = 0.01471575
#
# Stress axis : x y z
#
# Youngs Moduli (GPa) = 61.86864 54.56109 75.56130
#
# Poissons Ratio (x) = 0.35895 0.39640
# Poissons Ratio (y) = 0.40703 0.35362
# Poissons Ratio (z) = 0.32457 0.25534
#
# Static dielectric constant tensor:
#      x y z
#    x 1.521530 0.000000 0.000000 
#    y 0.000000 1.529580 0.000000 
#    z 0.000000 0.000000 1.507030 
# 
# From -- ./inp_files/14539.got.cif
#   From: 2010.05.17/outbox.cif.g08.bks.cpg/sg35_8_cif.got.tgz:14539.got - 2010.06.03 17:29:28.
