data_PCOD9348778
_publ_section_title
;
Structure prediction by ZEFSAII (Michael W. Deem and Ramdas Pophale) SiO2 
 PCOD9348778
Probable space group: C M M 2
;
_chemical_formula_sum "Si O2"
_cell_formula_units_Z 56
_cell_length_a 22.126898
_cell_length_b 9.019532
_cell_length_c 14.547062
_cell_angle_alpha 90.000000
_cell_angle_beta 90.000000
_cell_angle_gamma 90.000000
_cell_volume 2903.219200
_symmetry_space_group_name_H-M "C M M 2"
_symmetry_group_IT_number 35
_symmetry_cell_setting 'orthorhombic'
loop_
_space_group_symop_operation_xyz
x,y,z
-x,-y,z
-x,y,z
x,-y,z
1/2+x,1/2+y,z
1/2-x,1/2-y,z
1/2-x,1/2+y,z
1/2+x,1/2-y,z
loop_
_atom_site_type_symbol
_atom_site_label
_atom_site_fract_x
_atom_site_fract_y
_atom_site_fract_z
Si Si1 0.131437 0.824671 0.869520
Si Si2 0.879789 0.676408 0.217790
Si Si3 0.189410 0.174222 0.060311
Si Si4 0.686594 0.823420 0.702967
Si Si5 0.000000 0.822334 0.902971
Si Si6 0.930894 0.175729 0.387789
Si Si7 0.070096 0.823084 0.606537
Si Si8 0.000000 0.677277 0.103287
O O1 0.175386 0.726964 0.808268
O O2 0.061703 0.784263 0.850951
O O3 0.141104 0.000000 0.849587
O O4 0.141617 0.803650 0.978194
O O5 0.873262 0.500000 0.218716
O O6 0.828949 0.750406 0.155438
O O7 0.886556 0.738228 0.320246
O O8 0.941334 0.716392 0.162978
O O9 0.250000 0.250000 0.025864
O O10 0.197312 0.000000 0.073461
O O11 0.750000 0.750000 0.671330
O O12 0.626229 0.760114 0.653361
O O13 0.690043 0.000000 0.694192
O O14 0.000000 0.751862 0.003942
O O15 0.000000 0.000000 0.914409
O O16 0.922320 0.197047 0.496454
O O17 0.000000 0.222826 0.367219
O O18 0.926276 0.000000 0.369515
O O19 0.000000 0.779241 0.628805
O O20 0.074485 0.000000 0.626549
O O21 0.000000 0.500000 0.090109
#
# Coordination Sequence:
#
# PCOD9348778 Si02
#       8
#     8   8   8   8   4   8   8   4
#     4  10  22  39  61  88 119 156 197 242 297 356
#     4  11  21  34  54  84 120 156 192 236 287 340
#     4  11  23  39  58  80 111 154 202 248 292 346
#     4  12  26  43  65  91 121 159 204 251 304 366
#     4  10  20  36  58  87 118 155 196 239 294 352
#     4   9  18  34  59  89 119 154 194 237 291 354
#     4   9  20  41  67  94 125 159 197 247 306 365
#     4  10  20  32  50  81 118 153 186 229 284 332
#
# _framework density 19.288934000000001
#
# number of rings (size 3 to 8) (size 9 to 14) (size 15 to 20)
#    0.000    1.714    2.143    3.429    1.000    4.286 
#    0.000    2.143    0.000    3.429    0.000    0.000 
#    0.000    0.000    0.000    0.000    0.000    0.000 
#
# Total GULP energy -156325.540862 kJ/mol
# GULP energy per Si atom -5583.055031 kJ/mol
# Density = 1.924503 g / cm^3
# Si number density = 19.288934 Si / 1000 Ang^3
#
#
#
# Elastic Constant Matrix: (Units=GPa)
#
#
# Indices 1 2 3 4 5 6 
#
# 1 112.2219 55.5027 30.3003 0.0000 0.0000 0.0000
# 2 55.5027 70.2291 42.6948 0.0000 0.0000 0.0000
# 3 30.3003 42.6948 71.1862 0.0000 0.0000 0.0000
# 4 0.0000 0.0000 0.0000 32.8822 0.0000 0.0000
# 5 0.0000 0.0000 0.0000 0.0000 28.5083 0.0000
# 6 0.0000 0.0000 0.0000 0.0000 0.0000 27.9442
#
#
#
# Elastic Compliance Matrix: (Units=1/GPa)
#
#
# Indices 1 2 3 4 5 6 
#
# 1 0.014685 -0.012285 0.001117 0.000000 0.000000 0.000000
# 2 -0.012285 0.032688 -0.014376 0.000000 0.000000 0.000000
# 3 0.001117 -0.014376 0.022194 0.000000 0.000000 0.000000
# 4 0.000000 0.000000 0.000000 0.030412 0.000000 0.000000
# 5 0.000000 0.000000 0.000000 0.000000 0.035078 0.000000
# 6 0.000000 0.000000 0.000000 0.000000 0.000000 0.035786
#
#
# Mechanical properties :
#
#
# Convention : Reuss Voigt Hill
#
# Bulk Modulus (GPa) = 54.11227 56.73698 55.42462
# Shear Modulus (GPa) = 21.92130 26.20956 24.06543
#
# Velocity S-wave (km/s) = 3.37481 3.69017 3.53601
# Velocity P-wave (km/s) = 6.58029 6.90178 6.74295
#
# Compressibility (1/GPa) = 0.01848010
#
# Stress axis : x y z
#
# Youngs Moduli (GPa) = 68.09566 30.59247 45.05719
#
# Poissons Ratio (x) = 0.37584 -0.05035
# Poissons Ratio (y) = 0.83657 0.64773
# Poissons Ratio (z) = -0.07610 0.43979
#
# Static dielectric constant tensor:
#      x y z
#    x 1.678870 0.000000 0.000000 
#    y 0.000000 1.635150 0.000000 
#    z 0.000000 0.000000 1.663870 
# 
# From -- ./inp_files/17485.got.cif
#   From: 2010.05.17/outbox.cif.g08.bks.cpg/sg35_9_cif.got.tgz:17485.got - 2010.06.03 17:29:28.
