data_PCOD9348387
_publ_section_title
;
Structure prediction by ZEFSAII (Michael W. Deem and Ramdas Pophale) SiO2 
 PCOD9348387
Probable space group: C M M 2
;
_chemical_formula_sum "Si O2"
_cell_formula_units_Z 48
_cell_length_a 8.780611
_cell_length_b 33.696225
_cell_length_c 9.416167
_cell_angle_alpha 90.000000
_cell_angle_beta 90.000000
_cell_angle_gamma 90.000000
_cell_volume 2785.993759
_symmetry_space_group_name_H-M "C M M 2"
_symmetry_group_IT_number 35
_symmetry_cell_setting 'orthorhombic'
loop_
_space_group_symop_operation_xyz
x,y,z
-x,-y,z
-x,y,z
x,-y,z
1/2+x,1/2+y,z
1/2-x,1/2-y,z
1/2-x,1/2+y,z
1/2+x,1/2-y,z
loop_
_atom_site_type_symbol
_atom_site_label
_atom_site_fract_x
_atom_site_fract_y
_atom_site_fract_z
Si Si1 0.181845 0.707532 0.151440
Si Si2 0.325935 0.583732 0.062871
Si Si3 0.684009 0.633188 0.322124
Si Si4 0.817486 0.456166 0.804051
Si Si5 0.316524 0.122298 0.634218
Si Si6 0.324620 0.333044 0.889101
O O1 0.250000 0.750000 0.192031
O O2 0.248123 0.673012 0.252287
O O3 0.000000 0.707676 0.158237
O O4 0.236848 0.697058 0.991547
O O5 0.500000 0.569540 0.071518
O O6 0.230676 0.554486 0.964645
O O7 0.326273 0.625583 0.977558
O O8 0.270755 0.596431 0.218812
O O9 0.500000 0.635485 0.319040
O O10 0.745710 0.627558 0.479662
O O11 0.760319 0.500000 0.764777
O O12 0.767075 0.420107 0.702410
O O13 0.000000 0.456481 0.797467
O O14 0.500000 0.123403 0.628387
O O15 0.256592 0.156053 0.742096
O O16 0.500000 0.320824 0.868160
#
# Coordination Sequence:
#
# PCOD9348387 Si02
#       6
#     8   8   8   8   8   8
#     4  11  21  35  55  79 105 134 170 211 256 303
#     4   8  16  30  49  71  95 126 165 205 246 297
#     4  10  20  35  53  75 104 137 172 211 258 309
#     4   9  18  32  50  73 101 132 169 214 260 305
#     4  10  19  32  52  77 104 137 175 212 255 308
#     4   9  17  32  52  74 100 131 167 206 248 296
#
# _framework density 17.229040999999999
#
# number of rings (size 3 to 8) (size 9 to 14) (size 15 to 20)
#    0.000    2.500    0.000    4.000    0.000    5.667 
#    0.000    1.667    0.000    3.000    0.000    0.000 
#    0.000    0.000    0.000    0.000    0.000    0.000 
#
# Total GULP energy -133765.515794 kJ/mol
# GULP energy per Si atom -5573.563158 kJ/mol
# Density = 1.718983 g / cm^3
# Si number density = 17.229041 Si / 1000 Ang^3
#
#
#
# Elastic Constant Matrix: (Units=GPa)
#
#
# Indices 1 2 3 4 5 6 
#
# 1 81.6788 32.9536 43.3406 0.0000 0.0000 0.0000
# 2 32.9536 79.7513 43.8609 0.0000 0.0000 0.0000
# 3 43.3406 43.8609 145.0049 0.0000 0.0000 0.0000
# 4 0.0000 0.0000 0.0000 15.2187 0.0000 0.0000
# 5 0.0000 0.0000 0.0000 0.0000 31.2421 0.0000
# 6 0.0000 0.0000 0.0000 0.0000 0.0000 17.5578
#
#
#
# Elastic Compliance Matrix: (Units=1/GPa)
#
#
# Indices 1 2 3 4 5 6 
#
# 1 0.015923 -0.004753 -0.003322 0.000000 0.000000 0.000000
# 2 -0.004753 0.016460 -0.003558 0.000000 0.000000 0.000000
# 3 -0.003322 -0.003558 0.008965 0.000000 0.000000 0.000000
# 4 0.000000 0.000000 0.000000 0.065709 0.000000 0.000000
# 5 0.000000 0.000000 0.000000 0.000000 0.032008 0.000000
# 6 0.000000 0.000000 0.000000 0.000000 0.000000 0.056955
#
#
# Mechanical properties :
#
#
# Convention : Reuss Voigt Hill
#
# Bulk Modulus (GPa) = 55.30010 60.74947 58.02478
# Shear Modulus (GPa) = 22.19139 25.22237 23.70688
#
# Velocity S-wave (km/s) = 3.59280 3.83030 3.71345
# Velocity P-wave (km/s) = 7.02692 7.40933 7.22066
#
# Compressibility (1/GPa) = 0.01808315
#
# Stress axis : x y z
#
# Youngs Moduli (GPa) = 62.80174 60.75438 111.53979
#
# Poissons Ratio (x) = 0.28875 0.37050
# Poissons Ratio (y) = 0.29848 0.39688
# Poissons Ratio (z) = 0.20861 0.21617
#
# Static dielectric constant tensor:
#      x y z
#    x 1.582770 0.000000 0.000000 
#    y 0.000000 1.594810 0.000000 
#    z 0.000000 0.000000 1.577530 
# 
# From -- ./inp_files/5267.got.cif
#   From: 2010.05.17/outbox.cif.g08.bks.cpg/sg35_3_cif.got.tgz:5267.got - 2010.06.03 17:29:28.
