data_PCOD9348743
_publ_section_title
;
Structure prediction by ZEFSAII (Michael W. Deem and Ramdas Pophale) SiO2 
 PCOD9348743
Probable space group: C M M 2
;
_chemical_formula_sum "Si O2"
_cell_formula_units_Z 64
_cell_length_a 21.413998
_cell_length_b 14.909941
_cell_length_c 9.761481
_cell_angle_alpha 90.000000
_cell_angle_beta 90.000000
_cell_angle_gamma 90.000000
_cell_volume 3116.659776
_symmetry_space_group_name_H-M "C M M 2"
_symmetry_group_IT_number 35
_symmetry_cell_setting 'orthorhombic'
loop_
_space_group_symop_operation_xyz
x,y,z
-x,-y,z
-x,y,z
x,-y,z
1/2+x,1/2+y,z
1/2-x,1/2-y,z
1/2-x,1/2+y,z
1/2+x,1/2-y,z
loop_
_atom_site_type_symbol
_atom_site_label
_atom_site_fract_x
_atom_site_fract_y
_atom_site_fract_z
Si Si1 0.793196 0.604536 0.024000
Si Si2 0.066726 0.604982 0.694934
Si Si3 0.313860 0.606437 0.221645
Si Si4 0.432318 0.136465 0.022097
Si Si5 0.928887 0.149521 0.031815
Si Si6 0.680484 0.389820 0.531069
Si Si7 0.570312 0.393011 0.723464
Si Si8 0.701350 0.889676 0.712126
O O1 0.776554 0.500000 0.007013
O O2 0.742293 0.643340 0.127644
O O3 0.864751 0.607235 0.076867
O O4 0.791400 0.642650 0.869379
O O5 0.065829 0.500000 0.657200
O O6 0.067892 0.610164 0.861202
O O7 0.134274 0.641660 0.654327
O O8 0.000000 0.644525 0.649861
O O9 0.302565 0.500000 0.236702
O O10 0.316629 0.643085 0.375413
O O11 0.378996 0.618283 0.142348
O O12 0.500000 0.104866 0.077933
O O13 0.431910 0.243339 0.033801
O O14 0.907704 0.123452 0.878748
O O15 0.000000 0.114854 0.051638
O O16 0.679124 0.500000 0.530116
O O17 0.618871 0.359410 0.611946
O O18 0.740985 0.363750 0.618445
O O19 0.500000 0.355921 0.712262
O O20 0.566503 0.500000 0.706624
O O21 0.699045 0.000000 0.715789
#
# Coordination Sequence:
#
# PCOD9348743 Si02
#       8
#     8   8   8   8   8   8   8   8
#     4   9  17  30  51  75  96 122 156 195 237 278
#     4   8  13  23  43  71  97 119 148 190 235 275
#     4  10  20  32  47  69  96 126 161 198 234 276
#     4   9  17  29  47  72  99 124 155 194 235 280
#     4  10  20  32  48  70  96 127 158 192 236 281
#     4   9  17  29  46  67  91 119 152 193 235 274
#     4   9  17  30  48  69  92 119 153 192 233 277
#     4   8  13  23  42  67  91 114 143 182 227 271
#
# _framework density 20.534804999999999
#
# number of rings (size 3 to 8) (size 9 to 14) (size 15 to 20)
#    0.000    3.000    0.000    2.250    0.000    4.500 
#    0.000    1.250    0.000    6.750    0.000    8.750 
#    0.000    0.000    0.000    0.000    0.000    0.000 
#
# Total GULP energy -178345.607993 kJ/mol
# GULP energy per Si atom -5573.300250 kJ/mol
# Density = 2.048807 g / cm^3
# Si number density = 20.534805 Si / 1000 Ang^3
#
#
#
# Elastic Constant Matrix: (Units=GPa)
#
#
# Indices 1 2 3 4 5 6 
#
# 1 151.0095 -11.1774 101.7748 0.0000 0.0000 0.0000
# 2 -11.1774 37.0024 -1.2460 0.0000 0.0000 0.0000
# 3 101.7748 -1.2460 119.2929 0.0000 0.0000 0.0000
# 4 0.0000 0.0000 0.0000 -21.8815 0.0000 0.0000
# 5 0.0000 0.0000 0.0000 0.0000 -10.6175 0.0000
# 6 0.0000 0.0000 0.0000 0.0000 0.0000 14.2897
#
#
#
# Elastic Compliance Matrix: (Units=1/GPa)
#
#
# Indices 1 2 3 4 5 6 
#
# 1 0.016283 0.004452 -0.013845 0.000000 0.000000 0.000000
# 2 0.004452 0.028252 -0.003503 0.000000 0.000000 0.000000
# 3 -0.013845 -0.003503 0.020158 0.000000 0.000000 0.000000
# 4 0.000000 0.000000 0.000000 -0.045701 0.000000 0.000000
# 5 0.000000 0.000000 0.000000 0.000000 -0.094184 0.000000
# 6 0.000000 0.000000 0.000000 0.000000 0.000000 0.069980
#
#
# Mechanical properties :
#
#
# Convention : Reuss Voigt Hill
#
# Bulk Modulus (GPa) = 25.70647 54.00084 39.85365
# Shear Modulus (GPa) = 149.03860 10.88836 79.96348
#
# Velocity S-wave (km/s) = 8.52855 2.30519 6.24700
# Velocity P-wave (km/s) = 10.46552 5.78269 8.45478
#
# Compressibility (1/GPa) = 0.03890072
#
# Stress axis : x y z
#
# Youngs Moduli (GPa) = 61.41461 35.39539 49.60777
#
# Poissons Ratio (x) = -0.15759 0.68683
# Poissons Ratio (y) = -0.27344 0.17380
# Poissons Ratio (z) = 0.85029 0.12401
#
# Static dielectric constant tensor:
#      x y z
#    x 1.779790 0.000000 0.000000 
#    y 0.000000 1.758020 0.000000 
#    z 0.000000 0.000000 1.691000 
# 
# From -- ./inp_files/9456.got.cif
#   From: 2010.05.17/outbox.cif.g08.bks.cpg/sg35_5_cif.got.tgz:9456.got - 2010.06.03 17:29:28.
