data_PCOD9348449
_publ_section_title
;
Structure prediction by ZEFSAII (Michael W. Deem and Ramdas Pophale) SiO2 
 PCOD9348449
Probable space group: C M M 2
;
_chemical_formula_sum "Si O2"
_cell_formula_units_Z 64
_cell_length_a 13.734546
_cell_length_b 23.108429
_cell_length_c 10.165088
_cell_angle_alpha 90.000000
_cell_angle_beta 90.000000
_cell_angle_gamma 90.000000
_cell_volume 3226.234065
_symmetry_space_group_name_H-M "C M M 2"
_symmetry_group_IT_number 35
_symmetry_cell_setting 'orthorhombic'
loop_
_space_group_symop_operation_xyz
x,y,z
-x,-y,z
-x,y,z
x,-y,z
1/2+x,1/2+y,z
1/2-x,1/2-y,z
1/2-x,1/2+y,z
1/2+x,1/2-y,z
loop_
_atom_site_type_symbol
_atom_site_label
_atom_site_fract_x
_atom_site_fract_y
_atom_site_fract_z
Si Si1 0.613173 0.292925 0.263650
Si Si2 0.613071 0.645271 0.761666
Si Si3 0.383180 0.144284 0.899746
Si Si4 0.216782 0.681571 0.625787
Si Si5 0.188529 0.431897 0.131403
Si Si6 0.883618 0.234735 0.978691
Si Si7 0.392034 0.431892 0.014223
Si Si8 0.179210 0.334105 0.340052
O O1 0.500000 0.308211 0.291666
O O2 0.703398 0.322942 0.335665
O O3 0.626991 0.223973 0.287499
O O4 0.637156 0.300513 0.108986
O O5 0.500000 0.646495 0.726868
O O6 0.683268 0.645092 0.638977
O O7 0.640419 0.703112 0.843791
O O8 0.628926 0.597450 0.873691
O O9 0.500000 0.143194 0.891751
O O10 0.341445 0.159461 0.755388
O O11 0.345804 0.200434 0.981701
O O12 0.350889 0.090261 0.989133
O O13 0.250000 0.750000 0.618003
O O14 0.158239 0.664359 0.495387
O O15 0.166165 0.500000 0.151621
O O16 0.305232 0.424728 0.116618
O O17 0.154678 0.389015 0.248271
O O18 0.000000 0.239170 0.977880
O O19 0.500000 0.411270 0.056288
O O20 0.397383 0.500000 0.990779
#
# Coordination Sequence:
#
# PCOD9348449 Si02
#       8
#     8   8   8   8   8   8   8   8
#     4  10  20  35  58  87 125 166 203 254 313 365
#     4  10  19  32  54  86 122 157 196 241 298 366
#     4  11  23  39  61  89 120 153 201 262 315 363
#     4  12  23  37  56  91 131 164 198 242 308 380
#     4  11  23  42  68  90 117 163 213 264 310 359
#     4   9  17  29  53  85 112 147 192 247 309 352
#     4   9  18  34  58  89 119 149 194 252 308 356
#     4  11  24  39  56  89 129 164 208 251 301 376
#
# _framework density 19.837368999999999
#
# number of rings (size 3 to 8) (size 9 to 14) (size 15 to 20)
#    0.000    1.625    5.000    0.750    0.000    2.750 
#    0.000    1.250    0.000    0.000    0.000    0.000 
#    0.000    0.000    0.000    0.000    0.000    0.000 
#
# Total GULP energy -178372.778099 kJ/mol
# GULP energy per Si atom -5574.149316 kJ/mol
# Density = 1.979222 g / cm^3
# Si number density = 19.837369 Si / 1000 Ang^3
#
#
#
# Elastic Constant Matrix: (Units=GPa)
#
#
# Indices 1 2 3 4 5 6 
#
# 1 61.8468 1.3957 3.7022 0.0000 0.0000 0.0000
# 2 1.3957 107.6074 27.9926 0.0000 0.0000 0.0000
# 3 3.7022 27.9926 92.6965 0.0000 0.0000 0.0000
# 4 0.0000 0.0000 0.0000 12.3540 0.0000 0.0000
# 5 0.0000 0.0000 0.0000 0.0000 14.4612 0.0000
# 6 0.0000 0.0000 0.0000 0.0000 0.0000 20.3077
#
#
#
# Elastic Compliance Matrix: (Units=1/GPa)
#
#
# Indices 1 2 3 4 5 6 
#
# 1 0.016208 -0.000045 -0.000634 0.000000 0.000000 0.000000
# 2 -0.000045 0.010085 -0.003044 0.000000 0.000000 0.000000
# 3 -0.000634 -0.003044 0.011732 0.000000 0.000000 0.000000
# 4 0.000000 0.000000 0.000000 0.080945 0.000000 0.000000
# 5 0.000000 0.000000 0.000000 0.000000 0.069151 0.000000
# 6 0.000000 0.000000 0.000000 0.000000 0.000000 0.049242
#
#
# Mechanical properties :
#
#
# Convention : Reuss Voigt Hill
#
# Bulk Modulus (GPa) = 32.70097 36.48129 34.59113
# Shear Modulus (GPa) = 19.60760 24.69526 22.15143
#
# Velocity S-wave (km/s) = 3.14732 3.53212 3.34526
# Velocity P-wave (km/s) = 5.45232 5.92154 5.69177
#
# Compressibility (1/GPa) = 0.03058013
#
# Stress axis : x y z
#
# Youngs Moduli (GPa) = 61.69814 99.15292 85.23430
#
# Poissons Ratio (x) = 0.00450 0.05401
# Poissons Ratio (y) = 0.00280 0.25944
# Poissons Ratio (z) = 0.03909 0.30180
#
# Static dielectric constant tensor:
#      x y z
#    x 1.749400 0.000000 0.000000 
#    y 0.000000 1.722830 0.000000 
#    z 0.000000 0.000000 1.717610 
# 
# From -- ./inp_files/7876.got.cif
#   From: 2010.05.17/outbox.cif.g08.bks.cpg/sg35_4_cif.got.tgz:7876.got - 2010.06.03 17:29:28.
