data_PCOD9348768
_publ_section_title
;
Structure prediction by ZEFSAII (Michael W. Deem and Ramdas Pophale) SiO2 
 PCOD9348768
Probable space group: C M M 2
;
_chemical_formula_sum "Si O2"
_cell_formula_units_Z 48
_cell_length_a 8.063769
_cell_length_b 19.426890
_cell_length_c 15.869308
_cell_angle_alpha 90.000000
_cell_angle_beta 90.000000
_cell_angle_gamma 90.000000
_cell_volume 2485.989835
_symmetry_space_group_name_H-M "C M M 2"
_symmetry_group_IT_number 35
_symmetry_cell_setting 'orthorhombic'
loop_
_space_group_symop_operation_xyz
x,y,z
-x,-y,z
-x,y,z
x,-y,z
1/2+x,1/2+y,z
1/2-x,1/2-y,z
1/2-x,1/2+y,z
1/2+x,1/2-y,z
loop_
_atom_site_type_symbol
_atom_site_label
_atom_site_fract_x
_atom_site_fract_y
_atom_site_fract_z
Si Si1 0.202286 0.920881 0.609390
Si Si2 0.199858 0.078716 0.298159
Si Si3 0.802097 0.421691 0.110002
Si Si4 0.697106 0.671065 0.953973
Si Si5 0.700451 0.329229 0.453656
Si Si6 0.702508 0.579123 0.800197
O O1 0.259729 0.868969 0.537433
O O2 0.255024 0.903461 0.704756
O O3 0.000000 0.920045 0.609042
O O4 0.251026 0.000000 0.591327
O O5 0.247988 0.099787 0.203726
O O6 0.259999 0.129691 0.370903
O O7 0.000000 0.077192 0.302492
O O8 0.259286 0.000000 0.311463
O O9 0.737961 0.500000 0.095634
O O10 0.000000 0.424153 0.108499
O O11 0.745077 0.370479 0.037589
O O12 0.500000 0.669657 0.947687
O O13 0.750000 0.750000 0.956930
O O14 0.764145 0.630600 0.871903
O O15 0.500000 0.332599 0.453761
O O16 0.750000 0.250000 0.452738
O O17 0.500000 0.580156 0.800403
O O18 0.751271 0.500000 0.818189
#
# Coordination Sequence:
#
# PCOD9348768 Si02
#       6
#     8   8   8   8   8   8
#     4   8  14  28  51  76 100 129 170 214 249 290
#     4   9  18  34  55  76  98 130 174 216 251 294
#     4  10  21  37  57  80 104 132 169 214 263 312
#     4  11  22  35  52  76 107 141 175 212 257 308
#     4  10  20  32  49  75 105 136 167 204 252 302
#     4   8  15  29  51  77 101 129 169 214 256 299
#
# _framework density 19.308202999999999
#
# number of rings (size 3 to 8) (size 9 to 14) (size 15 to 20)
#    0.000    2.667    0.000    3.000    0.000    5.667 
#    0.000    1.667    0.000    2.500    0.000    4.667 
#    0.000    0.000    0.000    0.000    0.000    0.000 
#
# Total GULP energy -133924.232006 kJ/mol
# GULP energy per Si atom -5580.176334 kJ/mol
# Density = 1.926426 g / cm^3
# Si number density = 19.308203 Si / 1000 Ang^3
#
#
#
# Elastic Constant Matrix: (Units=GPa)
#
#
# Indices 1 2 3 4 5 6 
#
# 1 16.4718 12.1252 15.7215 0.0000 0.0000 0.0000
# 2 12.1252 158.2453 154.3740 0.0000 0.0000 0.0000
# 3 15.7215 154.3740 207.0451 0.0000 0.0000 0.0000
# 4 0.0000 0.0000 0.0000 4.3941 0.0000 0.0000
# 5 0.0000 0.0000 0.0000 0.0000 3.2769 0.0000
# 6 0.0000 0.0000 0.0000 0.0000 0.0000 17.1222
#
#
#
# Elastic Compliance Matrix: (Units=1/GPa)
#
#
# Indices 1 2 3 4 5 6 
#
# 1 0.065470 -0.000612 -0.004515 0.000000 0.000000 0.000000
# 2 -0.000612 0.023184 -0.017240 0.000000 0.000000 0.000000
# 3 -0.004515 -0.017240 0.018027 0.000000 0.000000 0.000000
# 4 0.000000 0.000000 0.000000 0.227578 0.000000 0.000000
# 5 0.000000 0.000000 0.000000 0.000000 0.305166 0.000000
# 6 0.000000 0.000000 0.000000 0.000000 0.000000 0.058404
#
#
# Mechanical properties :
#
#
# Convention : Reuss Voigt Hill
#
# Bulk Modulus (GPa) = 16.14280 82.91151 49.52716
# Shear Modulus (GPa) = 6.55126 18.26139 12.40633
#
# Velocity S-wave (km/s) = 1.84401 3.07870 2.53759
# Velocity P-wave (km/s) = 3.59340 7.46138 5.85597
#
# Compressibility (1/GPa) = 0.06194712
#
# Stress axis : x y z
#
# Youngs Moduli (GPa) = 15.27427 43.13240 55.47254
#
# Poissons Ratio (x) = 0.02639 0.25046
# Poissons Ratio (y) = 0.00935 0.95635
# Poissons Ratio (z) = 0.06896 0.74360
#
# Static dielectric constant tensor:
#      x y z
#    x 1.694020 0.000000 0.000000 
#    y 0.000000 1.641230 0.000000 
#    z 0.000000 0.000000 1.670500 
# 
# From -- ./inp_files/15136.got.cif
#   From: 2010.05.17/outbox.cif.g08.bks.cpg/sg35_8_cif.got.tgz:15136.got - 2010.06.03 17:29:28.
