data_PCOD9348979
_publ_section_title
;
Structure prediction by ZEFSAII (Michael W. Deem and Ramdas Pophale) SiO2 
 PCOD9348979
Probable space group: C M M 2
;
_chemical_formula_sum "Si O2"
_cell_formula_units_Z 64
_cell_length_a 8.764818
_cell_length_b 20.673287
_cell_length_c 20.344097
_cell_angle_alpha 90.000000
_cell_angle_beta 90.000000
_cell_angle_gamma 90.000000
_cell_volume 3686.301510
_symmetry_space_group_name_H-M "C M M 2"
_symmetry_group_IT_number 35
_symmetry_cell_setting 'orthorhombic'
loop_
_space_group_symop_operation_xyz
x,y,z
-x,-y,z
-x,y,z
x,-y,z
1/2+x,1/2+y,z
1/2-x,1/2-y,z
1/2-x,1/2+y,z
1/2+x,1/2-y,z
loop_
_atom_site_type_symbol
_atom_site_label
_atom_site_fract_x
_atom_site_fract_y
_atom_site_fract_z
Si Si1 0.316026 0.320022 0.141650
Si Si2 0.185879 0.073525 0.037684
Si Si3 0.182921 0.320164 0.636451
Si Si4 0.817310 0.074933 0.537800
Si Si5 0.182751 0.425084 0.393272
Si Si6 0.183102 0.179369 0.293871
Si Si7 0.316078 0.574934 0.887191
Si Si8 0.817779 0.680195 0.789426
O O1 0.500000 0.317077 0.138558
O O2 0.250000 0.250000 0.124305
O O3 0.262001 0.374863 0.091284
O O4 0.274840 0.333967 0.217568
O O5 0.000000 0.073375 0.038741
O O6 0.234869 0.000000 0.052315
O O7 0.230034 0.089473 0.962682
O O8 0.250000 0.250000 0.618072
O O9 0.249189 0.375757 0.590329
O O10 0.224478 0.331837 0.713007
O O11 0.000000 0.318458 0.631319
O O12 0.749457 0.088333 0.465645
O O13 0.000000 0.081082 0.535627
O O14 0.779806 0.000000 0.554040
O O15 0.221203 0.500000 0.377119
O O16 0.251337 0.375448 0.341129
O O17 0.000000 0.419192 0.395001
O O18 0.250000 0.250000 0.310718
O O19 0.000000 0.181251 0.298755
O O20 0.500000 0.579560 0.883788
O O21 0.275149 0.500000 0.873709
O O22 0.244129 0.624327 0.836256
O O23 0.750000 0.750000 0.808148
O O24 0.000000 0.683145 0.793384
#
# Coordination Sequence:
#
# PCOD9348979 Si02
#       8
#     8   8   8   8   8   8   8   8
#     4   9  18  32  51  74 101 133 168 210 256 303
#     4   8  15  30  51  74 100 132 171 211 252 301
#     4  10  21  37  56  78 105 137 173 213 258 307
#     4  10  21  37  57  81 108 137 171 211 253 302
#     4  10  21  37  56  78 106 138 171 211 258 306
#     4  10  20  34  53  77 105 137 174 215 258 306
#     4   9  18  33  53  76 104 138 174 213 257 307
#     4  10  21  36  54  76 104 137 173 215 259 306
#
# _framework density 17.361574999999998
#
# number of rings (size 3 to 8) (size 9 to 14) (size 15 to 20)
#    0.000    2.500    0.000    2.625    0.000    5.750 
#    0.000    8.125    0.000    1.125    0.000    0.000 
#    0.000    0.000    0.000    0.000    0.000    0.000 
#
# Total GULP energy -178551.261636 kJ/mol
# GULP energy per Si atom -5579.726926 kJ/mol
# Density = 1.732206 g / cm^3
# Si number density = 17.361575 Si / 1000 Ang^3
#
#
#
# Elastic Constant Matrix: (Units=GPa)
#
#
# Indices 1 2 3 4 5 6 
#
# 1 41.3923 54.8600 46.9897 0.0000 0.0000 0.0000
# 2 54.8600 165.2064 131.2729 0.0000 0.0000 0.0000
# 3 46.9897 131.2729 125.3674 0.0000 0.0000 0.0000
# 4 0.0000 0.0000 0.0000 44.8935 0.0000 0.0000
# 5 0.0000 0.0000 0.0000 0.0000 23.0458 0.0000
# 6 0.0000 0.0000 0.0000 0.0000 0.0000 32.3386
#
#
#
# Elastic Compliance Matrix: (Units=1/GPa)
#
#
# Indices 1 2 3 4 5 6 
#
# 1 0.044196 -0.009009 -0.007132 0.000000 0.000000 0.000000
# 2 -0.009009 0.037873 -0.036280 0.000000 0.000000 0.000000
# 3 -0.007132 -0.036280 0.048639 0.000000 0.000000 0.000000
# 4 0.000000 0.000000 0.000000 0.022275 0.000000 0.000000
# 5 0.000000 0.000000 0.000000 0.000000 0.043392 0.000000
# 6 0.000000 0.000000 0.000000 0.000000 0.000000 0.030923
#
#
# Mechanical properties :
#
#
# Convention : Reuss Voigt Hill
#
# Bulk Modulus (GPa) = 38.66185 88.69016 63.67601
# Shear Modulus (GPa) = 14.67308 26.64516 20.65912
#
# Velocity S-wave (km/s) = 2.91029 3.92180 3.45328
# Velocity P-wave (km/s) = 5.79742 8.46773 7.25646
#
# Compressibility (1/GPa) = 0.02586529
#
# Stress axis : x y z
#
# Youngs Moduli (GPa) = 22.62669 26.40414 20.55979
#
# Poissons Ratio (x) = 0.23788 0.14662
# Poissons Ratio (y) = 0.20385 0.74591
# Poissons Ratio (z) = 0.16136 0.95794
#
# Static dielectric constant tensor:
#      x y z
#    x 1.583520 0.000000 0.000000 
#    y 0.000000 1.563050 0.000000 
#    z 0.000000 0.000000 1.573350 
# 
# From -- ./inp_files/18354.got.cif
#   From: 2010.05.17/outbox.cif.g08.bks.cpg/sg35_10_cif.got.tgz:18354.got - 2010.06.03 17:29:28.
