data_PCOD9348059
_publ_section_title
;
Structure prediction by ZEFSAII (Michael W. Deem and Ramdas Pophale) SiO2 
 PCOD9348059
Probable space group: P N N 2
;
_chemical_formula_sum "Si O2"
_cell_formula_units_Z 32
_cell_length_a 9.000000
_cell_length_b 12.000000
_cell_length_c 15.000000
_cell_angle_alpha 90.000000
_cell_angle_beta 90.000000
_cell_angle_gamma 90.000000
_cell_volume 1620.000000
_symmetry_space_group_name_H-M "P N N 2"
_symmetry_group_IT_number 34
_symmetry_cell_setting 'orthorhombic'
loop_
_space_group_symop_operation_xyz
x,y,z
-x,-y,z
1/2-x,1/2+y,1/2+z
1/2+x,1/2-y,1/2+z
loop_
_atom_site_type_symbol
_atom_site_label
_atom_site_fract_x
_atom_site_fract_y
_atom_site_fract_z
Si Si1 0.158966 0.064463 0.147650
Si Si2 0.662169 0.642675 0.419575
Si Si3 0.819721 0.656996 0.600888
Si Si4 0.853174 0.278530 0.526118
Si Si5 0.821682 0.884649 0.882613
Si Si6 0.346045 0.784480 0.753090
Si Si7 0.320128 0.138330 0.696869
Si Si8 0.338155 0.441893 0.123507
O O1 0.216501 0.154772 0.074499
O O2 0.151374 0.151561 0.230750
O O3 0.280755 0.964837 0.141499
O O4 0.000000 0.000000 0.135668
O O5 0.708272 0.678708 0.518065
O O6 0.676489 0.508546 0.423029
O O7 0.489431 0.664144 0.392639
O O8 0.786344 0.692162 0.352605
O O9 0.767592 0.750176 0.670062
O O10 0.989232 0.675260 0.565264
O O11 0.809989 0.310947 0.425721
O O12 0.849491 0.145465 0.541454
O O13 0.770178 0.905046 0.782178
O O14 0.507845 0.834868 0.722827
O O15 0.220196 0.853150 0.697455
O O16 0.284208 0.041437 0.624143
O O17 0.500000 0.500000 0.137319
#
# Coordination Sequence:
#
# PCOD9348059 Si02
#       8
#     4   4   4   4   4   4   4   4
#     4  11  22  41  65 100 134 172 219 274 335 393
#     4  11  24  42  66  97 133 170 219 279 330 386
#     4  12  24  41  70  99 131 175 219 271 332 398
#     4  11  24  40  69  99 135 174 222 274 340 395
#     4  11  24  42  66  97 133 170 219 279 330 386
#     4  11  24  40  69  99 135 174 222 274 340 395
#     4  12  24  41  70  99 131 175 219 271 332 398
#     4  11  22  41  65 100 134 172 219 274 335 393
#
# _framework density 19.753086
#
# number of rings (size 3 to 8) (size 9 to 14) (size 15 to 20)
#    0.000    0.750    5.000    3.000    3.500    1.000 
#    0.000    1.250    0.000    1.500    0.000    0.000 
#    0.000    0.000    0.000    0.000    0.000    0.000 
#
# Total GULP energy -178419.736612 kJ/mol
# GULP energy per Si atom -5575.616769 kJ/mol
# Density = 1.970813 g / cm^3
# Si number density = 19.753086 Si / 1000 Ang^3
#
#
#
# Elastic Constant Matrix: (Units=GPa)
#
#
# Indices 1 2 3 4 5 6 
#
# 1 140.2607 33.9253 15.4906 0.0000 0.0000 0.0000
# 2 33.9253 119.4230 10.0110 0.0000 0.0000 0.0000
# 3 15.4906 10.0110 22.0803 0.0000 0.0000 0.0000
# 4 0.0000 0.0000 0.0000 33.1016 0.0000 0.0000
# 5 0.0000 0.0000 0.0000 0.0000 28.4836 0.0000
# 6 0.0000 0.0000 0.0000 0.0000 0.0000 41.0702
#
#
#
# Elastic Compliance Matrix: (Units=1/GPa)
#
#
# Indices 1 2 3 4 5 6 
#
# 1 0.008124 -0.001902 -0.004837 0.000000 0.000000 0.000000
# 2 -0.001902 0.009150 -0.002814 0.000000 0.000000 0.000000
# 3 -0.004837 -0.002814 0.049958 0.000000 0.000000 0.000000
# 4 0.000000 0.000000 0.000000 0.030210 0.000000 0.000000
# 5 0.000000 0.000000 0.000000 0.000000 0.035108 0.000000
# 6 0.000000 0.000000 0.000000 0.000000 0.000000 0.024349
#
#
# Mechanical properties :
#
#
# Convention : Reuss Voigt Hill
#
# Bulk Modulus (GPa) = 20.77877 44.51306 32.64591
# Shear Modulus (GPa) = 26.03533 35.35358 30.69445
#
# Velocity S-wave (km/s) = 3.63442 4.23516 3.94624
# Velocity P-wave (km/s) = 5.30604 6.81903 6.10955
#
# Compressibility (1/GPa) = 0.04812604
#
# Stress axis : x y z
#
# Youngs Moduli (GPa) = 123.09367 109.29096 20.01665
#
# Poissons Ratio (x) = 0.20791 0.09682
# Poissons Ratio (y) = 0.23417 0.05632
# Poissons Ratio (z) = 0.59539 0.30753
#
# Static dielectric constant tensor:
#      x y z
#    x 1.696660 0.000000 0.000000 
#    y 0.000000 1.691000 0.000000 
#    z 0.000000 0.000000 1.804290 
# 
# From -- ./inp_files/3339.got.cif
#   From: 2010.05.17/outbox.ucp.g08.bks.cvg/sg34_2_cif.got.tgz:3339.got - 2010.06.11 10:35:58.
