data_PCOD9348985
_publ_section_title
;
Structure prediction by ZEFSAII (Michael W. Deem and Ramdas Pophale) SiO2 
 PCOD9348985
Probable space group: C M M 2
;
_chemical_formula_sum "Si O2"
_cell_formula_units_Z 56
_cell_length_a 8.831418
_cell_length_b 19.552717
_cell_length_c 18.269011
_cell_angle_alpha 90.000000
_cell_angle_beta 90.000000
_cell_angle_gamma 90.000000
_cell_volume 3154.660243
_symmetry_space_group_name_H-M "C M M 2"
_symmetry_group_IT_number 35
_symmetry_cell_setting 'orthorhombic'
loop_
_space_group_symop_operation_xyz
x,y,z
-x,-y,z
-x,y,z
x,-y,z
1/2+x,1/2+y,z
1/2-x,1/2-y,z
1/2-x,1/2+y,z
1/2+x,1/2-y,z
loop_
_atom_site_type_symbol
_atom_site_label
_atom_site_fract_x
_atom_site_fract_y
_atom_site_fract_z
Si Si1 0.180940 0.580117 0.517770
Si Si2 0.817572 0.419889 0.266413
Si Si3 0.680773 0.580098 0.675428
Si Si4 0.180999 0.174700 0.974053
Si Si5 0.317485 0.674721 0.809741
Si Si6 0.819326 0.826026 0.391818
Si Si7 0.181621 0.420621 0.097380
O O1 0.220826 0.500000 0.503484
O O2 0.233336 0.596252 0.600288
O O3 0.260724 0.630509 0.461184
O O4 0.000000 0.586345 0.510897
O O5 0.780294 0.500000 0.280971
O O6 0.736689 0.368769 0.321408
O O7 0.778662 0.404554 0.181780
O O8 0.000000 0.413753 0.274516
O O9 0.500000 0.590100 0.664078
O O10 0.704679 0.500000 0.691489
O O11 0.730640 0.625299 0.744201
O O12 0.250000 0.250000 0.983207
O O13 0.224524 0.150654 0.891789
O O14 0.000000 0.178834 0.977291
O O15 0.240733 0.126300 0.037628
O O16 0.500000 0.678911 0.807674
O O17 0.250000 0.750000 0.799586
O O18 0.750000 0.750000 0.391918
O O19 0.000000 0.821519 0.392774
O O20 0.220468 0.500000 0.084930
O O21 0.000000 0.413890 0.091489
#
# Coordination Sequence:
#
# PCOD9348985 Si02
#       7
#     8   8   8   8   8   8   8
#     4  10  21  38  59  82 110 143 178 217 264 318
#     4   9  19  38  61  82 108 142 177 216 266 321
#     4   9  18  34  55  78 105 138 178 221 264 313
#     4  10  20  34  53  77 107 144 184 224 268 319
#     4   9  19  34  52  75 104 140 178 219 268 318
#     4  12  25  39  57  82 111 142 179 221 265 314
#     4   9  19  36  57  81 109 141 177 219 268 319
#
# _framework density 17.751515000000001
#
# number of rings (size 3 to 8) (size 9 to 14) (size 15 to 20)
#    0.000    2.286    0.000    3.429    0.000    6.571 
#    0.000    4.286    0.000    1.714    0.000    0.000 
#    0.000    0.000    0.000    0.000    0.000    0.000 
#
# Total GULP energy -156292.947156 kJ/mol
# GULP energy per Si atom -5581.890970 kJ/mol
# Density = 1.771111 g / cm^3
# Si number density = 17.751515 Si / 1000 Ang^3
#
#
#
# Elastic Constant Matrix: (Units=GPa)
#
#
# Indices 1 2 3 4 5 6 
#
# 1 63.6522 65.3668 74.9428 0.0000 0.0000 0.0000
# 2 65.3668 119.2342 124.2235 0.0000 0.0000 0.0000
# 3 74.9428 124.2235 173.0782 0.0000 0.0000 0.0000
# 4 0.0000 0.0000 0.0000 68.7129 0.0000 0.0000
# 5 0.0000 0.0000 0.0000 0.0000 29.5494 0.0000
# 6 0.0000 0.0000 0.0000 0.0000 0.0000 30.3160
#
#
#
# Elastic Compliance Matrix: (Units=1/GPa)
#
#
# Indices 1 2 3 4 5 6 
#
# 1 0.037390 -0.014394 -0.005859 0.000000 0.000000 0.000000
# 2 -0.014394 0.038791 -0.021609 0.000000 0.000000 0.000000
# 3 -0.005859 -0.021609 0.023824 0.000000 0.000000 0.000000
# 4 0.000000 0.000000 0.000000 0.014553 0.000000 0.000000
# 5 0.000000 0.000000 0.000000 0.000000 0.033842 0.000000
# 6 0.000000 0.000000 0.000000 0.000000 0.000000 0.032986
#
#
# Mechanical properties :
#
#
# Convention : Reuss Voigt Hill
#
# Bulk Modulus (GPa) = 61.41898 98.33677 79.87788
# Shear Modulus (GPa) = 18.48167 31.81108 25.14638
#
# Velocity S-wave (km/s) = 3.23016 4.23782 3.76783
# Velocity P-wave (km/s) = 6.97039 8.91415 8.00151
#
# Compressibility (1/GPa) = 0.01628161
#
# Stress axis : x y z
#
# Youngs Moduli (GPa) = 26.74479 25.77895 41.97425
#
# Poissons Ratio (x) = 0.37107 0.24592
# Poissons Ratio (y) = 0.38497 0.90702
# Poissons Ratio (z) = 0.15670 0.55706
#
# Static dielectric constant tensor:
#      x y z
#    x 1.594680 0.000000 0.000000 
#    y 0.000000 1.574060 0.000000 
#    z 0.000000 0.000000 1.600150 
# 
# From -- ./inp_files/18255.got.cif
#   From: 2010.05.17/outbox.cif.g08.bks.cpg/sg35_10_cif.got.tgz:18255.got - 2010.06.03 17:29:28.
