data_PCOD9348661
_publ_section_title
;
Structure prediction by ZEFSAII (Michael W. Deem and Ramdas Pophale) SiO2 
 PCOD9348661
Probable space group: C M M 2
;
_chemical_formula_sum "Si O2"
_cell_formula_units_Z 64
_cell_length_a 23.722170
_cell_length_b 15.075522
_cell_length_c 9.090456
_cell_angle_alpha 90.000000
_cell_angle_beta 90.000000
_cell_angle_gamma 90.000000
_cell_volume 3250.966107
_symmetry_space_group_name_H-M "C M M 2"
_symmetry_group_IT_number 35
_symmetry_cell_setting 'orthorhombic'
loop_
_space_group_symop_operation_xyz
x,y,z
-x,-y,z
-x,y,z
x,-y,z
1/2+x,1/2+y,z
1/2-x,1/2-y,z
1/2-x,1/2+y,z
1/2+x,1/2-y,z
loop_
_atom_site_type_symbol
_atom_site_label
_atom_site_fract_x
_atom_site_fract_y
_atom_site_fract_z
Si Si1 0.296334 0.319368 0.846650
Si Si2 0.066795 0.767186 0.372737
Si Si3 0.883458 0.721862 0.063315
Si Si4 0.718949 0.103460 0.092364
Si Si5 0.642559 0.393621 0.568153
Si Si6 0.244718 0.392413 0.404284
Si Si7 0.063797 0.602495 0.830651
Si Si8 0.877251 0.605459 0.527058
O O1 0.250000 0.250000 0.779984
O O2 0.337329 0.367681 0.732063
O O3 0.339653 0.277105 0.963882
O O4 0.253513 0.377009 0.945486
O O5 0.092813 0.770465 0.207328
O O6 0.093632 0.837442 0.488507
O O7 0.082505 0.669702 0.434858
O O8 0.000000 0.778918 0.364751
O O9 0.843670 0.640085 0.106614
O O10 0.928933 0.675794 0.956558
O O11 0.748610 0.140687 0.237666
O O12 0.715833 0.000000 0.106669
O O13 0.632912 0.500000 0.558255
O O14 0.698762 0.365320 0.482154
O O15 0.245044 0.500000 0.406484
O O16 0.186554 0.368268 0.484482
O O17 0.072047 0.500000 0.881909
O O18 0.108079 0.618979 0.699154
O O19 0.000000 0.607393 0.770376
O O20 0.884883 0.500000 0.497368
#
# Coordination Sequence:
#
# PCOD9348661 Si02
#       8
#     8   8   8   8   8   8   8   8
#     4  10  23  36  60  95 129 165 205 259 332 399
#     4  12  26  42  66  92 124 173 224 276 325 378
#     4  11  22  38  57  87 125 166 212 262 319 386
#     4  10  19  35  57  87 129 169 204 245 306 387
#     4  11  25  44  67  93 123 164 217 276 334 387
#     4   9  19  35  60  92 123 164 204 250 316 380
#     4  10  21  36  55  82 124 174 216 257 306 375
#     4  10  21  38  61  95 133 169 210 255 317 388
#
# _framework density 19.686454999999999
#
# number of rings (size 3 to 8) (size 9 to 14) (size 15 to 20)
#    0.000    1.625    1.250    3.000    5.250    1.500 
#    0.000    1.250    0.000    0.000    0.000    0.000 
#    0.000    0.000    0.000    0.000    0.000    0.000 
#
# Total GULP energy -178440.812232 kJ/mol
# GULP energy per Si atom -5576.275382 kJ/mol
# Density = 1.964165 g / cm^3
# Si number density = 19.686455 Si / 1000 Ang^3
#
#
#
# Elastic Constant Matrix: (Units=GPa)
#
#
# Indices 1 2 3 4 5 6 
#
# 1 110.7920 38.7068 39.8772 0.0000 0.0000 0.0000
# 2 38.7068 71.7806 31.4706 0.0000 0.0000 0.0000
# 3 39.8772 31.4706 81.5625 0.0000 0.0000 0.0000
# 4 0.0000 0.0000 0.0000 -5.8772 0.0000 0.0000
# 5 0.0000 0.0000 0.0000 0.0000 -108.2921 0.0000
# 6 0.0000 0.0000 0.0000 0.0000 0.0000 21.3410
#
#
#
# Elastic Compliance Matrix: (Units=1/GPa)
#
#
# Indices 1 2 3 4 5 6 
#
# 1 0.012169 -0.004758 -0.004114 0.000000 0.000000 0.000000
# 2 -0.004758 0.018629 -0.004861 0.000000 0.000000 0.000000
# 3 -0.004114 -0.004861 0.016147 0.000000 0.000000 0.000000
# 4 0.000000 0.000000 0.000000 -0.170150 0.000000 0.000000
# 5 0.000000 0.000000 0.000000 0.000000 -0.009234 0.000000
# 6 0.000000 0.000000 0.000000 0.000000 0.000000 0.046858
#
#
# Mechanical properties :
#
#
# Convention : Reuss Voigt Hill
#
# Bulk Modulus (GPa) = 51.33903 53.80493 52.57198
# Shear Modulus (GPa) = -96.85869 -8.29364 -52.57616
#
# Velocity S-wave (km/s) = -7.02193 -2.05475 -5.17347
# Velocity P-wave (km/s) = 6.29352 4.66486 2.98726
#
# Compressibility (1/GPa) = 0.01947836
#
# Stress axis : x y z
#
# Youngs Moduli (GPa) = 82.17634 53.68085 61.92934
#
# Poissons Ratio (x) = 0.25544 0.25475
# Poissons Ratio (y) = 0.39103 0.30106
# Poissons Ratio (z) = 0.33804 0.26096
#
# Static dielectric constant tensor:
#      x y z
#    x 1.774210 0.000000 0.000000 
#    y 0.000000 1.720570 0.000000 
#    z 0.000000 0.000000 1.796810 
# 
# From -- ./inp_files/9925.got.cif
#   From: 2010.05.17/outbox.cif.g08.bks.cpg/sg35_5_cif.got.tgz:9925.got - 2010.06.03 17:29:28.
