data_PCOD9348942
_publ_section_title
;
Structure prediction by ZEFSAII (Michael W. Deem and Ramdas Pophale) SiO2 
 PCOD9348942
Probable space group: C M M 2
;
_chemical_formula_sum "Si O2"
_cell_formula_units_Z 58
_cell_length_a 7.703033
_cell_length_b 31.138151
_cell_length_c 12.920802
_cell_angle_alpha 90.000000
_cell_angle_beta 90.000000
_cell_angle_gamma 90.000000
_cell_volume 3099.160371
_symmetry_space_group_name_H-M "C M M 2"
_symmetry_group_IT_number 35
_symmetry_cell_setting 'orthorhombic'
loop_
_space_group_symop_operation_xyz
x,y,z
-x,-y,z
-x,y,z
x,-y,z
1/2+x,1/2+y,z
1/2-x,1/2-y,z
1/2-x,1/2+y,z
1/2+x,1/2-y,z
loop_
_atom_site_type_symbol
_atom_site_label
_atom_site_fract_x
_atom_site_fract_y
_atom_site_fract_z
Si Si1 0.210963 0.340744 0.916760
Si Si2 0.798430 0.799997 0.471196
Si Si3 0.000000 0.500000 0.898280
Si Si4 0.793379 0.701448 0.125954
Si Si5 0.297320 0.437430 0.970652
Si Si6 0.789087 0.047634 0.212748
Si Si7 0.797106 0.135979 0.302620
Si Si8 0.793234 0.299904 0.705122
O O1 0.279421 0.387191 0.947646
O O2 0.272345 0.326200 0.803646
O O3 0.000000 0.342043 0.915024
O O4 0.262203 0.307876 0.007966
O O5 0.750000 0.750000 0.457018
O O6 0.716396 0.835029 0.394166
O O7 0.773150 0.811710 0.591254
O O8 0.000000 0.800562 0.446908
O O9 0.844991 0.536958 0.905360
O O10 0.750000 0.750000 0.156978
O O11 0.712757 0.666037 0.201336
O O12 0.000000 0.695944 0.132265
O O13 0.500000 0.449836 0.955924
O O14 0.249968 0.446140 0.091096
O O15 0.722552 0.089024 0.275477
O O16 0.000000 0.047752 0.219214
O O17 0.728752 0.000000 0.244809
O O18 0.000000 0.128068 0.326839
O O19 0.750000 0.250000 0.721794
O O20 0.000000 0.304141 0.701013
#
# Coordination Sequence:
#
# PCOD9348942 Si02
#       8
#     8   8   2   8   8   8   8   8
#     4  10  21  36  52  79 112 145 183 232 282 334
#     4  10  20  34  53  75 103 139 184 232 280 328
#     4  12  22  36  56  78 124 142 198 240 280 330
#     4  11  22  33  49  73 109 149 181 217 272 337
#     4  11  21  34  57  82 111 154 188 230 286 340
#     4   9  17  32  53  79 105 138 184 224 274 338
#     4  10  20  34  52  76 108 141 179 227 277 331
#     4  10  20  35  56  78 107 143 186 234 282 326
#
# _framework density 18.714746000000002
#
# number of rings (size 3 to 8) (size 9 to 14) (size 15 to 20)
#    0.000    1.793    2.759    3.103    0.000    3.862 
#    0.000    0.000    0.000    0.000    1.793    0.000 
#    0.000    0.000    0.000    0.000    0.000    0.000 
#
# Total GULP energy -161545.002450 kJ/mol
# GULP energy per Si atom -5570.517326 kJ/mol
# Density = 1.867215 g / cm^3
# Si number density = 18.714746 Si / 1000 Ang^3
#
#
#
# Elastic Constant Matrix: (Units=GPa)
#
#
# Indices 1 2 3 4 5 6 
#
# 1 44.1379 -3.7174 -6.8101 0.0000 0.0000 0.0000
# 2 -3.7174 141.2049 57.5279 0.0000 0.0000 0.0000
# 3 -6.8101 57.5279 84.1965 0.0000 0.0000 0.0000
# 4 0.0000 0.0000 0.0000 36.4180 0.0000 0.0000
# 5 0.0000 0.0000 0.0000 0.0000 7.8916 0.0000
# 6 0.0000 0.0000 0.0000 0.0000 0.0000 16.1512
#
#
#
# Elastic Compliance Matrix: (Units=1/GPa)
#
#
# Indices 1 2 3 4 5 6 
#
# 1 0.022947 -0.000211 0.002000 0.000000 0.000000 0.000000
# 2 -0.000211 0.009816 -0.006724 0.000000 0.000000 0.000000
# 3 0.002000 -0.006724 0.016633 0.000000 0.000000 0.000000
# 4 0.000000 0.000000 0.000000 0.027459 0.000000 0.000000
# 5 0.000000 0.000000 0.000000 0.000000 0.126718 0.000000
# 6 0.000000 0.000000 0.000000 0.000000 0.000000 0.061915
#
#
# Mechanical properties :
#
#
# Convention : Reuss Voigt Hill
#
# Bulk Modulus (GPa) = 25.29929 40.39333 32.84631
# Shear Modulus (GPa) = 17.32915 26.92808 22.12861
#
# Velocity S-wave (km/s) = 3.04626 3.79736 3.44236
# Velocity P-wave (km/s) = 5.09124 6.39196 5.77831
#
# Compressibility (1/GPa) = 0.03952680
#
# Stress axis : x y z
#
# Youngs Moduli (GPa) = 43.57845 101.87842 60.12246
#
# Poissons Ratio (x) = 0.02147 -0.12025
# Poissons Ratio (y) = 0.00918 0.40424
# Poissons Ratio (z) = -0.08716 0.68499
#
# Static dielectric constant tensor:
#      x y z
#    x 1.690630 0.000000 0.000000 
#    y 0.000000 1.665800 0.000000 
#    z 0.000000 0.000000 1.654120 
# 
# From -- ./inp_files/16010.got.cif
#   From: 2010.05.17/outbox.cif.g08.bks.cpg/sg35_9_cif.got.tgz:16010.got - 2010.06.03 17:29:28.
