data_PCOD9348670
_publ_section_title
;
Structure prediction by ZEFSAII (Michael W. Deem and Ramdas Pophale) SiO2 
 PCOD9348670
Probable space group: C M M 2
;
_chemical_formula_sum "Si O2"
_cell_formula_units_Z 52
_cell_length_a 20.880628
_cell_length_b 15.123853
_cell_length_c 9.054944
_cell_angle_alpha 90.000000
_cell_angle_beta 90.000000
_cell_angle_gamma 90.000000
_cell_volume 2859.511006
_symmetry_space_group_name_H-M "C M M 2"
_symmetry_group_IT_number 35
_symmetry_cell_setting 'orthorhombic'
loop_
_space_group_symop_operation_xyz
x,y,z
-x,-y,z
-x,y,z
x,-y,z
1/2+x,1/2+y,z
1/2-x,1/2-y,z
1/2-x,1/2+y,z
1/2+x,1/2-y,z
loop_
_atom_site_type_symbol
_atom_site_label
_atom_site_fract_x
_atom_site_fract_y
_atom_site_fract_z
Si Si1 0.500000 0.896743 0.106120
Si Si2 0.743100 0.399344 0.897261
Si Si3 0.000000 0.210697 0.238140
Si Si4 0.113219 0.157946 0.754074
Si Si5 0.308137 0.683742 0.180905
Si Si6 0.892570 0.894588 0.414478
Si Si7 0.620286 0.811550 0.954363
Si Si8 0.000000 0.094836 0.952211
O O1 0.500000 0.817279 0.228389
O O2 0.500000 0.000000 0.152529
O O3 0.564741 0.875674 0.012872
O O4 0.749562 0.500000 0.852992
O O5 0.687654 0.356795 0.796675
O O6 0.812676 0.355317 0.905816
O O7 0.714616 0.387951 0.061421
O O8 0.941972 0.165276 0.323934
O O9 0.000000 0.173219 0.070679
O O10 0.104996 0.134395 0.584231
O O11 0.097087 0.255809 0.812834
O O12 0.063259 0.100891 0.851129
O O13 0.250000 0.750000 0.211153
O O14 0.328618 0.634128 0.328611
O O15 0.359952 0.743422 0.088021
O O16 0.903955 0.000000 0.402844
O O17 0.000000 0.000000 0.031962
#
# Coordination Sequence:
#
# PCOD9348670 Si02
#       8
#     4   8   4   8   8   8   8   4
#     4  12  22  40  68  92 112 150 208 264 312 360
#     4  10  19  35  58  87 117 155 209 261 303 355
#     4  12  23  40  60  89 118 156 197 251 307 359
#     4  11  22  37  56  85 129 161 199 241 309 366
#     4   9  19  34  56  81 120 159 204 248 305 354
#     4  12  23  36  57  90 127 164 201 243 304 377
#     4  10  20  39  60  89 111 159 203 259 306 354
#     4  12  21  36  60  85 118 158 201 245 301 371
#
# _framework density 18.184926999999998
#
# number of rings (size 3 to 8) (size 9 to 14) (size 15 to 20)
#    0.000    1.231    3.077    5.769    0.000    1.231 
#    0.000    0.000    0.000    2.769    0.000    0.000 
#    0.000    0.000    0.000    0.000    0.000    0.000 
#
# Total GULP energy -144920.451883 kJ/mol
# GULP energy per Si atom -5573.863534 kJ/mol
# Density = 1.814354 g / cm^3
# Si number density = 18.184927 Si / 1000 Ang^3
#
#
#
# Elastic Constant Matrix: (Units=GPa)
#
#
# Indices 1 2 3 4 5 6 
#
# 1 90.8910 24.4209 30.9823 0.0000 0.0000 0.0000
# 2 24.4209 104.5510 51.4441 0.0000 0.0000 0.0000
# 3 30.9823 51.4441 102.4288 0.0000 0.0000 0.0000
# 4 0.0000 0.0000 0.0000 20.8296 0.0000 0.0000
# 5 0.0000 0.0000 0.0000 0.0000 -11.1435 0.0000
# 6 0.0000 0.0000 0.0000 0.0000 0.0000 -539.8370
#
#
#
# Elastic Compliance Matrix: (Units=1/GPa)
#
#
# Indices 1 2 3 4 5 6 
#
# 1 0.012419 -0.001398 -0.003054 0.000000 0.000000 0.000000
# 2 -0.001398 0.012862 -0.006037 0.000000 0.000000 0.000000
# 3 -0.003054 -0.006037 0.013719 0.000000 0.000000 0.000000
# 4 0.000000 0.000000 0.000000 0.048009 0.000000 0.000000
# 5 0.000000 0.000000 0.000000 0.000000 -0.089739 0.000000
# 6 0.000000 0.000000 0.000000 0.000000 0.000000 -0.001852
#
#
# Mechanical properties :
#
#
# Convention : Reuss Voigt Hill
#
# Bulk Modulus (GPa) = 55.49051 56.84060 56.16556
# Shear Modulus (GPa) = 223.19327 -93.29528 64.94900
#
# Velocity S-wave (km/s) = 11.09062 -7.17043 5.98276
# Velocity P-wave (km/s) = 13.94931 6.10152 8.87002
#
# Compressibility (1/GPa) = 0.01802110
#
# Stress axis : x y z
#
# Youngs Moduli (GPa) = 80.52224 77.75059 72.89324
#
# Poissons Ratio (x) = 0.10869 0.22264
# Poissons Ratio (y) = 0.11256 0.44004
# Poissons Ratio (z) = 0.24594 0.46937
#
# Static dielectric constant tensor:
#      x y z
#    x 1.733890 0.000000 0.000000 
#    y 0.000000 1.638720 0.000000 
#    z 0.000000 0.000000 1.602110 
# 
# From -- ./inp_files/9260.got.cif
#   From: 2010.05.17/outbox.cif.g08.bks.cpg/sg35_5_cif.got.tgz:9260.got - 2010.06.03 17:29:28.
