data_PCOD9348771
_publ_section_title
;
Structure prediction by ZEFSAII (Michael W. Deem and Ramdas Pophale) SiO2 
 PCOD9348771
Probable space group: C M M 2
;
_chemical_formula_sum "Si O2"
_cell_formula_units_Z 64
_cell_length_a 32.633739
_cell_length_b 9.037964
_cell_length_c 11.738046
_cell_angle_alpha 90.000000
_cell_angle_beta 90.000000
_cell_angle_gamma 90.000000
_cell_volume 3462.049316
_symmetry_space_group_name_H-M "C M M 2"
_symmetry_group_IT_number 35
_symmetry_cell_setting 'orthorhombic'
loop_
_space_group_symop_operation_xyz
x,y,z
-x,-y,z
-x,y,z
x,-y,z
1/2+x,1/2+y,z
1/2-x,1/2-y,z
1/2-x,1/2+y,z
1/2+x,1/2-y,z
loop_
_atom_site_type_symbol
_atom_site_label
_atom_site_fract_x
_atom_site_fract_y
_atom_site_fract_z
Si Si1 0.295378 0.820854 0.810760
Si Si2 0.681628 0.327671 0.050522
Si Si3 0.453056 0.323440 0.773934
Si Si4 0.641302 0.331187 0.394954
Si Si5 0.631938 0.675458 0.664163
Si Si6 0.711755 0.827640 0.275782
Si Si7 0.093211 0.164355 0.173029
Si Si8 0.951439 0.660903 0.001114
O O1 0.250000 0.750000 0.788787
O O2 0.330437 0.762205 0.723261
O O3 0.292899 0.000000 0.809026
O O4 0.310034 0.761589 0.935118
O O5 0.693213 0.500000 0.034573
O O6 0.705444 0.253257 0.155036
O O7 0.634932 0.325660 0.097611
O O8 0.500000 0.267845 0.749147
O O9 0.454885 0.500000 0.762664
O O10 0.413475 0.272277 0.702706
O O11 0.442171 0.278396 0.902961
O O12 0.657754 0.500000 0.375137
O O13 0.632997 0.315159 0.527524
O O14 0.672835 0.209574 0.352035
O O15 0.604051 0.319498 0.305647
O O16 0.636010 0.500000 0.695391
O O17 0.750000 0.750000 0.334459
O O18 0.717809 0.000000 0.259343
O O19 0.075859 0.000000 0.155091
O O20 0.064685 0.288171 0.122087
O O21 0.934422 0.500000 0.969124
O O22 0.000000 0.652411 0.005464
#
# Coordination Sequence:
#
# PCOD9348771 Si02
#       8
#     8   8   8   8   8   8   8   8
#     4  12  25  39  56  81 113 149 189 230 277 332
#     4  10  20  36  56  80 110 140 175 222 276 330
#     4   9  18  34  58  86 113 143 180 223 274 331
#     4   9  20  38  56  76 104 139 180 224 269 320
#     4  10  21  39  60  81 110 147 187 233 279 324
#     4  11  21  34  54  79 106 138 177 222 272 324
#     4   9  18  33  54  78 104 137 174 215 266 322
#     4  10  20  32  49  77 111 142 172 212 263 320
#
# _framework density 18.486162
#
# number of rings (size 3 to 8) (size 9 to 14) (size 15 to 20)
#    0.000    2.000    0.000    4.875    0.000    7.750 
#    0.000    0.625    0.000    2.250    0.000    1.750 
#    0.000    0.000    0.000    0.000    0.000    0.000 
#
# Total GULP energy -178375.898620 kJ/mol
# GULP energy per Si atom -5574.246832 kJ/mol
# Density = 1.844409 g / cm^3
# Si number density = 18.486162 Si / 1000 Ang^3
#
#
#
# Elastic Constant Matrix: (Units=GPa)
#
#
# Indices 1 2 3 4 5 6 
#
# 1 46.7257 33.4501 49.9060 0.0000 0.0000 0.0000
# 2 33.4501 85.8139 34.0437 0.0000 0.0000 0.0000
# 3 49.9060 34.0437 88.2119 0.0000 0.0000 0.0000
# 4 0.0000 0.0000 0.0000 -21.3238 0.0000 0.0000
# 5 0.0000 0.0000 0.0000 0.0000 -4.0292 0.0000
# 6 0.0000 0.0000 0.0000 0.0000 0.0000 24.2809
#
#
#
# Elastic Compliance Matrix: (Units=1/GPa)
#
#
# Indices 1 2 3 4 5 6 
#
# 1 0.063610 -0.012420 -0.031194 0.000000 0.000000 0.000000
# 2 -0.012420 0.016185 0.000780 0.000000 0.000000 0.000000
# 3 -0.031194 0.000780 0.028683 0.000000 0.000000 0.000000
# 4 0.000000 0.000000 0.000000 -0.046896 0.000000 0.000000
# 5 0.000000 0.000000 0.000000 0.000000 -0.248188 0.000000
# 6 0.000000 0.000000 0.000000 0.000000 0.000000 0.041185
#
#
# Mechanical properties :
#
#
# Convention : Reuss Voigt Hill
#
# Bulk Modulus (GPa) = 43.83913 50.61678 47.22795
# Shear Modulus (GPa) = -95.87724 6.67569 -44.60078
#
# Velocity S-wave (km/s) = -7.20950 1.90237 -4.91721
# Velocity P-wave (km/s) = 6.74808 5.68029 2.57593
#
# Compressibility (1/GPa) = 0.02281067
#
# Stress axis : x y z
#
# Youngs Moduli (GPa) = 15.72080 61.78641 34.86340
#
# Poissons Ratio (x) = 0.76738 1.08754
# Poissons Ratio (y) = 0.19525 -0.02720
# Poissons Ratio (z) = 0.49040 -0.04821
#
# Static dielectric constant tensor:
#      x y z
#    x 1.710490 0.000000 0.000000 
#    y 0.000000 1.653090 0.000000 
#    z 0.000000 0.000000 1.610290 
# 
# From -- ./inp_files/14545.got.cif
#   From: 2010.05.17/outbox.cif.g08.bks.cpg/sg35_8_cif.got.tgz:14545.got - 2010.06.03 17:29:28.
