data_PCOD9348061
_publ_section_title
;
Structure prediction by ZEFSAII (Michael W. Deem and Ramdas Pophale) SiO2 
 PCOD9348061
Probable space group: C M M 2
;
_chemical_formula_sum "Si O2"
_cell_formula_units_Z 64
_cell_length_a 16.166263
_cell_length_b 16.869799
_cell_length_c 11.659576
_cell_angle_alpha 90.000000
_cell_angle_beta 90.000000
_cell_angle_gamma 90.000000
_cell_volume 3179.818308
_symmetry_space_group_name_H-M "C M M 2"
_symmetry_group_IT_number 35
_symmetry_cell_setting 'orthorhombic'
loop_
_space_group_symop_operation_xyz
x,y,z
-x,-y,z
-x,y,z
x,-y,z
1/2+x,1/2+y,z
1/2-x,1/2-y,z
1/2-x,1/2+y,z
1/2+x,1/2-y,z
loop_
_atom_site_type_symbol
_atom_site_label
_atom_site_fract_x
_atom_site_fract_y
_atom_site_fract_z
Si Si1 0.240038 0.595367 0.834610
Si Si2 0.171759 0.883084 0.162348
Si Si3 0.319662 0.089032 0.577465
Si Si4 0.151193 0.086315 0.432270
Si Si5 0.850496 0.738805 0.456006
Si Si6 0.408133 0.225904 0.203040
Si Si7 0.149931 0.590173 0.054579
Si Si8 0.589442 0.408795 0.928764
O O1 0.244256 0.500000 0.854451
O O2 0.216581 0.606069 0.703536
O O3 0.330303 0.628351 0.868032
O O4 0.172514 0.621810 0.927725
O O5 0.155721 0.907632 0.293634
O O6 0.158401 0.788919 0.159050
O O7 0.262196 0.908719 0.122054
O O8 0.109454 0.912335 0.064253
O O9 0.242831 0.084350 0.488222
O O10 0.370267 0.167058 0.541692
O O11 0.357857 0.000000 0.578469
O O12 0.115404 0.171444 0.473518
O O13 0.112885 0.000000 0.461735
O O14 0.750000 0.750000 0.453448
O O15 0.881738 0.709402 0.332850
O O16 0.500000 0.262034 0.202610
O O17 0.406399 0.149057 0.125033
O O18 0.119369 0.500000 0.049151
O O19 0.500000 0.370859 0.909110
O O20 0.584927 0.500000 0.888128
#
# Coordination Sequence:
#
# PCOD9348061 Si02
#       8
#     8   8   8   8   8   8   8   8
#     4   8  16  30  49  74 102 135 179 224 264 311
#     4  10  18  32  51  75 102 133 175 215 259 318
#     4   9  16  29  50  74 100 131 173 228 274 309
#     4   9  16  27  47  72  98 126 161 214 268 306
#     4   9  18  32  51  75 100 132 181 224 262 317
#     4  11  22  34  50  75 111 146 171 213 278 335
#     4  10  19  33  54  78 104 137 181 226 265 315
#     4   9  16  27  47  75 107 140 171 211 264 319
#
# _framework density 20.126936000000001
#
# number of rings (size 3 to 8) (size 9 to 14) (size 15 to 20)
#    0.000    2.625    0.000    4.875    0.000    1.750 
#    0.000    7.500    0.000   12.375    0.000   15.750 
#    0.000    0.000    0.000    0.000    0.000    0.000 
#
# Total GULP energy -178156.771500 kJ/mol
# GULP energy per Si atom -5567.399109 kJ/mol
# Density = 2.008113 g / cm^3
# Si number density = 20.126936 Si / 1000 Ang^3
#
#
#
# Elastic Constant Matrix: (Units=GPa)
#
#
# Indices 1 2 3 4 5 6 
#
# 1 29.5190 19.8959 3.4376 0.0000 0.0000 0.0000
# 2 19.8959 119.0278 56.0430 0.0000 0.0000 0.0000
# 3 3.4376 56.0430 54.7388 0.0000 0.0000 0.0000
# 4 0.0000 0.0000 0.0000 -195.8230 0.0000 0.0000
# 5 0.0000 0.0000 0.0000 0.0000 3.8238 0.0000
# 6 0.0000 0.0000 0.0000 0.0000 0.0000 3.3953
#
#
#
# Elastic Compliance Matrix: (Units=1/GPa)
#
#
# Indices 1 2 3 4 5 6 
#
# 1 0.040075 -0.010646 0.008382 0.000000 0.000000 0.000000
# 2 -0.010646 0.019049 -0.018834 0.000000 0.000000 0.000000
# 3 0.008382 -0.018834 0.037025 0.000000 0.000000 0.000000
# 4 0.000000 0.000000 0.000000 -0.005107 0.000000 0.000000
# 5 0.000000 0.000000 0.000000 0.000000 0.261521 0.000000
# 6 0.000000 0.000000 0.000000 0.000000 0.000000 0.294523
#
#
# Mechanical properties :
#
#
# Convention : Reuss Voigt Hill
#
# Bulk Modulus (GPa) = 18.53400 40.22652 29.38026
# Shear Modulus (GPa) = 7.06949 -29.46017 -11.19534
#
# Velocity S-wave (km/s) = 1.87619 -3.83001 -2.36103
# Velocity P-wave (km/s) = 3.73122 0.68643 2.68264
#
# Compressibility (1/GPa) = 0.05395489
#
# Stress axis : x y z
#
# Youngs Moduli (GPa) = 24.95294 52.49724 27.00887
#
# Poissons Ratio (x) = 0.55886 -0.22640
# Poissons Ratio (y) = 0.26564 0.50868
# Poissons Ratio (z) = -0.20917 0.98873
#
# Static dielectric constant tensor:
#      x y z
#    x 1.720310 0.000000 0.000000 
#    y 0.000000 1.903710 0.000000 
#    z 0.000000 0.000000 1.698160 
# 
# From -- ./inp_files/13695.got.cif
#   From: 2010.05.17/outbox.cif.g08.bks.cpg/sg35_7_cif.got.tgz:13695.got - 2010.06.03 17:29:28.
