data_PCOD9348200
_publ_section_title
;
Structure prediction by ZEFSAII (Michael W. Deem and Ramdas Pophale) SiO2 
 PCOD9348200
Probable space group: C M M 2
;
_chemical_formula_sum "Si O2"
_cell_formula_units_Z 56
_cell_length_a 8.636016
_cell_length_b 24.027956
_cell_length_c 15.927355
_cell_angle_alpha 90.000000
_cell_angle_beta 90.000000
_cell_angle_gamma 90.000000
_cell_volume 3305.018740
_symmetry_space_group_name_H-M "C M M 2"
_symmetry_group_IT_number 35
_symmetry_cell_setting 'orthorhombic'
loop_
_space_group_symop_operation_xyz
x,y,z
-x,-y,z
-x,y,z
x,-y,z
1/2+x,1/2+y,z
1/2-x,1/2-y,z
1/2-x,1/2+y,z
1/2+x,1/2-y,z
loop_
_atom_site_type_symbol
_atom_site_label
_atom_site_fract_x
_atom_site_fract_y
_atom_site_fract_z
Si Si1 0.683699 0.934770 0.143650
Si Si2 0.684614 0.934824 0.788116
Si Si3 0.323947 0.432654 0.965577
Si Si4 0.177173 0.500000 0.364689
Si Si5 0.316594 0.385262 0.304117
Si Si6 0.176493 0.000000 0.533137
Si Si7 0.813947 0.392336 0.610383
Si Si8 0.687788 0.687474 0.466137
O O1 0.500000 0.936404 0.151518
O O2 0.747316 0.890044 0.210555
O O3 0.739183 0.000000 0.158249
O O4 0.729962 0.918475 0.049260
O O5 0.500000 0.937366 0.799107
O O6 0.757900 0.915489 0.875555
O O7 0.714126 0.892928 0.710745
O O8 0.733444 0.000000 0.770354
O O9 0.500000 0.413838 0.975579
O O10 0.322245 0.500000 0.962645
O O11 0.266583 0.445401 0.337729
O O12 0.189992 0.500000 0.463865
O O13 0.000000 0.500000 0.335256
O O14 0.500000 0.379883 0.297074
O O15 0.265908 0.342767 0.377862
O O16 0.210057 0.055348 0.583538
O O17 0.000000 0.000000 0.499746
O O18 0.760464 0.343851 0.547091
O O19 0.000000 0.401332 0.599380
O O20 0.500000 0.685398 0.471840
O O21 0.750000 0.750000 0.464462
#
# Coordination Sequence:
#
# PCOD9348200 Si02
#       8
#     8   8   8   4   8   4   8   8
#     4  10  19  30  47  73 105 142 179 212 254 311
#     4   9  17  30  47  72 105 141 177 212 255 309
#     4   9  17  28  43  67 102 143 178 212 255 302
#     4  12  22  32  50  75 104 139 174 210 260 316
#     4  11  22  35  53  77 106 137 174 220 264 312
#     4  12  22  32  48  75 108 139 174 216 262 314
#     4  11  21  35  55  78 106 141 179 219 265 318
#     4  11  25  42  58  77 103 138 179 224 271 317
#
# _framework density 16.943929000000001
#
# number of rings (size 3 to 8) (size 9 to 14) (size 15 to 20)
#    0.000    1.571    2.857    3.429    0.000    5.143 
#    0.000    0.000    0.000    0.000    0.000    1.000 
#    0.000    2.286    0.000    0.000    0.000    0.000 
#
# Total GULP energy -155941.960861 kJ/mol
# GULP energy per Si atom -5569.355745 kJ/mol
# Density = 1.690536 g / cm^3
# Si number density = 16.943929 Si / 1000 Ang^3
#
#
#
# Elastic Constant Matrix: (Units=GPa)
#
#
# Indices 1 2 3 4 5 6 
#
# 1 58.7571 22.8886 51.4035 0.0000 0.0000 0.0000
# 2 22.8886 76.6256 46.6148 0.0000 0.0000 0.0000
# 3 51.4035 46.6148 149.7415 0.0000 0.0000 0.0000
# 4 0.0000 0.0000 0.0000 5.7504 0.0000 0.0000
# 5 0.0000 0.0000 0.0000 0.0000 32.6420 0.0000
# 6 0.0000 0.0000 0.0000 0.0000 0.0000 20.7976
#
#
#
# Elastic Compliance Matrix: (Units=1/GPa)
#
#
# Indices 1 2 3 4 5 6 
#
# 1 0.024785 -0.002748 -0.007653 0.000000 0.000000 0.000000
# 2 -0.002748 0.016404 -0.004163 0.000000 0.000000 0.000000
# 3 -0.007653 -0.004163 0.010601 0.000000 0.000000 0.000000
# 4 0.000000 0.000000 0.000000 0.173900 0.000000 0.000000
# 5 0.000000 0.000000 0.000000 0.000000 0.030635 0.000000
# 6 0.000000 0.000000 0.000000 0.000000 0.000000 0.048083
#
#
# Mechanical properties :
#
#
# Convention : Reuss Voigt Hill
#
# Bulk Modulus (GPa) = 44.12649 58.54865 51.33757
# Shear Modulus (GPa) = 14.65891 22.78582 18.72237
#
# Velocity S-wave (km/s) = 2.94452 3.67110 3.32770
# Velocity P-wave (km/s) = 6.13673 7.25249 6.71782
#
# Compressibility (1/GPa) = 0.02266213
#
# Stress axis : x y z
#
# Youngs Moduli (GPa) = 40.34775 60.96077 94.32871
#
# Poissons Ratio (x) = 0.16751 0.72186
# Poissons Ratio (y) = 0.11087 0.39272
# Poissons Ratio (z) = 0.30877 0.25380
#
# Static dielectric constant tensor:
#      x y z
#    x 1.583490 0.000000 0.000000 
#    y 0.000000 1.527240 0.000000 
#    z 0.000000 0.000000 1.639690 
# 
# From -- ./inp_files/15778.got.cif
#   From: 2010.05.17/outbox.cif.g08.bks.cpg/sg35_8_cif.got.tgz:15778.got - 2010.06.03 17:29:28.
