data_PCOD9348414
_publ_section_title
;
Structure prediction by ZEFSAII (Michael W. Deem and Ramdas Pophale) SiO2 
 PCOD9348414
Probable space group: C M M 2
;
_chemical_formula_sum "Si O2"
_cell_formula_units_Z 56
_cell_length_a 18.627567
_cell_length_b 8.872752
_cell_length_c 18.714906
_cell_angle_alpha 90.000000
_cell_angle_beta 90.000000
_cell_angle_gamma 90.000000
_cell_volume 3093.158161
_symmetry_space_group_name_H-M "C M M 2"
_symmetry_group_IT_number 35
_symmetry_cell_setting 'orthorhombic'
loop_
_space_group_symop_operation_xyz
x,y,z
-x,-y,z
-x,y,z
x,-y,z
1/2+x,1/2+y,z
1/2-x,1/2-y,z
1/2-x,1/2+y,z
1/2+x,1/2-y,z
loop_
_atom_site_type_symbol
_atom_site_label
_atom_site_fract_x
_atom_site_fract_y
_atom_site_fract_z
Si Si1 0.330152 0.819423 0.872420
Si Si2 0.329092 0.819106 0.452938
Si Si3 0.170486 0.319912 0.030239
Si Si4 0.916184 0.818854 0.584140
Si Si5 0.329814 0.680602 0.727745
Si Si6 0.414317 0.677667 0.160847
Si Si7 0.583787 0.818817 0.311480
O O1 0.250000 0.750000 0.874460
O O2 0.362591 0.746991 0.801141
O O3 0.326531 0.000000 0.864560
O O4 0.360956 0.784402 0.951028
O O5 0.250000 0.750000 0.456200
O O6 0.375481 0.760854 0.519433
O O7 0.368700 0.774397 0.379288
O O8 0.324876 0.000000 0.455142
O O9 0.176145 0.500000 0.035200
O O10 0.250000 0.250000 0.034463
O O11 0.123966 0.256631 0.094715
O O12 0.877496 0.782213 0.658931
O O13 0.000000 0.777690 0.585519
O O14 0.911094 0.000000 0.574715
O O15 0.323655 0.500000 0.733915
O O16 0.250000 0.750000 0.718659
O O17 0.500000 0.700903 0.155500
O O18 0.399538 0.500000 0.159264
O O19 0.391720 0.745201 0.237313
O O20 0.500000 0.777414 0.323625
O O21 0.586827 0.000000 0.304286
#
# Coordination Sequence:
#
# PCOD9348414 Si02
#       7
#     8   8   8   8   8   8   8
#     4   9  17  30  50  76 104 136 175 218 266 317
#     4  11  23  38  58  84 111 141 178 219 265 315
#     4  10  20  34  54  79 108 142 180 224 271 318
#     4  10  22  39  57  79 109 144 180 219 266 318
#     4  10  19  32  53  78 105 138 176 219 266 316
#     4  10  21  36  55  80 109 143 182 220 263 318
#     4   9  19  37  58  78 104 140 180 221 267 318
#
# _framework density 18.104475000000001
#
# number of rings (size 3 to 8) (size 9 to 14) (size 15 to 20)
#    0.000    2.143    0.000    3.857    0.000    7.429 
#    0.000    3.571    0.000    2.571    0.000    0.000 
#    0.000    0.000    0.000    0.000    0.000    0.000 
#
# Total GULP energy -156269.973545 kJ/mol
# GULP energy per Si atom -5581.070484 kJ/mol
# Density = 1.806327 g / cm^3
# Si number density = 18.104475 Si / 1000 Ang^3
#
#
#
# Elastic Constant Matrix: (Units=GPa)
#
#
# Indices 1 2 3 4 5 6 
#
# 1 82.2243 47.5762 88.5635 0.0000 0.0000 0.0000
# 2 47.5762 63.0411 84.8250 0.0000 0.0000 0.0000
# 3 88.5635 84.8250 222.0202 0.0000 0.0000 0.0000
# 4 0.0000 0.0000 0.0000 5.3885 0.0000 0.0000
# 5 0.0000 0.0000 0.0000 0.0000 90.6622 0.0000
# 6 0.0000 0.0000 0.0000 0.0000 0.0000 17.5126
#
#
#
# Elastic Compliance Matrix: (Units=1/GPa)
#
#
# Indices 1 2 3 4 5 6 
#
# 1 0.024550 -0.011011 -0.005586 0.000000 0.000000 0.000000
# 2 -0.011011 0.037583 -0.009967 0.000000 0.000000 0.000000
# 3 -0.005586 -0.009967 0.010540 0.000000 0.000000 0.000000
# 4 0.000000 0.000000 0.000000 0.185580 0.000000 0.000000
# 5 0.000000 0.000000 0.000000 0.000000 0.011030 0.000000
# 6 0.000000 0.000000 0.000000 0.000000 0.000000 0.057102
#
#
# Mechanical properties :
#
#
# Convention : Reuss Voigt Hill
#
# Bulk Modulus (GPa) = 51.16234 89.91276 70.53755
# Shear Modulus (GPa) = 12.95246 32.46740 22.70993
#
# Velocity S-wave (km/s) = 2.67765 4.23937 3.54557
# Velocity P-wave (km/s) = 6.15472 8.58686 7.47043
#
# Compressibility (1/GPa) = 0.01954563
#
# Stress axis : x y z
#
# Youngs Moduli (GPa) = 40.73390 26.60746 94.87476
#
# Poissons Ratio (x) = 0.29298 0.52996
# Poissons Ratio (y) = 0.44853 0.94560
# Poissons Ratio (z) = 0.22753 0.26519
#
# Static dielectric constant tensor:
#      x y z
#    x 1.592480 0.000000 0.000000 
#    y 0.000000 1.606270 0.000000 
#    z 0.000000 0.000000 1.630810 
# 
# From -- ./inp_files/17415.got.cif
#   From: 2010.05.17/outbox.cif.g08.bks.cpg/sg35_9_cif.got.tgz:17415.got - 2010.06.03 17:29:28.
