data_PCOD9348298
_publ_section_title
;
Structure prediction by ZEFSAII (Michael W. Deem and Ramdas Pophale) SiO2 
 PCOD9348298
Probable space group: C M M 2
;
_chemical_formula_sum "Si O2"
_cell_formula_units_Z 56
_cell_length_a 16.370312
_cell_length_b 15.621672
_cell_length_c 10.177578
_cell_angle_alpha 90.000000
_cell_angle_beta 90.000000
_cell_angle_gamma 90.000000
_cell_volume 2602.728760
_symmetry_space_group_name_H-M "C M M 2"
_symmetry_group_IT_number 35
_symmetry_cell_setting 'orthorhombic'
loop_
_space_group_symop_operation_xyz
x,y,z
-x,-y,z
-x,y,z
x,-y,z
1/2+x,1/2+y,z
1/2-x,1/2-y,z
1/2-x,1/2+y,z
1/2+x,1/2-y,z
loop_
_atom_site_type_symbol
_atom_site_label
_atom_site_fract_x
_atom_site_fract_y
_atom_site_fract_z
Si Si1 0.859447 0.100456 0.986110
Si Si2 0.591178 0.843779 0.785270
Si Si3 0.265575 0.850229 0.314856
Si Si4 0.822051 0.602186 0.031448
Si Si5 0.084869 0.101902 0.261997
Si Si6 0.236135 0.353092 0.604815
Si Si7 0.911377 0.144522 0.702989
O O1 0.767100 0.134537 0.981414
O O2 0.904686 0.109736 0.850536
O O3 0.848651 0.000000 0.013111
O O4 0.905626 0.136048 0.112609
O O5 0.500000 0.879720 0.763665
O O6 0.612710 0.849501 0.940269
O O7 0.669194 0.883954 0.710007
O O8 0.589832 0.747065 0.728192
O O9 0.250000 0.750000 0.297210
O O10 0.172869 0.883616 0.321949
O O11 0.299057 0.869637 0.459430
O O12 0.315495 0.883161 0.188790
O O13 0.831906 0.500000 0.009144
O O14 0.000000 0.137394 0.319592
O O15 0.077280 0.000000 0.258653
O O16 0.250000 0.250000 0.614481
O O17 0.328615 0.385632 0.630916
O O18 0.000000 0.120876 0.645031
#
# Coordination Sequence:
#
# PCOD9348298 Si02
#       7
#     8   8   8   8   8   8   8
#     4   9  17  30  50  79 114 148 178 217 273 331
#     4  10  21  37  61  83 105 147 197 243 289 337
#     4  10  21  35  57  83 114 155 191 231 285 345
#     4  10  21  37  57  82 112 147 186 238 290 335
#     4   9  18  33  53  78 114 153 185 223 274 340
#     4   9  19  37  55  80 118 152 186 233 285 341
#     4  10  19  31  55  86 116 147 184 230 280 334
#
# _framework density 21.515881
#
# number of rings (size 3 to 8) (size 9 to 14) (size 15 to 20)
#    0.000    2.429    1.429    1.714    4.000    1.714 
#    0.000    5.714    0.000    0.000    0.000    0.000 
#    0.000    0.000    0.000    0.000    0.000    0.000 
#
# Total GULP energy -155953.551118 kJ/mol
# GULP energy per Si atom -5569.769683 kJ/mol
# Density = 2.146691 g / cm^3
# Si number density = 21.515881 Si / 1000 Ang^3
#
#
#
# Elastic Constant Matrix: (Units=GPa)
#
#
# Indices 1 2 3 4 5 6 
#
# 1 128.5355 10.0785 44.5366 0.0000 0.0000 0.0000
# 2 10.0785 21.7917 -5.9363 0.0000 0.0000 0.0000
# 3 44.5366 -5.9363 112.5829 0.0000 0.0000 0.0000
# 4 0.0000 0.0000 0.0000 26.6658 0.0000 0.0000
# 5 0.0000 0.0000 0.0000 0.0000 -8.7785 0.0000
# 6 0.0000 0.0000 0.0000 0.0000 0.0000 9.0589
#
#
#
# Elastic Compliance Matrix: (Units=1/GPa)
#
#
# Indices 1 2 3 4 5 6 
#
# 1 0.009641 -0.005578 -0.004108 0.000000 0.000000 0.000000
# 2 -0.005578 0.049785 0.004832 0.000000 0.000000 0.000000
# 3 -0.004108 0.004832 0.010762 0.000000 0.000000 0.000000
# 4 0.000000 0.000000 0.000000 0.037501 0.000000 0.000000
# 5 0.000000 0.000000 0.000000 0.000000 -0.113914 0.000000
# 6 0.000000 0.000000 0.000000 0.000000 0.000000 0.110389
#
#
# Mechanical properties :
#
#
# Convention : Reuss Voigt Hill
#
# Bulk Modulus (GPa) = 16.53449 40.02973 28.28211
# Shear Modulus (GPa) = 37.30474 19.67132 28.48803
#
# Velocity S-wave (km/s) = 4.16844 3.02697 3.64269
# Velocity P-wave (km/s) = 5.55601 5.55534 5.55568
#
# Compressibility (1/GPa) = 0.06047965
#
# Stress axis : x y z
#
# Youngs Moduli (GPa) = 103.72758 20.08640 92.91850
#
# Poissons Ratio (x) = 0.11204 0.38169
# Poissons Ratio (y) = 0.57857 -0.44894
# Poissons Ratio (z) = 0.42610 -0.09705
#
# Static dielectric constant tensor:
#      x y z
#    x 1.828250 0.000000 0.000000 
#    y 0.000000 1.750010 0.000000 
#    z 0.000000 0.000000 1.794250 
# 
# From -- ./inp_files/8671.got.cif
#   From: 2010.05.17/outbox.cif.g08.bks.cpg/sg35_5_cif.got.tgz:8671.got - 2010.06.03 17:29:28.
