data_PCOD9348603
_publ_section_title
;
Structure prediction by ZEFSAII (Michael W. Deem and Ramdas Pophale) SiO2 
 PCOD9348603
Probable space group: C M M 2
;
_chemical_formula_sum "Si O2"
_cell_formula_units_Z 64
_cell_length_a 29.748561
_cell_length_b 8.868838
_cell_length_c 12.551064
_cell_angle_alpha 90.000000
_cell_angle_beta 90.000000
_cell_angle_gamma 90.000000
_cell_volume 3311.412082
_symmetry_space_group_name_H-M "C M M 2"
_symmetry_group_IT_number 35
_symmetry_cell_setting 'orthorhombic'
loop_
_space_group_symop_operation_xyz
x,y,z
-x,-y,z
-x,y,z
x,-y,z
1/2+x,1/2+y,z
1/2-x,1/2-y,z
1/2-x,1/2+y,z
1/2+x,1/2-y,z
loop_
_atom_site_type_symbol
_atom_site_label
_atom_site_fract_x
_atom_site_fract_y
_atom_site_fract_z
Si Si1 0.184021 0.327267 0.057940
Si Si2 0.887253 0.181473 0.731149
Si Si3 0.295830 0.678992 0.279640
Si Si4 0.297635 0.181439 0.812879
Si Si5 0.896116 0.179827 0.342266
Si Si6 0.419465 0.170602 0.126235
Si Si7 0.951062 0.176761 0.922837
Si Si8 0.552929 0.818873 0.542419
O O1 0.200626 0.500000 0.070977
O O2 0.201321 0.226681 0.155226
O O3 0.130539 0.329728 0.075765
O O4 0.194914 0.276093 0.938240
O O5 0.837950 0.251853 0.742528
O O6 0.912984 0.222559 0.840442
O O7 0.917588 0.246228 0.636557
O O8 0.884820 0.000000 0.723071
O O9 0.293363 0.500000 0.287417
O O10 0.250000 0.750000 0.324319
O O11 0.343265 0.727528 0.333154
O O12 0.250000 0.250000 0.779968
O O13 0.297764 0.000000 0.807541
O O14 0.917723 0.224064 0.229030
O O15 0.923624 0.262367 0.434136
O O16 0.897334 0.000000 0.358233
O O17 0.430940 0.000000 0.157623
O O18 0.449460 0.231950 0.031402
O O19 0.000000 0.194201 0.870867
O O20 0.944641 0.000000 0.947893
O O21 0.500000 0.775234 0.547092
O O22 0.555144 0.000000 0.549145
#
# Coordination Sequence:
#
# PCOD9348603 Si02
#       8
#     8   8   8   8   8   8   8   8
#     4   9  18  32  52  80 118 161 203 245 290 345
#     4  11  23  41  65  90 121 159 202 253 306 363
#     4  10  20  33  54  85 121 160 202 244 292 350
#     4  11  22  37  57  87 124 163 207 251 302 360
#     4  10  22  40  62  89 120 157 202 251 301 360
#     4  10  19  34  56  85 121 160 198 244 301 356
#     4  10  21  36  56  85 120 158 198 241 297 364
#     4  11  25  45  69  94 118 151 199 255 312 369
#
# _framework density 19.327100999999999
#
# number of rings (size 3 to 8) (size 9 to 14) (size 15 to 20)
#    0.000    1.750    1.250    3.000    0.000    6.750 
#    0.000    0.625    0.000    1.500    0.000    0.000 
#    0.000    0.000    0.000    0.000    0.000    0.000 
#
# Total GULP energy -178690.361620 kJ/mol
# GULP energy per Si atom -5584.073801 kJ/mol
# Density = 1.928311 g / cm^3
# Si number density = 19.327101 Si / 1000 Ang^3
#
#
#
# Elastic Constant Matrix: (Units=GPa)
#
#
# Indices 1 2 3 4 5 6 
#
# 1 148.0575 53.6268 66.4302 0.0000 0.0000 0.0000
# 2 53.6268 54.1925 34.8887 0.0000 0.0000 0.0000
# 3 66.4302 34.8887 84.8538 0.0000 0.0000 0.0000
# 4 0.0000 0.0000 0.0000 31.6319 0.0000 0.0000
# 5 0.0000 0.0000 0.0000 0.0000 18.5980 0.0000
# 6 0.0000 0.0000 0.0000 0.0000 0.0000 19.9945
#
#
#
# Elastic Compliance Matrix: (Units=1/GPa)
#
#
# Indices 1 2 3 4 5 6 
#
# 1 0.012711 -0.008393 -0.006500 0.000000 0.000000 0.000000
# 2 -0.008393 0.030638 -0.006026 0.000000 0.000000 0.000000
# 3 -0.006500 -0.006026 0.019351 0.000000 0.000000 0.000000
# 4 0.000000 0.000000 0.000000 0.031614 0.000000 0.000000
# 5 0.000000 0.000000 0.000000 0.000000 0.053769 0.000000
# 6 0.000000 0.000000 0.000000 0.000000 0.000000 0.050014
#
#
# Mechanical properties :
#
#
# Convention : Reuss Voigt Hill
#
# Bulk Modulus (GPa) = 47.93595 66.33276 57.13436
# Shear Modulus (GPa) = 20.25201 22.85543 21.55372
#
# Velocity S-wave (km/s) = 3.24057 3.44257 3.34309
# Velocity P-wave (km/s) = 6.23362 7.08501 6.67291
#
# Compressibility (1/GPa) = 0.02086117
#
# Stress axis : x y z
#
# Youngs Moduli (GPa) = 78.67492 32.63906 51.67616
#
# Poissons Ratio (x) = 0.27395 0.33588
# Poissons Ratio (y) = 0.66035 0.31141
# Poissons Ratio (z) = 0.51137 0.19669
#
# Static dielectric constant tensor:
#      x y z
#    x 1.706190 0.000000 0.000000 
#    y 0.000000 1.656160 0.000000 
#    z 0.000000 0.000000 1.649960 
# 
# From -- ./inp_files/11857.got.cif
#   From: 2010.05.17/outbox.cif.g08.bks.cpg/sg35_6_cif.got.tgz:11857.got - 2010.06.03 17:29:28.
