data_PCOD9348311
_publ_section_title
;
Structure prediction by ZEFSAII (Michael W. Deem and Ramdas Pophale) SiO2 
 PCOD9348311
Probable space group: C M M 2
;
_chemical_formula_sum "Si O2"
_cell_formula_units_Z 64
_cell_length_a 8.630166
_cell_length_b 29.195258
_cell_length_c 16.067111
_cell_angle_alpha 90.000000
_cell_angle_beta 90.000000
_cell_angle_gamma 90.000000
_cell_volume 4048.268050
_symmetry_space_group_name_H-M "C M M 2"
_symmetry_group_IT_number 35
_symmetry_cell_setting 'orthorhombic'
loop_
_space_group_symop_operation_xyz
x,y,z
-x,-y,z
-x,y,z
x,-y,z
1/2+x,1/2+y,z
1/2-x,1/2-y,z
1/2-x,1/2+y,z
1/2+x,1/2-y,z
loop_
_atom_site_type_symbol
_atom_site_label
_atom_site_fract_x
_atom_site_fract_y
_atom_site_fract_z
Si Si1 0.813975 0.801866 0.039440
Si Si2 0.184971 0.447692 0.430221
Si Si3 0.184767 0.698130 0.212491
Si Si4 0.813102 0.198360 0.856050
Si Si5 0.185292 0.301391 0.529718
Si Si6 0.184333 0.855516 0.370231
Si Si7 0.813539 0.051380 0.616330
Si Si8 0.312438 0.646352 0.690849
O O1 0.750000 0.750000 0.037168
O O2 0.741998 0.821688 0.123669
O O3 0.000000 0.801395 0.047293
O O4 0.771200 0.820547 0.947972
O O5 0.225656 0.500000 0.406891
O O6 0.266882 0.408471 0.377371
O O7 0.236214 0.441615 0.526333
O O8 0.000000 0.442371 0.424649
O O9 0.250000 0.750000 0.220327
O O10 0.246731 0.668457 0.288820
O O11 0.000000 0.700361 0.213604
O O12 0.750000 0.250000 0.846822
O O13 0.761819 0.167310 0.778907
O O14 0.000000 0.201138 0.854173
O O15 0.250000 0.250000 0.524769
O O16 0.248143 0.330260 0.451695
O O17 0.243069 0.324736 0.614784
O O18 0.000000 0.300720 0.527552
O O19 0.000000 0.851032 0.370579
O O20 0.770306 0.093270 0.675986
O O21 0.000000 0.053086 0.604620
O O22 0.773644 0.000000 0.645612
O O23 0.500000 0.649768 0.686514
#
# Coordination Sequence:
#
# PCOD9348311 Si02
#       8
#     8   8   8   8   8   8   8   8
#     4   9  16  29  47  68  93 124 161 202 247 291
#     4  10  20  34  52  74  99 126 161 205 249 290
#     4  11  21  34  51  73 100 129 163 203 247 296
#     4   9  18  30  46  68  96 128 163 202 244 289
#     4  12  24  36  48  66  96 133 169 202 240 286
#     4  12  23  36  52  72  98 130 166 202 242 292
#     4   9  17  30  49  70  94 127 166 206 247 290
#     4  10  19  32  48  70  98 130 166 204 245 291
#
# _framework density 15.809231
#
# number of rings (size 3 to 8) (size 9 to 14) (size 15 to 20)
#    0.000    1.750    1.250    5.625    0.000    2.750 
#    0.000    0.000    0.000    0.000    0.000    0.875 
#    0.000    3.000    0.000    0.000    0.000    0.000 
#
# Total GULP energy -178558.041996 kJ/mol
# GULP energy per Si atom -5579.938812 kJ/mol
# Density = 1.577325 g / cm^3
# Si number density = 15.809231 Si / 1000 Ang^3
#
#
#
# Elastic Constant Matrix: (Units=GPa)
#
#
# Indices 1 2 3 4 5 6 
#
# 1 78.1231 41.5245 50.2612 0.0000 0.0000 0.0000
# 2 41.5245 99.4191 66.5844 0.0000 0.0000 0.0000
# 3 50.2612 66.5844 148.8917 0.0000 0.0000 0.0000
# 4 0.0000 0.0000 0.0000 6.2296 0.0000 0.0000
# 5 0.0000 0.0000 0.0000 0.0000 15.4891 0.0000
# 6 0.0000 0.0000 0.0000 0.0000 0.0000 18.3030
#
#
#
# Elastic Compliance Matrix: (Units=1/GPa)
#
#
# Indices 1 2 3 4 5 6 
#
# 1 0.017874 -0.004889 -0.003848 0.000000 0.000000 0.000000
# 2 -0.004889 0.015696 -0.005369 0.000000 0.000000 0.000000
# 3 -0.003848 -0.005369 0.010416 0.000000 0.000000 0.000000
# 4 0.000000 0.000000 0.000000 0.160523 0.000000 0.000000
# 5 0.000000 0.000000 0.000000 0.000000 0.064561 0.000000
# 6 0.000000 0.000000 0.000000 0.000000 0.000000 0.054636
#
#
# Mechanical properties :
#
#
# Convention : Reuss Voigt Hill
#
# Bulk Modulus (GPa) = 63.38796 71.46378 67.42587
# Shear Modulus (GPa) = 13.99871 19.20859 16.60365
#
# Velocity S-wave (km/s) = 2.97893 3.48950 3.24427
# Velocity P-wave (km/s) = 7.21211 7.84458 7.53499
#
# Compressibility (1/GPa) = 0.01577587
#
# Stress axis : x y z
#
# Youngs Moduli (GPa) = 55.94681 63.70994 96.00499
#
# Poissons Ratio (x) = 0.31146 0.36938
# Poissons Ratio (y) = 0.27351 0.51545
# Poissons Ratio (z) = 0.21526 0.34206
#
# Static dielectric constant tensor:
#      x y z
#    x 1.529450 0.000000 0.000000 
#    y 0.000000 1.522920 0.000000 
#    z 0.000000 0.000000 1.534450 
# 
# From -- ./inp_files/16149.got.cif
#   From: 2010.05.17/outbox.cif.g08.bks.cpg/sg35_9_cif.got.tgz:16149.got - 2010.06.03 17:29:28.
