data_PCOD9348052
_publ_section_title
;
Structure prediction by ZEFSAII (Michael W. Deem and Ramdas Pophale) SiO2 
 PCOD9348052
Probable space group: P N N 2
;
_chemical_formula_sum "Si O2"
_cell_formula_units_Z 12
_cell_length_a 10.060638
_cell_length_b 7.598334
_cell_length_c 4.955705
_cell_angle_alpha 90.000000
_cell_angle_beta 90.000000
_cell_angle_gamma 90.000000
_cell_volume 378.834348
_symmetry_space_group_name_H-M "P N N 2"
_symmetry_group_IT_number 34
_symmetry_cell_setting 'orthorhombic'
loop_
_space_group_symop_operation_xyz
x,y,z
-x,-y,z
1/2-x,1/2+y,1/2+z
1/2+x,1/2-y,1/2+z
loop_
_atom_site_type_symbol
_atom_site_label
_atom_site_fract_x
_atom_site_fract_y
_atom_site_fract_z
Si Si1 0.879751 0.383558 0.392920
Si Si2 0.852854 0.013314 0.675401
Si Si3 0.379054 0.735184 0.647070
O O1 0.699162 0.345946 0.385700
O O2 0.000000 0.500000 0.539148
O O3 0.872693 0.220611 0.601297
O O4 0.966762 0.289886 0.153369
O O5 0.146171 0.093634 0.384949
O O6 0.683576 0.068699 0.732063
O O7 0.000000 0.000000 0.816429
#
# Coordination Sequence:
#
# PCOD9348052 Si02
#       3
#     4   4   4
#     4   8  17  36  64  94 138 180 240 292 354 429
#     4   9  19  38  67  93 139 187 239 294 362 430
#     4   9  18  38  65  99 139 183 239 295 362 428
#
# _framework density 31.676116
#
# number of rings (size 3 to 8) (size 9 to 14) (size 15 to 20)
#    2.000    1.333    0.000    0.000    0.000    0.000 
#   12.000    1.667   22.000    0.000    0.000    0.000 
#    0.000    0.000    0.000    0.000    0.000    0.000 
#
# Total GULP energy -66967.402149 kJ/mol
# GULP energy per Si atom -5580.616846 kJ/mol
# Density = 3.160402 g / cm^3
# Si number density = 31.676116 Si / 1000 Ang^3
#
#
#
# Elastic Constant Matrix: (Units=GPa)
#
#
# Indices 1 2 3 4 5 6 
#
# 1 282.5734 158.0789 43.7513 0.0000 0.0000 0.0000
# 2 158.0789 342.4577 114.5029 0.0000 0.0000 0.0000
# 3 43.7513 114.5029 162.5040 0.0000 0.0000 0.0000
# 4 0.0000 0.0000 0.0000 1320.6754 0.0000 0.0000
# 5 0.0000 0.0000 0.0000 0.0000 27.7870 0.0000
# 6 0.0000 0.0000 0.0000 0.0000 0.0000 100.5642
#
#
#
# Elastic Compliance Matrix: (Units=1/GPa)
#
#
# Indices 1 2 3 4 5 6 
#
# 1 0.004786 -0.002327 0.000351 0.000000 0.000000 0.000000
# 2 -0.002327 0.004951 -0.002862 0.000000 0.000000 0.000000
# 3 0.000351 -0.002862 0.008076 0.000000 0.000000 0.000000
# 4 0.000000 0.000000 0.000000 0.000757 0.000000 0.000000
# 5 0.000000 0.000000 0.000000 0.000000 0.035988 0.000000
# 6 0.000000 0.000000 0.000000 0.000000 0.000000 0.009944
#
#
# Mechanical properties :
#
#
# Convention : Reuss Voigt Hill
#
# Bulk Modulus (GPa) = 122.89289 157.80013 140.34651
# Shear Modulus (GPa) = 65.02743 321.21878 193.12310
#
# Velocity S-wave (km/s) = 4.53579 10.08104 7.81667
# Velocity P-wave (km/s) = 8.14323 13.61720 11.21919
#
# Compressibility (1/GPa) = 0.00813717
#
# Stress axis : x y z
#
# Youngs Moduli (GPa) = 208.93685 201.97968 123.82393
#
# Poissons Ratio (x) = 0.46992 -0.04343
# Poissons Ratio (y) = 0.48610 0.35440
# Poissons Ratio (z) = -0.07328 0.57810
#
# Static dielectric constant tensor:
#      x y z
#    x 2.956390 0.000000 0.000000 
#    y 0.000000 -3.621060 0.000000 
#    z 0.000000 0.000000 2.274670 
# 
# From -- ./inp_files/251.got.cif
#   From: 2010.05.17/outbox.cif.g08.bks.cpg/sg34_1_cif.got.tgz:251.got - 2010.06.03 17:23:11.
