data_PCOD9348037
_publ_section_title
;
Structure prediction by ZEFSAII (Michael W. Deem and Ramdas Pophale) SiO2 
 PCOD9348037
Probable space group: P N N 2
;
_chemical_formula_sum "Si O2"
_cell_formula_units_Z 20
_cell_length_a 14.854919
_cell_length_b 8.856314
_cell_length_c 6.203422
_cell_angle_alpha 90.000000
_cell_angle_beta 90.000000
_cell_angle_gamma 90.000000
_cell_volume 816.121126
_symmetry_space_group_name_H-M "P N N 2"
_symmetry_group_IT_number 34
_symmetry_cell_setting 'orthorhombic'
loop_
_space_group_symop_operation_xyz
x,y,z
-x,-y,z
1/2-x,1/2+y,1/2+z
1/2+x,1/2-y,1/2+z
loop_
_atom_site_type_symbol
_atom_site_label
_atom_site_fract_x
_atom_site_fract_y
_atom_site_fract_z
Si Si1 0.911445 0.124153 0.093270
Si Si2 0.981656 0.826910 0.479588
Si Si3 0.752602 0.591681 0.910574
Si Si4 0.328138 0.605343 0.270727
Si Si5 0.085405 0.603366 0.781997
O O1 0.840548 0.090289 0.281302
O O2 0.003130 0.163526 0.223815
O O3 0.891637 0.275837 0.964726
O O4 0.894052 0.993529 0.919577
O O5 0.884400 0.804458 0.585851
O O6 0.049486 0.703552 0.580729
O O7 0.000000 0.000000 0.545813
O O8 0.781618 0.766580 0.915272
O O9 0.827008 0.500595 0.773175
O O10 0.736279 0.509940 0.139860
O O11 0.000000 0.500000 0.843387
#
# Coordination Sequence:
#
# PCOD9348037 Si02
#       5
#     4   4   4   4   4
#     4  12  28  47  79 112 154 201 267 313 400 470
#     4  12  26  47  75 111 149 206 257 319 388 474
#     4  12  27  49  79 116 154 208 256 336 394 475
#     4  12  28  51  80 113 162 202 271 322 408 474
#     4  12  27  48  73 114 157 200 261 322 391 475
#
# _framework density 24.506163999999998
#
# number of rings (size 3 to 8) (size 9 to 14) (size 15 to 20)
#    0.000    0.000    8.000    0.000    8.400    0.800 
#    3.600    0.000    0.000    0.000    0.000    0.000 
#    0.000    0.000    0.000    0.000    0.000    0.000 
#
# Total GULP energy -111783.697640 kJ/mol
# GULP energy per Si atom -5589.184882 kJ/mol
# Density = 2.445039 g / cm^3
# Si number density = 24.506164 Si / 1000 Ang^3
#
#
#
# Elastic Constant Matrix: (Units=GPa)
#
#
# Indices 1 2 3 4 5 6 
#
# 1 95.5314 46.6293 29.9300 0.0000 0.0000 0.0000
# 2 46.6293 160.9134 75.5474 0.0000 0.0000 0.0000
# 3 29.9300 75.5474 85.3787 0.0000 0.0000 0.0000
# 4 0.0000 0.0000 0.0000 34.0479 0.0000 0.0000
# 5 0.0000 0.0000 0.0000 0.0000 35.9071 0.0000
# 6 0.0000 0.0000 0.0000 0.0000 0.0000 46.0484
#
#
#
# Elastic Compliance Matrix: (Units=1/GPa)
#
#
# Indices 1 2 3 4 5 6 
#
# 1 0.012388 -0.002653 -0.001995 0.000000 0.000000 0.000000
# 2 -0.002653 0.011199 -0.008980 0.000000 0.000000 0.000000
# 3 -0.001995 -0.008980 0.020357 0.000000 0.000000 0.000000
# 4 0.000000 0.000000 0.000000 0.029370 0.000000 0.000000
# 5 0.000000 0.000000 0.000000 0.000000 0.027850 0.000000
# 6 0.000000 0.000000 0.000000 0.000000 0.000000 0.021716
#
#
# Mechanical properties :
#
#
# Convention : Reuss Voigt Hill
#
# Bulk Modulus (GPa) = 59.91934 71.78188 65.85061
# Shear Modulus (GPa) = 32.11324 35.84844 33.98084
#
# Velocity S-wave (km/s) = 3.62389 3.82885 3.72778
# Velocity P-wave (km/s) = 6.48182 6.99298 6.74224
#
# Compressibility (1/GPa) = 0.01668910
#
# Stress axis : x y z
#
# Youngs Moduli (GPa) = 80.72465 89.29261 49.12208
#
# Poissons Ratio (x) = 0.23690 0.09800
# Poissons Ratio (y) = 0.21417 0.44109
# Poissons Ratio (z) = 0.16105 0.80180
#
# Static dielectric constant tensor:
#      x y z
#    x 2.021000 0.000000 0.000000 
#    y 0.000000 1.963960 0.000000 
#    z 0.000000 0.000000 1.935910 
# 
# From -- ./inp_files/1390.got.cif
#   From: 2010.05.17/outbox.cif.g08.bks.cpg/sg34_1_cif.got.tgz:1390.got - 2010.06.03 17:23:11.
