data_PCOD9348575
_publ_section_title
;
Structure prediction by ZEFSAII (Michael W. Deem and Ramdas Pophale) SiO2 
 PCOD9348575
Probable space group: C M M 2
;
_chemical_formula_sum "Si O2"
_cell_formula_units_Z 32
_cell_length_a 10.922590
_cell_length_b 15.372110
_cell_length_c 9.230506
_cell_angle_alpha 90.000000
_cell_angle_beta 90.000000
_cell_angle_gamma 90.000000
_cell_volume 1549.832002
_symmetry_space_group_name_H-M "C M M 2"
_symmetry_group_IT_number 35
_symmetry_cell_setting 'orthorhombic'
loop_
_space_group_symop_operation_xyz
x,y,z
-x,-y,z
-x,y,z
x,-y,z
1/2+x,1/2+y,z
1/2-x,1/2-y,z
1/2-x,1/2+y,z
1/2+x,1/2-y,z
loop_
_atom_site_type_symbol
_atom_site_label
_atom_site_fract_x
_atom_site_fract_y
_atom_site_fract_z
Si Si1 0.000000 0.902102 0.835570
Si Si2 0.500000 0.840597 0.294222
Si Si3 0.762228 0.353777 0.795232
Si Si4 0.500000 0.349426 0.152494
Si Si5 0.500000 0.900167 0.609711
Si Si6 0.737204 0.143551 0.131124
O O1 0.872591 0.888832 0.752898
O O2 0.000000 0.000000 0.895473
O O3 0.000000 0.838048 0.975729
O O4 0.500000 0.742282 0.233806
O O5 0.500000 0.842280 0.466163
O O6 0.376915 0.881896 0.228863
O O7 0.750000 0.250000 0.788672
O O8 0.877695 0.383029 0.702281
O O9 0.782372 0.380171 0.963218
O O10 0.631187 0.391718 0.182123
O O11 0.500000 0.000000 0.561792
O O12 0.750000 0.250000 0.134389
#
# Coordination Sequence:
#
# PCOD9348575 Si02
#       6
#     4   4   8   4   4   8
#     4  10  19  35  62  96 122 144 186 256 315 347
#     4  10  19  34  53  75 113 159 196 229 277 349
#     4  10  20  38  64  89 116 156 202 243 292 359
#     4   8  16  31  55  83 108 140 187 236 287 347
#     4  12  26  40  54  86 129 163 197 245 295 345
#     4   8  15  31  57  82 102 135 190 244 282 329
#
# _framework density 20.647400999999999
#
# number of rings (size 3 to 8) (size 9 to 14) (size 15 to 20)
#    0.000    2.500    0.000    3.750    0.000    5.000 
#    0.000    8.750    0.000    0.000    0.000    0.000 
#    0.000    0.000    0.000    0.000    0.000    0.000 
#
# Total GULP energy -89245.975883 kJ/mol
# GULP energy per Si atom -5577.873493 kJ/mol
# Density = 2.060041 g / cm^3
# Si number density = 20.647401 Si / 1000 Ang^3
#
#
#
# Elastic Constant Matrix: (Units=GPa)
#
#
# Indices 1 2 3 4 5 6 
#
# 1 242.9687 7.8712 82.9159 0.0000 0.0000 0.0000
# 2 7.8712 62.2130 12.7758 0.0000 0.0000 0.0000
# 3 82.9159 12.7758 76.9171 0.0000 0.0000 0.0000
# 4 0.0000 0.0000 0.0000 -1.1790 0.0000 0.0000
# 5 0.0000 0.0000 0.0000 0.0000 1.6134 0.0000
# 6 0.0000 0.0000 0.0000 0.0000 0.0000 -8.9314
#
#
#
# Elastic Compliance Matrix: (Units=1/GPa)
#
#
# Indices 1 2 3 4 5 6 
#
# 1 0.006536 0.000642 -0.007152 0.000000 0.000000 0.000000
# 2 0.000642 0.016704 -0.003466 0.000000 0.000000 0.000000
# 3 -0.007152 -0.003466 0.021287 0.000000 0.000000 0.000000
# 4 0.000000 0.000000 0.000000 -0.848189 0.000000 0.000000
# 5 0.000000 0.000000 0.000000 0.000000 0.619818 0.000000
# 6 0.000000 0.000000 0.000000 0.000000 0.000000 -0.111965
#
#
# Mechanical properties :
#
#
# Convention : Reuss Voigt Hill
#
# Bulk Modulus (GPa) = 40.69436 65.46940 53.08188
# Shear Modulus (GPa) = -18.68008 16.86966 -0.90521
#
# Velocity S-wave (km/s) = -3.01112 2.86148 -0.66285
# Velocity P-wave (km/s) = 2.76819 6.53411 5.01784
#
# Compressibility (1/GPa) = 0.02457343
#
# Stress axis : x y z
#
# Youngs Moduli (GPa) = 153.00657 59.86421 46.97798
#
# Poissons Ratio (x) = -0.03842 0.33599
# Poissons Ratio (y) = -0.09820 0.16285
# Poissons Ratio (z) = 1.09430 0.20752
#
# Static dielectric constant tensor:
#      x y z
#    x 1.791730 0.000000 0.000000 
#    y 0.000000 1.751500 0.000000 
#    z 0.000000 0.000000 1.688210 
# 
# From -- ./inp_files/5857.got.cif
#   From: 2010.05.17/outbox.cif.g08.bks.cpg/sg35_3_cif.got.tgz:5857.got - 2010.06.03 17:29:28.
