data_PCOD9348873
_publ_section_title
;
Structure prediction by ZEFSAII (Michael W. Deem and Ramdas Pophale) SiO2 
 PCOD9348873
Probable space group: C M M 2
;
_chemical_formula_sum "Si O2"
_cell_formula_units_Z 64
_cell_length_a 16.247657
_cell_length_b 15.146642
_cell_length_c 14.278648
_cell_angle_alpha 90.000000
_cell_angle_beta 90.000000
_cell_angle_gamma 90.000000
_cell_volume 3513.938775
_symmetry_space_group_name_H-M "C M M 2"
_symmetry_group_IT_number 35
_symmetry_cell_setting 'orthorhombic'
loop_
_space_group_symop_operation_xyz
x,y,z
-x,-y,z
-x,y,z
x,-y,z
1/2+x,1/2+y,z
1/2-x,1/2-y,z
1/2-x,1/2+y,z
1/2+x,1/2-y,z
loop_
_atom_site_type_symbol
_atom_site_label
_atom_site_fract_x
_atom_site_fract_y
_atom_site_fract_z
Si Si1 0.285264 0.657190 0.844090
Si Si2 0.159475 0.225903 0.160228
Si Si3 0.226746 0.102748 0.326432
Si Si4 0.592224 0.283620 0.680331
Si Si5 0.906298 0.398711 0.249862
Si Si6 0.335365 0.097326 0.688437
Si Si7 0.907029 0.900108 0.002936
Si Si8 0.185634 0.898086 0.541307
O O1 0.250000 0.750000 0.881044
O O2 0.348248 0.681989 0.761385
O O3 0.213024 0.607110 0.787792
O O4 0.337411 0.609922 0.923723
O O5 0.250000 0.250000 0.121908
O O6 0.181748 0.168698 0.253945
O O7 0.110708 0.316376 0.181226
O O8 0.111692 0.166625 0.086514
O O9 0.326272 0.109485 0.316703
O O10 0.203349 0.121133 0.433292
O O11 0.205862 0.000000 0.304804
O O12 0.500000 0.308825 0.701400
O O13 0.603779 0.178684 0.677587
O O14 0.622301 0.329583 0.585433
O O15 0.901101 0.500000 0.211128
O O16 0.000000 0.390214 0.287754
O O17 0.267456 0.107390 0.605751
O O18 0.371876 0.000000 0.681916
O O19 0.000000 0.884835 0.965730
O O20 0.903659 0.000000 0.039253
O O21 0.156686 0.000000 0.549334
#
# Coordination Sequence:
#
# PCOD9348873 Si02
#       8
#     8   8   8   8   8   8   8   8
#     4   9  18  35  56  75  98 131 171 210 252 302
#     4  10  20  34  53  75 103 139 174 208 251 307
#     4   9  18  34  55  75  99 135 174 210 251 303
#     4  10  20  33  52  78 105 131 163 207 254 300
#     4   9  18  33  53  76 100 130 172 219 261 297
#     4   9  18  33  53  75 101 134 168 204 247 299
#     4  11  22  34  51  77 107 135 166 210 260 307
#     4   9  18  34  54  74  99 133 173 211 246 292
#
# _framework density 18.213180000000001
#
# number of rings (size 3 to 8) (size 9 to 14) (size 15 to 20)
#    0.000    2.500    0.000    3.000    0.000    4.500 
#    0.000    3.125    0.000    4.500    0.000    0.000 
#    0.000    0.000    0.000    0.000    0.000    0.250 
#
# Total GULP energy -178276.863742 kJ/mol
# GULP energy per Si atom -5571.151992 kJ/mol
# Density = 1.817173 g / cm^3
# Si number density = 18.213180 Si / 1000 Ang^3
#
#
#
# Elastic Constant Matrix: (Units=GPa)
#
#
# Indices 1 2 3 4 5 6 
#
# 1 58.8546 29.9732 14.1258 0.0000 0.0000 0.0000
# 2 29.9732 94.3036 38.0947 0.0000 0.0000 0.0000
# 3 14.1258 38.0947 65.0393 0.0000 0.0000 0.0000
# 4 0.0000 0.0000 0.0000 25.2283 0.0000 0.0000
# 5 0.0000 0.0000 0.0000 0.0000 7.5323 0.0000
# 6 0.0000 0.0000 0.0000 0.0000 0.0000 9.6296
#
#
#
# Elastic Compliance Matrix: (Units=1/GPa)
#
#
# Indices 1 2 3 4 5 6 
#
# 1 0.020306 -0.006121 -0.000825 0.000000 0.000000 0.000000
# 2 -0.006121 0.015736 -0.007887 0.000000 0.000000 0.000000
# 3 -0.000825 -0.007887 0.020174 0.000000 0.000000 0.000000
# 4 0.000000 0.000000 0.000000 0.039638 0.000000 0.000000
# 5 0.000000 0.000000 0.000000 0.000000 0.132762 0.000000
# 6 0.000000 0.000000 0.000000 0.000000 0.000000 0.103846
#
#
# Mechanical properties :
#
#
# Convention : Reuss Voigt Hill
#
# Bulk Modulus (GPa) = 37.66539 42.50946 40.08743
# Shear Modulus (GPa) = 13.47786 17.54495 15.51141
#
# Velocity S-wave (km/s) = 2.72326 3.10709 2.92148
# Velocity P-wave (km/s) = 5.53293 6.02185 5.78256
#
# Compressibility (1/GPa) = 0.02654957
#
# Stress axis : x y z
#
# Youngs Moduli (GPa) = 49.24600 63.55027 49.56810
#
# Poissons Ratio (x) = 0.38897 0.04091
# Poissons Ratio (y) = 0.30142 0.39096
# Poissons Ratio (z) = 0.04064 0.50124
#
# Static dielectric constant tensor:
#      x y z
#    x 1.613610 0.000000 0.000000 
#    y 0.000000 1.650670 0.000000 
#    z 0.000000 0.000000 1.602070 
# 
# From -- ./inp_files/17241.got.cif
#   From: 2010.05.17/outbox.cif.g08.bks.cpg/sg35_9_cif.got.tgz:17241.got - 2010.06.03 17:29:28.
