data_PCOD9348993
_publ_section_title
;
Structure prediction by ZEFSAII (Michael W. Deem and Ramdas Pophale) SiO2 
 PCOD9348993
Probable space group: C M M 2
;
_chemical_formula_sum "Si O2"
_cell_formula_units_Z 64
_cell_length_a 29.147025
_cell_length_b 7.721118
_cell_length_c 13.261895
_cell_angle_alpha 90.000000
_cell_angle_beta 90.000000
_cell_angle_gamma 90.000000
_cell_volume 2984.557898
_symmetry_space_group_name_H-M "C M M 2"
_symmetry_group_IT_number 35
_symmetry_cell_setting 'orthorhombic'
loop_
_space_group_symop_operation_xyz
x,y,z
-x,-y,z
-x,y,z
x,-y,z
1/2+x,1/2+y,z
1/2-x,1/2-y,z
1/2-x,1/2+y,z
1/2+x,1/2-y,z
loop_
_atom_site_type_symbol
_atom_site_label
_atom_site_fract_x
_atom_site_fract_y
_atom_site_fract_z
Si Si1 0.051181 0.201037 0.264460
Si Si2 0.196286 0.791794 0.414966
Si Si3 0.303157 0.794512 0.009459
Si Si4 0.136459 0.298141 0.828190
Si Si5 0.944395 0.698118 0.487686
Si Si6 0.447215 0.212942 0.707489
Si Si7 0.803976 0.792603 0.637542
Si Si8 0.353200 0.291465 0.214796
O O1 0.065093 0.207531 0.383054
O O2 0.094644 0.276759 0.205713
O O3 0.000000 0.279489 0.254375
O O4 0.047139 0.000000 0.236107
O O5 0.250000 0.750000 0.403904
O O6 0.181185 0.729735 0.525880
O O7 0.169337 0.724005 0.318133
O O8 0.191828 0.000000 0.416384
O O9 0.250000 0.750000 0.995544
O O10 0.335958 0.719420 0.921887
O O11 0.305600 0.000000 0.001743
O O12 0.321928 0.744943 0.118903
O O13 0.128007 0.500000 0.851570
O O14 0.087525 0.225056 0.793005
O O15 0.168333 0.287633 0.729366
O O16 0.928576 0.500000 0.477149
O O17 0.929993 0.770785 0.596247
O O18 0.000000 0.694724 0.495592
O O19 0.500000 0.264673 0.722690
O O20 0.446579 0.000000 0.703606
O O21 0.750000 0.750000 0.647101
O O22 0.809369 0.000000 0.642407
O O23 0.356147 0.500000 0.223982
#
# Coordination Sequence:
#
# PCOD9348993 Si02
#       8
#     8   8   8   8   8   8   8   8
#     4   9  18  32  51  77 111 149 184 219 265 320
#     4   9  19  34  51  75 106 137 171 216 269 325
#     4  11  24  41  60  82 107 137 181 232 280 329
#     4  10  21  36  56  82 110 142 183 225 271 325
#     4   8  14  26  46  73 105 142 182 221 259 304
#     4   8  15  30  52  78 110 147 185 222 262 313
#     4  10  20  34  53  78 110 142 175 218 271 331
#     4  10  21  37  57  79 108 144 185 226 271 324
#
# _framework density 21.443712999999999
#
# number of rings (size 3 to 8) (size 9 to 14) (size 15 to 20)
#    0.000    2.625    0.000    2.250    1.750    4.500 
#    0.000    0.625    0.000    1.125    0.000    0.000 
#    0.000    0.000    0.000    0.000    0.000    0.000 
#
# Total GULP energy -178572.986640 kJ/mol
# GULP energy per Si atom -5580.405832 kJ/mol
# Density = 2.139491 g / cm^3
# Si number density = 21.443713 Si / 1000 Ang^3
#
#
#
# Elastic Constant Matrix: (Units=GPa)
#
#
# Indices 1 2 3 4 5 6 
#
# 1 101.8408 -9.4758 32.7363 0.0000 0.0000 0.0000
# 2 -9.4758 37.2175 -14.8533 0.0000 0.0000 0.0000
# 3 32.7363 -14.8533 56.3112 0.0000 0.0000 0.0000
# 4 0.0000 0.0000 0.0000 20.3047 0.0000 0.0000
# 5 0.0000 0.0000 0.0000 0.0000 38.4593 0.0000
# 6 0.0000 0.0000 0.0000 0.0000 0.0000 5.7428
#
#
#
# Elastic Compliance Matrix: (Units=1/GPa)
#
#
# Indices 1 2 3 4 5 6 
#
# 1 0.012079 0.000305 -0.006942 0.000000 0.000000 0.000000
# 2 0.000305 0.030038 0.007746 0.000000 0.000000 0.000000
# 3 -0.006942 0.007746 0.023837 0.000000 0.000000 0.000000
# 4 0.000000 0.000000 0.000000 0.049250 0.000000 0.000000
# 5 0.000000 0.000000 0.000000 0.000000 0.026001 0.000000
# 6 0.000000 0.000000 0.000000 0.000000 0.000000 0.174132
#
#
# Mechanical properties :
#
#
# Convention : Reuss Voigt Hill
#
# Bulk Modulus (GPa) = 14.66864 23.57600 19.12232
# Shear Modulus (GPa) = 14.88791 25.36551 20.12671
#
# Velocity S-wave (km/s) = 2.63777 3.44304 3.06695
# Velocity P-wave (km/s) = 4.01653 5.17922 4.63448
#
# Compressibility (1/GPa) = 0.06817265
#
# Stress axis : x y z
#
# Youngs Moduli (GPa) = 82.78848 33.29111 41.95144
#
# Poissons Ratio (x) = -0.01015 0.29121
# Poissons Ratio (y) = -0.02525 -0.32495
# Poissons Ratio (z) = 0.57469 -0.25787
#
# Static dielectric constant tensor:
#      x y z
#    x 1.809290 0.000000 0.000000 
#    y 0.000000 1.784320 0.000000 
#    z 0.000000 0.000000 1.783240 
# 
# From -- ./inp_files/14554.got.cif
#   From: 2010.05.17/outbox.cif.g08.bks.cpg/sg35_8_cif.got.tgz:14554.got - 2010.06.03 17:29:28.
