data_PCOD9348783
_publ_section_title
;
Structure prediction by ZEFSAII (Michael W. Deem and Ramdas Pophale) SiO2 
 PCOD9348783
Probable space group: C M M 2
;
_chemical_formula_sum "Si O2"
_cell_formula_units_Z 32
_cell_length_a 10.662213
_cell_length_b 16.929166
_cell_length_c 9.306121
_cell_angle_alpha 90.000000
_cell_angle_beta 90.000000
_cell_angle_gamma 90.000000
_cell_volume 1679.776931
_symmetry_space_group_name_H-M "C M M 2"
_symmetry_group_IT_number 35
_symmetry_cell_setting 'orthorhombic'
loop_
_space_group_symop_operation_xyz
x,y,z
-x,-y,z
-x,y,z
x,-y,z
1/2+x,1/2+y,z
1/2-x,1/2-y,z
1/2-x,1/2+y,z
1/2+x,1/2-y,z
loop_
_atom_site_type_symbol
_atom_site_label
_atom_site_fract_x
_atom_site_fract_y
_atom_site_fract_z
Si Si1 0.500000 0.350756 0.063000
Si Si2 0.500000 0.668917 0.723488
Si Si3 0.732209 0.345824 0.537366
Si Si4 0.500000 0.165623 0.565395
Si Si5 0.500000 0.183948 0.223661
Si Si6 0.742297 0.592382 0.222457
O O1 0.500000 0.266229 0.142027
O O2 0.372549 0.392914 0.114813
O O3 0.500000 0.340625 0.892525
O O4 0.376137 0.634438 0.648662
O O5 0.500000 0.761151 0.674958
O O6 0.750000 0.250000 0.534033
O O7 0.700275 0.374732 0.378281
O O8 0.868716 0.378948 0.579981
O O9 0.500000 0.194730 0.397753
O O10 0.371789 0.137684 0.186875
O O11 0.769158 0.500000 0.233901
#
# Coordination Sequence:
#
# PCOD9348783 Si02
#       6
#     4   4   8   4   4   8
#     4  12  23  36  56  86 118 155 193 228 272 337
#     4  10  20  32  53  82 111 144 188 230 271 326
#     4   9  17  34  57  81 107 140 184 236 282 329
#     4   8  16  31  54  80 104 130 177 238 279 314
#     4  10  21  39  63  86 111 145 192 240 284 335
#     4  11  22  38  59  86 116 149 187 235 288 337
#
# _framework density 19.050149000000001
#
# number of rings (size 3 to 8) (size 9 to 14) (size 15 to 20)
#    0.000    2.000    0.000    6.750    0.000    6.000 
#    0.000    2.500    0.000    0.000    0.000    5.250 
#    0.000    0.000    0.000    0.000    0.000    0.000 
#
# Total GULP energy -89293.705588 kJ/mol
# GULP energy per Si atom -5580.856599 kJ/mol
# Density = 1.900679 g / cm^3
# Si number density = 19.050149 Si / 1000 Ang^3
#
#
#
# Elastic Constant Matrix: (Units=GPa)
#
#
# Indices 1 2 3 4 5 6 
#
# 1 138.9034 3.0504 57.6855 0.0000 0.0000 0.0000
# 2 3.0504 47.0878 -4.9498 0.0000 0.0000 0.0000
# 3 57.6855 -4.9498 80.0974 0.0000 0.0000 0.0000
# 4 0.0000 0.0000 0.0000 0.7198 0.0000 0.0000
# 5 0.0000 0.0000 0.0000 0.0000 2.6666 0.0000
# 6 0.0000 0.0000 0.0000 0.0000 0.0000 14.8772
#
#
#
# Elastic Compliance Matrix: (Units=1/GPa)
#
#
# Indices 1 2 3 4 5 6 
#
# 1 0.010371 -0.001467 -0.007560 0.000000 0.000000 0.000000
# 2 -0.001467 0.021583 0.002390 0.000000 0.000000 0.000000
# 3 -0.007560 0.002390 0.018077 0.000000 0.000000 0.000000
# 4 0.000000 0.000000 0.000000 1.389303 0.000000 0.000000
# 5 0.000000 0.000000 0.000000 0.000000 0.375003 0.000000
# 6 0.000000 0.000000 0.000000 0.000000 0.000000 0.067217
#
#
# Mechanical properties :
#
#
# Convention : Reuss Voigt Hill
#
# Bulk Modulus (GPa) = 27.20459 41.96233 34.58346
# Shear Modulus (GPa) = 2.62181 17.67289 10.14735
#
# Velocity S-wave (km/s) = 1.17442 3.04913 2.31046
# Velocity P-wave (km/s) = 4.01877 5.87123 5.03100
#
# Compressibility (1/GPa) = 0.03675850
#
# Stress axis : x y z
#
# Youngs Moduli (GPa) = 96.42324 46.33241 55.31912
#
# Poissons Ratio (x) = 0.06795 0.41820
# Poissons Ratio (y) = 0.14141 -0.13221
# Poissons Ratio (z) = 0.72893 -0.11073
#
# Static dielectric constant tensor:
#      x y z
#    x 1.733780 0.000000 0.000000 
#    y 0.000000 1.641830 0.000000 
#    z 0.000000 0.000000 1.617480 
# 
# From -- ./inp_files/5731.got.cif
#   From: 2010.05.17/outbox.cif.g08.bks.cpg/sg35_3_cif.got.tgz:5731.got - 2010.06.03 17:29:28.
