data_PCOD9348664
_publ_section_title
;
Structure prediction by ZEFSAII (Michael W. Deem and Ramdas Pophale) SiO2 
 PCOD9348664
Probable space group: C M M 2
;
_chemical_formula_sum "Si O2"
_cell_formula_units_Z 48
_cell_length_a 15.410124
_cell_length_b 13.062704
_cell_length_c 12.186467
_cell_angle_alpha 90.000000
_cell_angle_beta 90.000000
_cell_angle_gamma 90.000000
_cell_volume 2453.110074
_symmetry_space_group_name_H-M "C M M 2"
_symmetry_group_IT_number 35
_symmetry_cell_setting 'orthorhombic'
loop_
_space_group_symop_operation_xyz
x,y,z
-x,-y,z
-x,y,z
x,-y,z
1/2+x,1/2+y,z
1/2-x,1/2-y,z
1/2-x,1/2+y,z
1/2+x,1/2-y,z
loop_
_atom_site_type_symbol
_atom_site_label
_atom_site_fract_x
_atom_site_fract_y
_atom_site_fract_z
Si Si1 0.893775 0.116547 0.557110
Si Si2 0.153645 0.707977 0.960281
Si Si3 0.102128 0.886972 0.803157
Si Si4 0.105685 0.500000 0.580458
Si Si5 0.105959 0.500000 0.835315
Si Si6 0.395968 0.116589 0.188843
Si Si7 0.393491 0.811635 0.427230
O O1 0.863627 0.141050 0.681669
O O2 0.864003 0.202152 0.472307
O O3 0.000000 0.119138 0.555196
O O4 0.867816 0.000000 0.532212
O O5 0.250000 0.750000 0.965872
O O6 0.109468 0.798676 0.892002
O O7 0.140327 0.602186 0.894197
O O8 0.123220 0.685127 0.083361
O O9 0.000000 0.899072 0.786016
O O10 0.137330 0.000000 0.835025
O O11 0.131733 0.500000 0.707370
O O12 0.132975 0.600179 0.512915
O O13 0.000000 0.500000 0.581136
O O14 0.000000 0.500000 0.843729
O O15 0.500000 0.109998 0.197300
O O16 0.364178 0.161191 0.304619
O O17 0.363320 0.000000 0.172608
O O18 0.500000 0.811784 0.426114
#
# Coordination Sequence:
#
# PCOD9348664 Si02
#       7
#     8   8   8   4   4   8   8
#     4   8  14  26  47  77 111 144 177 224 287 349
#     4  12  25  37  57  83 117 158 196 247 295 345
#     4   9  18  34  57  83 114 151 190 234 289 357
#     4   9  16  27  53  93 119 135 179 254 308 340
#     4  11  22  39  65  93 120 153 201 250 299 364
#     4  10  19  35  58  83 111 149 198 249 297 345
#     4   9  15  26  49  83 115 137 179 247 301 337
#
# _framework density 19.566998000000002
#
# number of rings (size 3 to 8) (size 9 to 14) (size 15 to 20)
#    0.000    2.333    1.667    3.500    1.167    2.667 
#    0.000    0.833    0.000    7.000    0.000    0.000 
#    0.000    0.000    0.000    0.000    0.000    0.000 
#
# Total GULP energy -133858.133523 kJ/mol
# GULP energy per Si atom -5577.422230 kJ/mol
# Density = 1.952246 g / cm^3
# Si number density = 19.566998 Si / 1000 Ang^3
#
#
#
# Elastic Constant Matrix: (Units=GPa)
#
#
# Indices 1 2 3 4 5 6 
#
# 1 14.2613 17.0882 16.4247 0.0000 0.0000 0.0000
# 2 17.0882 157.8389 105.5689 0.0000 0.0000 0.0000
# 3 16.4247 105.5689 174.5429 0.0000 0.0000 0.0000
# 4 0.0000 0.0000 0.0000 14.6168 0.0000 0.0000
# 5 0.0000 0.0000 0.0000 0.0000 -22.4749 0.0000
# 6 0.0000 0.0000 0.0000 0.0000 0.0000 7.0304
#
#
#
# Elastic Compliance Matrix: (Units=1/GPa)
#
#
# Indices 1 2 3 4 5 6 
#
# 1 0.082162 -0.006254 -0.003949 0.000000 0.000000 0.000000
# 2 -0.006254 0.011116 -0.006135 0.000000 0.000000 0.000000
# 3 -0.003949 -0.006135 0.009811 0.000000 0.000000 0.000000
# 4 0.000000 0.000000 0.000000 0.068414 0.000000 0.000000
# 5 0.000000 0.000000 0.000000 0.000000 -0.044494 0.000000
# 6 0.000000 0.000000 0.000000 0.000000 0.000000 0.142239
#
#
# Mechanical properties :
#
#
# Convention : Reuss Voigt Hill
#
# Bulk Modulus (GPa) = 14.20180 69.42297 41.81239
# Shear Modulus (GPa) = 15.36596 13.67188 14.51892
#
# Velocity S-wave (km/s) = 2.80536 2.64620 2.72694
# Velocity P-wave (km/s) = 4.21511 6.70024 5.59734
#
# Compressibility (1/GPa) = 0.07041359
#
# Stress axis : x y z
#
# Youngs Moduli (GPa) = 12.17114 89.96256 101.92361
#
# Poissons Ratio (x) = 0.56262 0.40249
# Poissons Ratio (y) = 0.07612 0.62526
# Poissons Ratio (z) = 0.04806 0.55189
#
# Static dielectric constant tensor:
#      x y z
#    x 1.699820 0.000000 0.000000 
#    y 0.000000 1.658600 0.000000 
#    z 0.000000 0.000000 1.684340 
# 
# From -- ./inp_files/13873.got.cif
#   From: 2010.05.17/outbox.cif.g08.bks.cpg/sg35_7_cif.got.tgz:13873.got - 2010.06.03 17:29:28.
