data_PCOD9348747
_publ_section_title
;
Structure prediction by ZEFSAII (Michael W. Deem and Ramdas Pophale) SiO2 
 PCOD9348747
Probable space group: C M M 2
;
_chemical_formula_sum "Si O2"
_cell_formula_units_Z 64
_cell_length_a 8.748726
_cell_length_b 29.212206
_cell_length_c 15.965201
_cell_angle_alpha 90.000000
_cell_angle_beta 90.000000
_cell_angle_gamma 90.000000
_cell_volume 4080.219812
_symmetry_space_group_name_H-M "C M M 2"
_symmetry_group_IT_number 35
_symmetry_cell_setting 'orthorhombic'
loop_
_space_group_symop_operation_xyz
x,y,z
-x,-y,z
-x,y,z
x,-y,z
1/2+x,1/2+y,z
1/2-x,1/2-y,z
1/2-x,1/2+y,z
1/2+x,1/2-y,z
loop_
_atom_site_type_symbol
_atom_site_label
_atom_site_fract_x
_atom_site_fract_y
_atom_site_fract_z
Si Si1 0.817731 0.396300 0.510990
Si Si2 0.182591 0.201359 0.257086
Si Si3 0.816366 0.609375 0.192386
Si Si4 0.683035 0.201962 0.443862
Si Si5 0.686383 0.052746 0.029398
Si Si6 0.682242 0.554163 0.348721
Si Si7 0.823560 0.444443 0.845242
Si Si8 0.318243 0.446245 0.669725
O O1 0.781583 0.342548 0.499010
O O2 0.739185 0.423685 0.435115
O O3 0.762026 0.416699 0.598476
O O4 0.000000 0.401519 0.503198
O O5 0.250000 0.250000 0.228427
O O6 0.242003 0.159009 0.203103
O O7 0.245344 0.194341 0.351735
O O8 0.000000 0.202953 0.259059
O O9 0.768211 0.584105 0.106949
O O10 0.763891 0.579017 0.271376
O O11 0.000000 0.613399 0.193537
O O12 0.500000 0.205813 0.434874
O O13 0.750000 0.250000 0.475837
O O14 0.500000 0.051947 0.026979
O O15 0.736208 0.000000 0.042099
O O16 0.735216 0.069635 0.937132
O O17 0.500000 0.560706 0.341263
O O18 0.714691 0.500000 0.348142
O O19 0.823728 0.500000 0.848773
O O20 0.729737 0.431438 0.763203
O O21 0.000000 0.429826 0.835132
O O22 0.500000 0.443320 0.660043
O O23 0.274092 0.500000 0.660054
#
# Coordination Sequence:
#
# PCOD9348747 Si02
#       8
#     8   8   8   8   8   8   8   8
#     4  11  22  34  50  71  95 127 167 202 240 291
#     4  11  21  34  52  71  95 126 162 206 251 292
#     4  11  20  32  50  73  99 130 167 202 243 293
#     4  10  20  34  52  73  94 121 159 203 247 293
#     4   8  15  28  48  73  99 129 165 203 239 281
#     4  11  23  35  46  65  97 135 170 202 239 283
#     4   8  14  28  49  70  93 124 163 203 242 284
#     4  10  20  32  47  70 100 131 163 201 245 289
#
# _framework density 15.68543
#
# number of rings (size 3 to 8) (size 9 to 14) (size 15 to 20)
#    0.000    2.000    1.250    5.250    0.000    5.250 
#    0.000    1.250    0.000    3.000    0.000    0.875 
#    0.000    4.000    0.000    0.000    0.000    0.000 
#
# Total GULP energy -178554.516833 kJ/mol
# GULP energy per Si atom -5579.828651 kJ/mol
# Density = 1.564973 g / cm^3
# Si number density = 15.685430 Si / 1000 Ang^3
#
#
#
# Elastic Constant Matrix: (Units=GPa)
#
#
# Indices 1 2 3 4 5 6 
#
# 1 62.6366 49.7884 32.8681 0.0000 0.0000 0.0000
# 2 49.7884 108.9979 62.8312 0.0000 0.0000 0.0000
# 3 32.8681 62.8312 112.0627 0.0000 0.0000 0.0000
# 4 0.0000 0.0000 0.0000 5.0341 0.0000 0.0000
# 5 0.0000 0.0000 0.0000 0.0000 7.4714 0.0000
# 6 0.0000 0.0000 0.0000 0.0000 0.0000 23.2739
#
#
#
# Elastic Compliance Matrix: (Units=1/GPa)
#
#
# Indices 1 2 3 4 5 6 
#
# 1 0.025211 -0.010717 -0.001385 0.000000 0.000000 0.000000
# 2 -0.010717 0.018112 -0.007011 0.000000 0.000000 0.000000
# 3 -0.001385 -0.007011 0.013261 0.000000 0.000000 0.000000
# 4 0.000000 0.000000 0.000000 0.198647 0.000000 0.000000
# 5 0.000000 0.000000 0.000000 0.000000 0.133843 0.000000
# 6 0.000000 0.000000 0.000000 0.000000 0.000000 0.042967
#
#
# Mechanical properties :
#
#
# Convention : Reuss Voigt Hill
#
# Bulk Modulus (GPa) = 54.47989 63.85253 59.16621
# Shear Modulus (GPa) = 10.49565 16.36984 13.43274
#
# Velocity S-wave (km/s) = 2.58957 3.23404 2.92958
# Velocity P-wave (km/s) = 6.61433 7.39877 7.01752
#
# Compressibility (1/GPa) = 0.01835540
#
# Stress axis : x y z
#
# Youngs Moduli (GPa) = 39.66504 55.21280 75.40856
#
# Poissons Ratio (x) = 0.59174 0.10447
# Poissons Ratio (y) = 0.42511 0.52872
# Poissons Ratio (z) = 0.05495 0.38712
#
# Static dielectric constant tensor:
#      x y z
#    x 1.527560 0.000000 0.000000 
#    y 0.000000 1.518250 0.000000 
#    z 0.000000 0.000000 1.512620 
# 
# From -- ./inp_files/16218.got.cif
#   From: 2010.05.17/outbox.cif.g08.bks.cpg/sg35_9_cif.got.tgz:16218.got - 2010.06.03 17:29:28.
