data_PCOD9348406
_publ_section_title
;
Structure prediction by ZEFSAII (Michael W. Deem and Ramdas Pophale) SiO2 
 PCOD9348406
Probable space group: C M M 2
;
_chemical_formula_sum "Si O2"
_cell_formula_units_Z 40
_cell_length_a 16.162792
_cell_length_b 16.529563
_cell_length_c 7.875300
_cell_angle_alpha 90.000000
_cell_angle_beta 90.000000
_cell_angle_gamma 90.000000
_cell_volume 2103.995772
_symmetry_space_group_name_H-M "C M M 2"
_symmetry_group_IT_number 35
_symmetry_cell_setting 'orthorhombic'
loop_
_space_group_symop_operation_xyz
x,y,z
-x,-y,z
-x,y,z
x,-y,z
1/2+x,1/2+y,z
1/2-x,1/2-y,z
1/2-x,1/2+y,z
1/2+x,1/2-y,z
loop_
_atom_site_type_symbol
_atom_site_label
_atom_site_fract_x
_atom_site_fract_y
_atom_site_fract_z
Si Si1 0.402437 0.088797 0.339330
Si Si2 0.096886 0.742371 0.856067
Si Si3 0.099642 0.232709 0.229891
Si Si4 0.316632 0.323193 0.553135
Si Si5 0.172787 0.588717 0.704800
O O1 0.500000 0.086949 0.303143
O O2 0.371998 0.173847 0.263516
O O3 0.387998 0.095063 0.541910
O O4 0.367944 0.000000 0.287495
O O5 0.116809 0.797481 0.694138
O O6 0.149356 0.660591 0.830760
O O7 0.000000 0.721286 0.861531
O O8 0.118430 0.784538 0.033821
O O9 0.142858 0.175961 0.368320
O O10 0.000000 0.229752 0.254632
O O11 0.250000 0.250000 0.549751
O O12 0.262923 0.397397 0.621638
O O13 0.164861 0.500000 0.780910
#
# Coordination Sequence:
#
# PCOD9348406 Si02
#       5
#     8   8   8   8   8
#     4   9  16  28  47  72 104 136 164 198 245 302
#     4  10  20  33  54  80 102 133 175 216 260 310
#     4  10  19  32  53  76 100 136 178 217 257 302
#     4  10  19  33  51  74 105 138 170 215 257 309
#     4  10  20  34  51  76 108 141 171 208 262 316
#
# _framework density 19.011444000000001
#
# number of rings (size 3 to 8) (size 9 to 14) (size 15 to 20)
#    0.000    2.200    4.000    1.200    0.000    4.400 
#    0.000    2.000    0.000    2.400    0.000    2.800 
#    0.000    0.000    0.000    0.000    0.000    0.000 
#
# Total GULP energy -111439.108506 kJ/mol
# GULP energy per Si atom -5571.955425 kJ/mol
# Density = 1.896817 g / cm^3
# Si number density = 19.011444 Si / 1000 Ang^3
#
#
#
# Elastic Constant Matrix: (Units=GPa)
#
#
# Indices 1 2 3 4 5 6 
#
# 1 44.2515 6.5755 32.1701 0.0000 0.0000 0.0000
# 2 6.5755 16.8647 4.9746 0.0000 0.0000 0.0000
# 3 32.1701 4.9746 108.9945 0.0000 0.0000 0.0000
# 4 0.0000 0.0000 0.0000 14.9222 0.0000 0.0000
# 5 0.0000 0.0000 0.0000 0.0000 18.0137 0.0000
# 6 0.0000 0.0000 0.0000 0.0000 0.0000 14.3580
#
#
#
# Elastic Compliance Matrix: (Units=1/GPa)
#
#
# Indices 1 2 3 4 5 6 
#
# 1 0.030131 -0.009249 -0.008471 0.000000 0.000000 0.000000
# 2 -0.009249 0.062944 -0.000143 0.000000 0.000000 0.000000
# 3 -0.008471 -0.000143 0.011682 0.000000 0.000000 0.000000
# 4 0.000000 0.000000 0.000000 0.067014 0.000000 0.000000
# 5 0.000000 0.000000 0.000000 0.000000 0.055513 0.000000
# 6 0.000000 0.000000 0.000000 0.000000 0.000000 0.069647
#
#
# Mechanical properties :
#
#
# Convention : Reuss Voigt Hill
#
# Bulk Modulus (GPa) = 14.48649 28.61679 21.55164
# Shear Modulus (GPa) = 14.05810 17.88484 15.97147
#
# Velocity S-wave (km/s) = 2.72224 3.07048 2.90159
# Velocity P-wave (km/s) = 4.18536 5.25885 4.75251
#
# Compressibility (1/GPa) = 0.06902984
#
# Stress axis : x y z
#
# Youngs Moduli (GPa) = 33.18867 15.88721 85.60507
#
# Poissons Ratio (x) = 0.14694 0.72516
# Poissons Ratio (y) = 0.30697 0.01223
# Poissons Ratio (z) = 0.28114 0.00227
#
# Static dielectric constant tensor:
#      x y z
#    x 1.688690 0.000000 0.000000 
#    y 0.000000 1.679310 0.000000 
#    z 0.000000 0.000000 1.683090 
# 
# From -- ./inp_files/7141.got.cif
#   From: 2010.05.17/outbox.cif.g08.bks.cpg/sg35_4_cif.got.tgz:7141.got - 2010.06.03 17:29:28.
