data_PCOD9348173
_publ_section_title
;
Structure prediction by ZEFSAII (Michael W. Deem and Ramdas Pophale) SiO2 
 PCOD9348173
Probable space group: C M M 2
;
_chemical_formula_sum "Si O2"
_cell_formula_units_Z 48
_cell_length_a 26.822188
_cell_length_b 8.573823
_cell_length_c 12.030121
_cell_angle_alpha 90.000000
_cell_angle_beta 90.000000
_cell_angle_gamma 90.000000
_cell_volume 2766.551196
_symmetry_space_group_name_H-M "C M M 2"
_symmetry_group_IT_number 35
_symmetry_cell_setting 'orthorhombic'
loop_
_space_group_symop_operation_xyz
x,y,z
-x,-y,z
-x,y,z
x,-y,z
1/2+x,1/2+y,z
1/2-x,1/2-y,z
1/2-x,1/2+y,z
1/2+x,1/2-y,z
loop_
_atom_site_type_symbol
_atom_site_label
_atom_site_fract_x
_atom_site_fract_y
_atom_site_fract_z
Si Si1 0.556903 0.685177 0.402030
Si Si2 0.057293 0.313769 0.647522
Si Si3 0.391193 0.812662 0.869955
Si Si4 0.370159 0.821966 0.222542
Si Si5 0.305453 0.314420 0.031580
Si Si6 0.056945 0.824654 0.063244
O O1 0.500000 0.741854 0.372345
O O2 0.556765 0.500000 0.384554
O O3 0.564069 0.726360 0.531260
O O4 0.602857 0.753592 0.331320
O O5 0.060484 0.500000 0.626816
O O6 0.098104 0.274469 0.741358
O O7 0.000000 0.283273 0.685947
O O8 0.394942 0.000000 0.880952
O O9 0.341626 0.756267 0.935278
O O10 0.434546 0.724198 0.937192
O O11 0.326810 0.734121 0.153642
O O12 0.414805 0.803642 0.133945
O O13 0.355480 0.000000 0.240332
O O14 0.305709 0.500000 0.021724
O O15 0.250000 0.250000 0.018745
O O16 0.000000 0.828272 0.093956
O O17 0.077648 0.000000 0.083094
#
# Coordination Sequence:
#
# PCOD9348173 Si02
#       6
#     8   8   8   8   8   8
#     4  10  20  33  50  74 106 143 180 215 252 298
#     4   9  18  32  50  74 106 143 179 212 247 295
#     4  10  19  32  51  75 102 133 170 210 255 305
#     4  11  21  33  51  74 100 132 170 210 256 307
#     4  11  22  38  58  79 103 130 166 212 263 315
#     4  10  19  29  43  67 100 134 167 205 250 300
#
# _framework density 17.350123
#
# number of rings (size 3 to 8) (size 9 to 14) (size 15 to 20)
#    0.000    1.833    0.000    7.500    0.000    6.333 
#    0.000    1.667    0.000    1.000    0.000    2.333 
#    0.000    0.000    0.000    0.000    0.000    0.000 
#
# Total GULP energy -133698.236471 kJ/mol
# GULP energy per Si atom -5570.759853 kJ/mol
# Density = 1.731063 g / cm^3
# Si number density = 17.350123 Si / 1000 Ang^3
#
#
#
# Elastic Constant Matrix: (Units=GPa)
#
#
# Indices 1 2 3 4 5 6 
#
# 1 81.0619 21.9432 32.3309 0.0000 0.0000 0.0000
# 2 21.9432 71.5587 23.5143 0.0000 0.0000 0.0000
# 3 32.3309 23.5143 87.0246 0.0000 0.0000 0.0000
# 4 0.0000 0.0000 0.0000 11.1100 0.0000 0.0000
# 5 0.0000 0.0000 0.0000 0.0000 21.5492 0.0000
# 6 0.0000 0.0000 0.0000 0.0000 0.0000 22.7216
#
#
#
# Elastic Compliance Matrix: (Units=1/GPa)
#
#
# Indices 1 2 3 4 5 6 
#
# 1 0.015066 -0.003052 -0.004773 0.000000 0.000000 0.000000
# 2 -0.003052 0.015954 -0.003177 0.000000 0.000000 0.000000
# 3 -0.004773 -0.003177 0.014123 0.000000 0.000000 0.000000
# 4 0.000000 0.000000 0.000000 0.090009 0.000000 0.000000
# 5 0.000000 0.000000 0.000000 0.000000 0.046405 0.000000
# 6 0.000000 0.000000 0.000000 0.000000 0.000000 0.044011
#
#
# Mechanical properties :
#
#
# Convention : Reuss Voigt Hill
#
# Bulk Modulus (GPa) = 43.21534 43.91355 43.56445
# Shear Modulus (GPa) = 19.58602 21.86663 20.72632
#
# Velocity S-wave (km/s) = 3.36351 3.55394 3.46004
# Velocity P-wave (km/s) = 6.32820 6.49660 6.41296
#
# Compressibility (1/GPa) = 0.02313993
#
# Stress axis : x y z
#
# Youngs Moduli (GPa) = 66.37535 62.67894 70.80858
#
# Poissons Ratio (x) = 0.19127 0.33794
# Poissons Ratio (y) = 0.20255 0.22497
# Poissons Ratio (z) = 0.31678 0.19914
#
# Static dielectric constant tensor:
#      x y z
#    x 1.604970 0.000000 0.000000 
#    y 0.000000 1.604060 0.000000 
#    z 0.000000 0.000000 1.612540 
# 
# From -- ./inp_files/11624.got.cif
#   From: 2010.05.17/outbox.cif.g08.bks.cpg/sg35_6_cif.got.tgz:11624.got - 2010.06.03 17:29:28.
