data_PCOD9348814
_publ_section_title
;
Structure prediction by ZEFSAII (Michael W. Deem and Ramdas Pophale) SiO2 
 PCOD9348814
Probable space group: C M M 2
;
_chemical_formula_sum "Si O2"
_cell_formula_units_Z 56
_cell_length_a 8.202052
_cell_length_b 19.966689
_cell_length_c 18.439886
_cell_angle_alpha 90.000000
_cell_angle_beta 90.000000
_cell_angle_gamma 90.000000
_cell_volume 3019.859958
_symmetry_space_group_name_H-M "C M M 2"
_symmetry_group_IT_number 35
_symmetry_cell_setting 'orthorhombic'
loop_
_space_group_symop_operation_xyz
x,y,z
-x,-y,z
-x,y,z
x,-y,z
1/2+x,1/2+y,z
1/2-x,1/2-y,z
1/2-x,1/2+y,z
1/2+x,1/2-y,z
loop_
_atom_site_type_symbol
_atom_site_label
_atom_site_fract_x
_atom_site_fract_y
_atom_site_fract_z
Si Si1 0.802786 0.173679 0.401960
Si Si2 0.694270 0.673178 0.821441
Si Si3 0.305579 0.673978 0.239885
Si Si4 0.802989 0.423214 0.949356
Si Si5 0.698879 0.423306 0.528894
Si Si6 0.300954 0.576991 0.693554
Si Si7 0.303718 0.924370 0.114076
O O1 0.750000 0.250000 0.414028
O O2 0.746534 0.153859 0.320794
O O3 0.742688 0.126121 0.466289
O O4 0.000000 0.171168 0.402210
O O5 0.500000 0.673846 0.816621
O O6 0.750000 0.750000 0.822943
O O7 0.742417 0.631035 0.892434
O O8 0.757756 0.630454 0.752400
O O9 0.500000 0.672884 0.241465
O O10 0.250000 0.750000 0.227261
O O11 0.248621 0.626362 0.175788
O O12 0.750756 0.500000 0.931992
O O13 0.000000 0.422933 0.948096
O O14 0.749642 0.407736 0.031954
O O15 0.500000 0.421623 0.528637
O O16 0.746863 0.500000 0.514325
O O17 0.749621 0.406396 0.611147
O O18 0.500000 0.577095 0.694601
O O19 0.251298 0.500000 0.709979
O O20 0.500000 0.925277 0.112275
O O21 0.246955 0.000000 0.130305
#
# Coordination Sequence:
#
# PCOD9348814 Si02
#       7
#     8   8   8   8   8   8   8
#     4   9  18  31  48  71  98 130 165 201 243 290
#     4  11  22  34  50  75 105 134 168 208 248 292
#     4  10  20  33  50  73 102 135 171 209 248 294
#     4   9  19  37  58  77  99 129 164 202 248 302
#     4   8  14  27  48  72  97 126 162 203 245 289
#     4   8  15  29  49  72  97 127 164 204 246 294
#     4   9  19  36  56  77 101 129 162 202 250 302
#
# _framework density 18.543907000000001
#
# number of rings (size 3 to 8) (size 9 to 14) (size 15 to 20)
#    0.000    2.857    0.000    3.000    0.000    4.000 
#    0.000    2.857    0.000    1.286    0.000    4.000 
#    0.000    0.000    0.000    0.000    0.000    0.000 
#
# Total GULP energy -156119.813003 kJ/mol
# GULP energy per Si atom -5575.707607 kJ/mol
# Density = 1.850170 g / cm^3
# Si number density = 18.543907 Si / 1000 Ang^3
#
#
#
# Elastic Constant Matrix: (Units=GPa)
#
#
# Indices 1 2 3 4 5 6 
#
# 1 13.0162 18.1344 20.6233 0.0000 0.0000 0.0000
# 2 18.1344 151.0444 147.1743 0.0000 0.0000 0.0000
# 3 20.6233 147.1743 192.3363 0.0000 0.0000 0.0000
# 4 0.0000 0.0000 0.0000 451.2832 0.0000 0.0000
# 5 0.0000 0.0000 0.0000 0.0000 10.9881 0.0000
# 6 0.0000 0.0000 0.0000 0.0000 0.0000 12.7547
#
#
#
# Elastic Compliance Matrix: (Units=1/GPa)
#
#
# Indices 1 2 3 4 5 6 
#
# 1 0.093802 -0.005745 -0.005662 0.000000 0.000000 0.000000
# 2 -0.005745 0.026375 -0.019566 0.000000 0.000000 0.000000
# 3 -0.005662 -0.019566 0.020778 0.000000 0.000000 0.000000
# 4 0.000000 0.000000 0.000000 0.002216 0.000000 0.000000
# 5 0.000000 0.000000 0.000000 0.000000 0.091007 0.000000
# 6 0.000000 0.000000 0.000000 0.000000 0.000000 0.078402
#
#
# Mechanical properties :
#
#
# Convention : Reuss Voigt Hill
#
# Bulk Modulus (GPa) = 12.65674 80.91788 46.78731
# Shear Modulus (GPa) = 12.47313 106.36955 59.42134
#
# Velocity S-wave (km/s) = 2.59632 7.58192 5.66685
# Velocity P-wave (km/s) = 3.97843 10.97168 8.25245
#
# Compressibility (1/GPa) = 0.07900927
#
# Stress axis : x y z
#
# Youngs Moduli (GPa) = 10.66075 37.91508 48.12822
#
# Poissons Ratio (x) = 0.21783 0.27249
# Poissons Ratio (y) = 0.06125 0.94166
# Poissons Ratio (z) = 0.06036 0.74184
#
# Static dielectric constant tensor:
#      x y z
#    x 1.650840 0.000000 0.000000 
#    y 0.000000 1.606610 0.000000 
#    z 0.000000 0.000000 1.651610 
# 
# From -- ./inp_files/15632.got.cif
#   From: 2010.05.17/outbox.cif.g08.bks.cpg/sg35_8_cif.got.tgz:15632.got - 2010.06.03 17:29:28.
