data_PCOD9348253
_publ_section_title
;
Structure prediction by ZEFSAII (Michael W. Deem and Ramdas Pophale) SiO2 
 PCOD9348253
Probable space group: C M M 2
;
_chemical_formula_sum "Si O2"
_cell_formula_units_Z 48
_cell_length_a 15.764423
_cell_length_b 8.513559
_cell_length_c 18.008262
_cell_angle_alpha 90.000000
_cell_angle_beta 90.000000
_cell_angle_gamma 90.000000
_cell_volume 2416.913070
_symmetry_space_group_name_H-M "C M M 2"
_symmetry_group_IT_number 35
_symmetry_cell_setting 'orthorhombic'
loop_
_space_group_symop_operation_xyz
x,y,z
-x,-y,z
-x,y,z
x,-y,z
1/2+x,1/2+y,z
1/2-x,1/2-y,z
1/2-x,1/2+y,z
1/2+x,1/2-y,z
loop_
_atom_site_type_symbol
_atom_site_label
_atom_site_fract_x
_atom_site_fract_y
_atom_site_fract_z
Si Si1 0.598510 0.180600 0.954460
Si Si2 0.000000 0.811210 0.707907
Si Si3 0.153959 0.812792 0.108430
Si Si4 0.153185 0.810287 0.268241
Si Si5 0.846532 0.809731 0.432174
Si Si6 0.500000 0.691713 0.536462
Si Si7 0.660377 0.811121 0.798837
O O1 0.500000 0.182151 0.932499
O O2 0.648303 0.247959 0.883980
O O3 0.625621 0.000000 0.965097
O O4 0.608695 0.261485 0.033468
O O5 0.082893 0.748999 0.749829
O O6 0.000000 0.759614 0.622024
O O7 0.000000 0.000000 0.710205
O O8 0.250000 0.750000 0.103928
O O9 0.116129 0.758876 0.188375
O O10 0.156208 0.000000 0.109808
O O11 0.250000 0.750000 0.266851
O O12 0.121177 0.760920 0.349432
O O13 0.151668 0.000000 0.268398
O O14 0.750000 0.750000 0.442808
O O15 0.915051 0.757452 0.492925
O O16 0.843176 0.000000 0.433570
O O17 0.500000 0.500000 0.534866
O O18 0.750000 0.750000 0.770008
O O19 0.658434 0.000000 0.800736
#
# Coordination Sequence:
#
# PCOD9348253 Si02
#       7
#     8   4   8   8   8   4   8
#     4  10  21  38  56  77 110 149 188 234 285 335
#     4  11  23  41  63  90 121 152 190 239 291 351
#     4  10  19  31  49  78 109 144 189 234 277 328
#     4   8  15  28  48  74 104 142 185 228 273 320
#     4   9  17  34  57  81 111 150 188 230 278 331
#     4   9  20  37  59  86 115 146 184 227 283 343
#     4  11  23  42  65  90 117 153 195 238 290 350
#
# _framework density 19.860045
#
# number of rings (size 3 to 8) (size 9 to 14) (size 15 to 20)
#    0.000    2.333    0.833    1.750    0.000    4.333 
#    1.500    3.750    0.000    0.000    0.000    0.000 
#    0.000    0.000    0.000    0.000    0.000    0.000 
#
# Total GULP energy -133819.238532 kJ/mol
# GULP energy per Si atom -5575.801606 kJ/mol
# Density = 1.981484 g / cm^3
# Si number density = 19.860045 Si / 1000 Ang^3
#
#
#
# Elastic Constant Matrix: (Units=GPa)
#
#
# Indices 1 2 3 4 5 6 
#
# 1 104.8127 17.1129 75.7679 0.0000 0.0000 0.0000
# 2 17.1129 26.4743 31.7106 0.0000 0.0000 0.0000
# 3 75.7679 31.7106 178.3169 0.0000 0.0000 0.0000
# 4 0.0000 0.0000 0.0000 -12.8695 0.0000 0.0000
# 5 0.0000 0.0000 0.0000 0.0000 -0.8966 0.0000
# 6 0.0000 0.0000 0.0000 0.0000 0.0000 23.1181
#
#
#
# Elastic Compliance Matrix: (Units=1/GPa)
#
#
# Indices 1 2 3 4 5 6 
#
# 1 0.013892 -0.002426 -0.005471 0.000000 0.000000 0.000000
# 2 -0.002426 0.048420 -0.007580 0.000000 0.000000 0.000000
# 3 -0.005471 -0.007580 0.009281 0.000000 0.000000 0.000000
# 4 0.000000 0.000000 0.000000 -0.077703 0.000000 0.000000
# 5 0.000000 0.000000 0.000000 0.000000 -1.115372 0.000000
# 6 0.000000 0.000000 0.000000 0.000000 0.000000 0.043256
#
#
# Mechanical properties :
#
#
# Convention : Reuss Voigt Hill
#
# Bulk Modulus (GPa) = 24.60760 62.08742 43.34751
# Shear Modulus (GPa) = -4.83687 14.20457 4.68385
#
# Velocity S-wave (km/s) = -1.56230 2.67729 1.53738
# Velocity P-wave (km/s) = 3.02705 6.39433 5.00253
#
# Compressibility (1/GPa) = 0.04063785
#
# Stress axis : x y z
#
# Youngs Moduli (GPa) = 71.98295 20.65278 107.75014
#
# Poissons Ratio (x) = 0.05011 0.58954
# Poissons Ratio (y) = 0.17465 0.81671
# Poissons Ratio (z) = 0.39385 0.15654
#
# Static dielectric constant tensor:
#      x y z
#    x 1.693700 0.000000 0.000000 
#    y 0.000000 1.705240 0.000000 
#    z 0.000000 0.000000 1.743700 
# 
# From -- ./inp_files/17872.got.cif
#   From: 2010.05.17/outbox.cif.g08.bks.cpg/sg35_9_cif.got.tgz:17872.got - 2010.06.03 17:29:28.
