data_PCOD9348328
_publ_section_title
;
Structure prediction by ZEFSAII (Michael W. Deem and Ramdas Pophale) SiO2 
 PCOD9348328
Probable space group: C M M 2
;
_chemical_formula_sum "Si O2"
_cell_formula_units_Z 48
_cell_length_a 33.251226
_cell_length_b 9.273133
_cell_length_c 9.360733
_cell_angle_alpha 90.000000
_cell_angle_beta 90.000000
_cell_angle_gamma 90.000000
_cell_volume 2886.316880
_symmetry_space_group_name_H-M "C M M 2"
_symmetry_group_IT_number 35
_symmetry_cell_setting 'orthorhombic'
loop_
_space_group_symop_operation_xyz
x,y,z
-x,-y,z
-x,y,z
x,-y,z
1/2+x,1/2+y,z
1/2-x,1/2-y,z
1/2-x,1/2+y,z
1/2+x,1/2-y,z
loop_
_atom_site_type_symbol
_atom_site_label
_atom_site_fract_x
_atom_site_fract_y
_atom_site_fract_z
Si Si1 0.955090 0.672184 0.125000
Si Si2 0.210028 0.671432 0.805285
Si Si3 0.624752 0.826869 0.299642
Si Si4 0.415144 0.335349 0.874543
Si Si5 0.331654 0.334108 0.055038
Si Si6 0.627955 0.828859 0.632373
O O1 0.953051 0.500000 0.102608
O O2 0.919424 0.708306 0.235561
O O3 0.000000 0.708689 0.175590
O O4 0.945695 0.750249 0.975804
O O5 0.215898 0.500000 0.818841
O O6 0.250000 0.750000 0.751632
O O7 0.171984 0.696366 0.701085
O O8 0.198493 0.742260 0.957508
O O9 0.657011 0.743066 0.202929
O O10 0.627231 0.789637 0.466097
O O11 0.630620 0.000000 0.284424
O O12 0.427596 0.500000 0.852218
O O13 0.404178 0.256612 0.727538
O O14 0.373353 0.335533 0.964721
O O15 0.318627 0.500000 0.072999
O O16 0.619877 0.000000 0.644841
#
# Coordination Sequence:
#
# PCOD9348328 Si02
#       6
#     8   8   8   8   8   8
#     4   9  17  30  49  71  94 123 161 203 244 286
#     4  10  19  32  50  71  95 124 159 200 244 287
#     4   9  17  31  50  71  97 129 163 199 240 287
#     4   9  17  29  47  69  93 122 157 195 234 281
#     4   9  17  30  48  70  93 121 158 195 233 281
#     4   9  18  32  50  71  97 129 162 197 240 290
#
# _framework density 16.630189000000001
#
# number of rings (size 3 to 8) (size 9 to 14) (size 15 to 20)
#    0.000    2.833    0.000    1.500    0.000    5.667 
#    0.000    1.667    0.000    5.000    0.000    0.000 
#    0.000    0.000    0.000    0.000    0.000    0.000 
#
# Total GULP energy -133723.333332 kJ/mol
# GULP energy per Si atom -5571.805556 kJ/mol
# Density = 1.659234 g / cm^3
# Si number density = 16.630189 Si / 1000 Ang^3
#
#
#
# Elastic Constant Matrix: (Units=GPa)
#
#
# Indices 1 2 3 4 5 6 
#
# 1 58.6598 39.0922 31.5268 0.0000 0.0000 0.0000
# 2 39.0922 65.8965 58.6453 0.0000 0.0000 0.0000
# 3 31.5268 58.6453 136.7034 0.0000 0.0000 0.0000
# 4 0.0000 0.0000 0.0000 17.3879 0.0000 0.0000
# 5 0.0000 0.0000 0.0000 0.0000 12.3555 0.0000
# 6 0.0000 0.0000 0.0000 0.0000 0.0000 20.1052
#
#
#
# Elastic Compliance Matrix: (Units=1/GPa)
#
#
# Indices 1 2 3 4 5 6 
#
# 1 0.028294 -0.017758 0.001093 0.000000 0.000000 0.000000
# 2 -0.017758 0.035692 -0.011216 0.000000 0.000000 0.000000
# 3 0.001093 -0.011216 0.011875 0.000000 0.000000 0.000000
# 4 0.000000 0.000000 0.000000 0.057511 0.000000 0.000000
# 5 0.000000 0.000000 0.000000 0.000000 0.080936 0.000000
# 6 0.000000 0.000000 0.000000 0.000000 0.000000 0.049738
#
#
# Mechanical properties :
#
#
# Convention : Reuss Voigt Hill
#
# Bulk Modulus (GPa) = 49.75522 57.75426 53.75474
# Shear Modulus (GPa) = 15.31351 18.76940 17.04146
#
# Velocity S-wave (km/s) = 3.03780 3.36316 3.20461
# Velocity P-wave (km/s) = 6.50291 7.06294 6.78870
#
# Compressibility (1/GPa) = 0.02009840
#
# Stress axis : x y z
#
# Youngs Moduli (GPa) = 35.34278 28.01743 84.21103
#
# Poissons Ratio (x) = 0.49753 -0.09202
# Poissons Ratio (y) = 0.62761 0.94455
# Poissons Ratio (z) = -0.03862 0.31426
#
# Static dielectric constant tensor:
#      x y z
#    x 1.569220 0.000000 0.000000 
#    y 0.000000 1.559090 0.000000 
#    z 0.000000 0.000000 1.536670 
# 
# From -- ./inp_files/5293.got.cif
#   From: 2010.05.17/outbox.cif.g08.bks.cpg/sg35_3_cif.got.tgz:5293.got - 2010.06.03 17:29:28.
