data_PCOD9348484
_publ_section_title
;
Structure prediction by ZEFSAII (Michael W. Deem and Ramdas Pophale) SiO2 
 PCOD9348484
Probable space group: C M M 2
;
_chemical_formula_sum "Si O2"
_cell_formula_units_Z 64
_cell_length_a 8.644445
_cell_length_b 20.145605
_cell_length_c 20.747042
_cell_angle_alpha 90.000000
_cell_angle_beta 90.000000
_cell_angle_gamma 90.000000
_cell_volume 3613.047041
_symmetry_space_group_name_H-M "C M M 2"
_symmetry_group_IT_number 35
_symmetry_cell_setting 'orthorhombic'
loop_
_space_group_symop_operation_xyz
x,y,z
-x,-y,z
-x,y,z
x,-y,z
1/2+x,1/2+y,z
1/2-x,1/2-y,z
1/2-x,1/2+y,z
1/2+x,1/2-y,z
loop_
_atom_site_type_symbol
_atom_site_label
_atom_site_fract_x
_atom_site_fract_y
_atom_site_fract_z
Si Si1 0.813998 0.578155 0.126600
Si Si2 0.814764 0.922475 0.479741
Si Si3 0.815287 0.323487 0.373057
Si Si4 0.815916 0.822938 0.232224
Si Si5 0.688297 0.075711 0.980024
Si Si6 0.314720 0.077595 0.621526
Si Si7 0.684764 0.676202 0.728522
Si Si8 0.186532 0.676353 0.868752
O O1 0.781441 0.500000 0.137133
O O2 0.733214 0.624569 0.178380
O O3 0.000000 0.586680 0.131296
O O4 0.766138 0.594284 0.052956
O O5 0.743917 0.875319 0.425700
O O6 0.747677 0.906181 0.550246
O O7 0.000000 0.915435 0.480747
O O8 0.777742 0.000000 0.466802
O O9 0.750000 0.250000 0.387406
O O10 0.754190 0.341590 0.301830
O O11 0.000000 0.321128 0.372336
O O12 0.750000 0.750000 0.215972
O O13 0.000000 0.818884 0.237830
O O14 0.500000 0.075196 0.979853
O O15 0.737691 0.126273 0.924841
O O16 0.738736 0.000000 0.967416
O O17 0.500000 0.084600 0.622685
O O18 0.240286 0.125163 0.674428
O O19 0.276802 0.000000 0.634038
O O20 0.500000 0.679254 0.731194
O O21 0.750000 0.750000 0.715028
O O22 0.750571 0.656185 0.798592
O O23 0.250000 0.750000 0.881663
O O24 0.000000 0.678062 0.866486
#
# Coordination Sequence:
#
# PCOD9348484 Si02
#       8
#     8   8   8   8   8   8   8   8
#     4   9  18  35  57  80 108 142 180 221 267 320
#     4  10  21  38  59  84 114 145 179 221 267 315
#     4  11  22  38  59  82 110 143 182 224 269 320
#     4  11  22  37  56  79 109 142 180 224 271 321
#     4   8  16  32  54  78 104 137 177 219 263 315
#     4  10  21  38  59  83 111 143 180 221 267 320
#     4  11  22  37  56  79 109 143 182 225 271 320
#     4  10  19  33  53  77 106 139 177 220 268 320
#
# _framework density 17.713581999999999
#
# number of rings (size 3 to 8) (size 9 to 14) (size 15 to 20)
#    0.000    2.000    0.000    6.750    0.000    3.750 
#    0.000    6.250    0.000    2.625    0.000    0.000 
#    0.000    0.000    0.000    0.000    0.000    0.000 
#
# Total GULP energy -178704.999150 kJ/mol
# GULP energy per Si atom -5584.531223 kJ/mol
# Density = 1.767326 g / cm^3
# Si number density = 17.713582 Si / 1000 Ang^3
#
#
#
# Elastic Constant Matrix: (Units=GPa)
#
#
# Indices 1 2 3 4 5 6 
#
# 1 107.3259 60.1403 72.7033 0.0000 0.0000 0.0000
# 2 60.1403 103.6693 125.4274 0.0000 0.0000 0.0000
# 3 72.7033 125.4274 173.5312 0.0000 0.0000 0.0000
# 4 0.0000 0.0000 0.0000 42.2900 0.0000 0.0000
# 5 0.0000 0.0000 0.0000 0.0000 27.7784 0.0000
# 6 0.0000 0.0000 0.0000 0.0000 0.0000 27.1960
#
#
#
# Elastic Compliance Matrix: (Units=1/GPa)
#
#
# Indices 1 2 3 4 5 6 
#
# 1 0.013805 -0.008054 0.000038 0.000000 0.000000 0.000000
# 2 -0.008054 0.081556 -0.055574 0.000000 0.000000 0.000000
# 3 0.000038 -0.055574 0.045916 0.000000 0.000000 0.000000
# 4 0.000000 0.000000 0.000000 0.023646 0.000000 0.000000
# 5 0.000000 0.000000 0.000000 0.000000 0.035999 0.000000
# 6 0.000000 0.000000 0.000000 0.000000 0.000000 0.036770
#
#
# Mechanical properties :
#
#
# Convention : Reuss Voigt Hill
#
# Bulk Modulus (GPa) = 70.94276 100.11871 85.53074
# Shear Modulus (GPa) = 13.52914 27.86990 20.69952
#
# Velocity S-wave (km/s) = 2.76664 3.97087 3.42214
# Velocity P-wave (km/s) = 7.09525 8.81291 8.00031
#
# Compressibility (1/GPa) = 0.01409587
#
# Stress axis : x y z
#
# Youngs Moduli (GPa) = 72.43736 12.26144 21.77904
#
# Poissons Ratio (x) = 0.09875 -0.00082
# Poissons Ratio (y) = 0.58341 1.21035
# Poissons Ratio (z) = -0.00272 0.68142
#
# Static dielectric constant tensor:
#      x y z
#    x 1.594560 0.000000 0.000000 
#    y 0.000000 1.582700 0.000000 
#    z 0.000000 0.000000 1.580950 
# 
# From -- ./inp_files/18374.got.cif
#   From: 2010.05.17/outbox.cif.g08.bks.cpg/sg35_10_cif.got.tgz:18374.got - 2010.06.03 17:29:28.
