data_PCOD9348235
_publ_section_title
;
Structure prediction by ZEFSAII (Michael W. Deem and Ramdas Pophale) SiO2 
 PCOD9348235
Probable space group: C M M 2
;
_chemical_formula_sum "Si O2"
_cell_formula_units_Z 48
_cell_length_a 32.798260
_cell_length_b 8.658261
_cell_length_c 9.606315
_cell_angle_alpha 90.000000
_cell_angle_beta 90.000000
_cell_angle_gamma 90.000000
_cell_volume 2727.961904
_symmetry_space_group_name_H-M "C M M 2"
_symmetry_group_IT_number 35
_symmetry_cell_setting 'orthorhombic'
loop_
_space_group_symop_operation_xyz
x,y,z
-x,-y,z
-x,y,z
x,-y,z
1/2+x,1/2+y,z
1/2-x,1/2-y,z
1/2-x,1/2+y,z
1/2+x,1/2-y,z
loop_
_atom_site_type_symbol
_atom_site_label
_atom_site_fract_x
_atom_site_fract_y
_atom_site_fract_z
Si Si1 0.793604 0.185126 0.401420
Si Si2 0.955285 0.317192 0.899592
Si Si3 0.043621 0.683703 0.236492
Si Si4 0.869831 0.815078 0.911780
Si Si5 0.867890 0.686074 0.223955
Si Si6 0.706533 0.685906 0.724960
O O1 0.750000 0.250000 0.352918
O O2 0.830578 0.249962 0.311791
O O3 0.798428 0.232489 0.563424
O O4 0.793103 0.000000 0.394168
O O5 0.952173 0.500000 0.870350
O O6 0.914075 0.234356 0.852736
O O7 0.000000 0.262714 0.849198
O O8 0.955982 0.301161 0.068174
O O9 0.042942 0.500000 0.266039
O O10 0.087904 0.742462 0.282062
O O11 0.000000 0.749251 0.286231
O O12 0.832238 0.764338 0.815269
O O13 0.868933 0.000000 0.924733
O O14 0.864951 0.741622 0.064489
O O15 0.867880 0.500000 0.225570
O O16 0.708312 0.500000 0.729255
O O17 0.750000 0.750000 0.775364
#
# Coordination Sequence:
#
# PCOD9348235 Si02
#       6
#     8   8   8   8   8   8
#     4  10  20  36  54  71  93 124 162 202 244 292
#     4   8  14  26  44  67  96 129 163 198 237 283
#     4   7  11  22  41  64  91 122 154 188 226 269
#     4  10  19  31  48  74 103 129 161 201 243 286
#     4  10  19  31  49  75 102 129 161 198 242 286
#     4   9  20  36  53  71  93 124 162 201 242 291
#
# _framework density 17.595552999999999
#
# number of rings (size 3 to 8) (size 9 to 14) (size 15 to 20)
#    0.000    3.000    0.000    3.500    0.000    3.000 
#    0.000    1.667    0.000    2.500    0.000    4.667 
#    0.000    0.000    0.000    0.000    0.000    0.000 
#
# Total GULP energy -133620.411038 kJ/mol
# GULP energy per Si atom -5567.517127 kJ/mol
# Density = 1.755550 g / cm^3
# Si number density = 17.595553 Si / 1000 Ang^3
#
#
#
# Elastic Constant Matrix: (Units=GPa)
#
#
# Indices 1 2 3 4 5 6 
#
# 1 232.3361 43.6293 64.7247 0.0000 0.0000 0.0000
# 2 43.6293 34.4198 15.3604 0.0000 0.0000 0.0000
# 3 64.7247 15.3604 32.2035 0.0000 0.0000 0.0000
# 4 0.0000 0.0000 0.0000 11.7757 0.0000 0.0000
# 5 0.0000 0.0000 0.0000 0.0000 -15.6847 0.0000
# 6 0.0000 0.0000 0.0000 0.0000 0.0000 30.8751
#
#
#
# Elastic Compliance Matrix: (Units=1/GPa)
#
#
# Indices 1 2 3 4 5 6 
#
# 1 0.010391 -0.004892 -0.018550 0.000000 0.000000 0.000000
# 2 -0.004892 0.039213 -0.008871 0.000000 0.000000 0.000000
# 3 -0.018550 -0.008871 0.072567 0.000000 0.000000 0.000000
# 4 0.000000 0.000000 0.000000 0.084921 0.000000 0.000000
# 5 0.000000 0.000000 0.000000 0.000000 -0.063756 0.000000
# 6 0.000000 0.000000 0.000000 0.000000 0.000000 0.032389
#
#
# Mechanical properties :
#
#
# Convention : Reuss Voigt Hill
#
# Bulk Modulus (GPa) = 17.37798 60.70981 39.04390
# Shear Modulus (GPa) = 19.26552 17.07621 18.17087
#
# Velocity S-wave (km/s) = 3.31253 3.11864 3.21705
# Velocity P-wave (km/s) = 4.95260 6.89534 6.00308
#
# Compressibility (1/GPa) = 0.05754407
#
# Stress axis : x y z
#
# Youngs Moduli (GPa) = 96.24145 25.50163 13.78044
#
# Poissons Ratio (x) = 0.12477 0.25563
# Poissons Ratio (y) = 0.47086 0.12224
# Poissons Ratio (z) = 1.78528 0.22622
#
# Static dielectric constant tensor:
#      x y z
#    x 1.646420 0.000000 0.000000 
#    y 0.000000 1.593920 0.000000 
#    z 0.000000 0.000000 1.575300 
# 
# From -- ./inp_files/10482.got.cif
#   From: 2010.05.17/outbox.cif.g08.bks.cpg/sg35_6_cif.got.tgz:10482.got - 2010.06.03 17:29:28.
