data_PCOD9348082
_publ_section_title
;
Structure prediction by ZEFSAII (Michael W. Deem and Ramdas Pophale) SiO2 
 PCOD9348082
Probable space group: C M M 2
;
_chemical_formula_sum "Si O2"
_cell_formula_units_Z 48
_cell_length_a 15.740065
_cell_length_b 8.645115
_cell_length_c 17.756475
_cell_angle_alpha 90.000000
_cell_angle_beta 90.000000
_cell_angle_gamma 90.000000
_cell_volume 2416.206512
_symmetry_space_group_name_H-M "C M M 2"
_symmetry_group_IT_number 35
_symmetry_cell_setting 'orthorhombic'
loop_
_space_group_symop_operation_xyz
x,y,z
-x,-y,z
-x,y,z
x,-y,z
1/2+x,1/2+y,z
1/2-x,1/2-y,z
1/2-x,1/2+y,z
1/2+x,1/2-y,z
loop_
_atom_site_type_symbol
_atom_site_label
_atom_site_fract_x
_atom_site_fract_y
_atom_site_fract_z
Si Si1 0.500000 0.813497 0.035090
Si Si2 0.000000 0.186962 0.203241
Si Si3 0.161198 0.813135 0.301270
Si Si4 0.654805 0.182707 0.614379
Si Si5 0.401168 0.678105 0.460924
Si Si6 0.153914 0.685969 0.926609
Si Si7 0.346503 0.315391 0.767835
O O1 0.500000 0.747646 0.118726
O O2 0.500000 0.000000 0.038049
O O3 0.414586 0.767573 0.989723
O O4 0.083179 0.237363 0.249383
O O5 0.000000 0.000000 0.201961
O O6 0.250000 0.750000 0.272345
O O7 0.147683 0.760996 0.387795
O O8 0.161383 0.000000 0.303032
O O9 0.750000 0.250000 0.606826
O O10 0.610062 0.225981 0.536633
O O11 0.614343 0.258416 0.689175
O O12 0.658715 0.000000 0.625352
O O13 0.500000 0.674301 0.439245
O O14 0.374356 0.500000 0.476486
O O15 0.159252 0.500000 0.923507
O O16 0.250000 0.750000 0.938511
O O17 0.119916 0.747537 0.846047
O O18 0.345658 0.500000 0.770484
O O19 0.250000 0.250000 0.765481
#
# Coordination Sequence:
#
# PCOD9348082 Si02
#       7
#     4   4   8   8   8   8   8
#     4  10  24  42  62  89 122 155 190 237 296 351
#     4  10  22  42  64  87 120 155 192 237 292 353
#     4  10  21  39  63  90 118 156 196 240 293 351
#     4  11  21  34  53  80 114 153 199 246 293 345
#     4  10  20  37  58  80 115 156 196 244 297 350
#     4  10  20  38  61  87 119 156 195 242 294 350
#     4  10  18  32  55  82 112 151 196 243 292 343
#
# _framework density 19.865853000000001
#
# number of rings (size 3 to 8) (size 9 to 14) (size 15 to 20)
#    0.000    1.833    0.833    6.000    0.000    5.000 
#    1.500    3.333    0.000    0.000    0.000    0.000 
#    0.000    0.000    0.000    0.000    0.000    0.000 
#
# Total GULP energy -134033.667638 kJ/mol
# GULP energy per Si atom -5584.736152 kJ/mol
# Density = 1.982064 g / cm^3
# Si number density = 19.865853 Si / 1000 Ang^3
#
#
#
# Elastic Constant Matrix: (Units=GPa)
#
#
# Indices 1 2 3 4 5 6 
#
# 1 106.9692 24.3673 68.4210 0.0000 0.0000 0.0000
# 2 24.3673 81.0276 40.5388 0.0000 0.0000 0.0000
# 3 68.4210 40.5388 162.9685 0.0000 0.0000 0.0000
# 4 0.0000 0.0000 0.0000 63.1507 0.0000 0.0000
# 5 0.0000 0.0000 0.0000 0.0000 17.6871 0.0000
# 6 0.0000 0.0000 0.0000 0.0000 0.0000 20.4569
#
#
#
# Elastic Compliance Matrix: (Units=1/GPa)
#
#
# Indices 1 2 3 4 5 6 
#
# 1 0.012906 -0.001337 -0.005086 0.000000 0.000000 0.000000
# 2 -0.001337 0.014234 -0.002980 0.000000 0.000000 0.000000
# 3 -0.005086 -0.002980 0.009013 0.000000 0.000000 0.000000
# 4 0.000000 0.000000 0.000000 0.015835 0.000000 0.000000
# 5 0.000000 0.000000 0.000000 0.000000 0.056538 0.000000
# 6 0.000000 0.000000 0.000000 0.000000 0.000000 0.048883
#
#
# Mechanical properties :
#
#
# Convention : Reuss Voigt Hill
#
# Bulk Modulus (GPa) = 57.64219 68.62439 63.13329
# Shear Modulus (GPa) = 27.47294 34.76815 31.12054
#
# Velocity S-wave (km/s) = 3.72280 4.18801 3.96224
# Velocity P-wave (km/s) = 6.89621 7.61609 7.26507
#
# Compressibility (1/GPa) = 0.01734840
#
# Stress axis : x y z
#
# Youngs Moduli (GPa) = 77.48226 70.25349 110.95477
#
# Poissons Ratio (x) = 0.09390 0.56432
# Poissons Ratio (y) = 0.10357 0.33060
# Poissons Ratio (z) = 0.39408 0.20933
#
# Static dielectric constant tensor:
#      x y z
#    x 2.266030 0.000000 0.000000 
#    y 0.000000 1.671510 0.000000 
#    z 0.000000 0.000000 1.709280 
# 
# From -- ./inp_files/17899.got.cif
#   From: 2010.05.17/outbox.cif.g08.bks.cpg/sg35_9_cif.got.tgz:17899.got - 2010.06.03 17:29:28.
