data_PCOD9348758
_publ_section_title
;
Structure prediction by ZEFSAII (Michael W. Deem and Ramdas Pophale) SiO2 
 PCOD9348758
Probable space group: C M M 2
;
_chemical_formula_sum "Si O2"
_cell_formula_units_Z 56
_cell_length_a 8.817551
_cell_length_b 18.830433
_cell_length_c 19.110016
_cell_angle_alpha 90.000000
_cell_angle_beta 90.000000
_cell_angle_gamma 90.000000
_cell_volume 3172.994633
_symmetry_space_group_name_H-M "C M M 2"
_symmetry_group_IT_number 35
_symmetry_cell_setting 'orthorhombic'
loop_
_space_group_symop_operation_xyz
x,y,z
-x,-y,z
-x,y,z
x,-y,z
1/2+x,1/2+y,z
1/2-x,1/2-y,z
1/2-x,1/2+y,z
1/2+x,1/2-y,z
loop_
_atom_site_type_symbol
_atom_site_label
_atom_site_fract_x
_atom_site_fract_y
_atom_site_fract_z
Si Si1 0.681828 0.829730 0.484380
Si Si2 0.319790 0.670966 0.342219
Si Si3 0.182181 0.416658 0.058270
Si Si4 0.681065 0.328751 0.931792
Si Si5 0.319643 0.085029 0.215822
Si Si6 0.818529 0.670117 0.637614
Si Si7 0.818456 0.170233 0.777722
O O1 0.500000 0.826029 0.477345
O O2 0.750000 0.750000 0.486236
O O3 0.752914 0.861862 0.414278
O O4 0.716574 0.862100 0.560995
O O5 0.500000 0.676438 0.347784
O O6 0.250000 0.750000 0.334879
O O7 0.270263 0.625328 0.275704
O O8 0.219006 0.500000 0.052186
O O9 0.226193 0.393214 0.136882
O O10 0.000000 0.409751 0.053770
O O11 0.257631 0.374006 0.995937
O O12 0.500000 0.323446 0.935330
O O13 0.750000 0.250000 0.935885
O O14 0.719181 0.360150 0.854531
O O15 0.500000 0.099101 0.223714
O O16 0.299238 0.000000 0.220944
O O17 0.750000 0.750000 0.635628
O O18 0.750330 0.635718 0.707719
O O19 0.000000 0.674882 0.644190
O O20 0.750000 0.250000 0.779838
O O21 0.000000 0.174127 0.770739
#
# Coordination Sequence:
#
# PCOD9348758 Si02
#       7
#     8   8   8   8   8   8   8
#     4   9  16  26  40  61  91 124 158 195 237 282
#     4  11  21  32  49  73 101 131 163 199 240 285
#     4   9  19  36  56  75  95 123 159 198 241 290
#     4  10  20  32  48  72 101 132 163 199 242 285
#     4   9  19  37  57  74  95 124 158 197 242 291
#     4   9  15  22  36  58  85 120 157 192 232 277
#     4   9  16  25  38  59  89 123 157 192 233 278
#
# _framework density 17.648944
#
# number of rings (size 3 to 8) (size 9 to 14) (size 15 to 20)
#    0.000    2.571    0.000    5.571    0.000    5.143 
#    0.000    1.429    0.000    0.000    0.000    1.000 
#    0.000    5.714    0.000    0.000    0.000    0.000 
#
# Total GULP energy -155961.489407 kJ/mol
# GULP energy per Si atom -5570.053193 kJ/mol
# Density = 1.760877 g / cm^3
# Si number density = 17.648944 Si / 1000 Ang^3
#
#
#
# Elastic Constant Matrix: (Units=GPa)
#
#
# Indices 1 2 3 4 5 6 
#
# 1 83.2638 21.7634 79.3932 0.0000 0.0000 0.0000
# 2 21.7634 16.1889 45.6158 0.0000 0.0000 0.0000
# 3 79.3932 45.6158 220.9896 0.0000 0.0000 0.0000
# 4 0.0000 0.0000 0.0000 -14.9884 0.0000 0.0000
# 5 0.0000 0.0000 0.0000 0.0000 33.2159 0.0000
# 6 0.0000 0.0000 0.0000 0.0000 0.0000 17.2342
#
#
#
# Elastic Compliance Matrix: (Units=1/GPa)
#
#
# Indices 1 2 3 4 5 6 
#
# 1 0.019812 -0.015723 -0.003872 0.000000 0.000000 0.000000
# 2 -0.015723 0.160122 -0.027403 0.000000 0.000000 0.000000
# 3 -0.003872 -0.027403 0.011573 0.000000 0.000000 0.000000
# 4 0.000000 0.000000 0.000000 -0.066718 0.000000 0.000000
# 5 0.000000 0.000000 0.000000 0.000000 0.030106 0.000000
# 6 0.000000 0.000000 0.000000 0.000000 0.000000 0.058024
#
#
# Mechanical properties :
#
#
# Convention : Reuss Voigt Hill
#
# Bulk Modulus (GPa) = 10.25543 68.22079 39.23811
# Shear Modulus (GPa) = 14.73112 18.67035 16.70074
#
# Velocity S-wave (km/s) = 2.89221 3.25603 3.07949
# Velocity P-wave (km/s) = 4.12026 7.27144 5.90975
#
# Compressibility (1/GPa) = 0.09750936
#
# Stress axis : x y z
#
# Youngs Moduli (GPa) = 50.47477 6.24525 86.41107
#
# Poissons Ratio (x) = 0.09820 0.33459
# Poissons Ratio (y) = 0.79363 2.36791
# Poissons Ratio (z) = 0.19544 0.17114
#
# Static dielectric constant tensor:
#      x y z
#    x 1.603910 0.000000 0.000000 
#    y 0.000000 1.567710 0.000000 
#    z 0.000000 0.000000 1.674500 
# 
# From -- ./inp_files/18210.got.cif
#   From: 2010.05.17/outbox.cif.g08.bks.cpg/sg35_10_cif.got.tgz:18210.got - 2010.06.03 17:29:28.
