data_PCOD9348614
_publ_section_title
;
Structure prediction by ZEFSAII (Michael W. Deem and Ramdas Pophale) SiO2 
 PCOD9348614
Probable space group: C M M 2
;
_chemical_formula_sum "Si O2"
_cell_formula_units_Z 56
_cell_length_a 13.843984
_cell_length_b 22.263673
_cell_length_c 8.802083
_cell_angle_alpha 90.000000
_cell_angle_beta 90.000000
_cell_angle_gamma 90.000000
_cell_volume 2712.959827
_symmetry_space_group_name_H-M "C M M 2"
_symmetry_group_IT_number 35
_symmetry_cell_setting 'orthorhombic'
loop_
_space_group_symop_operation_xyz
x,y,z
-x,-y,z
-x,y,z
x,-y,z
1/2+x,1/2+y,z
1/2-x,1/2-y,z
1/2-x,1/2+y,z
1/2+x,1/2-y,z
loop_
_atom_site_type_symbol
_atom_site_label
_atom_site_fract_x
_atom_site_fract_y
_atom_site_fract_z
Si Si1 0.608305 0.100330 0.103810
Si Si2 0.696829 0.432410 0.250827
Si Si3 0.255732 0.349038 0.520594
Si Si4 0.111264 0.633289 0.759797
Si Si5 0.111592 0.280834 0.297410
Si Si6 0.615128 0.675184 0.080831
Si Si7 0.614108 0.722088 0.755808
O O1 0.500000 0.076949 0.129936
O O2 0.691689 0.067717 0.195878
O O3 0.609453 0.168813 0.165644
O O4 0.626582 0.104297 0.924411
O O5 0.660883 0.500000 0.263875
O O6 0.692516 0.394629 0.406188
O O7 0.643640 0.391607 0.125953
O O8 0.189082 0.386427 0.637030
O O9 0.180325 0.307903 0.425676
O O10 0.328764 0.308324 0.617763
O O11 0.123124 0.705919 0.767199
O O12 0.000000 0.621818 0.714478
O O13 0.146744 0.220145 0.215946
O O14 0.000000 0.273297 0.352283
O O15 0.500000 0.682217 0.075864
O O16 0.651467 0.694926 0.915705
O O17 0.500000 0.708961 0.740243
#
# Coordination Sequence:
#
# PCOD9348614 Si02
#       7
#     8   8   8   8   8   8   8
#     4   9  18  37  64  89 119 154 190 238 298 360
#     4  11  26  42  57  81 116 162 215 256 286 333
#     4  11  23  35  57  89 124 161 191 237 298 361
#     4  10  19  34  57  92 128 150 179 229 301 377
#     4   9  18  35  59  92 123 150 184 235 303 368
#     4  10  21  40  64  87 117 154 199 250 299 351
#     4  10  21  37  59  92 127 155 184 234 301 371
#
# _framework density 20.641663000000001
#
# number of rings (size 3 to 8) (size 9 to 14) (size 15 to 20)
#    0.000    2.000    1.429    1.714    4.000    3.429 
#    0.000    2.857    0.000    1.714    0.000    0.000 
#    0.000    0.000    0.000    0.000    0.000    0.000 
#
# Total GULP energy -156567.361691 kJ/mol
# GULP energy per Si atom -5591.691489 kJ/mol
# Density = 2.059468 g / cm^3
# Si number density = 20.641663 Si / 1000 Ang^3
#
#
#
# Elastic Constant Matrix: (Units=GPa)
#
#
# Indices 1 2 3 4 5 6 
#
# 1 52.2929 -4.1349 18.0436 0.0000 0.0000 0.0000
# 2 -4.1349 75.3432 9.1954 0.0000 0.0000 0.0000
# 3 18.0436 9.1954 79.8402 0.0000 0.0000 0.0000
# 4 0.0000 0.0000 0.0000 9.6190 0.0000 0.0000
# 5 0.0000 0.0000 0.0000 0.0000 35.8493 0.0000
# 6 0.0000 0.0000 0.0000 0.0000 0.0000 8.3603
#
#
#
# Elastic Compliance Matrix: (Units=1/GPa)
#
#
# Indices 1 2 3 4 5 6 
#
# 1 0.020966 0.001754 -0.004940 0.000000 0.000000 0.000000
# 2 0.001754 0.013608 -0.001964 0.000000 0.000000 0.000000
# 3 -0.004940 -0.001964 0.013868 0.000000 0.000000 0.000000
# 4 0.000000 0.000000 0.000000 0.103960 0.000000 0.000000
# 5 0.000000 0.000000 0.000000 0.000000 0.027895 0.000000
# 6 0.000000 0.000000 0.000000 0.000000 0.000000 0.119613
#
#
# Mechanical properties :
#
#
# Convention : Reuss Voigt Hill
#
# Bulk Modulus (GPa) = 26.21790 28.18717 27.20253
# Shear Modulus (GPa) = 15.48345 23.05721 19.27033
#
# Velocity S-wave (km/s) = 2.74178 3.34581 3.05874
# Velocity P-wave (km/s) = 4.76992 5.34893 5.06770
#
# Compressibility (1/GPa) = 0.03814187
#
# Stress axis : x y z
#
# Youngs Moduli (GPa) = 47.69545 73.48354 72.11021
#
# Poissons Ratio (x) = -0.12886 0.35625
# Poissons Ratio (y) = -0.08364 0.14160
# Poissons Ratio (z) = 0.23563 0.14429
#
# Static dielectric constant tensor:
#      x y z
#    x 1.788810 0.000000 0.000000 
#    y 0.000000 1.725180 0.000000 
#    z 0.000000 0.000000 1.758750 
# 
# From -- ./inp_files/7615.got.cif
#   From: 2010.05.17/outbox.cif.g08.bks.cpg/sg35_4_cif.got.tgz:7615.got - 2010.06.03 17:29:28.
