data_PCOD9348337
_publ_section_title
;
Structure prediction by ZEFSAII (Michael W. Deem and Ramdas Pophale) SiO2 
 PCOD9348337
Probable space group: C M M 2
;
_chemical_formula_sum "Si O2"
_cell_formula_units_Z 48
_cell_length_a 7.742758
_cell_length_b 31.100814
_cell_length_c 9.844861
_cell_angle_alpha 90.000000
_cell_angle_beta 90.000000
_cell_angle_gamma 90.000000
_cell_volume 2370.702350
_symmetry_space_group_name_H-M "C M M 2"
_symmetry_group_IT_number 35
_symmetry_cell_setting 'orthorhombic'
loop_
_space_group_symop_operation_xyz
x,y,z
-x,-y,z
-x,y,z
x,-y,z
1/2+x,1/2+y,z
1/2-x,1/2-y,z
1/2-x,1/2+y,z
1/2+x,1/2-y,z
loop_
_atom_site_type_symbol
_atom_site_label
_atom_site_fract_x
_atom_site_fract_y
_atom_site_fract_z
Si Si1 0.788815 0.950740 0.023090
Si Si2 0.788013 0.872298 0.528918
Si Si3 0.293678 0.299327 0.735088
Si Si4 0.789452 0.951245 0.713574
Si Si5 0.700036 0.622234 0.223310
Si Si6 0.801271 0.299720 0.045047
O O1 0.723970 0.915769 0.130246
O O2 0.000000 0.949484 0.022542
O O3 0.739395 0.000000 0.054091
O O4 0.735569 0.940714 0.868111
O O5 0.731311 0.831904 0.619948
O O6 0.734207 0.915607 0.606590
O O7 0.726203 0.871765 0.373856
O O8 0.000000 0.870898 0.528459
O O9 0.500000 0.303086 0.745764
O O10 0.250000 0.250000 0.703050
O O11 0.223698 0.309395 0.885336
O O12 0.000000 0.951160 0.713437
O O13 0.734477 0.000000 0.682293
O O14 0.500000 0.610075 0.244498
O O15 0.704277 0.666139 0.137887
O O16 0.750000 0.250000 0.064923
O O17 0.000000 0.304349 0.080519
#
# Coordination Sequence:
#
# PCOD9348337 Si02
#       6
#     8   8   8   8   8   8
#     4   8  14  25  45  73 103 136 173 211 249 290
#     4   9  18  29  45  72 104 137 167 201 249 300
#     4  10  19  34  54  75  99 128 166 209 253 298
#     4   8  13  23  40  65  98 133 168 206 247 290
#     4  10  19  32  50  75 108 140 170 206 251 301
#     4  11  22  37  56  77  99 128 169 211 256 304
#
# _framework density 20.247164999999999
#
# number of rings (size 3 to 8) (size 9 to 14) (size 15 to 20)
#    0.000    2.667    0.000    5.000    0.000    4.000 
#    0.000    6.667    0.000    0.500    0.000    0.000 
#    0.000    4.667    0.000    0.000    0.000    0.000 
#
# Total GULP energy -133937.619834 kJ/mol
# GULP energy per Si atom -5580.734160 kJ/mol
# Density = 2.020108 g / cm^3
# Si number density = 20.247165 Si / 1000 Ang^3
#
#
#
# Elastic Constant Matrix: (Units=GPa)
#
#
# Indices 1 2 3 4 5 6 
#
# 1 31.1569 -14.0287 -12.3627 0.0000 0.0000 0.0000
# 2 -14.0287 132.7817 125.9228 0.0000 0.0000 0.0000
# 3 -12.3627 125.9228 171.7114 0.0000 0.0000 0.0000
# 4 0.0000 0.0000 0.0000 0.5924 0.0000 0.0000
# 5 0.0000 0.0000 0.0000 0.0000 4.1364 0.0000
# 6 0.0000 0.0000 0.0000 0.0000 0.0000 8.3393
#
#
#
# Elastic Compliance Matrix: (Units=1/GPa)
#
#
# Indices 1 2 3 4 5 6 
#
# 1 0.033718 0.004138 -0.000607 0.000000 0.000000 0.000000
# 2 0.004138 0.025237 -0.018210 0.000000 0.000000 0.000000
# 3 -0.000607 -0.018210 0.019134 0.000000 0.000000 0.000000
# 4 0.000000 0.000000 0.000000 1.688069 0.000000 0.000000
# 5 0.000000 0.000000 0.000000 0.000000 0.241754 0.000000
# 6 0.000000 0.000000 0.000000 0.000000 0.000000 0.119914
#
#
# Mechanical properties :
#
#
# Convention : Reuss Voigt Hill
#
# Bulk Modulus (GPa) = 20.52045 59.41254 39.96649
# Shear Modulus (GPa) = 2.30051 18.35487 10.32769
#
# Velocity S-wave (km/s) = 1.06709 3.01415 2.26095
# Velocity P-wave (km/s) = 3.41690 6.44366 5.15732
#
# Compressibility (1/GPa) = 0.04873188
#
# Stress axis : x y z
#
# Youngs Moduli (GPa) = 29.65785 39.62391 52.26344
#
# Poissons Ratio (x) = -0.16396 0.03172
# Poissons Ratio (y) = -0.12272 0.95170
# Poissons Ratio (z) = 0.01800 0.72153
#
# Static dielectric constant tensor:
#      x y z
#    x 1.778690 0.000000 0.000000 
#    y 0.000000 1.768300 0.000000 
#    z 0.000000 0.000000 1.693160 
# 
# From -- ./inp_files/5317.got.cif
#   From: 2010.05.17/outbox.cif.g08.bks.cpg/sg35_3_cif.got.tgz:5317.got - 2010.06.03 17:29:28.
