data_PCOD9348833
_publ_section_title
;
Structure prediction by ZEFSAII (Michael W. Deem and Ramdas Pophale) SiO2 
 PCOD9348833
Probable space group: C M M 2
;
_chemical_formula_sum "Si O2"
_cell_formula_units_Z 64
_cell_length_a 23.945892
_cell_length_b 17.358155
_cell_length_c 8.213590
_cell_angle_alpha 90.000000
_cell_angle_beta 90.000000
_cell_angle_gamma 90.000000
_cell_volume 3414.032112
_symmetry_space_group_name_H-M "C M M 2"
_symmetry_group_IT_number 35
_symmetry_cell_setting 'orthorhombic'
loop_
_space_group_symop_operation_xyz
x,y,z
-x,-y,z
-x,y,z
x,-y,z
1/2+x,1/2+y,z
1/2-x,1/2-y,z
1/2-x,1/2+y,z
1/2+x,1/2-y,z
loop_
_atom_site_type_symbol
_atom_site_label
_atom_site_fract_x
_atom_site_fract_y
_atom_site_fract_z
Si Si1 0.137247 0.787010 0.133890
Si Si2 0.776184 0.828213 0.661783
Si Si3 0.178835 0.618905 0.120517
Si Si4 0.375870 0.252263 0.487792
Si Si5 0.675869 0.912760 0.487340
Si Si6 0.294460 0.412075 0.976556
Si Si7 0.563094 0.914616 0.951492
Si Si8 0.064107 0.248646 0.819112
O O1 0.176336 0.711345 0.126170
O O2 0.106421 0.778051 0.307469
O O3 0.174972 0.862095 0.113944
O O4 0.097341 0.781459 0.976694
O O5 0.750000 0.750000 0.737183
O O6 0.816517 0.794159 0.522916
O O7 0.728297 0.883287 0.592172
O O8 0.807586 0.873336 0.803339
O O9 0.192625 0.586907 0.297744
O O10 0.227474 0.593628 0.999467
O O11 0.116318 0.592919 0.070293
O O12 0.367084 0.159420 0.493973
O O13 0.412609 0.274204 0.643341
O O14 0.658589 0.000000 0.533431
O O15 0.311714 0.500000 0.982012
O O16 0.500000 0.907985 0.025746
O O17 0.568427 0.842026 0.832895
O O18 0.565973 0.000000 0.876914
O O19 0.000000 0.226598 0.833937
#
# Coordination Sequence:
#
# PCOD9348833 Si02
#       8
#     8   8   8   8   8   8   8   8
#     4  10  21  39  60  82 116 151 186 233 285 341
#     4  10  20  34  51  78 116 155 189 226 280 342
#     4  10  20  34  54  81 114 156 198 231 275 337
#     4  10  21  37  58  81 113 154 188 228 284 336
#     4  10  20  33  50  81 118 151 191 233 272 329
#     4  12  22  33  56  88 115 147 188 234 290 345
#     4   9  18  32  52  80 115 155 196 238 279 317
#     4  10  21  38  60  84 109 145 196 241 279 337
#
# _framework density 18.746162000000002
#
# number of rings (size 3 to 8) (size 9 to 14) (size 15 to 20)
#    0.000    1.875    1.250    3.375    5.250    3.000 
#    0.000    2.500    0.000    1.125    0.000    3.500 
#    0.000    0.000    0.000    0.000    0.000    0.000 
#
# Total GULP energy -178395.086600 kJ/mol
# GULP energy per Si atom -5574.846456 kJ/mol
# Density = 1.870349 g / cm^3
# Si number density = 18.746162 Si / 1000 Ang^3
#
#
#
# Elastic Constant Matrix: (Units=GPa)
#
#
# Indices 1 2 3 4 5 6 
#
# 1 60.5325 34.1647 41.1254 0.0000 0.0000 0.0000
# 2 34.1647 108.5712 34.4673 0.0000 0.0000 0.0000
# 3 41.1254 34.4673 110.9980 0.0000 0.0000 0.0000
# 4 0.0000 0.0000 0.0000 13.0895 0.0000 0.0000
# 5 0.0000 0.0000 0.0000 0.0000 9.2961 0.0000
# 6 0.0000 0.0000 0.0000 0.0000 0.0000 13.1602
#
#
#
# Elastic Compliance Matrix: (Units=1/GPa)
#
#
# Indices 1 2 3 4 5 6 
#
# 1 0.024619 -0.005382 -0.007450 0.000000 0.000000 0.000000
# 2 -0.005382 0.011394 -0.001544 0.000000 0.000000 0.000000
# 3 -0.007450 -0.001544 0.012249 0.000000 0.000000 0.000000
# 4 0.000000 0.000000 0.000000 0.076397 0.000000 0.000000
# 5 0.000000 0.000000 0.000000 0.000000 0.107572 0.000000
# 6 0.000000 0.000000 0.000000 0.000000 0.000000 0.075987
#
#
# Mechanical properties :
#
#
# Convention : Reuss Voigt Hill
#
# Bulk Modulus (GPa) = 51.25620 55.51294 53.38457
# Shear Modulus (GPa) = 14.55713 18.46546 16.51130
#
# Velocity S-wave (km/s) = 2.78967 3.14192 2.97102
# Velocity P-wave (km/s) = 6.14638 6.54518 6.34891
#
# Compressibility (1/GPa) = 0.01950984
#
# Stress axis : x y z
#
# Youngs Moduli (GPa) = 40.61842 87.76317 81.63868
#
# Poissons Ratio (x) = 0.47233 0.60824
# Poissons Ratio (y) = 0.21860 0.12606
# Poissons Ratio (z) = 0.30262 0.13552
#
# Static dielectric constant tensor:
#      x y z
#    x 1.656610 0.000000 0.000000 
#    y 0.000000 1.661370 0.000000 
#    z 0.000000 0.000000 1.656620 
# 
# From -- ./inp_files/9919.got.cif
#   From: 2010.05.17/outbox.cif.g08.bks.cpg/sg35_5_cif.got.tgz:9919.got - 2010.06.03 17:29:28.
