data_PCOD9348066
_publ_section_title
;
Structure prediction by ZEFSAII (Michael W. Deem and Ramdas Pophale) SiO2 
 PCOD9348066
Probable space group: C M M 2
;
_chemical_formula_sum "Si O2"
_cell_formula_units_Z 64
_cell_length_a 29.064522
_cell_length_b 8.639955
_cell_length_c 15.974750
_cell_angle_alpha 90.000000
_cell_angle_beta 90.000000
_cell_angle_gamma 90.000000
_cell_volume 4011.517912
_symmetry_space_group_name_H-M "C M M 2"
_symmetry_group_IT_number 35
_symmetry_cell_setting 'orthorhombic'
loop_
_space_group_symop_operation_xyz
x,y,z
-x,-y,z
-x,y,z
x,-y,z
1/2+x,1/2+y,z
1/2-x,1/2-y,z
1/2-x,1/2+y,z
1/2+x,1/2-y,z
loop_
_atom_site_type_symbol
_atom_site_label
_atom_site_fract_x
_atom_site_fract_y
_atom_site_fract_z
Si Si1 0.947395 0.813662 0.101250
Si Si2 0.855837 0.685213 0.031788
Si Si3 0.801424 0.686496 0.199340
Si Si4 0.301907 0.684479 0.873984
Si Si5 0.644163 0.814787 0.366892
Si Si6 0.698093 0.315521 0.524695
Si Si7 0.302127 0.184921 0.699340
Si Si8 0.447395 0.313662 0.297430
O O1 0.908439 0.734157 0.046362
O O2 0.940422 0.772054 0.199340
O O3 0.000000 0.772460 0.079252
O O4 0.943183 0.000000 0.095280
O O5 0.852158 0.500000 0.024112
O O6 0.828358 0.735156 0.115674
O O7 0.832636 0.763428 0.951809
O O8 0.799958 0.500000 0.199340
O O9 0.750000 0.750000 0.199340
O O10 0.828358 0.735156 0.283006
O O11 0.299059 0.500000 0.868245
O O12 0.250000 0.750000 0.885411
O O13 0.321580 0.752012 0.786706
O O14 0.667364 0.736573 0.446870
O O15 0.591561 0.765843 0.352318
O O16 0.647842 0.000000 0.374568
O O17 0.700940 0.500000 0.530434
O O18 0.750000 0.250000 0.513269
O O19 0.678420 0.247988 0.611974
O O20 0.250000 0.250000 0.699340
O O21 0.301603 0.000000 0.699339
O O22 0.500000 0.272459 0.319428
O O23 0.443183 0.500000 0.303400
#
# Coordination Sequence:
#
# PCOD9348066 Si02
#       8
#     8   8   8   8   8   8   8   8
#     4   9  18  33  52  73  97 128 167 210 256 302
#     4  11  21  34  49  72 100 133 172 209 251 299
#     4  10  22  34  45  64  95 133 170 205 241 288
#     4  11  21  34  51  74 102 135 170 209 251 298
#     4  11  21  34  49  72 100 133 172 209 251 299
#     4  11  21  34  51  74 102 135 170 209 251 298
#     4  10  18  32  52  74  99 130 165 208 252 296
#     4   9  18  33  52  73  97 128 167 210 256 302
#
# _framework density 15.954060999999999
#
# number of rings (size 3 to 8) (size 9 to 14) (size 15 to 20)
#    0.000    1.750    1.250    7.125    0.000    4.500 
#    0.000    1.250    0.000    0.000    0.000    0.875 
#    0.000    7.000    0.000    0.000    0.000    0.000 
#
# Total GULP energy -178635.323121 kJ/mol
# GULP energy per Si atom -5582.353848 kJ/mol
# Density = 1.591775 g / cm^3
# Si number density = 15.954061 Si / 1000 Ang^3
#
#
#
# Elastic Constant Matrix: (Units=GPa)
#
#
# Indices 1 2 3 4 5 6 
#
# 1 92.4587 38.6028 60.1208 0.0000 0.0000 0.0000
# 2 38.6028 99.7399 59.2970 0.0000 0.0000 0.0000
# 3 60.1208 59.2970 144.9795 0.0000 0.0000 0.0000
# 4 0.0000 0.0000 0.0000 14.0685 0.0000 0.0000
# 5 0.0000 0.0000 0.0000 0.0000 7.3802 0.0000
# 6 0.0000 0.0000 0.0000 0.0000 0.0000 27.0838
#
#
#
# Elastic Compliance Matrix: (Units=1/GPa)
#
#
# Indices 1 2 3 4 5 6 
#
# 1 0.015402 -0.002859 -0.005218 0.000000 0.000000 0.000000
# 2 -0.002859 0.013778 -0.004450 0.000000 0.000000 0.000000
# 3 -0.005218 -0.004450 0.010881 0.000000 0.000000 0.000000
# 4 0.000000 0.000000 0.000000 0.071081 0.000000 0.000000
# 5 0.000000 0.000000 0.000000 0.000000 0.135498 0.000000
# 6 0.000000 0.000000 0.000000 0.000000 0.000000 0.036922
#
#
# Mechanical properties :
#
#
# Convention : Reuss Voigt Hill
#
# Bulk Modulus (GPa) = 66.62912 72.57993 69.60452
# Shear Modulus (GPa) = 15.94297 21.65033 18.79665
#
# Velocity S-wave (km/s) = 3.16461 3.68780 3.43618
# Velocity P-wave (km/s) = 7.43013 7.98279 7.71141
#
# Compressibility (1/GPa) = 0.01500845
#
# Stress axis : x y z
#
# Youngs Moduli (GPa) = 64.92613 72.57924 91.90254
#
# Poissons Ratio (x) = 0.20752 0.47951
# Poissons Ratio (y) = 0.18564 0.40893
# Poissons Ratio (z) = 0.33876 0.32295
#
# Static dielectric constant tensor:
#      x y z
#    x 1.533800 0.000000 0.000000 
#    y 0.000000 1.536580 0.000000 
#    z 0.000000 0.000000 1.544810 
# 
# From -- ./inp_files/17617.got.cif
#   From: 2010.05.17/outbox.cif.g08.bks.cpg/sg35_9_cif.got.tgz:17617.got - 2010.06.03 17:29:28.
