data_PCOD9348146
_publ_section_title
;
Structure prediction by ZEFSAII (Michael W. Deem and Ramdas Pophale) SiO2 
 PCOD9348146
Probable space group: C M M 2
;
_chemical_formula_sum "Si O2"
_cell_formula_units_Z 56
_cell_length_a 14.512976
_cell_length_b 20.093890
_cell_length_c 9.876018
_cell_angle_alpha 90.000000
_cell_angle_beta 90.000000
_cell_angle_gamma 90.000000
_cell_volume 2880.065537
_symmetry_space_group_name_H-M "C M M 2"
_symmetry_group_IT_number 35
_symmetry_cell_setting 'orthorhombic'
loop_
_space_group_symop_operation_xyz
x,y,z
-x,-y,z
-x,y,z
x,-y,z
1/2+x,1/2+y,z
1/2-x,1/2-y,z
1/2-x,1/2+y,z
1/2+x,1/2-y,z
loop_
_atom_site_type_symbol
_atom_site_label
_atom_site_fract_x
_atom_site_fract_y
_atom_site_fract_z
Si Si1 0.901224 0.076072 0.500000
Si Si2 0.289944 0.855106 0.919436
Si Si3 0.796347 0.420739 0.630666
Si Si4 0.147357 0.333123 0.383732
Si Si5 0.392048 0.717147 0.991406
Si Si6 0.899238 0.424558 0.140080
Si Si7 0.860122 0.192511 0.310010
O O1 0.811796 0.088129 0.591467
O O2 0.901192 0.126580 0.375211
O O3 0.000000 0.082820 0.572363
O O4 0.893342 0.000000 0.451252
O O5 0.311664 0.889123 0.777055
O O6 0.352043 0.789462 0.949030
O O7 0.182854 0.833634 0.928480
O O8 0.318764 0.905216 0.038119
O O9 0.816934 0.500000 0.625751
O O10 0.849742 0.377303 0.518206
O O11 0.101181 0.374780 0.265301
O O12 0.111032 0.258020 0.394899
O O13 0.251404 0.320535 0.329948
O O14 0.500000 0.709933 0.955244
O O15 0.382861 0.707674 0.154240
O O16 0.887686 0.500000 0.188887
O O17 0.000000 0.419503 0.071468
#
# Coordination Sequence:
#
# PCOD9348146 Si02
#       7
#     8   8   8   8   8   8   8
#     4   9  19  35  57  88 124 162 204 250 308 375
#     4  11  22  40  59  88 124 165 205 254 309 371
#     4  10  22  39  60  84 121 167 205 253 311 365
#     4  10  19  37  61  90 116 154 204 256 311 362
#     4  11  22  38  62  91 123 160 206 263 314 364
#     4  11  22  37  61  89 118 161 211 255 309 371
#     4  10  18  34  61  92 122 156 195 260 316 361
#
# _framework density 19.444001
#
# number of rings (size 3 to 8) (size 9 to 14) (size 15 to 20)
#    0.000    1.714    2.857    2.571    0.000    6.286 
#    0.000    1.429    0.000    5.571    0.000    0.000 
#    0.000    0.000    0.000    0.000    0.000    0.000 
#
# Total GULP energy -156172.462492 kJ/mol
# GULP energy per Si atom -5577.587946 kJ/mol
# Density = 1.939975 g / cm^3
# Si number density = 19.444001 Si / 1000 Ang^3
#
#
#
# Elastic Constant Matrix: (Units=GPa)
#
#
# Indices 1 2 3 4 5 6 
#
# 1 82.9819 25.8769 10.9919 0.0000 0.0000 0.0000
# 2 25.8769 106.7160 47.9490 0.0000 0.0000 0.0000
# 3 10.9919 47.9490 106.0349 0.0000 0.0000 0.0000
# 4 0.0000 0.0000 0.0000 25.0806 0.0000 0.0000
# 5 0.0000 0.0000 0.0000 0.0000 1.5672 0.0000
# 6 0.0000 0.0000 0.0000 0.0000 0.0000 -5.7890
#
#
#
# Elastic Compliance Matrix: (Units=1/GPa)
#
#
# Indices 1 2 3 4 5 6 
#
# 1 0.013037 -0.003205 0.000098 0.000000 0.000000 0.000000
# 2 -0.003205 0.012548 -0.005342 0.000000 0.000000 0.000000
# 3 0.000098 -0.005342 0.011836 0.000000 0.000000 0.000000
# 4 0.000000 0.000000 0.000000 0.039872 0.000000 0.000000
# 5 0.000000 0.000000 0.000000 0.000000 0.638069 0.000000
# 6 0.000000 0.000000 0.000000 0.000000 0.000000 -0.172742
#
#
# Mechanical properties :
#
#
# Convention : Reuss Voigt Hill
#
# Bulk Modulus (GPa) = 48.72556 51.70760 50.21658
# Shear Modulus (GPa) = 8.82830 18.23276 13.53053
#
# Velocity S-wave (km/s) = 2.13313 3.06552 2.64080
# Velocity P-wave (km/s) = 5.58398 6.25945 5.93134
#
# Compressibility (1/GPa) = 0.02052311
#
# Stress axis : x y z
#
# Youngs Moduli (GPa) = 76.70237 79.69306 84.48552
#
# Poissons Ratio (x) = 0.25545 -0.00828
# Poissons Ratio (y) = 0.24586 0.45132
# Poissons Ratio (z) = -0.00751 0.42572
#
# Static dielectric constant tensor:
#      x y z
#    x 1.749380 0.000000 0.000000 
#    y 0.000000 1.700880 0.000000 
#    z 0.000000 0.000000 1.637110 
# 
# From -- ./inp_files/7594.got.cif
#   From: 2010.05.17/outbox.cif.g08.bks.cpg/sg35_4_cif.got.tgz:7594.got - 2010.06.03 17:29:28.
