data_PCOD9348111
_publ_section_title
;
Structure prediction by ZEFSAII (Michael W. Deem and Ramdas Pophale) SiO2 
 PCOD9348111
Probable space group: C M M 2
;
_chemical_formula_sum "Si O2"
_cell_formula_units_Z 40
_cell_length_a 10.209862
_cell_length_b 18.467218
_cell_length_c 11.669024
_cell_angle_alpha 90.000000
_cell_angle_beta 90.000000
_cell_angle_gamma 90.000000
_cell_volume 2200.168188
_symmetry_space_group_name_H-M "C M M 2"
_symmetry_group_IT_number 35
_symmetry_cell_setting 'orthorhombic'
loop_
_space_group_symop_operation_xyz
x,y,z
-x,-y,z
-x,y,z
x,-y,z
1/2+x,1/2+y,z
1/2-x,1/2-y,z
1/2-x,1/2+y,z
1/2+x,1/2-y,z
loop_
_atom_site_type_symbol
_atom_site_label
_atom_site_fract_x
_atom_site_fract_y
_atom_site_fract_z
Si Si1 0.500000 0.849071 0.176311
Si Si2 0.748119 0.583296 0.579706
Si Si3 0.500000 0.579238 0.413752
Si Si4 0.740050 0.337923 0.044850
Si Si5 0.500000 0.674796 0.200245
Si Si6 0.840850 0.178107 0.794908
Si Si7 0.000000 0.412318 0.433541
O O1 0.373696 0.866979 0.098967
O O2 0.500000 0.761923 0.195011
O O3 0.500000 0.883379 0.303152
O O4 0.775377 0.500000 0.614270
O O5 0.626842 0.582834 0.492955
O O6 0.703980 0.629130 0.688879
O O7 0.873207 0.610572 0.507566
O O8 0.500000 0.500000 0.354656
O O9 0.500000 0.644858 0.326905
O O10 0.750000 0.250000 0.041052
O O11 0.625739 0.354080 0.133572
O O12 0.698415 0.358418 0.916423
O O13 0.750000 0.250000 0.787534
O O14 0.000000 0.191515 0.793936
O O15 0.000000 0.500000 0.426696
#
# Coordination Sequence:
#
# PCOD9348111 Si02
#       7
#     4   8   4   8   4   8   4
#     4  10  20  35  58  82 112 151 187 232 283 346
#     4  10  22  40  60  81 116 159 193 237 295 346
#     4  10  20  35  56  80 110 151 191 234 289 340
#     4   9  19  34  55  82 113 146 182 230 291 338
#     4  10  18  33  54  80 110 143 189 230 279 342
#     4  11  23  38  61  89 118 150 195 245 289 347
#     4  10  22  39  58  84 118 155 195 240 291 344
#
# _framework density 18.180427999999999
#
# number of rings (size 3 to 8) (size 9 to 14) (size 15 to 20)
#    0.000    2.000    2.000    1.200    5.600    1.600 
#    0.000    2.000    0.000    0.000    0.000    0.000 
#    0.000    0.000    0.000    0.000    0.000    0.000 
#
# Total GULP energy -111492.111132 kJ/mol
# GULP energy per Si atom -5574.605557 kJ/mol
# Density = 1.813905 g / cm^3
# Si number density = 18.180428 Si / 1000 Ang^3
#
#
#
# Elastic Constant Matrix: (Units=GPa)
#
#
# Indices 1 2 3 4 5 6 
#
# 1 181.4084 26.5487 70.1210 0.0000 0.0000 0.0000
# 2 26.5487 29.1507 38.5357 0.0000 0.0000 0.0000
# 3 70.1210 38.5357 131.7237 0.0000 0.0000 0.0000
# 4 0.0000 0.0000 0.0000 -41.2833 0.0000 0.0000
# 5 0.0000 0.0000 0.0000 0.0000 33.5669 0.0000
# 6 0.0000 0.0000 0.0000 0.0000 0.0000 21.1739
#
#
#
# Elastic Compliance Matrix: (Units=1/GPa)
#
#
# Indices 1 2 3 4 5 6 
#
# 1 0.007040 -0.002377 -0.003052 0.000000 0.000000 0.000000
# 2 -0.002377 0.056740 -0.015334 0.000000 0.000000 0.000000
# 3 -0.003052 -0.015334 0.013703 0.000000 0.000000 0.000000
# 4 0.000000 0.000000 0.000000 -0.024223 0.000000 0.000000
# 5 0.000000 0.000000 0.000000 0.000000 0.029791 0.000000
# 6 0.000000 0.000000 0.000000 0.000000 0.000000 0.047228
#
#
# Mechanical properties :
#
#
# Convention : Reuss Voigt Hill
#
# Bulk Modulus (GPa) = 27.81157 68.07707 47.94432
# Shear Modulus (GPa) = 27.20493 16.49665 21.85079
#
# Velocity S-wave (km/s) = 3.87251 3.01555 3.47058
# Velocity P-wave (km/s) = 5.94356 7.04637 6.51833
#
# Compressibility (1/GPa) = 0.03595626
#
# Stress axis : x y z
#
# Youngs Moduli (GPa) = 142.04342 17.62435 72.97930
#
# Poissons Ratio (x) = 0.04189 0.22276
# Poissons Ratio (y) = 0.33758 1.11907
# Poissons Ratio (z) = 0.43358 0.27025
#
# Static dielectric constant tensor:
#      x y z
#    x 1.646420 0.000000 0.000000 
#    y 0.000000 1.625680 0.000000 
#    z 0.000000 0.000000 1.600170 
# 
# From -- ./inp_files/11243.got.cif
#   From: 2010.05.17/outbox.cif.g08.bks.cpg/sg35_6_cif.got.tgz:11243.got - 2010.06.03 17:29:28.
