data_PCOD9348382
_publ_section_title
;
Structure prediction by ZEFSAII (Michael W. Deem and Ramdas Pophale) SiO2 
 PCOD9348382
Probable space group: C M M 2
;
_chemical_formula_sum "Si O2"
_cell_formula_units_Z 48
_cell_length_a 15.462380
_cell_length_b 8.007518
_cell_length_c 19.628785
_cell_angle_alpha 90.000000
_cell_angle_beta 90.000000
_cell_angle_gamma 90.000000
_cell_volume 2430.343632
_symmetry_space_group_name_H-M "C M M 2"
_symmetry_group_IT_number 35
_symmetry_cell_setting 'orthorhombic'
loop_
_space_group_symop_operation_xyz
x,y,z
-x,-y,z
-x,y,z
x,-y,z
1/2+x,1/2+y,z
1/2-x,1/2-y,z
1/2-x,1/2+y,z
1/2+x,1/2-y,z
loop_
_atom_site_type_symbol
_atom_site_label
_atom_site_fract_x
_atom_site_fract_y
_atom_site_fract_z
Si Si1 0.655675 0.800586 0.095170
Si Si2 0.655729 0.799152 0.799107
Si Si3 0.000000 0.806793 0.191189
Si Si4 0.000000 0.296428 0.547846
Si Si5 0.351377 0.201200 0.443409
Si Si6 0.500000 0.795232 0.703712
Si Si7 0.398524 0.797092 0.947213
Si Si8 0.500000 0.196501 0.343963
O O1 0.750000 0.750000 0.119391
O O2 0.582419 0.735174 0.145034
O O3 0.647757 0.000000 0.093016
O O4 0.642503 0.735710 0.017691
O O5 0.750000 0.750000 0.775261
O O6 0.582844 0.740412 0.747120
O O7 0.641209 0.735106 0.876357
O O8 0.648770 0.000000 0.802408
O O9 0.000000 0.715796 0.263372
O O10 0.000000 0.000000 0.207954
O O11 0.912546 0.246043 0.507342
O O12 0.000000 0.239079 0.625776
O O13 0.000000 0.500000 0.547740
O O14 0.250000 0.250000 0.443889
O O15 0.411289 0.261047 0.379472
O O16 0.349937 0.000000 0.443090
O O17 0.500000 0.000000 0.702680
O O18 0.500000 0.756829 0.947862
O O19 0.391598 0.000000 0.947154
O O20 0.500000 0.000000 0.359921
#
# Coordination Sequence:
#
# PCOD9348382 Si02
#       8
#     8   8   4   4   8   4   8   4
#     4  11  22  38  59  81 109 146 186 233 282 331
#     4  10  19  32  52  76 103 138 182 226 270 320
#     4  12  25  40  58  84 115 146 182 224 272 332
#     4   8  16  32  52  78 109 143 180 213 254 313
#     4   9  18  34  58  83 108 138 176 218 260 311
#     4   9  17  31  52  74 104 147 184 212 254 323
#     4   9  16  31  55  77 100 137 184 229 274 322
#     4   9  20  39  58  78 108 146 178 213 264 320
#
# _framework density 19.750294
#
# number of rings (size 3 to 8) (size 9 to 14) (size 15 to 20)
#    0.000    2.333    1.667    2.750    0.000    2.000 
#    0.000    4.167    0.000    1.000    0.000    0.000 
#    0.000    0.000    0.000    0.000    0.000    0.000 
#
# Total GULP energy -133883.285790 kJ/mol
# GULP energy per Si atom -5578.470241 kJ/mol
# Density = 1.970534 g / cm^3
# Si number density = 19.750294 Si / 1000 Ang^3
#
#
#
# Elastic Constant Matrix: (Units=GPa)
#
#
# Indices 1 2 3 4 5 6 
#
# 1 200.3201 -0.0545 87.3413 0.0000 0.0000 0.0000
# 2 -0.0545 14.0718 -3.5170 0.0000 0.0000 0.0000
# 3 87.3413 -3.5170 143.7428 0.0000 0.0000 0.0000
# 4 0.0000 0.0000 0.0000 -0.3673 0.0000 0.0000
# 5 0.0000 0.0000 0.0000 0.0000 -54.6461 0.0000
# 6 0.0000 0.0000 0.0000 0.0000 0.0000 25.1023
#
#
#
# Elastic Compliance Matrix: (Units=1/GPa)
#
#
# Indices 1 2 3 4 5 6 
#
# 1 0.006806 -0.001013 -0.004160 0.000000 0.000000 0.000000
# 2 -0.001013 0.071652 0.002369 0.000000 0.000000 0.000000
# 3 -0.004160 0.002369 0.009543 0.000000 0.000000 0.000000
# 4 0.000000 0.000000 0.000000 -2.722268 0.000000 0.000000
# 5 0.000000 0.000000 0.000000 0.000000 -0.018300 0.000000
# 6 0.000000 0.000000 0.000000 0.000000 0.000000 0.039837
#
#
# Mechanical properties :
#
#
# Convention : Reuss Voigt Hill
#
# Bulk Modulus (GPa) = 12.13723 58.40828 35.27275
# Shear Modulus (GPa) = -1.93824 12.30876 5.18526
#
# Velocity S-wave (km/s) = -0.99172 2.49914 1.62207
# Velocity P-wave (km/s) = 2.20167 6.16159 4.62669
#
# Compressibility (1/GPa) = 0.08239112
#
# Stress axis : x y z
#
# Youngs Moduli (GPa) = 146.93946 13.95634 104.79401
#
# Poissons Ratio (x) = 0.01414 0.43594
# Poissons Ratio (y) = 0.14890 -0.24824
# Poissons Ratio (z) = 0.61127 -0.03306
#
# Static dielectric constant tensor:
#      x y z
#    x 1.671910 0.000000 0.000000 
#    y 0.000000 1.712120 0.000000 
#    z 0.000000 0.000000 1.697570 
# 
# From -- ./inp_files/18833.got.cif
#   From: 2010.05.17/outbox.cif.g08.bks.cpg/sg35_10_cif.got.tgz:18833.got - 2010.06.03 17:29:28.
