data_PCOD9348932
_publ_section_title
;
Structure prediction by ZEFSAII (Michael W. Deem and Ramdas Pophale) SiO2 
 PCOD9348932
Probable space group: C M M 2
;
_chemical_formula_sum "Si O2"
_cell_formula_units_Z 64
_cell_length_a 8.895879
_cell_length_b 19.274147
_cell_length_c 21.238909
_cell_angle_alpha 90.000000
_cell_angle_beta 90.000000
_cell_angle_gamma 90.000000
_cell_volume 3641.633522
_symmetry_space_group_name_H-M "C M M 2"
_symmetry_group_IT_number 35
_symmetry_cell_setting 'orthorhombic'
loop_
_space_group_symop_operation_xyz
x,y,z
-x,-y,z
-x,y,z
x,-y,z
1/2+x,1/2+y,z
1/2-x,1/2-y,z
1/2-x,1/2+y,z
1/2+x,1/2-y,z
loop_
_atom_site_type_symbol
_atom_site_label
_atom_site_fract_x
_atom_site_fract_y
_atom_site_fract_z
Si Si1 0.321838 0.582678 0.201040
Si Si2 0.679540 0.826052 0.092763
Si Si3 0.182888 0.920409 0.342940
Si Si4 0.818848 0.674017 0.951107
Si Si5 0.172741 0.084275 0.702905
Si Si6 0.181049 0.173388 0.460584
Si Si7 0.680712 0.918542 0.833340
Si Si8 0.820715 0.582140 0.571254
O O1 0.500000 0.597682 0.196793
O O2 0.302772 0.500000 0.193936
O O3 0.237835 0.623676 0.146846
O O4 0.270168 0.600089 0.272247
O O5 0.500000 0.820858 0.095598
O O6 0.750000 0.750000 0.101356
O O7 0.721848 0.850151 0.021838
O O8 0.228959 0.867647 0.397227
O O9 0.000000 0.921826 0.342261
O O10 0.231782 0.000000 0.355622
O O11 0.750000 0.750000 0.942281
O O12 0.770889 0.623654 0.894886
O O13 0.000000 0.678881 0.948966
O O14 0.244043 0.107440 0.768866
O O15 0.265844 0.103543 0.640920
O O16 0.000000 0.106577 0.697136
O O17 0.175213 0.000000 0.704748
O O18 0.250000 0.250000 0.462228
O O19 0.238668 0.128022 0.519182
O O20 0.000000 0.177279 0.461771
O O21 0.500000 0.913130 0.826948
O O22 0.716723 0.000000 0.841211
O O23 0.784405 0.500000 0.562803
O O24 0.000000 0.589780 0.566289
#
# Coordination Sequence:
#
# PCOD9348932 Si02
#       8
#     8   8   8   8   8   8   8   8
#     4   9  18  34  55  79 107 136 168 210 259 308
#     4  10  20  34  52  74 102 137 177 217 258 307
#     4   8  16  33  56  78 101 134 173 210 253 307
#     4   9  19  34  51  71  98 134 171 209 253 303
#     4   9  17  30  50  77 105 132 166 208 253 302
#     4  11  22  36  54  77 107 139 172 212 257 304
#     4   9  17  31  51  74 100 130 165 207 255 303
#     4  10  20  35  56  80 105 135 172 213 257 306
#
# _framework density 17.574532000000001
#
# number of rings (size 3 to 8) (size 9 to 14) (size 15 to 20)
#    0.000    2.625    0.000    2.625    0.000    5.000 
#    0.000    4.375    0.000    4.500    0.000    0.000 
#    0.000    0.000    0.000    0.000    0.000    0.000 
#
# Total GULP energy -178453.679400 kJ/mol
# GULP energy per Si atom -5576.677481 kJ/mol
# Density = 1.753453 g / cm^3
# Si number density = 17.574532 Si / 1000 Ang^3
#
#
#
# Elastic Constant Matrix: (Units=GPa)
#
#
# Indices 1 2 3 4 5 6 
#
# 1 49.4290 42.2075 60.4727 0.0000 0.0000 0.0000
# 2 42.2075 70.9753 88.9246 0.0000 0.0000 0.0000
# 3 60.4727 88.9246 185.1176 0.0000 0.0000 0.0000
# 4 0.0000 0.0000 0.0000 -25.4168 0.0000 0.0000
# 5 0.0000 0.0000 0.0000 0.0000 27.7940 0.0000
# 6 0.0000 0.0000 0.0000 0.0000 0.0000 22.0826
#
#
#
# Elastic Compliance Matrix: (Units=1/GPa)
#
#
# Indices 1 2 3 4 5 6 
#
# 1 0.042468 -0.019775 -0.004374 0.000000 0.000000 0.000000
# 2 -0.019775 0.044595 -0.014962 0.000000 0.000000 0.000000
# 3 -0.004374 -0.014962 0.014018 0.000000 0.000000 0.000000
# 4 0.000000 0.000000 0.000000 -0.039344 0.000000 0.000000
# 5 0.000000 0.000000 0.000000 0.000000 0.035979 0.000000
# 6 0.000000 0.000000 0.000000 0.000000 0.000000 0.045285
#
#
# Mechanical properties :
#
#
# Convention : Reuss Voigt Hill
#
# Bulk Modulus (GPa) = 43.74551 76.52571 60.13561
# Shear Modulus (GPa) = 21.84914 12.48642 17.16778
#
# Velocity S-wave (km/s) = 3.52977 2.66838 3.12886
# Velocity P-wave (km/s) = 6.44653 7.28915 6.88075
#
# Compressibility (1/GPa) = 0.02285949
#
# Stress axis : x y z
#
# Youngs Moduli (GPa) = 23.54724 22.42402 71.33586
#
# Poissons Ratio (x) = 0.44343 0.31202
# Poissons Ratio (y) = 0.46564 1.06734
# Poissons Ratio (z) = 0.10299 0.33551
#
# Static dielectric constant tensor:
#      x y z
#    x 1.588940 0.000000 0.000000 
#    y 0.000000 1.570400 0.000000 
#    z 0.000000 0.000000 1.599480 
# 
# From -- ./inp_files/18293.got.cif
#   From: 2010.05.17/outbox.cif.g08.bks.cpg/sg35_10_cif.got.tgz:18293.got - 2010.06.03 17:29:28.
