data_PCOD9348101
_publ_section_title
;
Structure prediction by ZEFSAII (Michael W. Deem and Ramdas Pophale) SiO2 
 PCOD9348101
Probable space group: C M M 2
;
_chemical_formula_sum "Si O2"
_cell_formula_units_Z 48
_cell_length_a 14.165169
_cell_length_b 17.090258
_cell_length_c 10.391452
_cell_angle_alpha 90.000000
_cell_angle_beta 90.000000
_cell_angle_gamma 90.000000
_cell_volume 2515.629131
_symmetry_space_group_name_H-M "C M M 2"
_symmetry_group_IT_number 35
_symmetry_cell_setting 'orthorhombic'
loop_
_space_group_symop_operation_xyz
x,y,z
-x,-y,z
-x,y,z
x,-y,z
1/2+x,1/2+y,z
1/2-x,1/2-y,z
1/2-x,1/2+y,z
1/2+x,1/2-y,z
loop_
_atom_site_type_symbol
_atom_site_label
_atom_site_fract_x
_atom_site_fract_y
_atom_site_fract_z
Si Si1 0.000000 0.373406 0.953780
Si Si2 0.500000 0.749515 0.781330
Si Si3 0.803569 0.827710 0.762780
Si Si4 0.211536 0.410713 0.522475
Si Si5 0.500000 0.905785 0.251815
Si Si6 0.000000 0.411522 0.621710
Si Si7 0.795253 0.335677 0.260247
Si Si8 0.709108 0.089152 0.981881
O O1 0.000000 0.279674 0.929643
O O2 0.106365 0.398497 0.913888
O O3 0.000000 0.407289 0.097340
O O4 0.590203 0.699461 0.746817
O O5 0.500000 0.834995 0.712335
O O6 0.750000 0.750000 0.809383
O O7 0.757665 0.856087 0.630245
O O8 0.785585 0.890260 0.874224
O O9 0.238354 0.500000 0.548813
O O10 0.097444 0.406700 0.542162
O O11 0.243553 0.386931 0.379459
O O12 0.407061 0.854206 0.280596
O O13 0.500000 0.000000 0.293414
O O14 0.000000 0.500000 0.681691
O O15 0.750000 0.250000 0.276072
O O16 0.779082 0.361280 0.112330
O O17 0.714434 0.000000 0.023032
#
# Coordination Sequence:
#
# PCOD9348101 Si02
#       8
#     4   4   8   8   4   4   8   8
#     4  10  18  32  61  89 119 153 194 250 306 355
#     4  12  24  38  60  84 131 155 204 252 311 371
#     4  12  23  40  60  90 120 163 205 257 307 360
#     4  11  22  40  63  91 125 162 206 251 307 371
#     4  10  21  39  62  93 133 166 203 252 320 383
#     4  10  21  35  62  94 122 154 197 254 315 367
#     4  11  23  38  63  97 132 163 203 258 317 370
#     4  11  22  39  62  92 127 163 205 250 307 369
#
# _framework density 19.080712999999999
#
# number of rings (size 3 to 8) (size 9 to 14) (size 15 to 20)
#    0.000    1.000    3.333    5.250    2.333    3.000 
#    0.000    1.667    0.000    0.000    0.000    6.417 
#    0.000    0.000    0.000    0.000    0.000    0.000 
#
# Total GULP energy -133706.475899 kJ/mol
# GULP energy per Si atom -5571.103162 kJ/mol
# Density = 1.903728 g / cm^3
# Si number density = 19.080713 Si / 1000 Ang^3
#
#
#
# Elastic Constant Matrix: (Units=GPa)
#
#
# Indices 1 2 3 4 5 6 
#
# 1 100.6257 50.5191 21.3433 0.0000 0.0000 0.0000
# 2 50.5191 94.2598 15.3689 0.0000 0.0000 0.0000
# 3 21.3433 15.3689 78.4673 0.0000 0.0000 0.0000
# 4 0.0000 0.0000 0.0000 21.9435 0.0000 0.0000
# 5 0.0000 0.0000 0.0000 0.0000 8.5693 0.0000
# 6 0.0000 0.0000 0.0000 0.0000 0.0000 20.8267
#
#
#
# Elastic Compliance Matrix: (Units=1/GPa)
#
#
# Indices 1 2 3 4 5 6 
#
# 1 0.014028 -0.007124 -0.002420 0.000000 0.000000 0.000000
# 2 -0.007124 0.014576 -0.000917 0.000000 0.000000 0.000000
# 3 -0.002420 -0.000917 0.013582 0.000000 0.000000 0.000000
# 4 0.000000 0.000000 0.000000 0.045572 0.000000 0.000000
# 5 0.000000 0.000000 0.000000 0.000000 0.116695 0.000000
# 6 0.000000 0.000000 0.000000 0.000000 0.000000 0.048015
#
#
# Mechanical properties :
#
#
# Convention : Reuss Voigt Hill
#
# Bulk Modulus (GPa) = 47.02834 49.75726 48.39280
# Shear Modulus (GPa) = 17.82669 22.67601 20.25135
#
# Velocity S-wave (km/s) = 3.05991 3.45110 3.26137
# Velocity P-wave (km/s) = 6.09792 6.48182 6.29280
#
# Compressibility (1/GPa) = 0.02126378
#
# Stress axis : x y z
#
# Youngs Moduli (GPa) = 71.28836 68.60386 73.62600
#
# Poissons Ratio (x) = 0.48870 0.17820
# Poissons Ratio (y) = 0.50782 0.06754
# Poissons Ratio (z) = 0.17254 0.06294
#
# Static dielectric constant tensor:
#      x y z
#    x 0.453970 0.000000 0.000000 
#    y 0.000000 1.674820 0.000000 
#    z 0.000000 0.000000 1.770550 
# 
# From -- ./inp_files/12952.got.cif
#   From: 2010.05.17/outbox.cif.g08.bks.cpg/sg35_7_cif.got.tgz:12952.got - 2010.06.03 17:29:28.
