data_PCOD9348856
_publ_section_title
;
Structure prediction by ZEFSAII (Michael W. Deem and Ramdas Pophale) SiO2 
 PCOD9348856
Probable space group: C M M 2
;
_chemical_formula_sum "Si O2"
_cell_formula_units_Z 56
_cell_length_a 8.754395
_cell_length_b 29.368870
_cell_length_c 13.100010
_cell_angle_alpha 90.000000
_cell_angle_beta 90.000000
_cell_angle_gamma 90.000000
_cell_volume 3368.100193
_symmetry_space_group_name_H-M "C M M 2"
_symmetry_group_IT_number 35
_symmetry_cell_setting 'orthorhombic'
loop_
_space_group_symop_operation_xyz
x,y,z
-x,-y,z
-x,y,z
x,-y,z
1/2+x,1/2+y,z
1/2-x,1/2-y,z
1/2-x,1/2+y,z
1/2+x,1/2-y,z
loop_
_atom_site_type_symbol
_atom_site_label
_atom_site_fract_x
_atom_site_fract_y
_atom_site_fract_z
Si Si1 0.816473 0.199117 0.793110
Si Si2 0.316440 0.300259 0.168441
Si Si3 0.683721 0.299779 0.402577
Si Si4 0.181981 0.356821 0.984552
Si Si5 0.181391 0.551674 0.682714
Si Si6 0.316038 0.639850 0.592178
Si Si7 0.317732 0.447977 0.908782
O O1 0.750000 0.250000 0.790849
O O2 0.750055 0.171402 0.888934
O O3 0.777897 0.171982 0.689109
O O4 0.000000 0.201072 0.801849
O O5 0.500000 0.299164 0.159541
O O6 0.250000 0.250000 0.147339
O O7 0.275188 0.311739 0.285884
O O8 0.247198 0.334815 0.087376
O O9 0.500000 0.296804 0.407235
O O10 0.750000 0.250000 0.425308
O O11 0.733334 0.335506 0.488161
O O12 0.235446 0.408834 0.972108
O O13 0.000000 0.353655 0.982192
O O14 0.211800 0.500000 0.646838
O O15 0.240539 0.591027 0.609327
O O16 0.265165 0.557433 0.791368
O O17 0.000000 0.556292 0.699173
O O18 0.500000 0.634746 0.591057
O O19 0.500000 0.441922 0.914485
O O20 0.280442 0.500000 0.939094
#
# Coordination Sequence:
#
# PCOD9348856 Si02
#       7
#     8   8   8   8   8   8   8
#     4  11  22  34  49  73 107 142 174 209 257 314
#     4  10  20  36  56  77 105 138 180 224 264 311
#     4   9  19  35  55  79 104 137 179 221 261 308
#     4  12  23  35  53  77 107 139 176 216 262 314
#     4  10  20  33  51  77 107 139 176 215 257 309
#     4  10  20  34  53  77 106 139 175 214 261 314
#     4  10  20  35  55  78 105 137 173 214 262 315
#
# _framework density 16.626583
#
# number of rings (size 3 to 8) (size 9 to 14) (size 15 to 20)
#    0.000    1.714    1.429    3.857    0.000    3.429 
#    0.000    0.000    0.000    0.857    0.000    2.000 
#    0.000    0.000    0.000    0.000    0.000    0.000 
#
# Total GULP energy -156379.602174 kJ/mol
# GULP energy per Si atom -5584.985792 kJ/mol
# Density = 1.658874 g / cm^3
# Si number density = 16.626583 Si / 1000 Ang^3
#
#
#
# Elastic Constant Matrix: (Units=GPa)
#
#
# Indices 1 2 3 4 5 6 
#
# 1 63.9703 56.1543 45.7945 0.0000 0.0000 0.0000
# 2 56.1543 141.3646 85.3166 0.0000 0.0000 0.0000
# 3 45.7945 85.3166 104.6444 0.0000 0.0000 0.0000
# 4 0.0000 0.0000 0.0000 22.6601 0.0000 0.0000
# 5 0.0000 0.0000 0.0000 0.0000 13.1199 0.0000
# 6 0.0000 0.0000 0.0000 0.0000 0.0000 33.3793
#
#
#
# Elastic Compliance Matrix: (Units=1/GPa)
#
#
# Indices 1 2 3 4 5 6 
#
# 1 0.025642 -0.006720 -0.005743 0.000000 0.000000 0.000000
# 2 -0.006720 0.015688 -0.009849 0.000000 0.000000 0.000000
# 3 -0.005743 -0.009849 0.020099 0.000000 0.000000 0.000000
# 4 0.000000 0.000000 0.000000 0.044130 0.000000 0.000000
# 5 0.000000 0.000000 0.000000 0.000000 0.076220 0.000000
# 6 0.000000 0.000000 0.000000 0.000000 0.000000 0.029959
#
#
# Mechanical properties :
#
#
# Convention : Reuss Voigt Hill
#
# Bulk Modulus (GPa) = 59.50532 76.05668 67.78100
# Shear Modulus (GPa) = 19.08658 22.01278 20.54968
#
# Velocity S-wave (km/s) = 3.39182 3.64256 3.51943
# Velocity P-wave (km/s) = 7.15585 7.97084 7.57432
#
# Compressibility (1/GPa) = 0.01680522
#
# Stress axis : x y z
#
# Youngs Moduli (GPa) = 38.99808 63.74480 49.75275
#
# Poissons Ratio (x) = 0.42837 0.28572
# Poissons Ratio (y) = 0.26207 0.49003
# Poissons Ratio (z) = 0.22395 0.62784
#
# Static dielectric constant tensor:
#      x y z
#    x 1.554840 0.000000 0.000000 
#    y 0.000000 1.548250 0.000000 
#    z 0.000000 0.000000 1.544540 
# 
# From -- ./inp_files/16111.got.cif
#   From: 2010.05.17/outbox.cif.g08.bks.cpg/sg35_9_cif.got.tgz:16111.got - 2010.06.03 17:29:28.
