data_PCOD9348034
_publ_section_title
;
Structure prediction by ZEFSAII (Michael W. Deem and Ramdas Pophale) SiO2 
 PCOD9348034
Probable space group: P N N 2
;
_chemical_formula_sum "Si O2"
_cell_formula_units_Z 20
_cell_length_a 9.071168
_cell_length_b 16.392892
_cell_length_c 5.126327
_cell_angle_alpha 90.000000
_cell_angle_beta 90.000000
_cell_angle_gamma 90.000000
_cell_volume 762.298550
_symmetry_space_group_name_H-M "P N N 2"
_symmetry_group_IT_number 34
_symmetry_cell_setting 'orthorhombic'
loop_
_space_group_symop_operation_xyz
x,y,z
-x,-y,z
1/2-x,1/2+y,1/2+z
1/2+x,1/2-y,1/2+z
loop_
_atom_site_type_symbol
_atom_site_label
_atom_site_fract_x
_atom_site_fract_y
_atom_site_fract_z
Si Si1 0.182309 0.995864 0.291910
Si Si2 0.382959 0.771910 0.856171
Si Si3 0.095587 0.583094 0.166888
Si Si4 0.669828 0.599242 0.288553
Si Si5 0.122200 0.167767 0.864536
O O1 0.212330 0.924444 0.499884
O O2 0.298543 0.063466 0.409680
O O3 0.227645 0.961185 0.010683
O O4 0.000000 0.000000 0.293820
O O5 0.475414 0.845436 0.724228
O O6 0.219460 0.809407 0.852177
O O7 0.401652 0.698630 0.655613
O O8 0.403012 0.738378 0.148340
O O9 0.221922 0.624500 0.343924
O O10 0.000000 0.500000 0.204548
O O11 0.494873 0.598559 0.301233
#
# Coordination Sequence:
#
# PCOD9348034 Si02
#       5
#     4   4   4   4   4
#     4  12  26  48  76 112 153 202 259 333 395 462
#     4  12  27  51  77 118 162 213 269 332 410 488
#     4  12  28  52  84 124 157 211 276 345 394 484
#     4  12  25  48  76 109 158 204 259 328 403 469
#     4  12  27  51  78 115 165 218 265 325 417 491
#
# _framework density 26.236440999999999
#
# number of rings (size 3 to 8) (size 9 to 14) (size 15 to 20)
#    0.000    0.000    4.000    5.400    0.000    1.600 
#    0.000    0.000    0.000    0.000    0.000    0.000 
#    0.000    0.000    0.000    0.000    0.000    0.000 
#
# Total GULP energy -111600.037889 kJ/mol
# GULP energy per Si atom -5580.001894 kJ/mol
# Density = 2.617673 g / cm^3
# Si number density = 26.236441 Si / 1000 Ang^3
#
#
#
# Elastic Constant Matrix: (Units=GPa)
#
#
# Indices 1 2 3 4 5 6 
#
# 1 139.5429 24.6284 13.1043 0.0000 0.0000 0.0000
# 2 24.6284 91.5632 18.1102 0.0000 0.0000 0.0000
# 3 13.1043 18.1102 64.3124 0.0000 0.0000 0.0000
# 4 0.0000 0.0000 0.0000 33.2545 0.0000 0.0000
# 5 0.0000 0.0000 0.0000 0.0000 26.2833 0.0000
# 6 0.0000 0.0000 0.0000 0.0000 0.0000 59.3912
#
#
#
# Elastic Compliance Matrix: (Units=1/GPa)
#
#
# Indices 1 2 3 4 5 6 
#
# 1 0.007587 -0.001837 -0.001029 0.000000 0.000000 0.000000
# 2 -0.001837 0.012011 -0.003008 0.000000 0.000000 0.000000
# 3 -0.001029 -0.003008 0.016606 0.000000 0.000000 0.000000
# 4 0.000000 0.000000 0.000000 0.030071 0.000000 0.000000
# 5 0.000000 0.000000 0.000000 0.000000 0.038047 0.000000
# 6 0.000000 0.000000 0.000000 0.000000 0.000000 0.016838
#
#
# Mechanical properties :
#
#
# Convention : Reuss Voigt Hill
#
# Bulk Modulus (GPa) = 40.88976 45.23380 43.06178
# Shear Modulus (GPa) = 35.44634 39.75749 37.60191
#
# Velocity S-wave (km/s) = 3.67963 3.89698 3.78986
# Velocity P-wave (km/s) = 5.80274 6.12592 5.96652
#
# Compressibility (1/GPa) = 0.02445600
#
# Stress axis : x y z
#
# Youngs Moduli (GPa) = 131.80227 83.26033 60.22047
#
# Poissons Ratio (x) = 0.15298 0.06194
# Poissons Ratio (y) = 0.24216 0.18113
# Poissons Ratio (z) = 0.13557 0.25043
#
# Static dielectric constant tensor:
#      x y z
#    x 2.093720 0.000000 0.000000 
#    y 0.000000 2.135640 0.000000 
#    z 0.000000 0.000000 2.010450 
# 
# From -- ./inp_files/416.got.cif
#   From: 2010.05.17/outbox.cif.g08.bks.cpg/sg34_1_cif.got.tgz:416.got - 2010.06.03 17:23:11.
