data_PCOD9348976
_publ_section_title
;
Structure prediction by ZEFSAII (Michael W. Deem and Ramdas Pophale) SiO2 
 PCOD9348976
Probable space group: C M M 2
;
_chemical_formula_sum "Si O2"
_cell_formula_units_Z 48
_cell_length_a 19.100269
_cell_length_b 8.955307
_cell_length_c 15.743960
_cell_angle_alpha 90.000000
_cell_angle_beta 90.000000
_cell_angle_gamma 90.000000
_cell_volume 2692.985035
_symmetry_space_group_name_H-M "C M M 2"
_symmetry_group_IT_number 35
_symmetry_cell_setting 'orthorhombic'
loop_
_space_group_symop_operation_xyz
x,y,z
-x,-y,z
-x,y,z
x,-y,z
1/2+x,1/2+y,z
1/2-x,1/2-y,z
1/2-x,1/2+y,z
1/2+x,1/2-y,z
loop_
_atom_site_type_symbol
_atom_site_label
_atom_site_fract_x
_atom_site_fract_y
_atom_site_fract_z
Si Si1 0.173320 0.180353 0.095890
Si Si2 0.919325 0.182002 0.255473
Si Si3 0.825342 0.322363 0.589843
Si Si4 0.673792 0.178846 0.785225
Si Si5 0.081613 0.820170 0.930788
Si Si6 0.416061 0.325009 0.445948
O O1 0.250000 0.250000 0.089715
O O2 0.132724 0.229345 0.181216
O O3 0.179162 0.000000 0.097826
O O4 0.125734 0.219960 0.014720
O O5 0.897455 0.228046 0.350538
O O6 0.000000 0.228799 0.239838
O O7 0.920320 0.000000 0.255948
O O8 0.819470 0.500000 0.584921
O O9 0.750000 0.250000 0.572845
O O10 0.844707 0.283684 0.687331
O O11 0.879399 0.263655 0.520711
O O12 0.750000 0.250000 0.803088
O O13 0.617674 0.243555 0.850340
O O14 0.678554 0.000000 0.793104
O O15 0.000000 0.779792 0.939586
O O16 0.085478 0.000000 0.921285
O O17 0.500000 0.314775 0.452030
O O18 0.396976 0.500000 0.453099
#
# Coordination Sequence:
#
# PCOD9348976 Si02
#       6
#     8   8   8   8   8   8
#     4  10  20  34  53  77 105 136 171 211 255 305
#     4   8  15  31  54  76 100 134 174 212 251 300
#     4  10  21  36  54  76 104 138 175 215 260 309
#     4  10  21  37  56  77 103 137 174 214 261 310
#     4  10  21  36  55  79 105 136 174 214 257 306
#     4   9  18  33  54  79 106 138 175 214 258 307
#
# _framework density 17.824086000000001
#
# number of rings (size 3 to 8) (size 9 to 14) (size 15 to 20)
#    0.000    2.500    0.000    3.000    0.000    8.000 
#    0.000    5.833    0.000    2.500    0.000    0.000 
#    0.000    0.000    0.000    0.000    0.000    0.000 
#
# Total GULP energy -133914.777999 kJ/mol
# GULP energy per Si atom -5579.782417 kJ/mol
# Density = 1.778352 g / cm^3
# Si number density = 17.824086 Si / 1000 Ang^3
#
#
#
# Elastic Constant Matrix: (Units=GPa)
#
#
# Indices 1 2 3 4 5 6 
#
# 1 122.5490 40.7837 100.3607 0.0000 0.0000 0.0000
# 2 40.7837 28.1031 48.5183 0.0000 0.0000 0.0000
# 3 100.3607 48.5183 142.5292 0.0000 0.0000 0.0000
# 4 0.0000 0.0000 0.0000 9.6280 0.0000 0.0000
# 5 0.0000 0.0000 0.0000 0.0000 39.8454 0.0000
# 6 0.0000 0.0000 0.0000 0.0000 0.0000 32.2219
#
#
#
# Elastic Compliance Matrix: (Units=1/GPa)
#
#
# Indices 1 2 3 4 5 6 
#
# 1 0.020791 -0.011878 -0.010596 0.000000 0.000000 0.000000
# 2 -0.011878 0.093090 -0.023325 0.000000 0.000000 0.000000
# 3 -0.010596 -0.023325 0.022417 0.000000 0.000000 0.000000
# 4 0.000000 0.000000 0.000000 0.103864 0.000000 0.000000
# 5 0.000000 0.000000 0.000000 0.000000 0.025097 0.000000
# 6 0.000000 0.000000 0.000000 0.000000 0.000000 0.031035
#
#
# Mechanical properties :
#
#
# Convention : Reuss Voigt Hill
#
# Bulk Modulus (GPa) = 22.37158 74.72298 48.54728
# Shear Modulus (GPa) = 12.41337 23.24028 17.82683
#
# Velocity S-wave (km/s) = 2.64187 3.61483 3.16595
# Velocity P-wave (km/s) = 4.67809 7.70948 6.37655
#
# Compressibility (1/GPa) = 0.04469958
#
# Stress axis : x y z
#
# Youngs Moduli (GPa) = 48.09868 10.74232 44.60859
#
# Poissons Ratio (x) = 0.12760 0.47268
# Poissons Ratio (y) = 0.57133 1.04048
# Poissons Ratio (z) = 0.50966 0.25056
#
# Static dielectric constant tensor:
#      x y z
#    x 1.575370 0.000000 0.000000 
#    y 0.000000 1.599550 0.000000 
#    z 0.000000 0.000000 1.610220 
# 
# From -- ./inp_files/15083.got.cif
#   From: 2010.05.17/outbox.cif.g08.bks.cpg/sg35_8_cif.got.tgz:15083.got - 2010.06.03 17:29:28.
