data_PCOD9348447
_publ_section_title
;
Structure prediction by ZEFSAII (Michael W. Deem and Ramdas Pophale) SiO2 
 PCOD9348447
Probable space group: C M M 2
;
_chemical_formula_sum "Si O2"
_cell_formula_units_Z 48
_cell_length_a 9.178561
_cell_length_b 15.534406
_cell_length_c 17.502962
_cell_angle_alpha 90.000000
_cell_angle_beta 90.000000
_cell_angle_gamma 90.000000
_cell_volume 2495.633461
_symmetry_space_group_name_H-M "C M M 2"
_symmetry_group_IT_number 35
_symmetry_cell_setting 'orthorhombic'
loop_
_space_group_symop_operation_xyz
x,y,z
-x,-y,z
-x,y,z
x,-y,z
1/2+x,1/2+y,z
1/2-x,1/2-y,z
1/2-x,1/2+y,z
1/2+x,1/2-y,z
loop_
_atom_site_type_symbol
_atom_site_label
_atom_site_fract_x
_atom_site_fract_y
_atom_site_fract_z
Si Si1 0.331804 0.605010 0.106690
Si Si2 0.672163 0.396217 0.935290
Si Si3 0.673947 0.836312 0.783777
Si Si4 0.668212 0.895437 0.258298
Si Si5 0.174540 0.500000 0.680055
Si Si6 0.174399 0.000000 0.516753
Si Si7 0.674296 0.662456 0.410970
O O1 0.500000 0.630772 0.119416
O O2 0.330637 0.500000 0.106103
O O3 0.230798 0.632844 0.176319
O O4 0.286438 0.631594 0.021295
O O5 0.500000 0.377267 0.924680
O O6 0.688282 0.500000 0.931020
O O7 0.766189 0.355164 0.868579
O O8 0.500000 0.827469 0.785413
O O9 0.750000 0.750000 0.755157
O O10 0.713448 0.916361 0.729836
O O11 0.500000 0.869837 0.267633
O O12 0.764628 0.859530 0.327031
O O13 0.675350 0.000000 0.260944
O O14 0.249611 0.500000 0.598289
O O15 0.000000 0.500000 0.670208
O O16 0.212670 0.083879 0.466985
O O17 0.000000 0.000000 0.527009
O O18 0.500000 0.671094 0.408460
O O19 0.750000 0.750000 0.437258
#
# Coordination Sequence:
#
# PCOD9348447 Si02
#       7
#     8   8   8   8   4   4   8
#     4   8  15  28  49  79 115 156 202 249 297 347
#     4   9  17  32  56  85 117 158 203 247 298 352
#     4  11  23  40  61  90 123 159 200 245 297 353
#     4  10  19  32  54  85 119 159 204 247 296 350
#     4  10  24  44  66  91 122 155 192 241 298 355
#     4  10  24  44  68  93 120 155 194 237 296 361
#     4  11  23  41  63  91 123 158 199 244 296 354
#
# _framework density 19.233594
#
# number of rings (size 3 to 8) (size 9 to 14) (size 15 to 20)
#    0.000    2.167    1.667    2.500    0.000    4.667 
#    0.000    5.833    0.000    4.000    0.000    0.000 
#    0.000    0.000    0.000    0.000    0.000    0.000 
#
# Total GULP energy -134080.696138 kJ/mol
# GULP energy per Si atom -5586.695672 kJ/mol
# Density = 1.918982 g / cm^3
# Si number density = 19.233594 Si / 1000 Ang^3
#
#
#
# Elastic Constant Matrix: (Units=GPa)
#
#
# Indices 1 2 3 4 5 6 
#
# 1 77.0016 61.8637 69.0253 0.0000 0.0000 0.0000
# 2 61.8637 115.6375 71.7442 0.0000 0.0000 0.0000
# 3 69.0253 71.7442 150.1596 0.0000 0.0000 0.0000
# 4 0.0000 0.0000 0.0000 -9.3287 0.0000 0.0000
# 5 0.0000 0.0000 0.0000 0.0000 38.3485 0.0000
# 6 0.0000 0.0000 0.0000 0.0000 0.0000 27.4780
#
#
#
# Elastic Compliance Matrix: (Units=1/GPa)
#
#
# Indices 1 2 3 4 5 6 
#
# 1 0.028557 -0.010138 -0.008283 0.000000 0.000000 0.000000
# 2 -0.010138 0.015891 -0.002932 0.000000 0.000000 0.000000
# 3 -0.008283 -0.002932 0.011868 0.000000 0.000000 0.000000
# 4 0.000000 0.000000 0.000000 -0.107196 0.000000 0.000000
# 5 0.000000 0.000000 0.000000 0.000000 0.026077 0.000000
# 6 0.000000 0.000000 0.000000 0.000000 0.000000 0.036393
#
#
# Mechanical properties :
#
#
# Convention : Reuss Voigt Hill
#
# Bulk Modulus (GPa) = 73.48176 83.11835 78.30006
# Shear Modulus (GPa) = 84.98748 20.64393 52.81571
#
# Velocity S-wave (km/s) = 6.65454 3.27972 5.24593
# Velocity P-wave (km/s) = 9.86569 7.59283 8.80292
#
# Compressibility (1/GPa) = 0.01360882
#
# Stress axis : x y z
#
# Youngs Moduli (GPa) = 35.01743 62.93032 84.26043
#
# Poissons Ratio (x) = 0.63802 0.69794
# Poissons Ratio (y) = 0.35502 0.24704
# Poissons Ratio (z) = 0.29005 0.18450
#
# Static dielectric constant tensor:
#      x y z
#    x 1.637210 0.000000 0.000000 
#    y 0.000000 1.700550 0.000000 
#    z 0.000000 0.000000 1.638140 
# 
# From -- ./inp_files/17940.got.cif
#   From: 2010.05.17/outbox.cif.g08.bks.cpg/sg35_9_cif.got.tgz:17940.got - 2010.06.03 17:29:28.
