data_PCOD9348889
_publ_section_title
;
Structure prediction by ZEFSAII (Michael W. Deem and Ramdas Pophale) SiO2 
 PCOD9348889
Probable space group: C M M 2
;
_chemical_formula_sum "Si O2"
_cell_formula_units_Z 40
_cell_length_a 17.992366
_cell_length_b 7.460655
_cell_length_c 15.343277
_cell_angle_alpha 90.000000
_cell_angle_beta 90.000000
_cell_angle_gamma 90.000000
_cell_volume 2059.602262
_symmetry_space_group_name_H-M "C M M 2"
_symmetry_group_IT_number 35
_symmetry_cell_setting 'orthorhombic'
loop_
_space_group_symop_operation_xyz
x,y,z
-x,-y,z
-x,y,z
x,-y,z
1/2+x,1/2+y,z
1/2-x,1/2-y,z
1/2-x,1/2+y,z
1/2+x,1/2-y,z
loop_
_atom_site_type_symbol
_atom_site_label
_atom_site_fract_x
_atom_site_fract_y
_atom_site_fract_z
Si Si1 0.085492 0.218389 0.365990
Si Si2 0.910753 0.210339 0.010035
Si Si3 0.090151 0.500000 0.870292
Si Si4 0.162362 0.212374 0.546557
Si Si5 0.837303 0.214106 0.189252
Si Si6 0.410555 0.000000 0.670013
O O1 0.131058 0.269321 0.451890
O O2 0.122722 0.282506 0.276416
O O3 0.000000 0.275606 0.372319
O O4 0.085942 0.000000 0.363896
O O5 0.887552 0.327400 0.927094
O O6 0.000000 0.226493 0.020784
O O7 0.893700 0.000000 0.997617
O O8 0.872317 0.278192 0.098521
O O9 0.114936 0.500000 0.770625
O O10 0.000000 0.500000 0.867577
O O11 0.250000 0.250000 0.550104
O O12 0.120840 0.327622 0.619449
O O13 0.149152 0.000000 0.557167
O O14 0.750000 0.250000 0.192998
O O15 0.848907 0.000000 0.188579
O O16 0.500000 0.000000 0.666860
#
# Coordination Sequence:
#
# PCOD9348889 Si02
#       6
#     8   8   4   8   8   4
#     4   9  18  34  57  86 117 155 200 243 291 352
#     4   9  18  35  59  83 110 150 195 238 289 348
#     4   9  20  38  61  87 115 145 189 251 302 346
#     4  11  22  40  65  89 126 165 204 249 312 369
#     4  10  20  33  53  79 117 154 191 234 290 348
#     4  11  24  42  65  95 124 155 207 265 311 368
#
# _framework density 19.421223999999999
#
# number of rings (size 3 to 8) (size 9 to 14) (size 15 to 20)
#    0.000    2.200    1.000    1.800    1.400    4.400 
#    1.800    3.000    0.000    0.000    0.000    0.000 
#    0.000    0.000    0.000    0.000    0.000    0.000 
#
# Total GULP energy -111713.755049 kJ/mol
# GULP energy per Si atom -5585.687752 kJ/mol
# Density = 1.937702 g / cm^3
# Si number density = 19.421224 Si / 1000 Ang^3
#
#
#
# Elastic Constant Matrix: (Units=GPa)
#
#
# Indices 1 2 3 4 5 6 
#
# 1 103.0793 30.1777 78.2588 0.0000 0.0000 0.0000
# 2 30.1777 99.5428 71.2977 0.0000 0.0000 0.0000
# 3 78.2588 71.2977 217.8703 0.0000 0.0000 0.0000
# 4 0.0000 0.0000 0.0000 14.0601 0.0000 0.0000
# 5 0.0000 0.0000 0.0000 0.0000 -26.3041 0.0000
# 6 0.0000 0.0000 0.0000 0.0000 0.0000 11.7564
#
#
#
# Elastic Compliance Matrix: (Units=1/GPa)
#
#
# Indices 1 2 3 4 5 6 
#
# 1 0.013388 -0.000802 -0.004546 0.000000 0.000000 0.000000
# 2 -0.000802 0.013170 -0.004022 0.000000 0.000000 0.000000
# 3 -0.004546 -0.004022 0.007539 0.000000 0.000000 0.000000
# 4 0.000000 0.000000 0.000000 0.071123 0.000000 0.000000
# 5 0.000000 0.000000 0.000000 0.000000 -0.038017 0.000000
# 6 0.000000 0.000000 0.000000 0.000000 0.000000 0.085060
#
#
# Mechanical properties :
#
#
# Convention : Reuss Voigt Hill
#
# Bulk Modulus (GPa) = 65.12145 86.66233 75.89189
# Shear Modulus (GPa) = 28.38947 15.95302 22.17125
#
# Velocity S-wave (km/s) = 3.82747 2.86916 3.38242
# Velocity P-wave (km/s) = 7.28948 7.46294 7.37672
#
# Compressibility (1/GPa) = 0.01535592
#
# Stress axis : x y z
#
# Youngs Moduli (GPa) = 74.69503 75.93238 132.64450
#
# Poissons Ratio (x) = 0.06093 0.60304
# Poissons Ratio (y) = 0.05993 0.53343
# Poissons Ratio (z) = 0.33959 0.30536
#
# Static dielectric constant tensor:
#      x y z
#    x 1.647330 0.000000 0.000000 
#    y 0.000000 1.714800 0.000000 
#    z 0.000000 0.000000 1.652740 
# 
# From -- ./inp_files/14761.got.cif
#   From: 2010.05.17/outbox.cif.g08.bks.cpg/sg35_8_cif.got.tgz:14761.got - 2010.06.03 17:29:28.
