data_PCOD9348813
_publ_section_title
;
Structure prediction by ZEFSAII (Michael W. Deem and Ramdas Pophale) SiO2 
 PCOD9348813
Probable space group: C M M 2
;
_chemical_formula_sum "Si O2"
_cell_formula_units_Z 64
_cell_length_a 29.053456
_cell_length_b 8.749349
_cell_length_c 15.850727
_cell_angle_alpha 90.000000
_cell_angle_beta 90.000000
_cell_angle_gamma 90.000000
_cell_volume 4029.236198
_symmetry_space_group_name_H-M "C M M 2"
_symmetry_group_IT_number 35
_symmetry_cell_setting 'orthorhombic'
loop_
_space_group_symop_operation_xyz
x,y,z
-x,-y,z
-x,y,z
x,-y,z
1/2+x,1/2+y,z
1/2-x,1/2-y,z
1/2-x,1/2+y,z
1/2+x,1/2-y,z
loop_
_atom_site_type_symbol
_atom_site_label
_atom_site_fract_x
_atom_site_fract_y
_atom_site_fract_z
Si Si1 0.946098 0.685048 0.494900
Si Si2 0.609760 0.682840 0.650765
Si Si3 0.944195 0.676061 0.306948
Si Si4 0.700985 0.682439 0.910027
Si Si5 0.945557 0.819144 0.130893
Si Si6 0.054112 0.183103 0.821341
Si Si7 0.109957 0.680687 0.977331
Si Si8 0.200799 0.317257 0.722238
O O1 0.943808 0.500000 0.498957
O O2 0.915914 0.758389 0.567833
O O3 0.930225 0.729777 0.400312
O O4 0.000000 0.727704 0.505446
O O5 0.615274 0.500000 0.648197
O O6 0.578620 0.720181 0.732921
O O7 0.658902 0.761791 0.664748
O O8 0.929422 0.500000 0.294977
O O9 0.931125 0.774254 0.225832
O O10 0.000000 0.674999 0.309893
O O11 0.703378 0.500000 0.904227
O O12 0.750000 0.750000 0.938249
O O13 0.658710 0.734846 0.967299
O O14 0.692429 0.750145 0.816237
O O15 0.000000 0.781103 0.121812
O O16 0.940664 0.000000 0.117593
O O17 0.916388 0.730164 0.061661
O O18 0.078973 0.267830 0.897820
O O19 0.000000 0.219199 0.818156
O O20 0.058842 0.000000 0.834933
O O21 0.117128 0.500000 0.974901
O O22 0.202907 0.500000 0.726803
O O23 0.250000 0.250000 0.694532
#
# Coordination Sequence:
#
# PCOD9348813 Si02
#       8
#     8   8   8   8   8   8   8   8
#     4   9  18  32  50  73 103 137 172 211 253 299
#     4  11  21  33  50  73 101 136 172 209 251 298
#     4   8  15  30  50  71  97 130 168 211 255 297
#     4  11  21  36  55  75  99 128 164 209 255 299
#     4  10  20  33  50  73 102 135 170 211 256 301
#     4  10  21  35  48  65  97 138 174 209 247 289
#     4  12  23  34  50  73  99 134 173 208 249 300
#     4  11  21  35  54  75  98 128 166 210 256 301
#
# _framework density 15.883903
#
# number of rings (size 3 to 8) (size 9 to 14) (size 15 to 20)
#    0.000    1.750    1.250    6.375    0.000    4.250 
#    0.000    1.250    0.000    0.000    0.000    0.875 
#    0.000    6.000    0.000    0.000    0.000    0.000 
#
# Total GULP energy -178666.218443 kJ/mol
# GULP energy per Si atom -5583.319326 kJ/mol
# Density = 1.584775 g / cm^3
# Si number density = 15.883903 Si / 1000 Ang^3
#
#
#
# Elastic Constant Matrix: (Units=GPa)
#
#
# Indices 1 2 3 4 5 6 
#
# 1 95.6552 51.6141 49.7581 0.0000 0.0000 0.0000
# 2 51.6141 91.0324 47.9594 0.0000 0.0000 0.0000
# 3 49.7581 47.9594 102.5524 0.0000 0.0000 0.0000
# 4 0.0000 0.0000 0.0000 27.2871 0.0000 0.0000
# 5 0.0000 0.0000 0.0000 0.0000 5.2195 0.0000
# 6 0.0000 0.0000 0.0000 0.0000 0.0000 23.8420
#
#
#
# Elastic Compliance Matrix: (Units=1/GPa)
#
#
# Indices 1 2 3 4 5 6 
#
# 1 0.016722 -0.006909 -0.004882 0.000000 0.000000 0.000000
# 2 -0.006909 0.017431 -0.004800 0.000000 0.000000 0.000000
# 3 -0.004882 -0.004800 0.014365 0.000000 0.000000 0.000000
# 4 0.000000 0.000000 0.000000 0.036647 0.000000 0.000000
# 5 0.000000 0.000000 0.000000 0.000000 0.191590 0.000000
# 6 0.000000 0.000000 0.000000 0.000000 0.000000 0.041943
#
#
# Mechanical properties :
#
#
# Convention : Reuss Voigt Hill
#
# Bulk Modulus (GPa) = 65.20711 65.32259 65.26485
# Shear Modulus (GPa) = 14.00593 20.59693 17.30143
#
# Velocity S-wave (km/s) = 2.97268 3.60490 3.30395
# Velocity P-wave (km/s) = 7.27488 7.65124 7.46543
#
# Compressibility (1/GPa) = 0.01533575
#
# Stress axis : x y z
#
# Youngs Moduli (GPa) = 59.80191 57.36939 69.61552
#
# Poissons Ratio (x) = 0.39635 0.33989
# Poissons Ratio (y) = 0.41316 0.33412
# Poissons Ratio (z) = 0.29198 0.27535
#
# Static dielectric constant tensor:
#      x y z
#    x 1.520910 0.000000 0.000000 
#    y 0.000000 1.535110 0.000000 
#    z 0.000000 0.000000 1.519170 
# 
# From -- ./inp_files/17726.got.cif
#   From: 2010.05.17/outbox.cif.g08.bks.cpg/sg35_9_cif.got.tgz:17726.got - 2010.06.03 17:29:28.
