data_PCOD9348140
_publ_section_title
;
Structure prediction by ZEFSAII (Michael W. Deem and Ramdas Pophale) SiO2 
 PCOD9348140
Probable space group: C M M 2
;
_chemical_formula_sum "Si O2"
_cell_formula_units_Z 32
_cell_length_a 17.986758
_cell_length_b 10.109082
_cell_length_c 10.504667
_cell_angle_alpha 90.000000
_cell_angle_beta 90.000000
_cell_angle_gamma 90.000000
_cell_volume 1910.059520
_symmetry_space_group_name_H-M "C M M 2"
_symmetry_group_IT_number 35
_symmetry_cell_setting 'orthorhombic'
loop_
_space_group_symop_operation_xyz
x,y,z
-x,-y,z
-x,y,z
x,-y,z
1/2+x,1/2+y,z
1/2-x,1/2-y,z
1/2-x,1/2+y,z
1/2+x,1/2-y,z
loop_
_atom_site_type_symbol
_atom_site_label
_atom_site_fract_x
_atom_site_fract_y
_atom_site_fract_z
Si Si1 0.315170 0.000000 0.706300
Si Si2 0.413416 0.223117 0.831820
Si Si3 0.816064 0.656542 0.056475
Si Si4 0.646121 0.500000 0.736573
Si Si5 0.250000 0.250000 0.304144
Si Si6 0.216971 0.000000 0.473510
O O1 0.361888 0.126391 0.748286
O O2 0.233899 0.000000 0.772806
O O3 0.292401 0.000000 0.558688
O O4 0.500000 0.195314 0.813995
O O5 0.393501 0.371026 0.790254
O O6 0.388499 0.194820 0.977023
O O7 0.802268 0.500000 0.044060
O O8 0.750000 0.750000 0.001413
O O9 0.811986 0.693456 0.205793
O O10 0.653056 0.500000 0.582012
O O11 0.281698 0.368780 0.388599
#
# Coordination Sequence:
#
# PCOD9348140 Si02
#       6
#     4   8   8   4   4   4
#     4  10  21  36  61  84 117 149 192 240 282 332
#     4  12  23  37  57  89 123 150 184 236 300 348
#     4  10  21  35  59  86 117 147 193 240 286 338
#     4  10  23  38  59  86 119 151 194 238 282 340
#     4  10  18  34  56  92 108 146 196 248 274 320
#     4  10  20  34  60  86 110 144 204 244 264 328
#
# _framework density 16.753405999999998
#
# number of rings (size 3 to 8) (size 9 to 14) (size 15 to 20)
#    1.500    0.000    2.500    4.500    1.750    0.000 
#    0.000    0.000    0.000    9.000    0.000    0.000 
#    0.000    0.000    0.000    0.000    0.000    0.000 
#
# Total GULP energy -89088.150061 kJ/mol
# GULP energy per Si atom -5568.009379 kJ/mol
# Density = 1.671527 g / cm^3
# Si number density = 16.753406 Si / 1000 Ang^3
#
#
#
# Elastic Constant Matrix: (Units=GPa)
#
#
# Indices 1 2 3 4 5 6 
#
# 1 52.0150 -20.4361 4.6571 0.0000 0.0000 0.0000
# 2 -20.4361 88.5769 30.8881 0.0000 0.0000 0.0000
# 3 4.6571 30.8881 101.0459 0.0000 0.0000 0.0000
# 4 0.0000 0.0000 0.0000 18.6244 0.0000 0.0000
# 5 0.0000 0.0000 0.0000 0.0000 4.9120 0.0000
# 6 0.0000 0.0000 0.0000 0.0000 0.0000 8.2792
#
#
#
# Elastic Compliance Matrix: (Units=1/GPa)
#
#
# Indices 1 2 3 4 5 6 
#
# 1 0.021852 0.006036 -0.002852 0.000000 0.000000 0.000000
# 2 0.006036 0.014304 -0.004651 0.000000 0.000000 0.000000
# 3 -0.002852 -0.004651 0.011450 0.000000 0.000000 0.000000
# 4 0.000000 0.000000 0.000000 0.053693 0.000000 0.000000
# 5 0.000000 0.000000 0.000000 0.000000 0.203583 0.000000
# 6 0.000000 0.000000 0.000000 0.000000 0.000000 0.120785
#
#
# Mechanical properties :
#
#
# Convention : Reuss Voigt Hill
#
# Bulk Modulus (GPa) = 22.38523 30.20623 26.29573
# Shear Modulus (GPa) = 11.27420 21.46503 16.36962
#
# Velocity S-wave (km/s) = 2.59694 3.58332 3.12924
# Velocity P-wave (km/s) = 4.73104 5.93205 5.36526
#
# Compressibility (1/GPa) = 0.04467231
#
# Stress axis : x y z
#
# Youngs Moduli (GPa) = 45.76200 69.91019 87.33925
#
# Poissons Ratio (x) = -0.42200 0.24912
# Poissons Ratio (y) = -0.27623 0.40619
# Poissons Ratio (z) = 0.13053 0.32513
#
# Static dielectric constant tensor:
#      x y z
#    x 1.541040 0.000000 0.000000 
#    y 0.000000 1.575200 0.000000 
#    z 0.000000 0.000000 1.595200 
# 
# From -- ./inp_files/13370.got.cif
#   From: 2010.05.17/outbox.cif.g08.bks.cpg/sg35_7_cif.got.tgz:13370.got - 2010.06.03 17:29:28.
