data_PCOD9348274
_publ_section_title
;
Structure prediction by ZEFSAII (Michael W. Deem and Ramdas Pophale) SiO2 
 PCOD9348274
Probable space group: C M M 2
;
_chemical_formula_sum "Si O2"
_cell_formula_units_Z 64
_cell_length_a 30.340761
_cell_length_b 8.432139
_cell_length_c 12.694066
_cell_angle_alpha 90.000000
_cell_angle_beta 90.000000
_cell_angle_gamma 90.000000
_cell_volume 3247.618289
_symmetry_space_group_name_H-M "C M M 2"
_symmetry_group_IT_number 35
_symmetry_cell_setting 'orthorhombic'
loop_
_space_group_symop_operation_xyz
x,y,z
-x,-y,z
-x,y,z
x,-y,z
1/2+x,1/2+y,z
1/2-x,1/2-y,z
1/2-x,1/2+y,z
1/2+x,1/2-y,z
loop_
_atom_site_type_symbol
_atom_site_label
_atom_site_fract_x
_atom_site_fract_y
_atom_site_fract_z
Si Si1 0.587694 0.309973 0.857010
Si Si2 0.203434 0.311011 0.144588
Si Si3 0.682933 0.812233 0.908632
Si Si4 0.048183 0.688647 0.053372
Si Si5 0.948793 0.194241 0.418380
Si Si6 0.387261 0.687578 0.225474
Si Si7 0.893813 0.807503 0.621731
Si Si8 0.703549 0.311816 0.679424
O O1 0.593503 0.500000 0.864499
O O2 0.631146 0.222837 0.900053
O O3 0.584167 0.268884 0.734110
O O4 0.550111 0.251827 0.934529
O O5 0.203828 0.500000 0.139500
O O6 0.250000 0.250000 0.186553
O O7 0.161160 0.259435 0.211723
O O8 0.198388 0.251712 0.022892
O O9 0.701671 0.730929 0.803774
O O10 0.691655 0.000000 0.901837
O O11 0.055252 0.500000 0.054931
O O12 0.085550 0.773511 0.120374
O O13 0.000000 0.723268 0.099631
O O14 0.918122 0.246390 0.320954
O O15 0.923484 0.246149 0.524466
O O16 0.000000 0.245541 0.412603
O O17 0.949612 0.000000 0.417411
O O18 0.382163 0.500000 0.237527
O O19 0.842610 0.751742 0.628567
O O20 0.891869 0.000000 0.615419
O O21 0.703322 0.500000 0.669953
O O22 0.750000 0.250000 0.635890
#
# Coordination Sequence:
#
# PCOD9348274 Si02
#       8
#     8   8   8   8   8   8   8   8
#     4  10  19  32  54  83 116 151 188 232 280 339
#     4  11  23  37  56  82 115 154 193 233 284 340
#     4  10  19  32  52  78 113 154 190 228 277 334
#     4  11  23  37  54  79 115 156 192 233 289 347
#     4   9  18  35  60  87 112 143 188 241 293 341
#     4  11  22  37  60  86 114 146 190 244 290 342
#     4   8  17  33  53  81 115 146 180 232 289 340
#     4  10  19  31  50  78 113 152 193 233 279 332
#
# _framework density 19.70675
#
# number of rings (size 3 to 8) (size 9 to 14) (size 15 to 20)
#    0.000    2.000    1.250    3.750    0.000    4.500 
#    0.000    1.875    0.000   10.500    0.000    1.750 
#    0.000    0.000    0.000    0.000    0.000    0.000 
#
# Total GULP energy -178549.668148 kJ/mol
# GULP energy per Si atom -5579.677130 kJ/mol
# Density = 1.966190 g / cm^3
# Si number density = 19.706750 Si / 1000 Ang^3
#
#
#
# Elastic Constant Matrix: (Units=GPa)
#
#
# Indices 1 2 3 4 5 6 
#
# 1 163.3164 18.9225 67.8662 0.0000 0.0000 0.0000
# 2 18.9225 22.5455 5.7672 0.0000 0.0000 0.0000
# 3 67.8662 5.7672 97.5503 0.0000 0.0000 0.0000
# 4 0.0000 0.0000 0.0000 6.0678 0.0000 0.0000
# 5 0.0000 0.0000 0.0000 0.0000 12.2074 0.0000
# 6 0.0000 0.0000 0.0000 0.0000 0.0000 21.9093
#
#
#
# Elastic Compliance Matrix: (Units=1/GPa)
#
#
# Indices 1 2 3 4 5 6 
#
# 1 0.009426 -0.006330 -0.006184 0.000000 0.000000 0.000000
# 2 -0.006330 0.049286 0.001490 0.000000 0.000000 0.000000
# 3 -0.006184 0.001490 0.014465 0.000000 0.000000 0.000000
# 4 0.000000 0.000000 0.000000 0.164804 0.000000 0.000000
# 5 0.000000 0.000000 0.000000 0.000000 0.081918 0.000000
# 6 0.000000 0.000000 0.000000 0.000000 0.000000 0.045643
#
#
# Mechanical properties :
#
#
# Convention : Reuss Voigt Hill
#
# Bulk Modulus (GPa) = 19.55787 52.05820 35.80804
# Shear Modulus (GPa) = 12.35694 20.76067 16.55880
#
# Velocity S-wave (km/s) = 2.50679 3.24926 2.90187
# Velocity P-wave (km/s) = 4.28074 6.36794 5.42565
#
# Compressibility (1/GPa) = 0.05113030
#
# Stress axis : x y z
#
# Youngs Moduli (GPa) = 106.08949 20.28973 69.13260
#
# Poissons Ratio (x) = 0.12842 0.42748
# Poissons Ratio (y) = 0.67149 -0.10299
# Poissons Ratio (z) = 0.65601 -0.03023
#
# Static dielectric constant tensor:
#      x y z
#    x 1.715870 0.000000 0.000000 
#    y 0.000000 1.680420 0.000000 
#    z 0.000000 0.000000 1.697470 
# 
# From -- ./inp_files/14594.got.cif
#   From: 2010.05.17/outbox.cif.g08.bks.cpg/sg35_8_cif.got.tgz:14594.got - 2010.06.03 17:29:28.
