data_PCOD9348126
_publ_section_title
;
Structure prediction by ZEFSAII (Michael W. Deem and Ramdas Pophale) SiO2 
 PCOD9348126
Probable space group: C M M 2
;
_chemical_formula_sum "Si O2"
_cell_formula_units_Z 56
_cell_length_a 8.517277
_cell_length_b 22.522318
_cell_length_c 14.761093
_cell_angle_alpha 90.000000
_cell_angle_beta 90.000000
_cell_angle_gamma 90.000000
_cell_volume 2831.603068
_symmetry_space_group_name_H-M "C M M 2"
_symmetry_group_IT_number 35
_symmetry_cell_setting 'orthorhombic'
loop_
_space_group_symop_operation_xyz
x,y,z
-x,-y,z
-x,y,z
x,-y,z
1/2+x,1/2+y,z
1/2-x,1/2-y,z
1/2-x,1/2+y,z
1/2+x,1/2-y,z
loop_
_atom_site_type_symbol
_atom_site_label
_atom_site_fract_x
_atom_site_fract_y
_atom_site_fract_z
Si Si1 0.189510 0.128517 0.315120
Si Si2 0.190895 0.000000 0.330840
Si Si3 0.191006 0.000000 0.541220
Si Si4 0.184953 0.068881 0.839328
Si Si5 0.812191 0.813830 0.135827
Si Si6 0.189742 0.116464 0.651325
Si Si7 0.185972 0.567480 0.039337
Si Si8 0.314209 0.813985 0.491724
O O1 0.242325 0.062027 0.288195
O O2 0.242620 0.175151 0.239726
O O3 0.247874 0.142004 0.415496
O O4 0.000000 0.129428 0.317295
O O5 0.239662 0.000000 0.436550
O O6 0.000000 0.000000 0.328922
O O7 0.241673 0.941947 0.595721
O O8 0.000000 0.000000 0.540693
O O9 0.238402 0.109356 0.755579
O O10 0.000000 0.080587 0.858022
O O11 0.194247 0.000000 0.808287
O O12 0.279151 0.073979 0.932006
O O13 0.750000 0.750000 0.102449
O O14 0.761065 0.874369 0.085217
O O15 0.000000 0.811371 0.133739
O O16 0.253766 0.169837 0.591606
O O17 0.000000 0.117805 0.650698
O O18 0.244485 0.500000 0.064208
O O19 0.000000 0.568579 0.055859
O O20 0.500000 0.815191 0.489809
O O21 0.250000 0.750000 0.465638
#
# Coordination Sequence:
#
# PCOD9348126 Si02
#       8
#     8   4   4   8   8   8   8   8
#     4  10  21  38  62  88 117 153 193 240 291 349
#     4   9  16  30  56  87 118 151 189 230 280 342
#     4   9  14  26  54  83 112 147 181 220 268 324
#     4   9  17  32  59  91 119 151 194 238 286 350
#     4  11  24  41  65  91 119 156 204 253 302 365
#     4  10  18  33  57  85 116 151 190 233 280 333
#     4  10  22  40  62  90 127 162 194 245 309 364
#     4  12  25  39  55  77 111 155 201 245 289 344
#
# _framework density 19.776783999999999
#
# number of rings (size 3 to 8) (size 9 to 14) (size 15 to 20)
#    0.000    1.857    2.143    2.571    1.000    3.714 
#    0.000    2.143    0.000    3.429    0.000    0.000 
#    0.000    0.000    0.000    0.000    0.000    0.000 
#
# Total GULP energy -156234.524582 kJ/mol
# GULP energy per Si atom -5579.804449 kJ/mol
# Density = 1.973177 g / cm^3
# Si number density = 19.776784 Si / 1000 Ang^3
#
#
#
# Elastic Constant Matrix: (Units=GPa)
#
#
# Indices 1 2 3 4 5 6 
#
# 1 31.6745 24.8141 13.9733 0.0000 0.0000 0.0000
# 2 24.8141 123.2135 37.4227 0.0000 0.0000 0.0000
# 3 13.9733 37.4227 69.6174 0.0000 0.0000 0.0000
# 4 0.0000 0.0000 0.0000 29.1806 0.0000 0.0000
# 5 0.0000 0.0000 0.0000 0.0000 14.0532 0.0000
# 6 0.0000 0.0000 0.0000 0.0000 0.0000 22.1594
#
#
#
# Elastic Compliance Matrix: (Units=1/GPa)
#
#
# Indices 1 2 3 4 5 6 
#
# 1 0.038512 -0.006463 -0.004256 0.000000 0.000000 0.000000
# 2 -0.006463 0.010784 -0.004500 0.000000 0.000000 0.000000
# 3 -0.004256 -0.004500 0.017637 0.000000 0.000000 0.000000
# 4 0.000000 0.000000 0.000000 0.034269 0.000000 0.000000
# 5 0.000000 0.000000 0.000000 0.000000 0.071158 0.000000
# 6 0.000000 0.000000 0.000000 0.000000 0.000000 0.045128
#
#
# Mechanical properties :
#
#
# Convention : Reuss Voigt Hill
#
# Bulk Modulus (GPa) = 27.40022 41.88062 34.64042
# Shear Modulus (GPa) = 19.22397 22.96498 21.09447
#
# Velocity S-wave (km/s) = 3.12115 3.41135 3.26947
# Velocity P-wave (km/s) = 5.18397 6.06127 5.63971
#
# Compressibility (1/GPa) = 0.03649606
#
# Stress axis : x y z
#
# Youngs Moduli (GPa) = 25.96589 92.72671 56.69827
#
# Poissons Ratio (x) = 0.59934 0.24128
# Poissons Ratio (y) = 0.16783 0.25513
# Poissons Ratio (z) = 0.11050 0.41725
#
# Static dielectric constant tensor:
#      x y z
#    x 1.683680 0.000000 0.000000 
#    y 0.000000 1.697120 0.000000 
#    z 0.000000 0.000000 1.684270 
# 
# From -- ./inp_files/15785.got.cif
#   From: 2010.05.17/outbox.cif.g08.bks.cpg/sg35_8_cif.got.tgz:15785.got - 2010.06.03 17:29:28.
