data_PCOD9348862
_publ_section_title
;
Structure prediction by ZEFSAII (Michael W. Deem and Ramdas Pophale) SiO2 
 PCOD9348862
Probable space group: C M M 2
;
_chemical_formula_sum "Si O2"
_cell_formula_units_Z 64
_cell_length_a 8.192437
_cell_length_b 28.899661
_cell_length_c 13.502437
_cell_angle_alpha 90.000000
_cell_angle_beta 90.000000
_cell_angle_gamma 90.000000
_cell_volume 3196.818784
_symmetry_space_group_name_H-M "C M M 2"
_symmetry_group_IT_number 35
_symmetry_cell_setting 'orthorhombic'
loop_
_space_group_symop_operation_xyz
x,y,z
-x,-y,z
-x,y,z
x,-y,z
1/2+x,1/2+y,z
1/2-x,1/2-y,z
1/2-x,1/2+y,z
1/2+x,1/2-y,z
loop_
_atom_site_type_symbol
_atom_site_label
_atom_site_fract_x
_atom_site_fract_y
_atom_site_fract_z
Si Si1 0.186459 0.443637 0.490650
Si Si2 0.802955 0.144138 0.792000
Si Si3 0.194848 0.696687 0.382737
Si Si4 0.302430 0.052832 0.706622
Si Si5 0.694904 0.303441 0.595886
Si Si6 0.697191 0.145194 0.184343
Si Si7 0.305510 0.697027 0.987056
Si Si8 0.200105 0.552533 0.272887
O O1 0.177360 0.500000 0.491408
O O2 0.262143 0.432238 0.597054
O O3 0.258506 0.432720 0.383243
O O4 0.000000 0.425643 0.490367
O O5 0.751547 0.090850 0.784721
O O6 0.742279 0.169368 0.691883
O O7 0.742017 0.170469 0.889494
O O8 0.000000 0.146271 0.791569
O O9 0.250000 0.750000 0.378064
O O10 0.250064 0.677360 0.489195
O O11 0.254674 0.670707 0.284702
O O12 0.000000 0.695282 0.382026
O O13 0.500000 0.052465 0.700414
O O14 0.250460 0.000000 0.726587
O O15 0.500000 0.304216 0.597384
O O16 0.750000 0.250000 0.601764
O O17 0.500000 0.146649 0.184519
O O18 0.747811 0.091640 0.195155
O O19 0.755236 0.170757 0.086663
O O20 0.500000 0.696928 0.981594
O O21 0.250000 0.750000 0.988874
O O22 0.252290 0.500000 0.252179
O O23 0.000000 0.551883 0.278097
#
# Coordination Sequence:
#
# PCOD9348862 Si02
#       8
#     8   8   8   8   8   8   8   8
#     4   7  11  22  43  73 108 143 178 218 262 306
#     4  10  23  39  56  81 111 147 187 228 283 341
#     4  10  20  33  51  78 111 144 178 221 278 342
#     4   9  18  32  54  85 116 148 190 234 271 317
#     4  10  20  35  54  78 109 142 180 226 279 340
#     4  10  21  35  56  86 114 144 187 230 278 333
#     4  11  24  43  64  83 107 141 186 237 288 337
#     4   8  14  27  49  78 113 149 184 224 268 317
#
# _framework density 20.019902999999999
#
# number of rings (size 3 to 8) (size 9 to 14) (size 15 to 20)
#    0.000    2.625    0.000    4.125    1.750    4.250 
#    0.000    0.625    0.000    2.625    0.000    0.000 
#    0.000    0.000    0.000    0.000    0.000    0.000 
#
# Total GULP energy -178550.464607 kJ/mol
# GULP energy per Si atom -5579.702019 kJ/mol
# Density = 1.997434 g / cm^3
# Si number density = 20.019903 Si / 1000 Ang^3
#
#
#
# Elastic Constant Matrix: (Units=GPa)
#
#
# Indices 1 2 3 4 5 6 
#
# 1 18.6562 12.5008 21.2375 0.0000 0.0000 0.0000
# 2 12.5008 142.5713 103.5777 0.0000 0.0000 0.0000
# 3 21.2375 103.5777 166.5941 0.0000 0.0000 0.0000
# 4 0.0000 0.0000 0.0000 36.6488 0.0000 0.0000
# 5 0.0000 0.0000 0.0000 0.0000 20.3622 0.0000
# 6 0.0000 0.0000 0.0000 0.0000 0.0000 13.9251
#
#
#
# Elastic Compliance Matrix: (Units=1/GPa)
#
#
# Indices 1 2 3 4 5 6 
#
# 1 0.062726 0.000564 -0.008347 0.000000 0.000000 0.000000
# 2 0.000564 0.012797 -0.008028 0.000000 0.000000 0.000000
# 3 -0.008347 -0.008028 0.012058 0.000000 0.000000 0.000000
# 4 0.000000 0.000000 0.000000 0.027286 0.000000 0.000000
# 5 0.000000 0.000000 0.000000 0.000000 0.049111 0.000000
# 6 0.000000 0.000000 0.000000 0.000000 0.000000 0.071813
#
#
# Mechanical properties :
#
#
# Convention : Reuss Voigt Hill
#
# Bulk Modulus (GPa) = 17.87037 66.93928 42.40483
# Shear Modulus (GPa) = 17.47850 26.88758 22.18304
#
# Velocity S-wave (km/s) = 2.95796 3.66873 3.33235
# Velocity P-wave (km/s) = 4.54001 7.17322 6.00278
#
# Compressibility (1/GPa) = 0.05595854
#
# Stress axis : x y z
#
# Youngs Moduli (GPa) = 15.94246 78.14222 82.93053
#
# Poissons Ratio (x) = -0.04410 0.69224
# Poissons Ratio (y) = -0.00900 0.66580
# Poissons Ratio (z) = 0.13307 0.62736
#
# Static dielectric constant tensor:
#      x y z
#    x 1.712570 0.000000 0.000000 
#    y 0.000000 1.726070 0.000000 
#    z 0.000000 0.000000 1.719000 
# 
# From -- ./inp_files/11914.got.cif
#   From: 2010.05.17/outbox.cif.g08.bks.cpg/sg35_6_cif.got.tgz:11914.got - 2010.06.03 17:29:28.
