data_PCOD9348341
_publ_section_title
;
Structure prediction by ZEFSAII (Michael W. Deem and Ramdas Pophale) SiO2 
 PCOD9348341
Probable space group: C M M 2
;
_chemical_formula_sum "Si O2"
_cell_formula_units_Z 56
_cell_length_a 8.362670
_cell_length_b 20.008538
_cell_length_c 18.337652
_cell_angle_alpha 90.000000
_cell_angle_beta 90.000000
_cell_angle_gamma 90.000000
_cell_volume 3068.343962
_symmetry_space_group_name_H-M "C M M 2"
_symmetry_group_IT_number 35
_symmetry_cell_setting 'orthorhombic'
loop_
_space_group_symop_operation_xyz
x,y,z
-x,-y,z
-x,y,z
x,-y,z
1/2+x,1/2+y,z
1/2-x,1/2-y,z
1/2-x,1/2+y,z
1/2+x,1/2-y,z
loop_
_atom_site_type_symbol
_atom_site_label
_atom_site_fract_x
_atom_site_fract_y
_atom_site_fract_z
Si Si1 0.193276 0.324506 0.960870
Si Si2 0.195484 0.422915 0.088762
Si Si3 0.190801 0.323906 0.794823
Si Si4 0.808075 0.824911 0.380553
Si Si5 0.808423 0.325219 0.218110
Si Si6 0.692789 0.576957 0.671147
Si Si7 0.804977 0.077067 0.507812
O O1 0.250000 0.250000 0.981720
O O2 0.247958 0.337849 0.877759
O O3 0.000000 0.323871 0.961464
O O4 0.246494 0.381035 0.017537
O O5 0.248854 0.500000 0.089500
O O6 0.246033 0.379671 0.159027
O O7 0.000000 0.423958 0.088748
O O8 0.250000 0.250000 0.775152
O O9 0.247346 0.376583 0.735457
O O10 0.000000 0.323777 0.796491
O O11 0.750000 0.750000 0.396281
O O12 0.748938 0.842373 0.299502
O O13 0.749811 0.875236 0.443044
O O14 0.000000 0.825394 0.379711
O O15 0.750000 0.250000 0.200643
O O16 0.000000 0.323663 0.217690
O O17 0.500000 0.578051 0.671504
O O18 0.743587 0.500000 0.681601
O O19 0.745080 0.598036 0.589495
O O20 0.000000 0.078011 0.507215
O O21 0.756722 0.000000 0.496715
#
# Coordination Sequence:
#
# PCOD9348341 Si02
#       7
#     8   8   8   8   8   8   8
#     4   9  18  33  53  73  96 129 164 200 241 288
#     4   9  18  32  50  73  99 127 160 197 239 286
#     4  10  20  33  51  76 103 131 167 209 250 294
#     4  10  19  32  51  73  98 126 159 200 241 285
#     4  10  19  32  51  72  96 127 161 197 238 286
#     4   9  18  34  54  74 100 134 168 203 248 300
#     4   8  16  32  52  72  95 128 166 199 238 290
#
# _framework density 18.250886999999999
#
# number of rings (size 3 to 8) (size 9 to 14) (size 15 to 20)
#    0.000    2.714    0.000    3.429    0.000    2.571 
#    0.000    5.000    0.000    6.429    0.000    0.000 
#    0.000    0.000    0.000    0.000    0.000    0.000 
#
# Total GULP energy -156157.757120 kJ/mol
# GULP energy per Si atom -5577.062754 kJ/mol
# Density = 1.820935 g / cm^3
# Si number density = 18.250887 Si / 1000 Ang^3
#
#
#
# Elastic Constant Matrix: (Units=GPa)
#
#
# Indices 1 2 3 4 5 6 
#
# 1 19.3802 19.5032 21.5177 0.0000 0.0000 0.0000
# 2 19.5032 149.8430 136.6899 0.0000 0.0000 0.0000
# 3 21.5177 136.6899 162.8879 0.0000 0.0000 0.0000
# 4 0.0000 0.0000 0.0000 22.6300 0.0000 0.0000
# 5 0.0000 0.0000 0.0000 0.0000 8.8877 0.0000
# 6 0.0000 0.0000 0.0000 0.0000 0.0000 21.5874
#
#
#
# Elastic Compliance Matrix: (Units=1/GPa)
#
#
# Indices 1 2 3 4 5 6 
#
# 1 0.060686 -0.002498 -0.005921 0.000000 0.000000 0.000000
# 2 -0.002498 0.028562 -0.023639 0.000000 0.000000 0.000000
# 3 -0.005921 -0.023639 0.026758 0.000000 0.000000 0.000000
# 4 0.000000 0.000000 0.000000 0.044189 0.000000 0.000000
# 5 0.000000 0.000000 0.000000 0.000000 0.112515 0.000000
# 6 0.000000 0.000000 0.000000 0.000000 0.000000 0.046323
#
#
# Mechanical properties :
#
#
# Convention : Reuss Voigt Hill
#
# Bulk Modulus (GPa) = 19.27060 76.39254 47.83157
# Shear Modulus (GPa) = 12.48610 20.91439 16.70024
#
# Velocity S-wave (km/s) = 2.61844 3.38884 3.02824
# Velocity P-wave (km/s) = 4.44109 7.56704 6.20417
#
# Compressibility (1/GPa) = 0.05189251
#
# Stress axis : x y z
#
# Youngs Moduli (GPa) = 16.47819 35.01102 37.37197
#
# Poissons Ratio (x) = 0.08746 0.22126
# Poissons Ratio (y) = 0.04116 0.88342
# Poissons Ratio (z) = 0.09756 0.82761
#
# Static dielectric constant tensor:
#      x y z
#    x 1.633450 0.000000 0.000000 
#    y 0.000000 1.600340 0.000000 
#    z 0.000000 0.000000 1.633400 
# 
# From -- ./inp_files/15635.got.cif
#   From: 2010.05.17/outbox.cif.g08.bks.cpg/sg35_8_cif.got.tgz:15635.got - 2010.06.03 17:29:28.
