data_PCOD9348487
_publ_section_title
;
Structure prediction by ZEFSAII (Michael W. Deem and Ramdas Pophale) SiO2 
 PCOD9348487
Probable space group: C M M 2
;
_chemical_formula_sum "Si O2"
_cell_formula_units_Z 58
_cell_length_a 31.542593
_cell_length_b 7.757873
_cell_length_c 12.509044
_cell_angle_alpha 90.000000
_cell_angle_beta 90.000000
_cell_angle_gamma 90.000000
_cell_volume 3061.005980
_symmetry_space_group_name_H-M "C M M 2"
_symmetry_group_IT_number 35
_symmetry_cell_setting 'orthorhombic'
loop_
_space_group_symop_operation_xyz
x,y,z
-x,-y,z
-x,y,z
x,-y,z
1/2+x,1/2+y,z
1/2-x,1/2-y,z
1/2-x,1/2+y,z
1/2+x,1/2-y,z
loop_
_atom_site_type_symbol
_atom_site_label
_atom_site_fract_x
_atom_site_fract_y
_atom_site_fract_z
Si Si1 0.702082 0.294809 0.968090
Si Si2 0.879890 0.798755 0.324200
Si Si3 0.431718 0.309125 0.104201
Si Si4 0.500000 0.000000 0.097944
Si Si5 0.453007 0.704980 0.473682
Si Si6 0.385320 0.203054 0.896169
Si Si7 0.452643 0.791631 0.721903
Si Si8 0.298018 0.292119 0.213328
O O1 0.698356 0.500000 0.971312
O O2 0.750000 0.250000 0.936109
O O3 0.665080 0.226992 0.891632
O O4 0.695985 0.228263 0.090698
O O5 0.905010 0.795047 0.212633
O O6 0.912627 0.721873 0.410436
O O7 0.833821 0.724810 0.294511
O O8 0.873186 0.000000 0.355352
O O9 0.451348 0.500000 0.104122
O O10 0.400707 0.295795 0.003164
O O11 0.463694 0.152083 0.097368
O O12 0.500000 0.774715 0.442728
O O13 0.454317 0.500000 0.450885
O O14 0.448293 0.729645 0.600394
O O15 0.394122 0.000000 0.907455
O O16 0.414604 0.266143 0.798391
O O17 0.500000 0.739801 0.761207
O O18 0.452178 0.000000 0.719392
O O19 0.302533 0.500000 0.209240
O O20 0.250000 0.250000 0.244760
#
# Coordination Sequence:
#
# PCOD9348487 Si02
#       8
#     8   8   8   2   8   8   8   8
#     4  10  19  33  53  80 111 147 185 226 284 343
#     4   9  18  35  56  78 110 146 183 230 278 333
#     4  11  23  39  56  79 116 156 190 231 286 343
#     4  12  26  40  48  82 118 156 198 228 276 352
#     4   9  18  34  55  78 103 138 188 235 277 331
#     4  11  21  35  57  81 114 147 190 240 282 340
#     4   9  20  37  55  76 108 145 184 236 284 325
#     4   9  17  31  50  75 107 140 176 218 273 334
#
# _framework density 18.948018999999999
#
# number of rings (size 3 to 8) (size 9 to 14) (size 15 to 20)
#    0.000    2.207    2.069    1.034    1.931    1.655 
#    2.483    0.000    0.000    0.828    0.000    3.862 
#    0.000    0.000    0.000    0.000    0.000    0.000 
#
# Total GULP energy -161471.062634 kJ/mol
# GULP energy per Si atom -5567.967677 kJ/mol
# Density = 1.890489 g / cm^3
# Si number density = 18.948019 Si / 1000 Ang^3
#
#
#
# Elastic Constant Matrix: (Units=GPa)
#
#
# Indices 1 2 3 4 5 6 
#
# 1 176.6064 19.0158 60.5620 0.0000 0.0000 0.0000
# 2 19.0158 68.2321 0.7514 0.0000 0.0000 0.0000
# 3 60.5620 0.7514 61.3746 0.0000 0.0000 0.0000
# 4 0.0000 0.0000 0.0000 7.5844 0.0000 0.0000
# 5 0.0000 0.0000 0.0000 0.0000 18.1530 0.0000
# 6 0.0000 0.0000 0.0000 0.0000 0.0000 -23.3847
#
#
#
# Elastic Compliance Matrix: (Units=1/GPa)
#
#
# Indices 1 2 3 4 5 6 
#
# 1 0.008932 -0.002393 -0.008785 0.000000 0.000000 0.000000
# 2 -0.002393 0.015299 0.002174 0.000000 0.000000 0.000000
# 3 -0.008785 0.002174 0.024935 0.000000 0.000000 0.000000
# 4 0.000000 0.000000 0.000000 0.131849 0.000000 0.000000
# 5 0.000000 0.000000 0.000000 0.000000 0.055087 0.000000
# 6 0.000000 0.000000 0.000000 0.000000 0.000000 -0.042763
#
#
# Mechanical properties :
#
#
# Convention : Reuss Voigt Hill
#
# Bulk Modulus (GPa) = 32.09366 51.87461 41.98413
# Shear Modulus (GPa) = 22.54956 15.52948 19.03952
#
# Velocity S-wave (km/s) = 3.45349 2.86594 3.17334
# Velocity P-wave (km/s) = 5.73381 6.19583 5.96929
#
# Compressibility (1/GPa) = 0.03115881
#
# Stress axis : x y z
#
# Youngs Moduli (GPa) = 111.95131 65.36482 40.10370
#
# Poissons Ratio (x) = 0.15640 0.35231
# Poissons Ratio (y) = 0.26786 -0.08717
# Poissons Ratio (z) = 0.98348 -0.14208
#
# Static dielectric constant tensor:
#      x y z
#    x 1.696880 0.000000 0.000000 
#    y 0.000000 1.684460 0.000000 
#    z 0.000000 0.000000 1.635760 
# 
# From -- ./inp_files/14477.got.cif
#   From: 2010.05.17/outbox.cif.g08.bks.cpg/sg35_8_cif.got.tgz:14477.got - 2010.06.03 17:29:28.
