data_PCOD9348105
_publ_section_title
;
Structure prediction by ZEFSAII (Michael W. Deem and Ramdas Pophale) SiO2 
 PCOD9348105
Probable space group: C M M 2
;
_chemical_formula_sum "Si O2"
_cell_formula_units_Z 64
_cell_length_a 15.538386
_cell_length_b 26.401236
_cell_length_c 8.792885
_cell_angle_alpha 90.000000
_cell_angle_beta 90.000000
_cell_angle_gamma 90.000000
_cell_volume 3607.128039
_symmetry_space_group_name_H-M "C M M 2"
_symmetry_group_IT_number 35
_symmetry_cell_setting 'orthorhombic'
loop_
_space_group_symop_operation_xyz
x,y,z
-x,-y,z
-x,y,z
x,-y,z
1/2+x,1/2+y,z
1/2-x,1/2-y,z
1/2-x,1/2+y,z
1/2+x,1/2-y,z
loop_
_atom_site_type_symbol
_atom_site_label
_atom_site_fract_x
_atom_site_fract_y
_atom_site_fract_z
Si Si1 0.815982 0.711969 0.794430
Si Si2 0.102216 0.240791 0.090355
Si Si3 0.597455 0.863669 0.573342
Si Si4 0.099947 0.059758 0.483316
Si Si5 0.102070 0.870922 0.187382
Si Si6 0.739792 0.886917 0.985154
Si Si7 0.900167 0.349462 0.213428
Si Si8 0.236822 0.557775 0.686333
O O1 0.750000 0.750000 0.714178
O O2 0.878720 0.685795 0.673278
O O3 0.771845 0.664780 0.884844
O O4 0.858128 0.747236 0.925154
O O5 0.125048 0.189157 0.178337
O O6 0.123682 0.290969 0.184257
O O7 0.000000 0.238948 0.070036
O O8 0.500000 0.878540 0.612687
O O9 0.603284 0.856854 0.392924
O O10 0.666390 0.905896 0.614301
O O11 0.116403 0.098669 0.344381
O O12 0.169019 0.069477 0.616030
O O13 0.000000 0.066347 0.530417
O O14 0.109145 0.000000 0.436960
O O15 0.000000 0.876026 0.152796
O O16 0.167584 0.891899 0.062711
O O17 0.731291 0.931776 0.865286
O O18 0.665904 0.882520 0.113861
O O19 0.000000 0.357180 0.163032
O O20 0.217967 0.500000 0.649678
#
# Coordination Sequence:
#
# PCOD9348105 Si02
#       8
#     8   8   8   8   8   8   8   8
#     4  10  18  33  51  78 112 153 191 219 265 326
#     4   9  17  31  51  76 109 147 184 223 267 320
#     4  10  21  38  58  83 115 151 190 234 282 335
#     4   9  19  37  58  79 110 149 186 231 289 345
#     4  10  19  32  52  80 111 146 187 228 272 329
#     4  10  20  34  54  79 109 142 183 233 283 328
#     4   9  19  36  56  79 109 147 186 224 277 336
#     4  10  22  39  59  82 108 144 190 238 292 347
#
# _framework density 17.742647000000002
#
# number of rings (size 3 to 8) (size 9 to 14) (size 15 to 20)
#    0.000    2.375    1.250    1.125    0.000    4.250 
#    6.750    0.625    0.000    0.750    0.000    0.000 
#    0.000    0.000    0.000    0.000    0.000    0.000 
#
# Total GULP energy -178194.421614 kJ/mol
# GULP energy per Si atom -5568.575675 kJ/mol
# Density = 1.770226 g / cm^3
# Si number density = 17.742647 Si / 1000 Ang^3
#
#
#
# Elastic Constant Matrix: (Units=GPa)
#
#
# Indices 1 2 3 4 5 6 
#
# 1 79.2165 38.6173 47.1973 0.0000 0.0000 0.0000
# 2 38.6173 64.3878 31.1679 0.0000 0.0000 0.0000
# 3 47.1973 31.1679 74.2111 0.0000 0.0000 0.0000
# 4 0.0000 0.0000 0.0000 19.8545 0.0000 0.0000
# 5 0.0000 0.0000 0.0000 0.0000 28.0083 0.0000
# 6 0.0000 0.0000 0.0000 0.0000 0.0000 23.6691
#
#
#
# Elastic Compliance Matrix: (Units=1/GPa)
#
#
# Indices 1 2 3 4 5 6 
#
# 1 0.023633 -0.008659 -0.011394 0.000000 0.000000 0.000000
# 2 -0.008659 0.022667 -0.004013 0.000000 0.000000 0.000000
# 3 -0.011394 -0.004013 0.022407 0.000000 0.000000 0.000000
# 4 0.000000 0.000000 0.000000 0.050366 0.000000 0.000000
# 5 0.000000 0.000000 0.000000 0.000000 0.035704 0.000000
# 6 0.000000 0.000000 0.000000 0.000000 0.000000 0.042249
#
#
# Mechanical properties :
#
#
# Convention : Reuss Voigt Hill
#
# Bulk Modulus (GPa) = 48.60132 50.19782 49.39957
# Shear Modulus (GPa) = 19.84007 21.02858 20.43433
#
# Velocity S-wave (km/s) = 3.34760 3.44641 3.39736
# Velocity P-wave (km/s) = 6.51105 6.64760 6.57968
#
# Compressibility (1/GPa) = 0.02057557
#
# Stress axis : x y z
#
# Youngs Moduli (GPa) = 42.31330 44.11770 44.62961
#
# Poissons Ratio (x) = 0.38201 0.50850
# Poissons Ratio (y) = 0.36639 0.17909
# Poissons Ratio (z) = 0.48211 0.17703
#
# Static dielectric constant tensor:
#      x y z
#    x 1.620910 0.000000 0.000000 
#    y 0.000000 1.606080 0.000000 
#    z 0.000000 0.000000 1.594100 
# 
# From -- ./inp_files/7865.got.cif
#   From: 2010.05.17/outbox.cif.g08.bks.cpg/sg35_4_cif.got.tgz:7865.got - 2010.06.03 17:29:28.
