data_PCOD9348435
_publ_section_title
;
Structure prediction by ZEFSAII (Michael W. Deem and Ramdas Pophale) SiO2 
 PCOD9348435
Probable space group: C M M 2
;
_chemical_formula_sum "Si O2"
_cell_formula_units_Z 56
_cell_length_a 16.701333
_cell_length_b 14.471885
_cell_length_c 12.076847
_cell_angle_alpha 90.000000
_cell_angle_beta 90.000000
_cell_angle_gamma 90.000000
_cell_volume 2918.971149
_symmetry_space_group_name_H-M "C M M 2"
_symmetry_group_IT_number 35
_symmetry_cell_setting 'orthorhombic'
loop_
_space_group_symop_operation_xyz
x,y,z
-x,-y,z
-x,y,z
x,-y,z
1/2+x,1/2+y,z
1/2-x,1/2-y,z
1/2-x,1/2+y,z
1/2+x,1/2-y,z
loop_
_atom_site_type_symbol
_atom_site_label
_atom_site_fract_x
_atom_site_fract_y
_atom_site_fract_z
Si Si1 0.734460 0.892024 0.856620
Si Si2 0.408205 0.392616 0.947821
Si Si3 0.413505 0.239346 0.458001
Si Si4 0.333081 0.894642 0.614479
Si Si5 0.789139 0.101607 0.409339
Si Si6 0.633076 0.106684 0.267588
Si Si7 0.662955 0.778496 0.060833
O O1 0.703508 0.872557 0.733777
O O2 0.718923 0.000000 0.880919
O O3 0.831057 0.880251 0.866965
O O4 0.687411 0.831300 0.947153
O O5 0.500000 0.380677 0.906209
O O6 0.402880 0.500000 0.987308
O O7 0.389208 0.312725 0.036956
O O8 0.500000 0.283246 0.468319
O O9 0.391328 0.184561 0.569914
O O10 0.349408 0.314727 0.420703
O O11 0.412339 0.162195 0.362442
O O12 0.264050 0.896438 0.521130
O O13 0.366834 0.000000 0.617412
O O14 0.725881 0.110793 0.309320
O O15 0.827353 0.000000 0.400955
O O16 0.623604 0.154266 0.149436
O O17 0.609991 0.000000 0.265272
O O18 0.750000 0.750000 0.107026
#
# Coordination Sequence:
#
# PCOD9348435 Si02
#       7
#     8   8   8   8   8   8   8
#     4   9  18  34  57  82 107 139 179 220 263 315
#     4   9  19  35  53  77 111 146 179 217 264 320
#     4  11  22  35  55  81 108 139 175 221 277 327
#     4   9  18  35  58  80 104 137 178 221 263 315
#     4   9  19  36  56  77 104 141 182 221 261 310
#     4  10  20  36  58  80 105 140 184 227 262 309
#     4  10  19  32  54  82 110 142 178 218 262 314
#
# _framework density 19.184842
#
# number of rings (size 3 to 8) (size 9 to 14) (size 15 to 20)
#    0.000    2.429    0.000    4.286    0.000    6.000 
#    0.000    3.571    0.000    4.714    0.000    0.000 
#    0.000    0.000    0.000    0.000    0.000    0.000 
#
# Total GULP energy -156062.382902 kJ/mol
# GULP energy per Si atom -5573.656532 kJ/mol
# Density = 1.914118 g / cm^3
# Si number density = 19.184842 Si / 1000 Ang^3
#
#
#
# Elastic Constant Matrix: (Units=GPa)
#
#
# Indices 1 2 3 4 5 6 
#
# 1 60.9397 27.3467 9.3152 0.0000 0.0000 0.0000
# 2 27.3467 86.9386 35.6173 0.0000 0.0000 0.0000
# 3 9.3152 35.6173 88.5623 0.0000 0.0000 0.0000
# 4 0.0000 0.0000 0.0000 27.2627 0.0000 0.0000
# 5 0.0000 0.0000 0.0000 0.0000 -1.1947 0.0000
# 6 0.0000 0.0000 0.0000 0.0000 0.0000 -1.6998
#
#
#
# Elastic Compliance Matrix: (Units=1/GPa)
#
#
# Indices 1 2 3 4 5 6 
#
# 1 0.019124 -0.006216 0.000488 0.000000 0.000000 0.000000
# 2 -0.006216 0.015792 -0.005697 0.000000 0.000000 0.000000
# 3 0.000488 -0.005697 0.013531 0.000000 0.000000 0.000000
# 4 0.000000 0.000000 0.000000 0.036680 0.000000 0.000000
# 5 0.000000 0.000000 0.000000 0.000000 -0.837004 0.000000
# 6 0.000000 0.000000 0.000000 0.000000 0.000000 -0.588287
#
#
# Mechanical properties :
#
#
# Convention : Reuss Voigt Hill
#
# Bulk Modulus (GPa) = 39.06538 42.33322 40.69930
# Shear Modulus (GPa) = -3.82035 15.81770 5.99868
#
# Velocity S-wave (km/s) = -1.41268 2.87451 1.77019
# Velocity P-wave (km/s) = 4.21259 5.75595 5.04365
#
# Compressibility (1/GPa) = 0.02559811
#
# Stress axis : x y z
#
# Youngs Moduli (GPa) = 52.28949 63.32508 73.90232
#
# Poissons Ratio (x) = 0.39360 -0.03608
# Poissons Ratio (y) = 0.32501 0.42103
# Poissons Ratio (z) = -0.02553 0.36077
#
# Static dielectric constant tensor:
#      x y z
#    x 1.673600 0.000000 0.000000 
#    y 0.000000 1.696010 0.000000 
#    z 0.000000 0.000000 1.651290 
# 
# From -- ./inp_files/13016.got.cif
#   From: 2010.05.17/outbox.cif.g08.bks.cpg/sg35_7_cif.got.tgz:13016.got - 2010.06.03 17:29:28.
