data_PCOD9348310
_publ_section_title
;
Structure prediction by ZEFSAII (Michael W. Deem and Ramdas Pophale) SiO2 
 PCOD9348310
Probable space group: C M M 2
;
_chemical_formula_sum "Si O2"
_cell_formula_units_Z 64
_cell_length_a 8.976699
_cell_length_b 29.105627
_cell_length_c 15.848389
_cell_angle_alpha 90.000000
_cell_angle_beta 90.000000
_cell_angle_gamma 90.000000
_cell_volume 4140.747467
_symmetry_space_group_name_H-M "C M M 2"
_symmetry_group_IT_number 35
_symmetry_cell_setting 'orthorhombic'
loop_
_space_group_symop_operation_xyz
x,y,z
-x,-y,z
-x,y,z
x,-y,z
1/2+x,1/2+y,z
1/2-x,1/2-y,z
1/2-x,1/2+y,z
1/2+x,1/2-y,z
loop_
_atom_site_type_symbol
_atom_site_label
_atom_site_fract_x
_atom_site_fract_y
_atom_site_fract_z
Si Si1 0.320549 0.894982 0.981490
Si Si2 0.177032 0.445372 0.806840
Si Si3 0.828435 0.944265 0.325862
Si Si4 0.321744 0.201864 0.909269
Si Si5 0.178466 0.298800 0.710051
Si Si6 0.180017 0.946488 0.138148
Si Si7 0.176215 0.554808 0.499267
Si Si8 0.322581 0.608656 0.652604
O O1 0.500000 0.895884 0.990281
O O2 0.283928 0.925009 0.898397
O O3 0.273595 0.842723 0.961538
O O4 0.247029 0.916351 0.063844
O O5 0.200176 0.500000 0.804743
O O6 0.267102 0.420271 0.733589
O O7 0.000000 0.436363 0.793180
O O8 0.775939 0.930292 0.232430
O O9 0.729361 0.931186 0.405652
O O10 0.000000 0.929412 0.338492
O O11 0.830298 0.000000 0.323020
O O12 0.500000 0.205540 0.915558
O O13 0.250000 0.250000 0.935196
O O14 0.287427 0.194016 0.810002
O O15 0.250000 0.250000 0.686141
O O16 0.248808 0.341217 0.660513
O O17 0.000000 0.297792 0.700716
O O18 0.000000 0.945350 0.135732
O O19 0.225370 0.000000 0.127361
O O20 0.205174 0.500000 0.508684
O O21 0.264650 0.582409 0.569995
O O22 0.000000 0.561948 0.509457
O O23 0.500000 0.612197 0.652485
#
# Coordination Sequence:
#
# PCOD9348310 Si02
#       8
#     8   8   8   8   8   8   8   8
#     4  10  19  32  48  69  95 128 164 200 242 288
#     4  10  20  34  48  63  93 135 170 202 242 284
#     4   8  15  30  49  68  94 126 159 199 245 289
#     4   9  18  32  50  69  92 121 158 202 247 287
#     4  10  19  35  54  72  96 124 161 206 250 292
#     4   9  18  31  47  70 100 131 162 199 241 285
#     4  10  20  33  50  72  98 129 165 205 247 290
#     4  12  23  33  48  71  98 131 167 201 243 292
#
# _framework density 15.456148000000001
#
# number of rings (size 3 to 8) (size 9 to 14) (size 15 to 20)
#    0.000    2.250    1.250    3.375    0.000    5.250 
#    0.000    1.250    0.000    0.000    0.000    0.875 
#    0.000    4.000    0.000    0.000    0.000    0.000 
#
# Total GULP energy -178511.901635 kJ/mol
# GULP energy per Si atom -5578.496926 kJ/mol
# Density = 1.542097 g / cm^3
# Si number density = 15.456148 Si / 1000 Ang^3
#
#
#
# Elastic Constant Matrix: (Units=GPa)
#
#
# Indices 1 2 3 4 5 6 
#
# 1 58.7136 52.2797 52.5149 0.0000 0.0000 0.0000
# 2 52.2797 95.3865 60.3800 0.0000 0.0000 0.0000
# 3 52.5149 60.3800 115.9871 0.0000 0.0000 0.0000
# 4 0.0000 0.0000 0.0000 5.6104 0.0000 0.0000
# 5 0.0000 0.0000 0.0000 0.0000 26.5303 0.0000
# 6 0.0000 0.0000 0.0000 0.0000 0.0000 25.6319
#
#
#
# Elastic Compliance Matrix: (Units=1/GPa)
#
#
# Indices 1 2 3 4 5 6 
#
# 1 0.039667 -0.015470 -0.009907 0.000000 0.000000 0.000000
# 2 -0.015470 0.021669 -0.004276 0.000000 0.000000 0.000000
# 3 -0.009907 -0.004276 0.015333 0.000000 0.000000 0.000000
# 4 0.000000 0.000000 0.000000 0.178241 0.000000 0.000000
# 5 0.000000 0.000000 0.000000 0.000000 0.037693 0.000000
# 6 0.000000 0.000000 0.000000 0.000000 0.000000 0.039014
#
#
# Mechanical properties :
#
#
# Convention : Reuss Voigt Hill
#
# Bulk Modulus (GPa) = 57.59044 66.71515 62.15279
# Shear Modulus (GPa) = 12.60363 18.54870 15.57617
#
# Velocity S-wave (km/s) = 2.85870 3.46798 3.17798
# Velocity P-wave (km/s) = 6.94533 7.70024 7.33251
#
# Compressibility (1/GPa) = 0.01736399
#
# Stress axis : x y z
#
# Youngs Moduli (GPa) = 25.20963 46.14794 65.21810
#
# Poissons Ratio (x) = 0.71391 0.64609
# Poissons Ratio (y) = 0.38999 0.27889
# Poissons Ratio (z) = 0.24974 0.19734
#
# Static dielectric constant tensor:
#      x y z
#    x 1.516050 0.000000 0.000000 
#    y 0.000000 1.501630 0.000000 
#    z 0.000000 0.000000 1.503720 
# 
# From -- ./inp_files/16201.got.cif
#   From: 2010.05.17/outbox.cif.g08.bks.cpg/sg35_9_cif.got.tgz:16201.got - 2010.06.03 17:29:28.
