data_PCOD9348784
_publ_section_title
;
Structure prediction by ZEFSAII (Michael W. Deem and Ramdas Pophale) SiO2 
 PCOD9348784
Probable space group: C M M 2
;
_chemical_formula_sum "Si O2"
_cell_formula_units_Z 56
_cell_length_a 22.033275
_cell_length_b 18.908360
_cell_length_c 5.820663
_cell_angle_alpha 90.000000
_cell_angle_beta 90.000000
_cell_angle_gamma 90.000000
_cell_volume 2424.964431
_symmetry_space_group_name_H-M "C M M 2"
_symmetry_group_IT_number 35
_symmetry_cell_setting 'orthorhombic'
loop_
_space_group_symop_operation_xyz
x,y,z
-x,-y,z
-x,y,z
x,-y,z
1/2+x,1/2+y,z
1/2-x,1/2-y,z
1/2-x,1/2+y,z
1/2+x,1/2-y,z
loop_
_atom_site_type_symbol
_atom_site_label
_atom_site_fract_x
_atom_site_fract_y
_atom_site_fract_z
Si Si1 0.858000 0.668305 0.132580
Si Si2 0.428380 0.585914 0.860784
Si Si3 0.567182 0.785362 0.497964
Si Si4 0.805185 0.708754 0.725127
Si Si5 0.431979 0.078295 0.775011
Si Si6 0.873056 0.085144 0.359629
Si Si7 0.268004 0.915841 0.463019
O O1 0.912342 0.714955 0.236598
O O2 0.816840 0.622399 0.300528
O O3 0.813983 0.719471 0.993360
O O4 0.889833 0.614414 0.960001
O O5 0.500000 0.602521 0.870778
O O6 0.421534 0.500000 0.858824
O O7 0.402979 0.609468 0.606285
O O8 0.398229 0.609585 0.107162
O O9 0.500000 0.756233 0.546983
O O10 0.629968 0.766490 0.625352
O O11 0.564789 0.868983 0.561210
O O12 0.750000 0.750000 0.615662
O O13 0.784055 0.627068 0.694111
O O14 0.500000 0.075489 0.871854
O O15 0.412771 0.000000 0.709860
O O16 0.800924 0.097673 0.383066
O O17 0.882576 0.000000 0.357686
O O18 0.275856 0.000000 0.479666
#
# Coordination Sequence:
#
# PCOD9348784 Si02
#       7
#     8   8   8   8   8   8   8
#     4  10  20  32  54  84 119 158 204 249 305 368
#     4   9  16  28  48  75 108 149 198 255 321 392
#     4   9  19  36  58  84 114 152 203 255 305 366
#     4  10  23  41  62  90 122 165 210 258 315 380
#     4   9  17  29  47  77 119 160 197 241 295 358
#     4   9  18  30  49  79 113 151 197 250 315 388
#     4  10  22  37  58  88 123 163 206 257 315 375
#
# _framework density 23.093121
#
# number of rings (size 3 to 8) (size 9 to 14) (size 15 to 20)
#    0.000    2.571    0.000    1.286    2.000   10.857 
#    0.000    1.429    0.000    1.714    0.000    0.000 
#    0.000    0.000    0.000    0.000    0.000    0.000 
#
# Total GULP energy -155868.394775 kJ/mol
# GULP energy per Si atom -5566.728385 kJ/mol
# Density = 2.304056 g / cm^3
# Si number density = 23.093121 Si / 1000 Ang^3
#
#
#
# Elastic Constant Matrix: (Units=GPa)
#
#
# Indices 1 2 3 4 5 6 
#
# 1 159.2663 16.2521 37.0048 0.0000 0.0000 0.0000
# 2 16.2521 45.5130 -3.0155 0.0000 0.0000 0.0000
# 3 37.0048 -3.0155 79.3666 0.0000 0.0000 0.0000
# 4 0.0000 0.0000 0.0000 -24.0584 0.0000 0.0000
# 5 0.0000 0.0000 0.0000 0.0000 21.6396 0.0000
# 6 0.0000 0.0000 0.0000 0.0000 0.0000 25.1616
#
#
#
# Elastic Compliance Matrix: (Units=1/GPa)
#
#
# Indices 1 2 3 4 5 6 
#
# 1 0.007399 -0.002878 -0.003559 0.000000 0.000000 0.000000
# 2 -0.002878 0.023147 0.002221 0.000000 0.000000 0.000000
# 3 -0.003559 0.002221 0.014344 0.000000 0.000000 0.000000
# 4 0.000000 0.000000 0.000000 -0.041566 0.000000 0.000000
# 5 0.000000 0.000000 0.000000 0.000000 0.046212 0.000000
# 6 0.000000 0.000000 0.000000 0.000000 0.000000 0.039743
#
#
# Mechanical properties :
#
#
# Convention : Reuss Voigt Hill
#
# Bulk Modulus (GPa) = 27.42908 42.73652 35.08280
# Shear Modulus (GPa) = 45.51092 20.14219 32.82656
#
# Velocity S-wave (km/s) = 4.44414 2.95653 3.77435
# Velocity P-wave (km/s) = 6.18362 5.49556 5.84971
#
# Compressibility (1/GPa) = 0.03645765
#
# Stress axis : x y z
#
# Youngs Moduli (GPa) = 135.14445 43.20284 69.71690
#
# Poissons Ratio (x) = 0.12434 0.24815
# Poissons Ratio (y) = 0.38896 -0.15487
# Poissons Ratio (z) = 0.48103 -0.09597
#
# Static dielectric constant tensor:
#      x y z
#    x 1.905030 0.000000 0.000000 
#    y 0.000000 1.938650 0.000000 
#    z 0.000000 0.000000 1.994550 
# 
# From -- ./inp_files/3095.got.cif
#   From: 2010.05.17/outbox.cif.g08.bks.cpg/sg35_2_cif.got.tgz:3095.got - 2010.06.03 17:29:28.
