data_PCOD9348895
_publ_section_title
;
Structure prediction by ZEFSAII (Michael W. Deem and Ramdas Pophale) SiO2 
 PCOD9348895
Probable space group: C M M 2
;
_chemical_formula_sum "Si O2"
_cell_formula_units_Z 40
_cell_length_a 12.932742
_cell_length_b 25.885396
_cell_length_c 5.466154
_cell_angle_alpha 90.000000
_cell_angle_beta 90.000000
_cell_angle_gamma 90.000000
_cell_volume 1829.899718
_symmetry_space_group_name_H-M "C M M 2"
_symmetry_group_IT_number 35
_symmetry_cell_setting 'orthorhombic'
loop_
_space_group_symop_operation_xyz
x,y,z
-x,-y,z
-x,y,z
x,-y,z
1/2+x,1/2+y,z
1/2-x,1/2-y,z
1/2-x,1/2+y,z
1/2+x,1/2-y,z
loop_
_atom_site_type_symbol
_atom_site_label
_atom_site_fract_x
_atom_site_fract_y
_atom_site_fract_z
Si Si1 0.797109 0.123656 0.350170
Si Si2 0.119444 0.300615 0.855323
Si Si3 0.881682 0.235249 0.355171
Si Si4 0.620842 0.942457 0.524785
Si Si5 0.227650 0.898568 0.849481
O O1 0.812063 0.184488 0.344468
O O2 0.678310 0.102565 0.372648
O O3 0.841976 0.104132 0.606947
O O4 0.833229 0.098330 0.099511
O O5 0.132462 0.266967 0.607464
O O6 0.205479 0.345206 0.858643
O O7 0.000000 0.320516 0.849990
O O8 0.128988 0.267231 0.103352
O O9 0.000000 0.216519 0.360438
O O10 0.500000 0.932920 0.551354
O O11 0.683617 0.939604 0.780815
O O12 0.635290 0.000000 0.420568
#
# Coordination Sequence:
#
# PCOD9348895 Si02
#       5
#     8   8   8   8   8
#     4  10  22  36  56  83 108 147 186 227 271 330
#     4  10  20  33  53  80 112 150 188 223 268 327
#     4  10  21  36  54  79 113 151 184 224 273 322
#     4   9  21  40  60  83 112 146 183 228 283 330
#     4  10  21  35  55  80 114 143 185 227 274 319
#
# _framework density 21.859120999999998
#
# number of rings (size 3 to 8) (size 9 to 14) (size 15 to 20)
#    1.200    1.000    0.000    3.000    0.000    7.200 
#    0.000    2.000    0.000    0.600    0.000    0.000 
#    0.000    0.000    0.000    0.000    0.000    0.000 
#
# Total GULP energy -111428.582871 kJ/mol
# GULP energy per Si atom -5571.429144 kJ/mol
# Density = 2.180937 g / cm^3
# Si number density = 21.859121 Si / 1000 Ang^3
#
#
#
# Elastic Constant Matrix: (Units=GPa)
#
#
# Indices 1 2 3 4 5 6 
#
# 1 52.5249 36.0388 15.6927 0.0000 0.0000 0.0000
# 2 36.0388 97.8367 23.3300 0.0000 0.0000 0.0000
# 3 15.6927 23.3300 180.5002 0.0000 0.0000 0.0000
# 4 0.0000 0.0000 0.0000 19.2505 0.0000 0.0000
# 5 0.0000 0.0000 0.0000 0.0000 13.9453 0.0000
# 6 0.0000 0.0000 0.0000 0.0000 0.0000 13.2708
#
#
#
# Elastic Compliance Matrix: (Units=1/GPa)
#
#
# Indices 1 2 3 4 5 6 
#
# 1 0.025666 -0.009206 -0.001042 0.000000 0.000000 0.000000
# 2 -0.009206 0.013848 -0.000990 0.000000 0.000000 0.000000
# 3 -0.001042 -0.000990 0.005759 0.000000 0.000000 0.000000
# 4 0.000000 0.000000 0.000000 0.051947 0.000000 0.000000
# 5 0.000000 0.000000 0.000000 0.000000 0.071709 0.000000
# 6 0.000000 0.000000 0.000000 0.000000 0.000000 0.075354
#
#
# Mechanical properties :
#
#
# Convention : Reuss Voigt Hill
#
# Bulk Modulus (GPa) = 43.86172 53.44276 48.65224
# Shear Modulus (GPa) = 18.22451 26.34667 22.28559
#
# Velocity S-wave (km/s) = 2.89056 3.47550 3.19644
# Velocity P-wave (km/s) = 5.59014 6.37238 5.99404
#
# Compressibility (1/GPa) = 0.02279892
#
# Stress axis : x y z
#
# Youngs Moduli (GPa) = 38.96169 72.21178 173.65301
#
# Poissons Ratio (x) = 0.66478 0.18087
# Poissons Ratio (y) = 0.35868 0.17183
# Poissons Ratio (z) = 0.04058 0.07146
#
# Static dielectric constant tensor:
#      x y z
#    x 1.794160 0.000000 0.000000 
#    y 0.000000 1.785490 0.000000 
#    z 0.000000 0.000000 1.921370 
# 
# From -- ./inp_files/1775.got.cif
#   From: 2010.05.17/outbox.cif.g08.bks.cpg/sg35_1_cif.got.tgz:1775.got - 2010.06.03 17:29:28.
