data_PCOD9348047
_publ_section_title
;
Structure prediction by ZEFSAII (Michael W. Deem and Ramdas Pophale) SiO2 
 PCOD9348047
Probable space group: P N N 2
;
_chemical_formula_sum "Si O2"
_cell_formula_units_Z 16
_cell_length_a 8.783485
_cell_length_b 7.783388
_cell_length_c 9.682568
_cell_angle_alpha 90.000000
_cell_angle_beta 90.000000
_cell_angle_gamma 90.000000
_cell_volume 661.951393
_symmetry_space_group_name_H-M "P N N 2"
_symmetry_group_IT_number 34
_symmetry_cell_setting 'orthorhombic'
loop_
_space_group_symop_operation_xyz
x,y,z
-x,-y,z
1/2-x,1/2+y,1/2+z
1/2+x,1/2-y,1/2+z
loop_
_atom_site_type_symbol
_atom_site_label
_atom_site_fract_x
_atom_site_fract_y
_atom_site_fract_z
Si Si1 0.500795 0.203529 0.758250
Si Si2 0.662187 0.675141 0.298292
Si Si3 0.839682 0.095758 0.476164
Si Si4 0.500000 0.000000 0.387695
Si Si5 0.500000 0.500000 0.528192
O O1 0.666986 0.239494 0.821431
O O2 0.368128 0.249325 0.866648
O O3 0.495763 0.332235 0.626520
O O4 0.500000 0.000000 0.725563
O O5 0.632766 0.536576 0.418011
O O6 0.535704 0.823797 0.308746
O O7 0.655720 0.620729 0.140117
O O8 0.667376 0.028372 0.454363
O O9 0.000000 0.000000 0.446800
#
# Coordination Sequence:
#
# PCOD9348047 Si02
#       5
#     4   4   4   2   2
#     4  12  30  53  85 122 174 224 280 352 430 507
#     4  12  29  49  84 126 165 229 282 352 426 506
#     4  12  27  56  80 127 172 222 287 350 425 509
#     4  12  28  54  88 122 172 226 288 354 430 508
#     4  12  28  54  78 124 172 218 286 342 424 518
#
# _framework density 24.170957000000001
#
# number of rings (size 3 to 8) (size 9 to 14) (size 15 to 20)
#    0.000    0.000    5.000    1.500   15.750    2.000 
#    0.000    0.000    0.000    0.000    0.000    0.000 
#    0.000    0.000    0.000    0.000    0.000    0.000 
#
# Total GULP energy -89228.925300 kJ/mol
# GULP energy per Si atom -5576.807831 kJ/mol
# Density = 2.411594 g / cm^3
# Si number density = 24.170957 Si / 1000 Ang^3
#
#
#
# Elastic Constant Matrix: (Units=GPa)
#
#
# Indices 1 2 3 4 5 6 
#
# 1 208.2471 76.7249 83.1388 0.0000 0.0000 0.0000
# 2 76.7249 147.1728 81.7509 0.0000 0.0000 0.0000
# 3 83.1388 81.7509 154.5601 0.0000 0.0000 0.0000
# 4 0.0000 0.0000 0.0000 21.1083 0.0000 0.0000
# 5 0.0000 0.0000 0.0000 0.0000 29.4610 0.0000
# 6 0.0000 0.0000 0.0000 0.0000 0.0000 51.5141
#
#
#
# Elastic Compliance Matrix: (Units=1/GPa)
#
#
# Indices 1 2 3 4 5 6 
#
# 1 0.006527 -0.002057 -0.002423 0.000000 0.000000 0.000000
# 2 -0.002057 0.010270 -0.004326 0.000000 0.000000 0.000000
# 3 -0.002423 -0.004326 0.010061 0.000000 0.000000 0.000000
# 4 0.000000 0.000000 0.000000 0.047375 0.000000 0.000000
# 5 0.000000 0.000000 0.000000 0.000000 0.033943 0.000000
# 6 0.000000 0.000000 0.000000 0.000000 0.000000 0.019412
#
#
# Mechanical properties :
#
#
# Convention : Reuss Voigt Hill
#
# Bulk Modulus (GPa) = 108.14038 110.35659 109.24849
# Shear Modulus (GPa) = 33.71961 38.30769 36.01365
#
# Velocity S-wave (km/s) = 3.73908 3.98535 3.86418
# Velocity P-wave (km/s) = 7.96730 8.18127 8.07500
#
# Compressibility (1/GPa) = 0.00924724
#
# Stress axis : x y z
#
# Youngs Moduli (GPa) = 153.20607 97.37333 99.39086
#
# Poissons Ratio (x) = 0.20028 0.24083
# Poissons Ratio (y) = 0.31511 0.42992
# Poissons Ratio (z) = 0.37123 0.42120
#
# Static dielectric constant tensor:
#      x y z
#    x 1.867830 0.000000 0.000000 
#    y 0.000000 1.985700 0.000000 
#    z 0.000000 0.000000 1.960850 
# 
# From -- ./inp_files/2300.got.cif
#   From: 2010.05.17/outbox.cif.g08.bks.cpg/sg34_2_cif.got.tgz:2300.got - 2010.06.03 17:23:11.
