data_PCOD9348238
_publ_section_title
;
Structure prediction by ZEFSAII (Michael W. Deem and Ramdas Pophale) SiO2 
 PCOD9348238
Probable space group: C M M 2
;
_chemical_formula_sum "Si O2"
_cell_formula_units_Z 64
_cell_length_a 9.524139
_cell_length_b 18.389434
_cell_length_c 21.588652
_cell_angle_alpha 90.000000
_cell_angle_beta 90.000000
_cell_angle_gamma 90.000000
_cell_volume 3781.112623
_symmetry_space_group_name_H-M "C M M 2"
_symmetry_group_IT_number 35
_symmetry_cell_setting 'orthorhombic'
loop_
_space_group_symop_operation_xyz
x,y,z
-x,-y,z
-x,y,z
x,-y,z
1/2+x,1/2+y,z
1/2-x,1/2-y,z
1/2-x,1/2+y,z
1/2+x,1/2-y,z
loop_
_atom_site_type_symbol
_atom_site_label
_atom_site_fract_x
_atom_site_fract_y
_atom_site_fract_z
Si Si1 0.663763 0.411609 0.579310
Si Si2 0.662193 0.088762 0.324118
Si Si3 0.663756 0.588483 0.442331
Si Si4 0.832910 0.414360 0.699335
Si Si5 0.669353 0.174226 0.823655
Si Si6 0.670794 0.083683 0.187709
Si Si7 0.170324 0.417197 0.944757
Si Si8 0.330031 0.825734 0.066471
O O1 0.500000 0.391903 0.585943
O O2 0.670368 0.500000 0.579096
O O3 0.713265 0.387775 0.510827
O O4 0.752645 0.387331 0.638240
O O5 0.500000 0.110822 0.330480
O O6 0.749661 0.114360 0.383166
O O7 0.716880 0.110021 0.255893
O O8 0.664286 0.000000 0.323559
O O9 0.500000 0.607515 0.436426
O O10 0.671274 0.500000 0.441954
O O11 0.799694 0.500000 0.708897
O O12 0.798078 0.369711 0.760880
O O13 0.000000 0.409325 0.689135
O O14 0.500000 0.184894 0.825973
O O15 0.750000 0.250000 0.824282
O O16 0.711585 0.127054 0.883624
O O17 0.500000 0.082137 0.190084
O O18 0.709796 0.133453 0.130066
O O19 0.716499 0.000000 0.178263
O O20 0.222211 0.500000 0.943981
O O21 0.000000 0.420287 0.943892
O O22 0.208364 0.375428 0.007527
O O23 0.500000 0.815998 0.066026
O O24 0.250000 0.750000 0.062038
#
# Coordination Sequence:
#
# PCOD9348238 Si02
#       8
#     8   8   8   8   8   8   8   8
#     4   8  14  24  38  58  86 118 149 183 225 273
#     4   8  13  21  35  56  81 109 144 187 228 263
#     4   8  13  21  33  53  84 117 144 174 220 275
#     4   9  17  29  45  65  89 118 153 192 229 265
#     4  10  20  33  49  70  96 123 152 188 228 270
#     4   8  14  26  44  65  88 117 156 195 226 263
#     4   9  17  31  53  76  94 119 157 193 223 262
#     4  10  19  31  49  71  95 123 154 189 228 270
#
# _framework density 16.926234999999998
#
# number of rings (size 3 to 8) (size 9 to 14) (size 15 to 20)
#    0.000    3.250    0.000    2.625    0.000    4.000 
#    0.000    3.125    0.000    4.125    0.000    0.875 
#    0.000    2.000    0.000    0.000    0.000    0.000 
#
# Total GULP energy -178154.107526 kJ/mol
# GULP energy per Si atom -5567.315860 kJ/mol
# Density = 1.688771 g / cm^3
# Si number density = 16.926235 Si / 1000 Ang^3
#
#
#
# Elastic Constant Matrix: (Units=GPa)
#
#
# Indices 1 2 3 4 5 6 
#
# 1 25.5675 31.3175 60.4643 0.0000 0.0000 0.0000
# 2 31.3175 77.3202 76.6522 0.0000 0.0000 0.0000
# 3 60.4643 76.6522 214.0462 0.0000 0.0000 0.0000
# 4 0.0000 0.0000 0.0000 -4.1646 0.0000 0.0000
# 5 0.0000 0.0000 0.0000 0.0000 0.3383 0.0000
# 6 0.0000 0.0000 0.0000 0.0000 0.0000 19.6393
#
#
#
# Elastic Compliance Matrix: (Units=1/GPa)
#
#
# Indices 1 2 3 4 5 6 
#
# 1 0.151184 -0.029299 -0.032215 0.000000 0.000000 0.000000
# 2 -0.029299 0.025730 -0.000938 0.000000 0.000000 0.000000
# 3 -0.032215 -0.000938 0.014108 0.000000 0.000000 0.000000
# 4 0.000000 0.000000 0.000000 -0.240117 0.000000 0.000000
# 5 0.000000 0.000000 0.000000 0.000000 2.955846 0.000000
# 6 0.000000 0.000000 0.000000 0.000000 0.000000 0.050918
#
#
# Mechanical properties :
#
#
# Convention : Reuss Voigt Hill
#
# Bulk Modulus (GPa) = 15.12417 72.64466 43.88442
# Shear Modulus (GPa) = 1.61051 13.06259 7.33655
#
# Velocity S-wave (km/s) = 0.97650 2.78103 2.08419
# Velocity P-wave (km/s) = 3.19783 7.30231 5.63693
#
# Compressibility (1/GPa) = 0.06611932
#
# Stress axis : x y z
#
# Youngs Moduli (GPa) = 6.61448 38.86524 70.88278
#
# Poissons Ratio (x) = 1.13869 2.28346
# Poissons Ratio (y) = 0.19379 0.06648
# Poissons Ratio (z) = 0.21308 0.03645
#
# Static dielectric constant tensor:
#      x y z
#    x 1.561940 0.000000 0.000000 
#    y 0.000000 1.551180 0.000000 
#    z 0.000000 0.000000 1.590040 
# 
# From -- ./inp_files/18652.got.cif
#   From: 2010.05.17/outbox.cif.g08.bks.cpg/sg35_10_cif.got.tgz:18652.got - 2010.06.03 17:29:28.
