data_PCOD9348559
_publ_section_title
;
Structure prediction by ZEFSAII (Michael W. Deem and Ramdas Pophale) SiO2 
 PCOD9348559
Probable space group: C M M 2
;
_chemical_formula_sum "Si O2"
_cell_formula_units_Z 64
_cell_length_a 17.541146
_cell_length_b 19.585790
_cell_length_c 10.210445
_cell_angle_alpha 90.000000
_cell_angle_beta 90.000000
_cell_angle_gamma 90.000000
_cell_volume 3507.871915
_symmetry_space_group_name_H-M "C M M 2"
_symmetry_group_IT_number 35
_symmetry_cell_setting 'orthorhombic'
loop_
_space_group_symop_operation_xyz
x,y,z
-x,-y,z
-x,y,z
x,-y,z
1/2+x,1/2+y,z
1/2-x,1/2-y,z
1/2-x,1/2+y,z
1/2+x,1/2-y,z
loop_
_atom_site_type_symbol
_atom_site_label
_atom_site_fract_x
_atom_site_fract_y
_atom_site_fract_z
Si Si1 0.591480 0.789102 0.963650
Si Si2 0.412440 0.783686 0.444109
Si Si3 0.349164 0.921012 0.510347
Si Si4 0.592485 0.710727 0.712188
Si Si5 0.091281 0.579516 0.802759
Si Si6 0.908399 0.925197 0.587944
Si Si7 0.670031 0.283346 0.203918
Si Si8 0.693542 0.579035 0.344164
O O1 0.500000 0.790094 0.965128
O O2 0.621556 0.742968 0.844317
O O3 0.612739 0.866460 0.917039
O O4 0.616007 0.749393 0.093852
O O5 0.500000 0.764334 0.420768
O O6 0.402362 0.864836 0.442975
O O7 0.389990 0.757505 0.587806
O O8 0.359456 0.747097 0.340488
O O9 0.360703 0.911063 0.667666
O O10 0.266440 0.909680 0.441630
O O11 0.369877 0.000000 0.486033
O O12 0.500000 0.709020 0.721445
O O13 0.619792 0.635041 0.680077
O O14 0.099058 0.500000 0.842083
O O15 0.000000 0.590814 0.771249
O O16 0.878416 0.914445 0.441490
O O17 0.000000 0.923923 0.587478
O O18 0.881810 0.000000 0.630606
O O19 0.750000 0.250000 0.171409
O O20 0.683330 0.363983 0.231904
O O21 0.698068 0.500000 0.298087
#
# Coordination Sequence:
#
# PCOD9348559 Si02
#       8
#     8   8   8   8   8   8   8   8
#     4  10  21  38  57  81 115 152 192 238 287 345
#     4  11  20  34  60  89 113 144 190 241 291 347
#     4  10  19  33  56  89 124 153 184 234 296 354
#     4   9  17  32  55  83 110 136 177 239 295 335
#     4   9  17  33  59  89 120 152 189 238 298 362
#     4   9  17  31  54  83 110 139 183 240 296 342
#     4  12  24  40  55  80 115 159 196 237 288 344
#     4  10  21  37  57  82 118 155 193 242 295 346
#
# _framework density 18.244679999999999
#
# number of rings (size 3 to 8) (size 9 to 14) (size 15 to 20)
#    0.000    2.000    3.750    0.750    0.000    1.250 
#    2.250    2.500    0.000    2.250    0.000    0.000 
#    0.000    0.000    0.000    0.000    0.000    0.000 
#
# Total GULP energy -178163.144038 kJ/mol
# GULP energy per Si atom -5567.598251 kJ/mol
# Density = 1.820315 g / cm^3
# Si number density = 18.244680 Si / 1000 Ang^3
#
#
#
# Elastic Constant Matrix: (Units=GPa)
#
#
# Indices 1 2 3 4 5 6 
#
# 1 13.2398 16.3951 3.1771 0.0000 0.0000 0.0000
# 2 16.3951 150.3520 40.7629 0.0000 0.0000 0.0000
# 3 3.1771 40.7629 33.9797 0.0000 0.0000 0.0000
# 4 0.0000 0.0000 0.0000 25.5090 0.0000 0.0000
# 5 0.0000 0.0000 0.0000 0.0000 6.9678 0.0000
# 6 0.0000 0.0000 0.0000 0.0000 0.0000 12.6683
#
#
#
# Elastic Compliance Matrix: (Units=1/GPa)
#
#
# Indices 1 2 3 4 5 6 
#
# 1 0.087859 -0.010898 0.004858 0.000000 0.000000 0.000000
# 2 -0.010898 0.011209 -0.012427 0.000000 0.000000 0.000000
# 3 0.004858 -0.012427 0.043883 0.000000 0.000000 0.000000
# 4 0.000000 0.000000 0.000000 0.039202 0.000000 0.000000
# 5 0.000000 0.000000 0.000000 0.000000 0.143518 0.000000
# 6 0.000000 0.000000 0.000000 0.000000 0.000000 0.078937
#
#
# Mechanical properties :
#
#
# Convention : Reuss Voigt Hill
#
# Bulk Modulus (GPa) = 9.43243 35.36021 22.39632
# Shear Modulus (GPa) = 10.48482 18.17810 14.33146
#
# Velocity S-wave (km/s) = 2.39985 3.15993 2.80574
# Velocity P-wave (km/s) = 3.58611 5.72160 4.77477
#
# Compressibility (1/GPa) = 0.10601725
#
# Stress axis : x y z
#
# Youngs Moduli (GPa) = 11.38192 89.21700 22.78783
#
# Poissons Ratio (x) = 0.97226 -0.11071
# Poissons Ratio (y) = 0.12404 0.28319
# Poissons Ratio (z) = -0.05530 1.10872
#
# Static dielectric constant tensor:
#      x y z
#    x 1.650860 0.000000 0.000000 
#    y 0.000000 1.675360 0.000000 
#    z 0.000000 0.000000 1.619000 
# 
# From -- ./inp_files/8788.got.cif
#   From: 2010.05.17/outbox.cif.g08.bks.cpg/sg35_5_cif.got.tgz:8788.got - 2010.06.03 17:29:28.
