data_PCOD9348736
_publ_section_title
;
Structure prediction by ZEFSAII (Michael W. Deem and Ramdas Pophale) SiO2 
 PCOD9348736
Probable space group: C M M 2
;
_chemical_formula_sum "Si O2"
_cell_formula_units_Z 48
_cell_length_a 32.830393
_cell_length_b 8.596345
_cell_length_c 9.688830
_cell_angle_alpha 90.000000
_cell_angle_beta 90.000000
_cell_angle_gamma 90.000000
_cell_volume 2734.395019
_symmetry_space_group_name_H-M "C M M 2"
_symmetry_group_IT_number 35
_symmetry_cell_setting 'orthorhombic'
loop_
_space_group_symop_operation_xyz
x,y,z
-x,-y,z
-x,y,z
x,-y,z
1/2+x,1/2+y,z
1/2-x,1/2-y,z
1/2-x,1/2+y,z
1/2+x,1/2-y,z
loop_
_atom_site_type_symbol
_atom_site_label
_atom_site_fract_x
_atom_site_fract_y
_atom_site_fract_z
Si Si1 0.043548 0.315122 0.434450
Si Si2 0.955420 0.316094 0.768633
Si Si3 0.369345 0.685759 0.757947
Si Si4 0.206335 0.186949 0.947448
Si Si5 0.206533 0.686952 0.257239
Si Si6 0.368367 0.188653 0.447788
O O1 0.042811 0.500000 0.403914
O O2 0.044077 0.300777 0.601412
O O3 0.087706 0.254526 0.389927
O O4 0.000000 0.248716 0.385666
O O5 0.953063 0.500000 0.798517
O O6 0.913661 0.236817 0.814914
O O7 0.000000 0.258626 0.817756
O O8 0.368809 0.500000 0.747855
O O9 0.331732 0.735982 0.853548
O O10 0.364269 0.755214 0.604840
O O11 0.250000 0.250000 0.896332
O O12 0.208029 0.000000 0.951165
O O13 0.200898 0.249994 0.102451
O O14 0.207846 0.500000 0.253045
O O15 0.250000 0.750000 0.308156
O O16 0.169448 0.737306 0.354477
O O17 0.369607 0.000000 0.449927
#
# Coordination Sequence:
#
# PCOD9348736 Si02
#       6
#     8   8   8   8   8   8
#     4   7  10  20  40  64  89 116 146 181 220 263
#     4   8  14  26  45  68  95 128 162 194 231 278
#     4  10  20  31  47  74 102 127 158 198 243 285
#     4  10  21  36  52  70  93 125 164 201 241 290
#     4  10  20  34  52  71  92 123 161 198 240 289
#     4   9  18  31  48  72  98 124 156 194 238 284
#
# _framework density 17.554158000000001
#
# number of rings (size 3 to 8) (size 9 to 14) (size 15 to 20)
#    0.000    3.000    0.000    4.500    0.000    5.000 
#    0.000    3.333    0.000    1.000    0.000    2.333 
#    0.000    0.000    0.000    0.000    0.000    0.000 
#
# Total GULP energy -133604.105686 kJ/mol
# GULP energy per Si atom -5566.837737 kJ/mol
# Density = 1.751420 g / cm^3
# Si number density = 17.554158 Si / 1000 Ang^3
#
#
#
# Elastic Constant Matrix: (Units=GPa)
#
#
# Indices 1 2 3 4 5 6 
#
# 1 234.0126 36.0588 69.8750 0.0000 0.0000 0.0000
# 2 36.0588 22.7002 11.3441 0.0000 0.0000 0.0000
# 3 69.8750 11.3441 33.6935 0.0000 0.0000 0.0000
# 4 0.0000 0.0000 0.0000 15.9123 0.0000 0.0000
# 5 0.0000 0.0000 0.0000 0.0000 -15.5206 0.0000
# 6 0.0000 0.0000 0.0000 0.0000 0.0000 23.7374
#
#
#
# Elastic Compliance Matrix: (Units=1/GPa)
#
#
# Indices 1 2 3 4 5 6 
#
# 1 0.012379 -0.008217 -0.022905 0.000000 0.000000 0.000000
# 2 -0.008217 0.058418 -0.002628 0.000000 0.000000 0.000000
# 3 -0.022905 -0.002628 0.078066 0.000000 0.000000 0.000000
# 4 0.000000 0.000000 0.000000 0.062845 0.000000 0.000000
# 5 0.000000 0.000000 0.000000 0.000000 -0.064430 0.000000
# 6 0.000000 0.000000 0.000000 0.000000 0.000000 0.042128
#
#
# Mechanical properties :
#
#
# Convention : Reuss Voigt Hill
#
# Bulk Modulus (GPa) = 12.29068 58.32914 35.30991
# Shear Modulus (GPa) = 17.60407 16.36770 16.98589
#
# Velocity S-wave (km/s) = 3.17021 3.05685 3.11405
# Velocity P-wave (km/s) = 4.51852 6.76457 5.75224
#
# Compressibility (1/GPa) = 0.08136248
#
# Stress axis : x y z
#
# Youngs Moduli (GPa) = 80.78361 17.11798 12.80972
#
# Poissons Ratio (x) = 0.14066 0.29341
# Poissons Ratio (y) = 0.66379 0.03367
# Poissons Ratio (z) = 1.85035 0.04499
#
# Static dielectric constant tensor:
#      x y z
#    x 1.662090 0.000000 0.000000 
#    y 0.000000 1.601530 0.000000 
#    z 0.000000 0.000000 1.562380 
# 
# From -- ./inp_files/11628.got.cif
#   From: 2010.05.17/outbox.cif.g08.bks.cpg/sg35_6_cif.got.tgz:11628.got - 2010.06.03 17:29:28.
