data_PCOD9348888
_publ_section_title
;
Structure prediction by ZEFSAII (Michael W. Deem and Ramdas Pophale) SiO2 
 PCOD9348888
Probable space group: C M M 2
;
_chemical_formula_sum "Si O2"
_cell_formula_units_Z 56
_cell_length_a 35.769972
_cell_length_b 15.283122
_cell_length_c 5.134728
_cell_angle_alpha 90.000000
_cell_angle_beta 90.000000
_cell_angle_gamma 90.000000
_cell_volume 2807.036908
_symmetry_space_group_name_H-M "C M M 2"
_symmetry_group_IT_number 35
_symmetry_cell_setting 'orthorhombic'
loop_
_space_group_symop_operation_xyz
x,y,z
-x,-y,z
-x,y,z
x,-y,z
1/2+x,1/2+y,z
1/2-x,1/2-y,z
1/2-x,1/2+y,z
1/2+x,1/2-y,z
loop_
_atom_site_type_symbol
_atom_site_label
_atom_site_fract_x
_atom_site_fract_y
_atom_site_fract_z
Si Si1 0.602618 0.663414 0.280470
Si Si2 0.959638 0.908307 0.983701
Si Si3 0.320398 0.605690 0.534965
Si Si4 0.957436 0.739042 0.622279
Si Si5 0.709036 0.709943 0.044935
Si Si6 0.896427 0.600325 0.641685
Si Si7 0.141231 0.324153 0.122177
O O1 0.636219 0.630706 0.464396
O O2 0.569830 0.720258 0.408890
O O3 0.621311 0.729910 0.076289
O O4 0.578188 0.590308 0.145831
O O5 0.958970 0.818203 0.827565
O O6 0.000000 0.907084 0.129106
O O7 0.959886 0.000000 0.826084
O O8 0.317361 0.500000 0.560690
O O9 0.306162 0.657800 0.790440
O O10 0.296773 0.643979 0.289592
O O11 0.934742 0.652600 0.701980
O O12 0.000000 0.719890 0.541601
O O13 0.750000 0.750000 0.006490
O O14 0.683824 0.795218 0.111578
O O15 0.904316 0.500000 0.583136
O O16 0.873697 0.641967 0.399184
O O17 0.870907 0.611495 0.895840
#
# Coordination Sequence:
#
# PCOD9348888 Si02
#       7
#     8   8   8   8   8   8   8
#     4  10  20  36  59  83 120 166 205 254 317 377
#     4  10  20  33  52  83 120 161 209 257 313 382
#     4  11  24  40  65 100 131 164 215 265 308 379
#     4  10  21  37  56  83 122 165 210 267 326 379
#     4  11  23  44  68  93 131 172 205 253 327 394
#     4  11  22  40  63  90 122 162 218 272 316 374
#     4  10  21  40  63  90 119 159 206 253 316 381
#
# _framework density 19.949864000000002
#
# number of rings (size 3 to 8) (size 9 to 14) (size 15 to 20)
#    0.000    1.571    1.429    4.714    2.000    1.429 
#    0.000    5.714    0.000    1.714    0.000    0.000 
#    0.000    0.000    0.000    0.000    0.000    0.000 
#
# Total GULP energy -155995.184261 kJ/mol
# GULP energy per Si atom -5571.256581 kJ/mol
# Density = 1.990446 g / cm^3
# Si number density = 19.949864 Si / 1000 Ang^3
#
#
#
# Elastic Constant Matrix: (Units=GPa)
#
#
# Indices 1 2 3 4 5 6 
#
# 1 158.0584 54.8456 33.1241 0.0000 0.0000 0.0000
# 2 54.8456 116.7378 18.2168 0.0000 0.0000 0.0000
# 3 33.1241 18.2168 88.5526 0.0000 0.0000 0.0000
# 4 0.0000 0.0000 0.0000 -56.9637 0.0000 0.0000
# 5 0.0000 0.0000 0.0000 0.0000 22.0473 0.0000
# 6 0.0000 0.0000 0.0000 0.0000 0.0000 17.6164
#
#
#
# Elastic Compliance Matrix: (Units=1/GPa)
#
#
# Indices 1 2 3 4 5 6 
#
# 1 0.007984 -0.003394 -0.002288 0.000000 0.000000 0.000000
# 2 -0.003394 0.010293 -0.000848 0.000000 0.000000 0.000000
# 3 -0.002288 -0.000848 0.012323 0.000000 0.000000 0.000000
# 4 0.000000 0.000000 0.000000 -0.017555 0.000000 0.000000
# 5 0.000000 0.000000 0.000000 0.000000 0.045357 0.000000
# 6 0.000000 0.000000 0.000000 0.000000 0.000000 0.056765
#
#
# Mechanical properties :
#
#
# Convention : Reuss Voigt Hill
#
# Bulk Modulus (GPa) = 57.01304 63.96908 60.49106
# Shear Modulus (GPa) = 37.29271 13.68415 25.48843
#
# Velocity S-wave (km/s) = 4.32826 2.62186 3.57826
# Velocity P-wave (km/s) = 7.32247 6.42651 6.88907
#
# Compressibility (1/GPa) = 0.01753985
#
# Stress axis : x y z
#
# Youngs Moduli (GPa) = 125.25015 97.15284 81.14822
#
# Poissons Ratio (x) = 0.32973 0.18569
# Poissons Ratio (y) = 0.42509 0.06881
# Poissons Ratio (z) = 0.28661 0.08238
#
# Static dielectric constant tensor:
#      x y z
#    x 1.768160 0.000000 0.000000 
#    y 0.000000 1.791300 0.000000 
#    z 0.000000 0.000000 1.767140 
# 
# From -- ./inp_files/4014.got.cif
#   From: 2010.05.17/outbox.cif.g08.bks.cpg/sg35_3_cif.got.tgz:4014.got - 2010.06.03 17:29:28.
