data_PCOD9348532
_publ_section_title
;
Structure prediction by ZEFSAII (Michael W. Deem and Ramdas Pophale) SiO2 
 PCOD9348532
Probable space group: C M M 2
;
_chemical_formula_sum "Si O2"
_cell_formula_units_Z 64
_cell_length_a 17.332658
_cell_length_b 15.323381
_cell_length_c 14.291043
_cell_angle_alpha 90.000000
_cell_angle_beta 90.000000
_cell_angle_gamma 90.000000
_cell_volume 3795.628455
_symmetry_space_group_name_H-M "C M M 2"
_symmetry_group_IT_number 35
_symmetry_cell_setting 'orthorhombic'
loop_
_space_group_symop_operation_xyz
x,y,z
-x,-y,z
-x,y,z
x,-y,z
1/2+x,1/2+y,z
1/2-x,1/2-y,z
1/2-x,1/2+y,z
1/2+x,1/2-y,z
loop_
_atom_site_type_symbol
_atom_site_label
_atom_site_fract_x
_atom_site_fract_y
_atom_site_fract_z
Si Si1 0.820509 0.098854 0.611730
Si Si2 0.408693 0.721972 0.750615
Si Si3 0.679576 0.901226 0.750615
Si Si4 0.408576 0.721400 0.250615
Si Si5 0.824795 0.404450 0.250615
Si Si6 0.679491 0.598854 0.889500
Si Si7 0.207763 0.158272 0.096275
Si Si8 0.207763 0.841728 0.404954
O O1 0.874085 0.170037 0.661600
O O2 0.737005 0.107389 0.661695
O O3 0.813209 0.113302 0.501649
O O4 0.847517 0.000000 0.631641
O O5 0.500000 0.718778 0.750615
O O6 0.378842 0.821298 0.750615
O O7 0.374085 0.670037 0.839629
O O8 0.737005 0.892611 0.839534
O O9 0.647286 0.000000 0.750615
O O10 0.500000 0.710881 0.250615
O O11 0.383246 0.823282 0.250615
O O12 0.366464 0.678891 0.160639
O O13 0.366464 0.678891 0.340591
O O14 0.860916 0.500000 0.250615
O O15 0.768456 0.393302 0.161185
O O16 0.768456 0.393302 0.340045
O O17 0.652483 0.500000 0.869589
O O18 0.686790 0.613302 0.999581
O O19 0.250000 0.250000 0.075142
O O20 0.250000 0.750000 0.426087
#
# Coordination Sequence:
#
# PCOD9348532 Si02
#       8
#     8   8   8   8   8   8   8   8
#     4  10  19  33  55  76  96 127 167 208 244 284
#     4  11  22  34  49  73 107 135 157 195 244 298
#     4   9  19  35  55  77  96 123 167 208 242 285
#     4   9  19  32  46  70 101 131 160 192 241 297
#     4   9  17  30  50  74  95 119 160 208 246 286
#     4  10  19  33  55  76  96 127 167 208 244 284
#     4   9  17  31  51  71  94 127 165 204 242 283
#     4   9  17  31  51  71  94 127 165 204 242 283
#
# _framework density 16.861502000000002
#
# number of rings (size 3 to 8) (size 9 to 14) (size 15 to 20)
#    0.000    2.500    0.000    6.375    0.000    2.500 
#    0.000    0.000    0.000   12.750    0.000    7.000 
#    0.000    0.000    0.000    0.000    0.000    0.000 
#
# Total GULP energy -178435.528313 kJ/mol
# GULP energy per Si atom -5576.110260 kJ/mol
# Density = 1.682312 g / cm^3
# Si number density = 16.861502 Si / 1000 Ang^3
#
#
#
# Elastic Constant Matrix: (Units=GPa)
#
#
# Indices 1 2 3 4 5 6 
#
# 1 63.9289 14.7873 18.2060 0.0000 0.0000 0.0000
# 2 14.7873 87.7195 26.6044 0.0000 0.0000 0.0000
# 3 18.2060 26.6044 112.3071 0.0000 0.0000 0.0000
# 4 0.0000 0.0000 0.0000 -43.0754 0.0000 0.0000
# 5 0.0000 0.0000 0.0000 0.0000 1.9844 0.0000
# 6 0.0000 0.0000 0.0000 0.0000 0.0000 6.8810
#
#
#
# Elastic Compliance Matrix: (Units=1/GPa)
#
#
# Indices 1 2 3 4 5 6 
#
# 1 0.016770 -0.002158 -0.002207 0.000000 0.000000 0.000000
# 2 -0.002158 0.012560 -0.002626 0.000000 0.000000 0.000000
# 3 -0.002207 -0.002626 0.009884 0.000000 0.000000 0.000000
# 4 0.000000 0.000000 0.000000 -0.023215 0.000000 0.000000
# 5 0.000000 0.000000 0.000000 0.000000 0.503936 0.000000
# 6 0.000000 0.000000 0.000000 0.000000 0.000000 0.145329
#
#
# Mechanical properties :
#
#
# Convention : Reuss Voigt Hill
#
# Bulk Modulus (GPa) = 39.63081 42.57233 41.10157
# Shear Modulus (GPa) = 7.27108 6.78183 7.02645
#
# Velocity S-wave (km/s) = 2.07884 2.00769 2.04358
# Velocity P-wave (km/s) = 5.41451 5.53872 5.47697
#
# Compressibility (1/GPa) = 0.02523289
#
# Stress axis : x y z
#
# Youngs Moduli (GPa) = 59.62998 79.61790 101.17379
#
# Poissons Ratio (x) = 0.17178 0.22334
# Poissons Ratio (y) = 0.12865 0.26564
# Poissons Ratio (z) = 0.13163 0.20904
#
# Static dielectric constant tensor:
#      x y z
#    x 1.522510 0.000000 0.000000 
#    y 0.000000 1.593350 0.000000 
#    z 0.000000 0.000000 1.563020 
# 
# From -- ./inp_files/17240.got.cif
#   From: 2010.05.17/outbox.cif.g08.bks.cpg/sg35_9_cif.got.tgz:17240.got - 2010.06.03 17:29:28.
