data_PCOD9348581
_publ_section_title
;
Structure prediction by ZEFSAII (Michael W. Deem and Ramdas Pophale) SiO2 
 PCOD9348581
Probable space group: C M M 2
;
_chemical_formula_sum "Si O2"
_cell_formula_units_Z 64
_cell_length_a 30.238225
_cell_length_b 8.517717
_cell_length_c 12.737388
_cell_angle_alpha 90.000000
_cell_angle_beta 90.000000
_cell_angle_gamma 90.000000
_cell_volume 3280.649845
_symmetry_space_group_name_H-M "C M M 2"
_symmetry_group_IT_number 35
_symmetry_cell_setting 'orthorhombic'
loop_
_space_group_symop_operation_xyz
x,y,z
-x,-y,z
-x,y,z
x,-y,z
1/2+x,1/2+y,z
1/2-x,1/2-y,z
1/2-x,1/2+y,z
1/2+x,1/2-y,z
loop_
_atom_site_type_symbol
_atom_site_label
_atom_site_fract_x
_atom_site_fract_y
_atom_site_fract_z
Si Si1 0.317676 0.814900 0.273040
Si Si2 0.409769 0.683183 0.338636
Si Si3 0.051385 0.308400 0.770457
Si Si4 0.895003 0.690015 0.562631
Si Si5 0.202815 0.814490 0.043354
Si Si6 0.548167 0.813568 0.151065
Si Si7 0.796096 0.311001 0.507073
Si Si8 0.611628 0.189785 0.966635
O O1 0.369486 0.784246 0.290619
O O2 0.302791 0.733773 0.166111
O O3 0.298394 0.757227 0.384670
O O4 0.308777 0.000000 0.262422
O O5 0.398414 0.500000 0.336182
O O6 0.415783 0.738951 0.457234
O O7 0.448980 0.722109 0.259781
O O8 0.050300 0.500000 0.772622
O O9 0.076933 0.262533 0.663978
O O10 0.082311 0.258248 0.867589
O O11 0.000000 0.256459 0.775344
O O12 0.895973 0.500000 0.555307
O O13 0.842698 0.736180 0.560835
O O14 0.250000 0.750000 0.006931
O O15 0.202428 0.000000 0.036781
O O16 0.161584 0.747756 0.977694
O O17 0.500000 0.793385 0.100729
O O18 0.553701 0.000000 0.170611
O O19 0.585564 0.758999 0.071036
O O20 0.795263 0.500000 0.506327
O O21 0.750000 0.250000 0.553327
O O22 0.612276 0.000000 0.965937
#
# Coordination Sequence:
#
# PCOD9348581 Si02
#       8
#     8   8   8   8   8   8   8   8
#     4  10  19  34  54  79 113 152 194 241 289 343
#     4  11  21  33  52  81 118 157 193 236 290 349
#     4   9  18  36  65  93 111 141 196 251 296 350
#     4   9  19  36  56  81 115 150 191 243 294 346
#     4  12  24  37  56  84 118 158 199 238 288 346
#     4  10  20  34  55  82 114 153 191 232 293 361
#     4   9  18  30  48  75 109 148 186 228 278 333
#     4  10  20  37  61  87 117 147 189 248 299 348
#
# _framework density 19.508330999999998
#
# number of rings (size 3 to 8) (size 9 to 14) (size 15 to 20)
#    0.000    2.000    1.250    4.125    0.000    5.750 
#    0.000    2.500    0.000    3.375    0.000    0.000 
#    0.000    0.000    0.000    0.000    0.000    0.000 
#
# Total GULP energy -178553.001181 kJ/mol
# GULP energy per Si atom -5579.781287 kJ/mol
# Density = 1.946393 g / cm^3
# Si number density = 19.508331 Si / 1000 Ang^3
#
#
#
# Elastic Constant Matrix: (Units=GPa)
#
#
# Indices 1 2 3 4 5 6 
#
# 1 160.0802 21.1007 76.5826 0.0000 0.0000 0.0000
# 2 21.1007 20.4856 21.5646 0.0000 0.0000 0.0000
# 3 76.5826 21.5646 116.4649 0.0000 0.0000 0.0000
# 4 0.0000 0.0000 0.0000 8.4524 0.0000 0.0000
# 5 0.0000 0.0000 0.0000 0.0000 12.7997 0.0000
# 6 0.0000 0.0000 0.0000 0.0000 0.0000 20.8955
#
#
#
# Elastic Compliance Matrix: (Units=1/GPa)
#
#
# Indices 1 2 3 4 5 6 
#
# 1 0.009362 -0.003928 -0.005428 0.000000 0.000000 0.000000
# 2 -0.003928 0.062281 -0.008949 0.000000 0.000000 0.000000
# 3 -0.005428 -0.008949 0.013813 0.000000 0.000000 0.000000
# 4 0.000000 0.000000 0.000000 0.118309 0.000000 0.000000
# 5 0.000000 0.000000 0.000000 0.000000 0.078127 0.000000
# 6 0.000000 0.000000 0.000000 0.000000 0.000000 0.047857
#
#
# Mechanical properties :
#
#
# Convention : Reuss Voigt Hill
#
# Bulk Modulus (GPa) = 20.47323 59.50295 39.98809
# Shear Modulus (GPa) = 13.06706 20.28172 16.67439
#
# Velocity S-wave (km/s) = 2.59090 3.22785 2.92675
# Velocity P-wave (km/s) = 4.41222 6.66780 5.65364
#
# Compressibility (1/GPa) = 0.04884426
#
# Stress axis : x y z
#
# Youngs Moduli (GPa) = 106.81851 16.05623 72.39658
#
# Poissons Ratio (x) = 0.06307 0.39300
# Poissons Ratio (y) = 0.41962 0.64787
# Poissons Ratio (z) = 0.57986 0.14368
#
# Static dielectric constant tensor:
#      x y z
#    x 1.739090 0.000000 0.000000 
#    y 0.000000 1.665780 0.000000 
#    z 0.000000 0.000000 1.678380 
# 
# From -- ./inp_files/14592.got.cif
#   From: 2010.05.17/outbox.cif.g08.bks.cpg/sg35_8_cif.got.tgz:14592.got - 2010.06.03 17:29:28.
