data_PCOD9348380
_publ_section_title
;
Structure prediction by ZEFSAII (Michael W. Deem and Ramdas Pophale) SiO2 
 PCOD9348380
Probable space group: C M M 2
;
_chemical_formula_sum "Si O2"
_cell_formula_units_Z 64
_cell_length_a 31.523309
_cell_length_b 9.204702
_cell_length_c 11.889615
_cell_angle_alpha 90.000000
_cell_angle_beta 90.000000
_cell_angle_gamma 90.000000
_cell_volume 3449.922379
_symmetry_space_group_name_H-M "C M M 2"
_symmetry_group_IT_number 35
_symmetry_cell_setting 'orthorhombic'
loop_
_space_group_symop_operation_xyz
x,y,z
-x,-y,z
-x,y,z
x,-y,z
1/2+x,1/2+y,z
1/2-x,1/2-y,z
1/2-x,1/2+y,z
1/2+x,1/2-y,z
loop_
_atom_site_type_symbol
_atom_site_label
_atom_site_fract_x
_atom_site_fract_y
_atom_site_fract_z
Si Si1 0.786822 0.665323 0.928230
Si Si2 0.124483 0.666106 0.056883
Si Si3 0.050004 0.826750 0.446282
Si Si4 0.296460 0.176114 0.487150
Si Si5 0.374060 0.173702 0.319364
Si Si6 0.677339 0.669550 0.717617
Si Si7 0.049919 0.659540 0.668004
Si Si8 0.411455 0.333652 0.853648
O O1 0.774945 0.500000 0.903311
O O2 0.750000 0.750000 0.992026
O O3 0.795275 0.754058 0.814469
O O4 0.829256 0.664773 0.000557
O O5 0.107681 0.500000 0.049542
O O6 0.129038 0.706295 0.186886
O O7 0.098412 0.774674 0.977676
O O8 0.084151 0.753632 0.365105
O O9 0.063119 0.768625 0.569635
O O10 0.000000 0.789101 0.424903
O O11 0.053152 0.000000 0.442646
O O12 0.250000 0.250000 0.469543
O O13 0.331272 0.209884 0.389628
O O14 0.315758 0.242022 0.602912
O O15 0.292057 0.000000 0.494813
O O16 0.379923 0.000000 0.332331
O O17 0.688349 0.500000 0.700282
O O18 0.630515 0.674068 0.773670
O O19 0.070315 0.500000 0.656512
O O20 0.057443 0.726585 0.789359
O O21 0.000000 0.644547 0.652134
O O22 0.425717 0.500000 0.856019
#
# Coordination Sequence:
#
# PCOD9348380 Si02
#       8
#     8   8   8   8   8   8   8   8
#     4  10  19  32  52  76 103 135 173 221 273 322
#     4   9  20  38  56  75 103 141 184 225 266 320
#     4  10  21  37  59  88 118 146 180 226 280 334
#     4  11  23  37  54  79 111 146 185 228 276 329
#     4  10  22  40  60  81 108 147 193 235 275 325
#     4  10  20  34  52  76 106 138 175 219 271 329
#     4  10  20  34  55  83 113 144 176 212 261 324
#     4  10  20  34  55  82 109 139 176 221 274 326
#
# _framework density 18.551143
#
# number of rings (size 3 to 8) (size 9 to 14) (size 15 to 20)
#    0.000    2.000    0.000    3.375    0.000    7.500 
#    0.000    0.625    0.000    0.750    0.000    0.000 
#    0.000    0.000    0.000    0.000    0.000    0.000 
#
# Total GULP energy -178455.666058 kJ/mol
# GULP energy per Si atom -5576.739564 kJ/mol
# Density = 1.850892 g / cm^3
# Si number density = 18.551143 Si / 1000 Ang^3
#
#
#
# Elastic Constant Matrix: (Units=GPa)
#
#
# Indices 1 2 3 4 5 6 
#
# 1 42.6126 38.2848 41.3763 0.0000 0.0000 0.0000
# 2 38.2848 95.8294 56.6034 0.0000 0.0000 0.0000
# 3 41.3763 56.6034 137.8136 0.0000 0.0000 0.0000
# 4 0.0000 0.0000 0.0000 31.6327 0.0000 0.0000
# 5 0.0000 0.0000 0.0000 0.0000 0.3545 0.0000
# 6 0.0000 0.0000 0.0000 0.0000 0.0000 29.0653
#
#
#
# Elastic Compliance Matrix: (Units=1/GPa)
#
#
# Indices 1 2 3 4 5 6 
#
# 1 0.041763 -0.012250 -0.007507 0.000000 0.000000 0.000000
# 2 -0.012250 0.017371 -0.003457 0.000000 0.000000 0.000000
# 3 -0.007507 -0.003457 0.010930 0.000000 0.000000 0.000000
# 4 0.000000 0.000000 0.000000 0.031613 0.000000 0.000000
# 5 0.000000 0.000000 0.000000 0.000000 2.820552 0.000000
# 6 0.000000 0.000000 0.000000 0.000000 0.000000 0.034405
#
#
# Mechanical properties :
#
#
# Convention : Reuss Voigt Hill
#
# Bulk Modulus (GPa) = 42.30971 60.97609 51.64290
# Shear Modulus (GPa) = 1.66061 21.54326 11.60194
#
# Velocity S-wave (km/s) = 0.94715 3.41147 2.50352
# Velocity P-wave (km/s) = 4.90436 6.96118 6.02124
#
# Compressibility (1/GPa) = 0.02363524
#
# Stress axis : x y z
#
# Youngs Moduli (GPa) = 23.94476 57.56653 91.49283
#
# Poissons Ratio (x) = 0.70522 0.68684
# Poissons Ratio (y) = 0.29334 0.31627
# Poissons Ratio (z) = 0.17975 0.19899
#
# Static dielectric constant tensor:
#      x y z
#    x 1.692740 0.000000 0.000000 
#    y 0.000000 1.652030 0.000000 
#    z 0.000000 0.000000 1.613920 
# 
# From -- ./inp_files/14528.got.cif
#   From: 2010.05.17/outbox.cif.g08.bks.cpg/sg35_8_cif.got.tgz:14528.got - 2010.06.03 17:29:28.
