data_PCOD9348383
_publ_section_title
;
Structure prediction by ZEFSAII (Michael W. Deem and Ramdas Pophale) SiO2 
 PCOD9348383
Probable space group: C M M 2
;
_chemical_formula_sum "Si O2"
_cell_formula_units_Z 48
_cell_length_a 16.050624
_cell_length_b 7.781342
_cell_length_c 18.252412
_cell_angle_alpha 90.000000
_cell_angle_beta 90.000000
_cell_angle_gamma 90.000000
_cell_volume 2279.642200
_symmetry_space_group_name_H-M "C M M 2"
_symmetry_group_IT_number 35
_symmetry_cell_setting 'orthorhombic'
loop_
_space_group_symop_operation_xyz
x,y,z
-x,-y,z
-x,y,z
x,-y,z
1/2+x,1/2+y,z
1/2-x,1/2-y,z
1/2-x,1/2+y,z
1/2+x,1/2-y,z
loop_
_atom_site_type_symbol
_atom_site_label
_atom_site_fract_x
_atom_site_fract_y
_atom_site_fract_z
Si Si1 0.000000 0.707486 0.850621
Si Si2 0.652023 0.207358 0.750542
Si Si3 0.153153 0.295251 0.277898
Si Si4 0.153019 0.293544 0.589016
Si Si5 0.347858 0.700957 0.116513
Si Si6 0.000000 0.207597 0.021166
Si Si7 0.098255 0.304565 0.433439
O O1 0.915634 0.768477 0.809605
O O2 0.000000 0.754665 0.935420
O O3 0.000000 0.500000 0.845425
O O4 0.750000 0.250000 0.763157
O O5 0.624168 0.268420 0.669013
O O6 0.648935 0.000000 0.749260
O O7 0.139310 0.500000 0.278680
O O8 0.250000 0.250000 0.275507
O O9 0.120465 0.232232 0.199694
O O10 0.122687 0.223169 0.355828
O O11 0.137855 0.500000 0.587874
O O12 0.250000 0.250000 0.589064
O O13 0.120540 0.223197 0.511571
O O14 0.346883 0.500000 0.103949
O O15 0.250000 0.750000 0.109824
O O16 0.415995 0.776360 0.060665
O O17 0.000000 0.000000 0.029757
O O18 0.135410 0.500000 0.433603
O O19 0.000000 0.319713 0.432260
#
# Coordination Sequence:
#
# PCOD9348383 Si02
#       7
#     4   8   8   8   8   4   8
#     4  10  22  38  58  85 112 140 180 223 268 326
#     4   9  19  35  56  83 111 144 183 224 269 320
#     4  10  19  32  52  76 104 139 179 221 264 312
#     4   9  17  31  52  73 101 139 177 218 261 306
#     4  10  21  39  60  83 110 143 182 222 270 326
#     4  10  24  42  60  83 112 144 176 217 276 334
#     4   9  18  29  45  74 105 137 178 220 259 304
#
# _framework density 21.055937
#
# number of rings (size 3 to 8) (size 9 to 14) (size 15 to 20)
#    0.000    2.500    0.000    2.500    2.333    2.667 
#    0.000    4.167    0.000    2.500    0.000    0.000 
#    0.000    0.000    0.000    0.000    0.000    0.000 
#
# Total GULP energy -133695.515551 kJ/mol
# GULP energy per Si atom -5570.646481 kJ/mol
# Density = 2.100801 g / cm^3
# Si number density = 21.055937 Si / 1000 Ang^3
#
#
#
# Elastic Constant Matrix: (Units=GPa)
#
#
# Indices 1 2 3 4 5 6 
#
# 1 93.5311 7.5706 107.3217 0.0000 0.0000 0.0000
# 2 7.5706 31.7660 -0.5178 0.0000 0.0000 0.0000
# 3 107.3217 -0.5178 223.9406 0.0000 0.0000 0.0000
# 4 0.0000 0.0000 0.0000 22.0369 0.0000 0.0000
# 5 0.0000 0.0000 0.0000 0.0000 46.5068 0.0000
# 6 0.0000 0.0000 0.0000 0.0000 0.0000 13.5155
#
#
#
# Elastic Compliance Matrix: (Units=1/GPa)
#
#
# Indices 1 2 3 4 5 6 
#
# 1 0.024892 -0.006127 -0.011943 0.000000 0.000000 0.000000
# 2 -0.006127 0.032989 0.003013 0.000000 0.000000 0.000000
# 3 -0.011943 0.003013 0.010196 0.000000 0.000000 0.000000
# 4 0.000000 0.000000 0.000000 0.045379 0.000000 0.000000
# 5 0.000000 0.000000 0.000000 0.000000 0.021502 0.000000
# 6 0.000000 0.000000 0.000000 0.000000 0.000000 0.073989
#
#
# Mechanical properties :
#
#
# Convention : Reuss Voigt Hill
#
# Bulk Modulus (GPa) = 26.34214 64.22076 45.28145
# Shear Modulus (GPa) = 19.86356 32.06938 25.96647
#
# Velocity S-wave (km/s) = 3.07477 3.90687 3.51552
# Velocity P-wave (km/s) = 5.01431 7.13567 6.16689
#
# Compressibility (1/GPa) = 0.03796199
#
# Stress axis : x y z
#
# Youngs Moduli (GPa) = 40.17347 30.31268 98.07525
#
# Poissons Ratio (x) = 0.18573 1.17136
# Poissons Ratio (y) = 0.24614 -0.29546
# Poissons Ratio (z) = 0.47981 -0.09132
#
# Static dielectric constant tensor:
#      x y z
#    x 1.735020 0.000000 0.000000 
#    y 0.000000 1.794430 0.000000 
#    z 0.000000 0.000000 1.811530 
# 
# From -- ./inp_files/15195.got.cif
#   From: 2010.05.17/outbox.cif.g08.bks.cpg/sg35_8_cif.got.tgz:15195.got - 2010.06.03 17:29:28.
