data_PCOD9348381
_publ_section_title
;
Structure prediction by ZEFSAII (Michael W. Deem and Ramdas Pophale) SiO2 
 PCOD9348381
Probable space group: C M M 2
;
_chemical_formula_sum "Si O2"
_cell_formula_units_Z 64
_cell_length_a 8.623288
_cell_length_b 19.250458
_cell_length_c 21.496359
_cell_angle_alpha 90.000000
_cell_angle_beta 90.000000
_cell_angle_gamma 90.000000
_cell_volume 3568.443820
_symmetry_space_group_name_H-M "C M M 2"
_symmetry_group_IT_number 35
_symmetry_cell_setting 'orthorhombic'
loop_
_space_group_symop_operation_xyz
x,y,z
-x,-y,z
-x,y,z
x,-y,z
1/2+x,1/2+y,z
1/2-x,1/2-y,z
1/2-x,1/2+y,z
1/2+x,1/2-y,z
loop_
_atom_site_type_symbol
_atom_site_label
_atom_site_fract_x
_atom_site_fract_y
_atom_site_fract_z
Si Si1 0.686292 0.671516 0.786180
Si Si2 0.185536 0.419121 0.309532
Si Si3 0.313118 0.419002 0.174848
Si Si4 0.187751 0.171647 0.057642
Si Si5 0.186891 0.828563 0.922097
Si Si6 0.313935 0.327879 0.421849
Si Si7 0.314561 0.919267 0.673916
Si Si8 0.687090 0.419546 0.539531
O O1 0.500000 0.673596 0.783574
O O2 0.750000 0.750000 0.781540
O O3 0.734124 0.642195 0.854670
O O4 0.749080 0.626207 0.729794
O O5 0.234087 0.500000 0.318693
O O6 0.239974 0.397819 0.240567
O O7 0.257406 0.370421 0.361898
O O8 0.000000 0.416160 0.313023
O O9 0.500000 0.326992 0.921968
O O10 0.274972 0.500000 0.164562
O O11 0.260412 0.373719 0.116196
O O12 0.250000 0.250000 0.062657
O O13 0.000000 0.086519 0.179854
O O14 0.234867 0.141947 0.989450
O O15 0.250000 0.750000 0.922308
O O16 0.000000 0.826303 0.058856
O O17 0.500000 0.325743 0.421739
O O18 0.250000 0.250000 0.421796
O O19 0.262374 0.370187 0.483346
O O20 0.500000 0.915345 0.673679
O O21 0.252035 0.897096 0.606346
O O22 0.267984 0.000000 0.682059
O O23 0.500000 0.418463 0.542191
O O24 0.735089 0.500000 0.528506
#
# Coordination Sequence:
#
# PCOD9348381 Si02
#       8
#     8   8   8   8   8   8   8   8
#     4  10  19  32  52  76 103 136 174 217 262 309
#     4  10  21  37  57  79 104 137 176 215 255 305
#     4   9  18  33  52  73 100 135 172 210 253 303
#     4   9  17  30  49  73  99 129 167 210 256 305
#     4   8  15  28  46  70  98 129 167 208 253 305
#     4  11  23  38  57  82 111 139 169 210 257 303
#     4  10  21  36  54  77 106 139 174 213 256 304
#     4   9  19  37  59  79 101 135 176 213 253 305
#
# _framework density 17.934989000000002
#
# number of rings (size 3 to 8) (size 9 to 14) (size 15 to 20)
#    0.000    2.500    0.000    1.875    0.000    5.000 
#    0.000    4.375    0.000    2.250    0.000    1.750 
#    0.000    0.000    0.000    0.000    0.000    0.000 
#
# Total GULP energy -178423.990222 kJ/mol
# GULP energy per Si atom -5575.749694 kJ/mol
# Density = 1.789417 g / cm^3
# Si number density = 17.934989 Si / 1000 Ang^3
#
#
#
# Elastic Constant Matrix: (Units=GPa)
#
#
# Indices 1 2 3 4 5 6 
#
# 1 23.1555 25.5135 43.5788 0.0000 0.0000 0.0000
# 2 25.5135 76.0457 103.3028 0.0000 0.0000 0.0000
# 3 43.5788 103.3028 224.2409 0.0000 0.0000 0.0000
# 4 0.0000 0.0000 0.0000 39.2160 0.0000 0.0000
# 5 0.0000 0.0000 0.0000 0.0000 19.1727 0.0000
# 6 0.0000 0.0000 0.0000 0.0000 0.0000 21.8215
#
#
#
# Elastic Compliance Matrix: (Units=1/GPa)
#
#
# Indices 1 2 3 4 5 6 
#
# 1 0.073274 -0.014002 -0.007790 0.000000 0.000000 0.000000
# 2 -0.014002 0.037817 -0.014700 0.000000 0.000000 0.000000
# 3 -0.007790 -0.014700 0.012745 0.000000 0.000000 0.000000
# 4 0.000000 0.000000 0.000000 0.025500 0.000000 0.000000
# 5 0.000000 0.000000 0.000000 0.000000 0.052158 0.000000
# 6 0.000000 0.000000 0.000000 0.000000 0.000000 0.045826
#
#
# Mechanical properties :
#
#
# Convention : Reuss Voigt Hill
#
# Bulk Modulus (GPa) = 19.66454 74.24800 46.95627
# Shear Modulus (GPa) = 14.82555 26.11184 20.46870
#
# Velocity S-wave (km/s) = 2.87823 3.81979 3.38194
# Velocity P-wave (km/s) = 4.69401 7.80658 6.44113
#
# Compressibility (1/GPa) = 0.05085295
#
# Stress axis : x y z
#
# Youngs Moduli (GPa) = 13.64734 26.44303 78.45920
#
# Poissons Ratio (x) = 0.37025 0.61117
# Poissons Ratio (y) = 0.19109 1.15338
# Poissons Ratio (z) = 0.10631 0.38872
#
# Static dielectric constant tensor:
#      x y z
#    x 1.604860 0.000000 0.000000 
#    y 0.000000 1.581340 0.000000 
#    z 0.000000 0.000000 1.629200 
# 
# From -- ./inp_files/18352.got.cif
#   From: 2010.05.17/outbox.cif.g08.bks.cpg/sg35_10_cif.got.tgz:18352.got - 2010.06.03 17:29:28.
