data_PCOD9348013
_publ_section_title
;
Structure prediction by ZEFSAII (Michael W. Deem and Ramdas Pophale) SiO2 
 PCOD9348013
Probable space group: P N N 2
;
_chemical_formula_sum "Si O2"
_cell_formula_units_Z 20
_cell_length_a 15.313438
_cell_length_b 4.830134
_cell_length_c 11.825508
_cell_angle_alpha 90.000000
_cell_angle_beta 90.000000
_cell_angle_gamma 90.000000
_cell_volume 874.685023
_symmetry_space_group_name_H-M "P N N 2"
_symmetry_group_IT_number 34
_symmetry_cell_setting 'orthorhombic'
loop_
_space_group_symop_operation_xyz
x,y,z
-x,-y,z
1/2-x,1/2+y,1/2+z
1/2+x,1/2-y,1/2+z
loop_
_atom_site_type_symbol
_atom_site_label
_atom_site_fract_x
_atom_site_fract_y
_atom_site_fract_z
Si Si1 0.397398 0.432490 0.419960
Si Si2 0.500000 0.000000 0.101633
Si Si3 0.173686 0.822531 0.157365
Si Si4 0.585889 0.180339 0.763015
Si Si5 0.000000 0.000000 0.459679
Si Si6 0.355664 0.925796 0.268135
O O1 0.500000 0.500000 0.443883
O O2 0.343837 0.296710 0.524071
O O3 0.388556 0.214418 0.318617
O O4 0.354361 0.711952 0.372067
O O5 0.457674 0.247484 0.028522
O O6 0.428982 0.845186 0.177415
O O7 0.158774 0.544920 0.230927
O O8 0.102625 0.057045 0.185813
O O9 0.265529 0.938601 0.200597
O O10 0.500000 0.000000 0.740290
O O11 0.570059 0.330511 0.883374
#
# Coordination Sequence:
#
# PCOD9348013 Si02
#       6
#     4   2   4   4   2   4
#     4  12  24  49  77 107 146 209 243 300 383 452
#     4  12  24  46  72 102 146 206 244 296 378 446
#     4  12  27  43  77 109 149 186 249 314 361 438
#     4  12  22  47  67 111 143 189 234 305 370 451
#     4  12  24  42  76 100 142 190 240 300 364 450
#     4  12  27  48  72 109 148 192 259 305 359 457
#
# _framework density 22.865373999999999
#
# number of rings (size 3 to 8) (size 9 to 14) (size 15 to 20)
#    0.000    0.000    5.000    4.800    0.000    4.800 
#    0.000    0.000    0.000    0.000    0.000    0.000 
#    0.000    0.000    0.000    0.000    0.000    0.000 
#
# Total GULP energy -111662.133205 kJ/mol
# GULP energy per Si atom -5583.106660 kJ/mol
# Density = 2.281333 g / cm^3
# Si number density = 22.865374 Si / 1000 Ang^3
#
#
#
# Elastic Constant Matrix: (Units=GPa)
#
#
# Indices 1 2 3 4 5 6 
#
# 1 101.7246 19.5747 51.7461 0.0000 0.0000 0.0000
# 2 19.5747 142.5303 32.3101 0.0000 0.0000 0.0000
# 3 51.7461 32.3101 90.3745 0.0000 0.0000 0.0000
# 4 0.0000 0.0000 0.0000 12.4074 0.0000 0.0000
# 5 0.0000 0.0000 0.0000 0.0000 25.2312 0.0000
# 6 0.0000 0.0000 0.0000 0.0000 0.0000 20.3186
#
#
#
# Elastic Compliance Matrix: (Units=1/GPa)
#
#
# Indices 1 2 3 4 5 6 
#
# 1 0.013872 -0.000114 -0.007902 0.000000 0.000000 0.000000
# 2 -0.000114 0.007636 -0.002665 0.000000 0.000000 0.000000
# 3 -0.007902 -0.002665 0.016542 0.000000 0.000000 0.000000
# 4 0.000000 0.000000 0.000000 0.080597 0.000000 0.000000
# 5 0.000000 0.000000 0.000000 0.000000 0.039634 0.000000
# 6 0.000000 0.000000 0.000000 0.000000 0.000000 0.049216
#
#
# Mechanical properties :
#
#
# Convention : Reuss Voigt Hill
#
# Bulk Modulus (GPa) = 59.92031 60.21013 60.06522
# Shear Modulus (GPa) = 21.32914 26.99133 24.16023
#
# Velocity S-wave (km/s) = 3.05751 3.43949 3.25411
# Velocity P-wave (km/s) = 6.22311 6.49331 6.35964
#
# Compressibility (1/GPa) = 0.01668883
#
# Stress axis : x y z
#
# Youngs Moduli (GPa) = 72.08730 130.96304 60.45122
#
# Poissons Ratio (x) = 0.01491 0.47769
# Poissons Ratio (y) = 0.00821 0.16108
# Poissons Ratio (z) = 0.56964 0.34898
#
# Static dielectric constant tensor:
#      x y z
#    x 2.027130 0.000000 0.000000 
#    y 0.000000 1.866010 0.000000 
#    z 0.000000 0.000000 1.986360 
# 
# From -- ./inp_files/5577.got.cif
#   From: 2010.05.17/outbox.cif.g08.bks.cpg/sg34_3_cif.got.tgz:5577.got - 2010.06.03 17:23:11.
