data_PCOD9348077
_publ_section_title
;
Structure prediction by ZEFSAII (Michael W. Deem and Ramdas Pophale) SiO2 
 PCOD9348077
Probable space group: C M M 2
;
_chemical_formula_sum "Si O2"
_cell_formula_units_Z 64
_cell_length_a 8.442900
_cell_length_b 29.950940
_cell_length_c 12.887361
_cell_angle_alpha 90.000000
_cell_angle_beta 90.000000
_cell_angle_gamma 90.000000
_cell_volume 3258.862949
_symmetry_space_group_name_H-M "C M M 2"
_symmetry_group_IT_number 35
_symmetry_cell_setting 'orthorhombic'
loop_
_space_group_symop_operation_xyz
x,y,z
-x,-y,z
-x,y,z
x,-y,z
1/2+x,1/2+y,z
1/2-x,1/2-y,z
1/2-x,1/2+y,z
1/2+x,1/2-y,z
loop_
_atom_site_type_symbol
_atom_site_label
_atom_site_fract_x
_atom_site_fract_y
_atom_site_fract_z
Si Si1 0.188672 0.887887 0.328900
Si Si2 0.190889 0.394441 0.720095
Si Si3 0.181453 0.420969 0.941317
Si Si4 0.191948 0.948052 0.520410
Si Si5 0.818792 0.682869 0.001488
Si Si6 0.810058 0.201905 0.231694
Si Si7 0.808820 0.450933 0.154405
Si Si8 0.313613 0.702297 0.777434
O O1 0.250858 0.917880 0.423704
O O2 0.248588 0.837880 0.306823
O O3 0.226561 0.914521 0.224350
O O4 0.000000 0.884738 0.343378
O O5 0.252793 0.417121 0.827193
O O6 0.254288 0.422176 0.623405
O O7 0.239506 0.342241 0.726093
O O8 0.000000 0.395678 0.721714
O O9 0.000000 0.436719 0.927471
O O10 0.177532 0.370499 0.985573
O O11 0.250920 0.448573 0.036013
O O12 0.000000 0.948917 0.517344
O O13 0.245296 0.000000 0.516582
O O14 0.748421 0.694121 0.113398
O O15 0.000000 0.699459 0.996471
O O16 0.726410 0.700009 0.900613
O O17 0.750000 0.250000 0.266132
O O18 0.000000 0.201162 0.230010
O O19 0.779120 0.500000 0.198227
O O20 0.000000 0.443523 0.153274
O O21 0.500000 0.700346 0.762757
O O22 0.250000 0.750000 0.738447
#
# Coordination Sequence:
#
# PCOD9348077 Si02
#       8
#     8   8   8   8   8   8   8   8
#     4  10  22  40  60  82 113 151 196 245 295 350
#     4  10  21  38  60  88 118 152 198 247 298 351
#     4   8  16  31  51  78 115 152 183 226 284 341
#     4  10  22  42  65  86 112 151 197 246 301 357
#     4  10  18  32  53  79 116 160 200 239 284 338
#     4  11  22  35  54  82 113 152 196 240 293 352
#     4  10  19  32  54  84 115 149 187 229 288 355
#     4  11  21  35  56  85 122 161 201 242 288 346
#
# _framework density 19.638750000000002
#
# number of rings (size 3 to 8) (size 9 to 14) (size 15 to 20)
#    0.000    2.000    1.250    3.750    0.000    2.500 
#    0.000    2.500    0.000    1.500    0.000    0.000 
#    0.000    0.000    0.000    0.000    0.000    0.000 
#
# Total GULP energy -178519.756290 kJ/mol
# GULP energy per Si atom -5578.742384 kJ/mol
# Density = 1.959405 g / cm^3
# Si number density = 19.638750 Si / 1000 Ang^3
#
#
#
# Elastic Constant Matrix: (Units=GPa)
#
#
# Indices 1 2 3 4 5 6 
#
# 1 26.9435 11.2147 8.3431 0.0000 0.0000 0.0000
# 2 11.2147 141.4925 76.3178 0.0000 0.0000 0.0000
# 3 8.3431 76.3178 116.4022 0.0000 0.0000 0.0000
# 4 0.0000 0.0000 0.0000 14.4656 0.0000 0.0000
# 5 0.0000 0.0000 0.0000 0.0000 11.8982 0.0000
# 6 0.0000 0.0000 0.0000 0.0000 0.0000 21.4664
#
#
#
# Elastic Compliance Matrix: (Units=1/GPa)
#
#
# Indices 1 2 3 4 5 6 
#
# 1 0.038484 -0.002417 -0.001173 0.000000 0.000000 0.000000
# 2 -0.002417 0.011086 -0.007095 0.000000 0.000000 0.000000
# 3 -0.001173 -0.007095 0.013327 0.000000 0.000000 0.000000
# 4 0.000000 0.000000 0.000000 0.069130 0.000000 0.000000
# 5 0.000000 0.000000 0.000000 0.000000 0.084046 0.000000
# 6 0.000000 0.000000 0.000000 0.000000 0.000000 0.046584
#
#
# Mechanical properties :
#
#
# Convention : Reuss Voigt Hill
#
# Bulk Modulus (GPa) = 24.08176 52.95439 38.51807
# Shear Modulus (GPa) = 16.78576 22.16354 19.47465
#
# Velocity S-wave (km/s) = 2.92674 3.36305 3.15245
# Velocity P-wave (km/s) = 4.86930 6.48868 5.73642
#
# Compressibility (1/GPa) = 0.04152520
#
# Stress axis : x y z
#
# Youngs Moduli (GPa) = 25.98469 90.20298 75.03609
#
# Poissons Ratio (x) = 0.21805 0.08805
# Poissons Ratio (y) = 0.06281 0.53240
# Poissons Ratio (z) = 0.03049 0.64001
#
# Static dielectric constant tensor:
#      x y z
#    x 1.689480 0.000000 0.000000 
#    y 0.000000 1.729600 0.000000 
#    z 0.000000 0.000000 1.683850 
# 
# From -- ./inp_files/11920.got.cif
#   From: 2010.05.17/outbox.cif.g08.bks.cpg/sg35_6_cif.got.tgz:11920.got - 2010.06.03 17:29:28.
