data_PCOD9348135
_publ_section_title
;
Structure prediction by ZEFSAII (Michael W. Deem and Ramdas Pophale) SiO2 
 PCOD9348135
Probable space group: C M M 2
;
_chemical_formula_sum "Si O2"
_cell_formula_units_Z 32
_cell_length_a 19.524028
_cell_length_b 13.377582
_cell_length_c 5.059561
_cell_angle_alpha 90.000000
_cell_angle_beta 90.000000
_cell_angle_gamma 90.000000
_cell_volume 1321.477825
_symmetry_space_group_name_H-M "C M M 2"
_symmetry_group_IT_number 35
_symmetry_cell_setting 'orthorhombic'
loop_
_space_group_symop_operation_xyz
x,y,z
-x,-y,z
-x,y,z
x,-y,z
1/2+x,1/2+y,z
1/2-x,1/2-y,z
1/2-x,1/2+y,z
1/2+x,1/2-y,z
loop_
_atom_site_type_symbol
_atom_site_label
_atom_site_fract_x
_atom_site_fract_y
_atom_site_fract_z
Si Si1 0.352919 0.339236 0.230790
Si Si2 0.500000 0.825148 0.591847
Si Si3 0.359392 0.893148 0.393908
Si Si4 0.500000 0.318983 0.091991
Si Si5 0.271475 0.363724 0.735593
O O1 0.351133 0.214921 0.241182
O O2 0.427375 0.372156 0.129343
O O3 0.333569 0.372144 0.525976
O O4 0.297825 0.385336 0.028411
O O5 0.429011 0.883821 0.565838
O O6 0.500000 0.758336 0.331752
O O7 0.500000 0.748403 0.831924
O O8 0.295618 0.902787 0.591136
O O9 0.363585 0.000000 0.240959
O O10 0.250000 0.250000 0.755934
#
# Coordination Sequence:
#
# PCOD9348135 Si02
#       5
#     8   4   8   4   8
#     4  10  20  35  55  79 108 141 183 226 269 321
#     4  10  21  34  50  78 116 148 177 214 265 328
#     4  10  21  37  57  83 115 151 185 224 272 328
#     4  10  18  34  55  78 105 144 184 222 268 324
#     4  10  19  34  53  76 107 144 182 226 267 313
#
# _framework density 24.215312999999998
#
# number of rings (size 3 to 8) (size 9 to 14) (size 15 to 20)
#    0.000    2.000    0.000    7.125    0.000    2.000 
#    0.000   36.250    0.000    0.000    0.000    5.250 
#    0.000    0.000    0.000    0.000    0.000    0.000 
#
# Total GULP energy -89216.216874 kJ/mol
# GULP energy per Si atom -5576.013555 kJ/mol
# Density = 2.416020 g / cm^3
# Si number density = 24.215313 Si / 1000 Ang^3
#
#
#
# Elastic Constant Matrix: (Units=GPa)
#
#
# Indices 1 2 3 4 5 6 
#
# 1 161.1465 15.3892 19.8886 0.0000 0.0000 0.0000
# 2 15.3892 108.0664 8.3074 0.0000 0.0000 0.0000
# 3 19.8886 8.3074 134.4914 0.0000 0.0000 0.0000
# 4 0.0000 0.0000 0.0000 97.4290 0.0000 0.0000
# 5 0.0000 0.0000 0.0000 0.0000 32.2333 0.0000
# 6 0.0000 0.0000 0.0000 0.0000 0.0000 53.2299
#
#
#
# Elastic Compliance Matrix: (Units=1/GPa)
#
#
# Indices 1 2 3 4 5 6 
#
# 1 0.006396 -0.000842 -0.000894 0.000000 0.000000 0.000000
# 2 -0.000842 0.009409 -0.000457 0.000000 0.000000 0.000000
# 3 -0.000894 -0.000457 0.007596 0.000000 0.000000 0.000000
# 4 0.000000 0.000000 0.000000 0.010264 0.000000 0.000000
# 5 0.000000 0.000000 0.000000 0.000000 0.031024 0.000000
# 6 0.000000 0.000000 0.000000 0.000000 0.000000 0.018786
#
#
# Mechanical properties :
#
#
# Convention : Reuss Voigt Hill
#
# Bulk Modulus (GPa) = 52.58891 54.54164 53.56528
# Shear Modulus (GPa) = 53.07934 60.58637 56.83286
#
# Velocity S-wave (km/s) = 4.68693 5.00741 4.84982
# Velocity P-wave (km/s) = 7.14522 7.48363 7.31638
#
# Compressibility (1/GPa) = 0.01901542
#
# Stress axis : x y z
#
# Youngs Moduli (GPa) = 156.34096 106.28574 131.65158
#
# Poissons Ratio (x) = 0.08951 0.11768
# Poissons Ratio (y) = 0.13166 0.06011
# Poissons Ratio (z) = 0.13975 0.04853
#
# Static dielectric constant tensor:
#      x y z
#    x 2.017770 0.000000 0.000000 
#    y 0.000000 1.282510 0.000000 
#    z 0.000000 0.000000 1.863510 
# 
# From -- ./inp_files/2268.got.cif
#   From: 2010.05.17/outbox.cif.g08.bks.cpg/sg35_2_cif.got.tgz:2268.got - 2010.06.03 17:29:28.
