data_PCOD9348902
_publ_section_title
;
Structure prediction by ZEFSAII (Michael W. Deem and Ramdas Pophale) SiO2 
 PCOD9348902
Probable space group: C M M 2
;
_chemical_formula_sum "Si O2"
_cell_formula_units_Z 64
_cell_length_a 7.505418
_cell_length_b 29.107492
_cell_length_c 13.482402
_cell_angle_alpha 90.000000
_cell_angle_beta 90.000000
_cell_angle_gamma 90.000000
_cell_volume 2945.418047
_symmetry_space_group_name_H-M "C M M 2"
_symmetry_group_IT_number 35
_symmetry_cell_setting 'orthorhombic'
loop_
_space_group_symop_operation_xyz
x,y,z
-x,-y,z
-x,y,z
x,-y,z
1/2+x,1/2+y,z
1/2-x,1/2-y,z
1/2-x,1/2+y,z
1/2+x,1/2-y,z
loop_
_atom_site_type_symbol
_atom_site_label
_atom_site_fract_x
_atom_site_fract_y
_atom_site_fract_z
Si Si1 0.212641 0.695443 0.354090
Si Si2 0.281394 0.052697 0.859150
Si Si3 0.717786 0.895999 0.058004
Si Si4 0.706626 0.109903 0.672763
Si Si5 0.711057 0.553047 0.478533
Si Si6 0.214554 0.696209 0.569874
Si Si7 0.213516 0.303501 0.136512
Si Si8 0.786013 0.552734 0.257471
O O1 0.250000 0.750000 0.355506
O O2 0.283179 0.680458 0.461002
O O3 0.282353 0.681863 0.246154
O O4 0.000000 0.686839 0.353770
O O5 0.500000 0.052162 0.858529
O O6 0.217546 0.080468 0.762816
O O7 0.224048 0.000000 0.855308
O O8 0.224323 0.076933 0.960816
O O9 0.500000 0.897352 0.057515
O O10 0.773464 0.842625 0.060897
O O11 0.776052 0.919935 0.160778
O O12 0.500000 0.117013 0.699174
O O13 0.712709 0.081837 0.569577
O O14 0.783833 0.160210 0.650158
O O15 0.500000 0.551913 0.492781
O O16 0.719874 0.500000 0.254514
O O17 0.745234 0.571757 0.367314
O O18 0.250000 0.750000 0.586196
O O19 0.000000 0.692055 0.566169
O O20 0.250000 0.250000 0.116437
O O21 0.000000 0.306393 0.141990
O O22 0.778069 0.500000 0.480587
O O23 0.000000 0.551583 0.251150
#
# Coordination Sequence:
#
# PCOD9348902 Si02
#       8
#     8   8   8   8   8   8   8   8
#     4   8  14  25  41  61  88 123 160 198 238 285
#     4   9  17  31  52  79 106 130 167 219 265 305
#     4   9  17  29  50  76 103 133 168 211 260 307
#     4  10  20  33  54  79 103 135 177 220 260 306
#     4  10  21  35  50  73 107 140 169 209 264 322
#     4   9  18  31  48  71 101 135 172 212 254 304
#     4   9  17  29  46  68  97 133 168 205 248 297
#     4   9  17  30  51  77 102 130 166 209 259 315
#
# _framework density 21.728666
#
# number of rings (size 3 to 8) (size 9 to 14) (size 15 to 20)
#    0.000    2.875    0.000    1.125    1.750    3.250 
#    0.000    1.250    0.000    1.500    0.000    1.750 
#    0.000    0.000    0.000    0.000    0.000    0.000 
#
# Total GULP energy -178511.093818 kJ/mol
# GULP energy per Si atom -5578.471682 kJ/mol
# Density = 2.167921 g / cm^3
# Si number density = 21.728666 Si / 1000 Ang^3
#
#
#
# Elastic Constant Matrix: (Units=GPa)
#
#
# Indices 1 2 3 4 5 6 
#
# 1 59.9409 -1.6752 -5.2766 0.0000 0.0000 0.0000
# 2 -1.6752 153.1706 101.3609 0.0000 0.0000 0.0000
# 3 -5.2766 101.3609 144.6594 0.0000 0.0000 0.0000
# 4 0.0000 0.0000 0.0000 40.7708 0.0000 0.0000
# 5 0.0000 0.0000 0.0000 0.0000 11.1890 0.0000
# 6 0.0000 0.0000 0.0000 0.0000 0.0000 10.2166
#
#
#
# Elastic Compliance Matrix: (Units=1/GPa)
#
#
# Indices 1 2 3 4 5 6 
#
# 1 0.016751 -0.000412 0.000900 0.000000 0.000000 0.000000
# 2 -0.000412 0.012183 -0.008552 0.000000 0.000000 0.000000
# 3 0.000900 -0.008552 0.012938 0.000000 0.000000 0.000000
# 4 0.000000 0.000000 0.000000 0.024527 0.000000 0.000000
# 5 0.000000 0.000000 0.000000 0.000000 0.089374 0.000000
# 6 0.000000 0.000000 0.000000 0.000000 0.000000 0.097880
#
#
# Mechanical properties :
#
#
# Convention : Reuss Voigt Hill
#
# Bulk Modulus (GPa) = 38.84472 60.73214 49.78843
# Shear Modulus (GPa) = 17.96220 29.99272 23.97746
#
# Velocity S-wave (km/s) = 2.87829 3.71931 3.32549
# Velocity P-wave (km/s) = 5.38164 6.81581 6.14074
#
# Compressibility (1/GPa) = 0.02574353
#
# Stress axis : x y z
#
# Youngs Moduli (GPa) = 59.69865 82.07999 77.29378
#
# Poissons Ratio (x) = 0.03384 -0.06956
# Poissons Ratio (y) = 0.02461 0.66099
# Poissons Ratio (z) = -0.05372 0.70192
#
# Static dielectric constant tensor:
#      x y z
#    x 1.835980 0.000000 0.000000 
#    y 0.000000 1.802130 0.000000 
#    z 0.000000 0.000000 1.781830 
# 
# From -- ./inp_files/12027.got.cif
#   From: 2010.05.17/outbox.cif.g08.bks.cpg/sg35_7_cif.got.tgz:12027.got - 2010.06.03 17:29:28.
