data_PCOD9348871
_publ_section_title
;
Structure prediction by ZEFSAII (Michael W. Deem and Ramdas Pophale) SiO2 
 PCOD9348871
Probable space group: C M M 2
;
_chemical_formula_sum "Si O2"
_cell_formula_units_Z 48
_cell_length_a 8.334316
_cell_length_b 19.154898
_cell_length_c 15.983890
_cell_angle_alpha 90.000000
_cell_angle_beta 90.000000
_cell_angle_gamma 90.000000
_cell_volume 2551.715718
_symmetry_space_group_name_H-M "C M M 2"
_symmetry_group_IT_number 35
_symmetry_cell_setting 'orthorhombic'
loop_
_space_group_symop_operation_xyz
x,y,z
-x,-y,z
-x,y,z
x,-y,z
1/2+x,1/2+y,z
1/2-x,1/2-y,z
1/2-x,1/2+y,z
1/2+x,1/2-y,z
loop_
_atom_site_type_symbol
_atom_site_label
_atom_site_fract_x
_atom_site_fract_y
_atom_site_fract_z
Si Si1 0.808478 0.579893 0.131610
Si Si2 0.192019 0.828930 0.285675
Si Si3 0.303819 0.580415 0.631199
Si Si4 0.693294 0.580611 0.950532
Si Si5 0.694134 0.329673 0.792000
Si Si6 0.806114 0.829229 0.473576
O O1 0.750149 0.500000 0.140211
O O2 0.754915 0.623549 0.211277
O O3 0.000000 0.579672 0.127726
O O4 0.744416 0.606114 0.042247
O O5 0.250000 0.750000 0.272680
O O6 0.246439 0.849692 0.379605
O O7 0.000000 0.830533 0.284613
O O8 0.500000 0.579792 0.631197
O O9 0.251536 0.500000 0.636488
O O10 0.253135 0.626224 0.710893
O O11 0.251185 0.618611 0.546077
O O12 0.500000 0.579006 0.947446
O O13 0.749788 0.500000 0.940226
O O14 0.749738 0.630156 0.875643
O O15 0.500000 0.329880 0.792277
O O16 0.750000 0.250000 0.788800
O O17 0.750000 0.750000 0.489654
O O18 0.000000 0.829034 0.474277
#
# Coordination Sequence:
#
# PCOD9348871 Si02
#       6
#     8   8   8   8   8   8
#     4  10  21  36  54  77 105 137 172 213 262 311
#     4  10  20  34  53  77 105 138 175 215 259 307
#     4   9  17  31  52  77 103 132 169 209 246 291
#     4   9  18  34  54  74  98 132 174 214 252 299
#     4  10  20  33  52  77 103 133 167 206 252 300
#     4   9  18  32  52  76 102 134 169 208 253 299
#
# _framework density 18.810873999999998
#
# number of rings (size 3 to 8) (size 9 to 14) (size 15 to 20)
#    0.000    2.500    0.000    2.000    0.000    5.667 
#    0.000    3.333    0.000    3.000    0.000    0.000 
#    0.000    0.000    0.000    0.000    0.000    0.000 
#
# Total GULP energy -133921.928138 kJ/mol
# GULP energy per Si atom -5580.080339 kJ/mol
# Density = 1.876806 g / cm^3
# Si number density = 18.810874 Si / 1000 Ang^3
#
#
#
# Elastic Constant Matrix: (Units=GPa)
#
#
# Indices 1 2 3 4 5 6 
#
# 1 9.1698 12.4705 20.4962 0.0000 0.0000 0.0000
# 2 12.4705 131.7604 128.9017 0.0000 0.0000 0.0000
# 3 20.4962 128.9017 212.3621 0.0000 0.0000 0.0000
# 4 0.0000 0.0000 0.0000 42.5658 0.0000 0.0000
# 5 0.0000 0.0000 0.0000 0.0000 6.5553 0.0000
# 6 0.0000 0.0000 0.0000 0.0000 0.0000 27.1665
#
#
#
# Elastic Compliance Matrix: (Units=1/GPa)
#
#
# Indices 1 2 3 4 5 6 
#
# 1 0.139051 -0.000077 -0.013374 0.000000 0.000000 0.000000
# 2 -0.000077 0.018685 -0.011334 0.000000 0.000000 0.000000
# 3 -0.013374 -0.011334 0.012880 0.000000 0.000000 0.000000
# 4 0.000000 0.000000 0.000000 0.023493 0.000000 0.000000
# 5 0.000000 0.000000 0.000000 0.000000 0.152549 0.000000
# 6 0.000000 0.000000 0.000000 0.000000 0.000000 0.036810
#
#
# Mechanical properties :
#
#
# Convention : Reuss Voigt Hill
#
# Bulk Modulus (GPa) = 8.26132 75.22545 41.74338
# Shear Modulus (GPa) = 10.56219 28.01911 19.29065
#
# Velocity S-wave (km/s) = 2.37216 3.86361 3.20582
# Velocity P-wave (km/s) = 3.45024 7.74471 5.99519
#
# Compressibility (1/GPa) = 0.12104597
#
# Stress axis : x y z
#
# Youngs Moduli (GPa) = 7.19159 53.51817 77.64224
#
# Poissons Ratio (x) = 0.00410 1.03839
# Poissons Ratio (y) = 0.00055 0.88003
# Poissons Ratio (z) = 0.09618 0.60659
#
# Static dielectric constant tensor:
#      x y z
#    x 1.654510 0.000000 0.000000 
#    y 0.000000 1.612260 0.000000 
#    z 0.000000 0.000000 1.650520 
# 
# From -- ./inp_files/15074.got.cif
#   From: 2010.05.17/outbox.cif.g08.bks.cpg/sg35_8_cif.got.tgz:15074.got - 2010.06.03 17:29:28.
