data_PCOD9348802
_publ_section_title
;
Structure prediction by ZEFSAII (Michael W. Deem and Ramdas Pophale) SiO2 
 PCOD9348802
Probable space group: C M M 2
;
_chemical_formula_sum "Si O2"
_cell_formula_units_Z 64
_cell_length_a 8.458351
_cell_length_b 19.975650
_cell_length_c 21.130831
_cell_angle_alpha 90.000000
_cell_angle_beta 90.000000
_cell_angle_gamma 90.000000
_cell_volume 3570.287587
_symmetry_space_group_name_H-M "C M M 2"
_symmetry_group_IT_number 35
_symmetry_cell_setting 'orthorhombic'
loop_
_space_group_symop_operation_xyz
x,y,z
-x,-y,z
-x,y,z
x,-y,z
1/2+x,1/2+y,z
1/2-x,1/2-y,z
1/2-x,1/2+y,z
1/2+x,1/2-y,z
loop_
_atom_site_type_symbol
_atom_site_label
_atom_site_fract_x
_atom_site_fract_y
_atom_site_fract_z
Si Si1 0.808994 0.824506 0.189740
Si Si2 0.193278 0.077046 0.078405
Si Si3 0.812336 0.423355 0.717702
Si Si4 0.691033 0.675735 0.334093
Si Si5 0.308926 0.675836 0.967506
Si Si6 0.806478 0.922717 0.444628
Si Si7 0.311399 0.676384 0.823168
Si Si8 0.683303 0.418691 0.583267
O O1 0.750000 0.750000 0.173041
O O2 0.756571 0.880374 0.139802
O O3 0.758022 0.839502 0.261931
O O4 0.000000 0.823027 0.188698
O O5 0.000000 0.075940 0.078481
O O6 0.246299 0.000000 0.078552
O O7 0.243257 0.119224 0.016742
O O8 0.751872 0.500000 0.723013
O O9 0.743513 0.377491 0.772472
O O10 0.770352 0.398161 0.647160
O O11 0.000000 0.424671 0.723888
O O12 0.500000 0.675428 0.334482
O O13 0.750000 0.750000 0.349388
O O14 0.745696 0.623125 0.386645
O O15 0.500000 0.677171 0.968335
O O16 0.250000 0.750000 0.985506
O O17 0.256174 0.662221 0.895282
O O18 0.754919 0.897388 0.514213
O O19 0.000000 0.922558 0.446232
O O20 0.757962 0.000000 0.436252
O O21 0.500000 0.677764 0.824211
O O22 0.250000 0.750000 0.805931
O O23 0.500000 0.398922 0.589073
O O24 0.688640 0.500000 0.580787
#
# Coordination Sequence:
#
# PCOD9348802 Si02
#       8
#     8   8   8   8   8   8   8   8
#     4   9  17  29  47  68  91 124 159 190 227 274
#     4   9  17  29  46  71  99 122 151 194 236 270
#     4  10  20  33  50  73 100 128 159 198 241 285
#     4   9  17  29  45  67  94 122 154 191 232 277
#     4   9  18  32  51  71  92 123 158 192 230 277
#     4   8  14  26  46  69  90 116 155 200 237 271
#     4  10  20  34  52  73  97 126 161 199 240 287
#     4   8  14  27  47  68  90 120 158 196 235 281
#
# _framework density 17.925727999999999
#
# number of rings (size 3 to 8) (size 9 to 14) (size 15 to 20)
#    0.000    3.000    0.000    1.875    0.000    2.250 
#    0.000    5.000    0.000    4.125    0.000    3.500 
#    0.000    0.000    0.000    0.000    0.000    0.000 
#
# Total GULP energy -178315.496347 kJ/mol
# GULP energy per Si atom -5572.359261 kJ/mol
# Density = 1.788493 g / cm^3
# Si number density = 17.925728 Si / 1000 Ang^3
#
#
#
# Elastic Constant Matrix: (Units=GPa)
#
#
# Indices 1 2 3 4 5 6 
#
# 1 8.7551 15.9242 20.4525 0.0000 0.0000 0.0000
# 2 15.9242 127.2831 116.3961 0.0000 0.0000 0.0000
# 3 20.4525 116.3961 153.1484 0.0000 0.0000 0.0000
# 4 0.0000 0.0000 0.0000 35.3222 0.0000 0.0000
# 5 0.0000 0.0000 0.0000 0.0000 8.4086 0.0000
# 6 0.0000 0.0000 0.0000 0.0000 0.0000 22.8542
#
#
#
# Elastic Compliance Matrix: (Units=1/GPa)
#
#
# Indices 1 2 3 4 5 6 
#
# 1 0.166114 -0.001625 -0.020949 0.000000 0.000000 0.000000
# 2 -0.001625 0.025776 -0.019373 0.000000 0.000000 0.000000
# 3 -0.020949 -0.019373 0.024051 0.000000 0.000000 0.000000
# 4 0.000000 0.000000 0.000000 0.028311 0.000000 0.000000
# 5 0.000000 0.000000 0.000000 0.000000 0.118926 0.000000
# 6 0.000000 0.000000 0.000000 0.000000 0.000000 0.043756
#
#
# Mechanical properties :
#
#
# Convention : Reuss Voigt Hill
#
# Bulk Modulus (GPa) = 7.57308 66.08135 36.82721
# Shear Modulus (GPa) = 9.34852 22.41125 15.87988
#
# Velocity S-wave (km/s) = 2.28615 3.53969 2.97959
# Velocity P-wave (km/s) = 3.34701 7.32461 5.69440
#
# Compressibility (1/GPa) = 0.13204672
#
# Stress axis : x y z
#
# Youngs Moduli (GPa) = 6.01996 38.79570 41.57760
#
# Poissons Ratio (x) = 0.06305 0.87101
# Poissons Ratio (y) = 0.00978 0.80550
# Poissons Ratio (z) = 0.12611 0.75160
#
# Static dielectric constant tensor:
#      x y z
#    x 1.615210 0.000000 0.000000 
#    y 0.000000 1.585520 0.000000 
#    z 0.000000 0.000000 1.633800 
# 
# From -- ./inp_files/18399.got.cif
#   From: 2010.05.17/outbox.cif.g08.bks.cpg/sg35_10_cif.got.tgz:18399.got - 2010.06.03 17:29:28.
