data_PCOD9348163
_publ_section_title
;
Structure prediction by ZEFSAII (Michael W. Deem and Ramdas Pophale) SiO2 
 PCOD9348163
Probable space group: C M M 2
;
_chemical_formula_sum "Si O2"
_cell_formula_units_Z 40
_cell_length_a 23.673431
_cell_length_b 7.755439
_cell_length_c 10.613741
_cell_angle_alpha 90.000000
_cell_angle_beta 90.000000
_cell_angle_gamma 90.000000
_cell_volume 1948.660028
_symmetry_space_group_name_H-M "C M M 2"
_symmetry_group_IT_number 35
_symmetry_cell_setting 'orthorhombic'
loop_
_space_group_symop_operation_xyz
x,y,z
-x,-y,z
-x,y,z
x,-y,z
1/2+x,1/2+y,z
1/2-x,1/2-y,z
1/2-x,1/2+y,z
1/2+x,1/2-y,z
loop_
_atom_site_type_symbol
_atom_site_label
_atom_site_fract_x
_atom_site_fract_y
_atom_site_fract_z
Si Si1 0.000000 0.703932 0.584690
Si Si2 0.122227 0.794035 0.677995
Si Si3 0.120313 0.211486 0.183252
Si Si4 0.316653 0.292000 0.930596
Si Si5 0.815166 0.792951 0.431173
Si Si6 0.500000 0.707002 0.285892
O O1 0.944008 0.765134 0.656955
O O2 0.000000 0.500000 0.584881
O O3 0.000000 0.757969 0.436595
O O4 0.151776 0.727014 0.804682
O O5 0.152613 0.723431 0.553181
O O6 0.131050 0.000000 0.679904
O O7 0.158121 0.269068 0.301128
O O8 0.056748 0.268778 0.216401
O O9 0.119674 0.000000 0.180535
O O10 0.149337 0.269615 0.053958
O O11 0.320277 0.500000 0.931198
O O12 0.250000 0.250000 0.932921
O O13 0.750000 0.750000 0.438947
O O14 0.821977 0.000000 0.430995
O O15 0.500000 0.500000 0.276118
#
# Coordination Sequence:
#
# PCOD9348163 Si02
#       6
#     4   8   8   8   8   4
#     4  12  24  37  58  88 116 142 186 242 295 335
#     4  10  21  38  59  81 111 152 192 228 277 341
#     4   9  18  33  57  84 110 147 191 232 277 329
#     4  10  21  37  58  86 117 152 192 232 279 336
#     4  10  19  32  52  79 109 145 188 231 277 326
#     4  10  18  37  62  80 112 152 192 236 279 337
#
# _framework density 20.526928000000002
#
# number of rings (size 3 to 8) (size 9 to 14) (size 15 to 20)
#    0.000    2.000    2.000    2.100    0.000    2.400 
#    0.000    4.000    0.000    1.200    0.000    0.000 
#    0.000    0.000    0.000    0.000    0.000    0.000 
#
# Total GULP energy -111683.076402 kJ/mol
# GULP energy per Si atom -5584.153820 kJ/mol
# Density = 2.048021 g / cm^3
# Si number density = 20.526928 Si / 1000 Ang^3
#
#
#
# Elastic Constant Matrix: (Units=GPa)
#
#
# Indices 1 2 3 4 5 6 
#
# 1 180.7351 -14.4878 112.8934 0.0000 0.0000 0.0000
# 2 -14.4878 25.7834 10.8794 0.0000 0.0000 0.0000
# 3 112.8934 10.8794 210.7801 0.0000 0.0000 0.0000
# 4 0.0000 0.0000 0.0000 0.6557 0.0000 0.0000
# 5 0.0000 0.0000 0.0000 0.0000 40.1099 0.0000
# 6 0.0000 0.0000 0.0000 0.0000 0.0000 25.6216
#
#
#
# Elastic Compliance Matrix: (Units=1/GPa)
#
#
# Indices 1 2 3 4 5 6 
#
# 1 0.009624 0.007752 -0.005555 0.000000 0.000000 0.000000
# 2 0.007752 0.045892 -0.006520 0.000000 0.000000 0.000000
# 3 -0.005555 -0.006520 0.008056 0.000000 0.000000 0.000000
# 4 0.000000 0.000000 0.000000 1.525057 0.000000 0.000000
# 5 0.000000 0.000000 0.000000 0.000000 0.024932 0.000000
# 6 0.000000 0.000000 0.000000 0.000000 0.000000 0.039030
#
#
# Mechanical properties :
#
#
# Convention : Reuss Voigt Hill
#
# Bulk Modulus (GPa) = 18.20686 70.65208 44.42947
# Shear Modulus (GPa) = 2.97700 33.81168 18.39434
#
# Velocity S-wave (km/s) = 1.20559 4.06296 2.99675
# Velocity P-wave (km/s) = 3.29043 7.51692 5.80220
#
# Compressibility (1/GPa) = 0.05492434
#
# Stress axis : x y z
#
# Youngs Moduli (GPa) = 103.90730 21.79050 124.13256
#
# Poissons Ratio (x) = -0.16891 0.68952
# Poissons Ratio (y) = -0.80544 0.80939
# Poissons Ratio (z) = 0.57717 0.14208
#
# Static dielectric constant tensor:
#      x y z
#    x 1.738230 0.000000 0.000000 
#    y 0.000000 1.749590 0.000000 
#    z 0.000000 0.000000 1.727130 
# 
# From -- ./inp_files/11208.got.cif
#   From: 2010.05.17/outbox.cif.g08.bks.cpg/sg35_6_cif.got.tgz:11208.got - 2010.06.03 17:29:28.
