data_PCOD9348990
_publ_section_title
;
Structure prediction by ZEFSAII (Michael W. Deem and Ramdas Pophale) SiO2 
 PCOD9348990
Probable space group: C M M 2
;
_chemical_formula_sum "Si O2"
_cell_formula_units_Z 64
_cell_length_a 8.573050
_cell_length_b 18.833473
_cell_length_c 21.183401
_cell_angle_alpha 90.000000
_cell_angle_beta 90.000000
_cell_angle_gamma 90.000000
_cell_volume 3420.278401
_symmetry_space_group_name_H-M "C M M 2"
_symmetry_group_IT_number 35
_symmetry_cell_setting 'orthorhombic'
loop_
_space_group_symop_operation_xyz
x,y,z
-x,-y,z
-x,y,z
x,-y,z
1/2+x,1/2+y,z
1/2-x,1/2-y,z
1/2-x,1/2+y,z
1/2+x,1/2-y,z
loop_
_atom_site_type_symbol
_atom_site_label
_atom_site_fract_x
_atom_site_fract_y
_atom_site_fract_z
Si Si1 0.311936 0.082110 0.071310
Si Si2 0.688155 0.582277 0.207485
Si Si3 0.809760 0.918234 0.452803
Si Si4 0.812796 0.829787 0.575874
Si Si5 0.686887 0.917351 0.693673
Si Si6 0.686742 0.417260 0.831332
Si Si7 0.312739 0.829499 0.949264
Si Si8 0.688871 0.670183 0.329663
O O1 0.500000 0.083396 0.073224
O O2 0.249178 0.106026 0.139245
O O3 0.262539 0.000000 0.062162
O O4 0.259666 0.129299 0.012465
O O5 0.500000 0.582925 0.206390
O O6 0.737517 0.500000 0.217102
O O7 0.740252 0.631325 0.265280
O O8 0.760521 0.875842 0.515264
O O9 0.760828 0.876153 0.390098
O O10 0.000000 0.919409 0.452660
O O11 0.757189 0.000000 0.453053
O O12 0.750000 0.750000 0.571755
O O13 0.754715 0.868340 0.639011
O O14 0.000000 0.827968 0.576010
O O15 0.500000 0.913827 0.693000
O O16 0.747862 0.896174 0.762838
O O17 0.733828 0.000000 0.683297
O O18 0.500000 0.412289 0.830367
O O19 0.730594 0.500000 0.841423
O O20 0.753593 0.370547 0.887629
O O21 0.500000 0.829039 0.948769
O O22 0.250000 0.750000 0.949562
O O23 0.500000 0.671673 0.329737
O O24 0.750000 0.750000 0.333611
#
# Coordination Sequence:
#
# PCOD9348990 Si02
#       8
#     8   8   8   8   8   8   8   8
#     4   9  19  36  57  79 105 140 180 223 272 325
#     4   9  18  33  54  78 103 136 180 225 265 313
#     4   9  18  34  57  81 105 139 183 228 272 321
#     4  11  22  36  56  82 113 147 184 226 274 328
#     4  10  21  38  60  85 113 145 182 225 272 323
#     4  10  21  38  61  87 113 143 182 226 271 324
#     4  11  23  38  56  80 112 147 184 226 275 329
#     4  10  20  34  53  78 109 142 177 219 269 324
#
# _framework density 18.711928
#
# number of rings (size 3 to 8) (size 9 to 14) (size 15 to 20)
#    0.000    2.125    0.000    3.000    0.000    6.500 
#    0.000    6.875    0.000    2.625    0.000    0.000 
#    0.000    0.000    0.000    0.000    0.000    0.000 
#
# Total GULP energy -178741.824052 kJ/mol
# GULP energy per Si atom -5585.682002 kJ/mol
# Density = 1.866934 g / cm^3
# Si number density = 18.711928 Si / 1000 Ang^3
#
#
#
# Elastic Constant Matrix: (Units=GPa)
#
#
# Indices 1 2 3 4 5 6 
#
# 1 28.1983 33.5778 40.5386 0.0000 0.0000 0.0000
# 2 33.5778 153.7674 138.0851 0.0000 0.0000 0.0000
# 3 40.5386 138.0851 218.3597 0.0000 0.0000 0.0000
# 4 0.0000 0.0000 0.0000 10.3061 0.0000 0.0000
# 5 0.0000 0.0000 0.0000 0.0000 22.9284 0.0000
# 6 0.0000 0.0000 0.0000 0.0000 0.0000 23.8122
#
#
#
# Elastic Compliance Matrix: (Units=1/GPa)
#
#
# Indices 1 2 3 4 5 6 
#
# 1 0.050702 -0.006060 -0.005580 0.000000 0.000000 0.000000
# 2 -0.006060 0.015774 -0.008850 0.000000 0.000000 0.000000
# 3 -0.005580 -0.008850 0.011212 0.000000 0.000000 0.000000
# 4 0.000000 0.000000 0.000000 0.097030 0.000000 0.000000
# 5 0.000000 0.000000 0.000000 0.000000 0.043614 0.000000
# 6 0.000000 0.000000 0.000000 0.000000 0.000000 0.041995
#
#
# Mechanical properties :
#
#
# Convention : Reuss Voigt Hill
#
# Bulk Modulus (GPa) = 27.24296 91.63648 59.43972
# Shear Modulus (GPa) = 15.94666 23.95093 19.94879
#
# Velocity S-wave (km/s) = 2.92245 3.58157 3.26866
# Velocity P-wave (km/s) = 5.09689 8.13523 6.78824
#
# Compressibility (1/GPa) = 0.03670674
#
# Stress axis : x y z
#
# Youngs Moduli (GPa) = 19.72300 63.39452 89.18860
#
# Poissons Ratio (x) = 0.38420 0.49771
# Poissons Ratio (y) = 0.11953 0.78933
# Poissons Ratio (z) = 0.11006 0.56105
#
# Static dielectric constant tensor:
#      x y z
#    x 1.639510 0.000000 0.000000 
#    y 0.000000 1.620880 0.000000 
#    z 0.000000 0.000000 1.621830 
# 
# From -- ./inp_files/18433.got.cif
#   From: 2010.05.17/outbox.cif.g08.bks.cpg/sg35_10_cif.got.tgz:18433.got - 2010.06.03 17:29:28.
