data_PCOD9348152
_publ_section_title
;
Structure prediction by ZEFSAII (Michael W. Deem and Ramdas Pophale) SiO2 
 PCOD9348152
Probable space group: C M M 2
;
_chemical_formula_sum "Si O2"
_cell_formula_units_Z 64
_cell_length_a 15.828716
_cell_length_b 23.281991
_cell_length_c 10.031267
_cell_angle_alpha 90.000000
_cell_angle_beta 90.000000
_cell_angle_gamma 90.000000
_cell_volume 3696.762875
_symmetry_space_group_name_H-M "C M M 2"
_symmetry_group_IT_number 35
_symmetry_cell_setting 'orthorhombic'
loop_
_space_group_symop_operation_xyz
x,y,z
-x,-y,z
-x,y,z
x,-y,z
1/2+x,1/2+y,z
1/2-x,1/2-y,z
1/2-x,1/2+y,z
1/2+x,1/2-y,z
loop_
_atom_site_type_symbol
_atom_site_label
_atom_site_fract_x
_atom_site_fract_y
_atom_site_fract_z
Si Si1 0.351360 0.241393 0.918400
Si Si2 0.594647 0.665163 0.722327
Si Si3 0.270502 0.433082 0.777273
Si Si4 0.404606 0.069497 0.275668
Si Si5 0.760883 0.567807 0.477020
Si Si6 0.901522 0.141051 0.421452
Si Si7 0.320091 0.878913 0.020546
Si Si8 0.684789 0.300875 0.173781
O O1 0.250000 0.250000 0.900736
O O2 0.392850 0.275062 0.798146
O O3 0.364207 0.174340 0.943830
O O4 0.371731 0.274277 0.055772
O O5 0.500000 0.643977 0.744269
O O6 0.657257 0.615875 0.775981
O O7 0.605941 0.672897 0.563926
O O8 0.299323 0.500000 0.775977
O O9 0.224779 0.422461 0.634737
O O10 0.214693 0.421292 0.907469
O O11 0.500000 0.087461 0.309292
O O12 0.335282 0.091085 0.382670
O O13 0.378629 0.091823 0.130180
O O14 0.402530 0.000000 0.275110
O O15 0.759114 0.500000 0.457287
O O16 0.668955 0.591545 0.436888
O O17 0.870016 0.177675 0.296297
O O18 0.000000 0.123465 0.406371
O O19 0.241994 0.850396 0.104236
O O20 0.750000 0.250000 0.213829
#
# Coordination Sequence:
#
# PCOD9348152 Si02
#       8
#     8   8   8   8   8   8   8   8
#     4   9  18  34  54  75 101 139 177 215 269 323
#     4  10  20  34  52  81 112 143 181 223 268 318
#     4  10  19  34  56  80 108 147 184 219 271 329
#     4  10  20  35  56  81 109 142 183 232 283 332
#     4   9  19  35  55  79 109 146 182 223 273 324
#     4  10  20  34  55  81 111 144 182 223 267 321
#     4  10  18  35  57  80 105 139 182 227 275 329
#     4   9  18  34  52  76 103 138 177 220 269 319
#
# _framework density 17.312443999999999
#
# number of rings (size 3 to 8) (size 9 to 14) (size 15 to 20)
#    0.000    2.625    3.750    0.375    0.000    2.000 
#    0.000    5.000    0.000    2.250    0.000    0.000 
#    0.000    0.000    0.000    0.000    0.000    0.000 
#
# Total GULP energy -178146.067474 kJ/mol
# GULP energy per Si atom -5567.064609 kJ/mol
# Density = 1.727304 g / cm^3
# Si number density = 17.312444 Si / 1000 Ang^3
#
#
#
# Elastic Constant Matrix: (Units=GPa)
#
#
# Indices 1 2 3 4 5 6 
#
# 1 89.0116 24.9589 62.8243 0.0000 0.0000 0.0000
# 2 24.9589 41.0671 35.9781 0.0000 0.0000 0.0000
# 3 62.8243 35.9781 98.5899 0.0000 0.0000 0.0000
# 4 0.0000 0.0000 0.0000 23.7592 0.0000 0.0000
# 5 0.0000 0.0000 0.0000 0.0000 17.9455 0.0000
# 6 0.0000 0.0000 0.0000 0.0000 0.0000 15.7681
#
#
#
# Elastic Compliance Matrix: (Units=1/GPa)
#
#
# Indices 1 2 3 4 5 6 
#
# 1 0.020479 -0.001490 -0.012506 0.000000 0.000000 0.000000
# 2 -0.001490 0.035902 -0.012152 0.000000 0.000000 0.000000
# 3 -0.012506 -0.012152 0.022547 0.000000 0.000000 0.000000
# 4 0.000000 0.000000 0.000000 0.042089 0.000000 0.000000
# 5 0.000000 0.000000 0.000000 0.000000 0.055724 0.000000
# 6 0.000000 0.000000 0.000000 0.000000 0.000000 0.063419
#
#
# Mechanical properties :
#
#
# Convention : Reuss Voigt Hill
#
# Bulk Modulus (GPa) = 37.54935 52.91012 45.22974
# Shear Modulus (GPa) = 16.59285 18.48838 17.54062
#
# Velocity S-wave (km/s) = 3.09922 3.27146 3.18650
# Velocity P-wave (km/s) = 5.87735 6.70061 6.30243
#
# Compressibility (1/GPa) = 0.02663162
#
# Stress axis : x y z
#
# Youngs Moduli (GPa) = 48.83025 27.85342 44.35187
#
# Poissons Ratio (x) = 0.04150 0.55467
# Poissons Ratio (y) = 0.07276 0.53897
# Poissons Ratio (z) = 0.61068 0.33848
#
# Static dielectric constant tensor:
#      x y z
#    x 1.609900 0.000000 0.000000 
#    y 0.000000 1.592050 0.000000 
#    z 0.000000 0.000000 1.598740 
# 
# From -- ./inp_files/7890.got.cif
#   From: 2010.05.17/outbox.cif.g08.bks.cpg/sg35_4_cif.got.tgz:7890.got - 2010.06.03 17:29:28.
