data_PCOD9348934
_publ_section_title
;
Structure prediction by ZEFSAII (Michael W. Deem and Ramdas Pophale) SiO2 
 PCOD9348934
Probable space group: C M M 2
;
_chemical_formula_sum "Si O2"
_cell_formula_units_Z 64
_cell_length_a 28.950176
_cell_length_b 8.754657
_cell_length_c 15.948568
_cell_angle_alpha 90.000000
_cell_angle_beta 90.000000
_cell_angle_gamma 90.000000
_cell_volume 4042.146394
_symmetry_space_group_name_H-M "C M M 2"
_symmetry_group_IT_number 35
_symmetry_cell_setting 'orthorhombic'
loop_
_space_group_symop_operation_xyz
x,y,z
-x,-y,z
-x,y,z
x,-y,z
1/2+x,1/2+y,z
1/2-x,1/2-y,z
1/2-x,1/2+y,z
1/2+x,1/2-y,z
loop_
_atom_site_type_symbol
_atom_site_label
_atom_site_fract_x
_atom_site_fract_y
_atom_site_fract_z
Si Si1 0.856732 0.182174 0.902720
Si Si2 0.801909 0.182216 0.417285
Si Si3 0.553029 0.682546 0.646316
Si Si4 0.553167 0.817839 0.833076
Si Si5 0.198122 0.683074 0.058454
Si Si6 0.198585 0.316846 0.744360
Si Si7 0.198258 0.682645 0.245415
Si Si8 0.856900 0.317415 0.573254
O O1 0.908903 0.241329 0.891765
O O2 0.828483 0.246533 0.822962
O O3 0.855204 0.000000 0.901775
O O4 0.833127 0.245943 0.986369
O O5 0.750000 0.250000 0.425726
O O6 0.822364 0.242345 0.328773
O O7 0.832023 0.240107 0.494760
O O8 0.798879 0.000000 0.416104
O O9 0.500000 0.714737 0.621069
O O10 0.559120 0.500000 0.650126
O O11 0.559372 0.751308 0.739459
O O12 0.591507 0.756047 0.587454
O O13 0.500000 0.788536 0.857823
O O14 0.560537 0.000000 0.830132
O O15 0.200703 0.500000 0.049083
O O16 0.250000 0.750000 0.051561
O O17 0.179293 0.716127 0.152500
O O18 0.200292 0.500000 0.753680
O O19 0.250000 0.250000 0.740937
O O20 0.171594 0.281276 0.658292
O O21 0.199996 0.500000 0.256059
O O22 0.250000 0.750000 0.242528
O O23 0.856932 0.500000 0.563025
#
# Coordination Sequence:
#
# PCOD9348934 Si02
#       8
#     8   8   8   8   8   8   8   8
#     4  12  23  34  51  73 101 134 170 210 250 300
#     4  11  21  33  51  74 104 136 170 212 252 300
#     4  10  20  34  53  76 101 129 165 210 256 300
#     4  10  20  35  54  74  98 129 167 211 255 298
#     4  10  20  34  52  74 103 135 171 211 251 299
#     4  11  23  36  49  67  97 136 174 209 245 292
#     4   9  17  31  51  73  98 130 167 209 253 298
#     4  11  22  35  52  73 100 135 173 211 249 298
#
# _framework density 15.833171999999999
#
# number of rings (size 3 to 8) (size 9 to 14) (size 15 to 20)
#    0.000    1.500    1.250    6.000    0.000    5.500 
#    0.000    0.000    0.000    0.000    0.000    0.875 
#    0.000    1.000    0.000    0.000    0.000    0.000 
#
# Total GULP energy -178690.622488 kJ/mol
# GULP energy per Si atom -5584.081953 kJ/mol
# Density = 1.579714 g / cm^3
# Si number density = 15.833172 Si / 1000 Ang^3
#
#
#
# Elastic Constant Matrix: (Units=GPa)
#
#
# Indices 1 2 3 4 5 6 
#
# 1 97.3372 56.0536 68.0844 0.0000 0.0000 0.0000
# 2 56.0536 107.9062 77.9420 0.0000 0.0000 0.0000
# 3 68.0844 77.9420 146.6614 0.0000 0.0000 0.0000
# 4 0.0000 0.0000 0.0000 20.5823 0.0000 0.0000
# 5 0.0000 0.0000 0.0000 0.0000 5.1234 0.0000
# 6 0.0000 0.0000 0.0000 0.0000 0.0000 25.3111
#
#
#
# Elastic Compliance Matrix: (Units=1/GPa)
#
#
# Indices 1 2 3 4 5 6 
#
# 1 0.016725 -0.004999 -0.005108 0.000000 0.000000 0.000000
# 2 -0.004999 0.016535 -0.006467 0.000000 0.000000 0.000000
# 3 -0.005108 -0.006467 0.012626 0.000000 0.000000 0.000000
# 4 0.000000 0.000000 0.000000 0.048585 0.000000 0.000000
# 5 0.000000 0.000000 0.000000 0.000000 0.195184 0.000000
# 6 0.000000 0.000000 0.000000 0.000000 0.000000 0.039508
#
#
# Mechanical properties :
#
#
# Convention : Reuss Voigt Hill
#
# Bulk Modulus (GPa) = 78.49424 84.00719 81.25072
# Shear Modulus (GPa) = 13.64044 20.19168 16.91606
#
# Velocity S-wave (km/s) = 2.93833 3.57498 3.27217
# Velocity P-wave (km/s) = 7.82273 8.37935 8.10582
#
# Compressibility (1/GPa) = 0.01273979
#
# Stress axis : x y z
#
# Youngs Moduli (GPa) = 59.79162 60.47755 79.19964
#
# Poissons Ratio (x) = 0.30231 0.40452
# Poissons Ratio (y) = 0.29888 0.51218
# Poissons Ratio (z) = 0.30539 0.39110
#
# Static dielectric constant tensor:
#      x y z
#    x 1.511730 0.000000 0.000000 
#    y 0.000000 1.525490 0.000000 
#    z 0.000000 0.000000 1.532320 
# 
# From -- ./inp_files/17743.got.cif
#   From: 2010.05.17/outbox.cif.g08.bks.cpg/sg35_9_cif.got.tgz:17743.got - 2010.06.03 17:29:28.
