data_PCOD9348244
_publ_section_title
;
Structure prediction by ZEFSAII (Michael W. Deem and Ramdas Pophale) SiO2 
 PCOD9348244
Probable space group: C M M 2
;
_chemical_formula_sum "Si O2"
_cell_formula_units_Z 64
_cell_length_a 7.902610
_cell_length_b 19.625807
_cell_length_c 21.578333
_cell_angle_alpha 90.000000
_cell_angle_beta 90.000000
_cell_angle_gamma 90.000000
_cell_volume 3346.693685
_symmetry_space_group_name_H-M "C M M 2"
_symmetry_group_IT_number 35
_symmetry_cell_setting 'orthorhombic'
loop_
_space_group_symop_operation_xyz
x,y,z
-x,-y,z
-x,y,z
x,-y,z
1/2+x,1/2+y,z
1/2-x,1/2-y,z
1/2-x,1/2+y,z
1/2+x,1/2-y,z
loop_
_atom_site_type_symbol
_atom_site_label
_atom_site_fract_x
_atom_site_fract_y
_atom_site_fract_z
Si Si1 0.204713 0.829699 0.345940
Si Si2 0.796323 0.829896 0.481672
Si Si3 0.703102 0.922534 0.730661
Si Si4 0.795925 0.672124 0.979907
Si Si5 0.798593 0.170791 0.615925
Si Si6 0.293576 0.079138 0.868048
Si Si7 0.297839 0.828144 0.119612
Si Si8 0.297402 0.577479 0.233172
O O1 0.250000 0.750000 0.337221
O O2 0.265000 0.854107 0.414244
O O3 0.268766 0.877250 0.290582
O O4 0.000000 0.832517 0.346020
O O5 0.750000 0.750000 0.482191
O O6 0.732583 0.855473 0.548607
O O7 0.000000 0.837239 0.481289
O O8 0.500000 0.925993 0.734332
O O9 0.744980 0.873582 0.674237
O O10 0.762512 0.899016 0.799006
O O11 0.765618 0.000000 0.720367
O O12 0.750000 0.750000 0.966407
O O13 0.731268 0.623963 0.925200
O O14 0.000000 0.666325 0.981377
O O15 0.733906 0.656913 0.049751
O O16 0.750000 0.250000 0.623339
O O17 0.000000 0.168200 0.612821
O O18 0.500000 0.082398 0.868831
O O19 0.247708 0.000000 0.875613
O O20 0.500000 0.831617 0.118699
O O21 0.250000 0.750000 0.135122
O O22 0.235208 0.881202 0.170295
O O23 0.500000 0.573333 0.240809
O O24 0.231281 0.500000 0.231712
#
# Coordination Sequence:
#
# PCOD9348244 Si02
#       8
#     8   8   8   8   8   8   8   8
#     4   9  17  31  51  72  93 122 161 199 238 286
#     4   8  15  28  46  69  94 121 156 197 239 283
#     4   9  18  33  51  70  96 131 166 199 239 288
#     4   9  18  32  51  74  98 123 154 195 239 282
#     4  10  19  31  49  73 100 128 160 201 245 287
#     4   8  15  30  51  71  92 123 162 198 233 279
#     4  10  20  34  53  75  99 129 163 199 239 286
#     4  10  21  35  50  71 101 133 162 197 241 286
#
# _framework density 19.123353000000002
#
# number of rings (size 3 to 8) (size 9 to 14) (size 15 to 20)
#    0.000    2.875    0.000    1.875    0.000    4.000 
#    0.000    3.750    0.000    3.375    0.000    0.000 
#    0.000    0.000    0.000    0.000    0.000    0.000 
#
# Total GULP energy -178299.244099 kJ/mol
# GULP energy per Si atom -5571.851378 kJ/mol
# Density = 1.907983 g / cm^3
# Si number density = 19.123353 Si / 1000 Ang^3
#
#
#
# Elastic Constant Matrix: (Units=GPa)
#
#
# Indices 1 2 3 4 5 6 
#
# 1 18.9687 4.4991 8.8994 0.0000 0.0000 0.0000
# 2 4.4991 102.9867 121.9893 0.0000 0.0000 0.0000
# 3 8.8994 121.9893 216.9887 0.0000 0.0000 0.0000
# 4 0.0000 0.0000 0.0000 -18.6600 0.0000 0.0000
# 5 0.0000 0.0000 0.0000 0.0000 26.8644 0.0000
# 6 0.0000 0.0000 0.0000 0.0000 0.0000 16.9573
#
#
#
# Elastic Compliance Matrix: (Units=1/GPa)
#
#
# Indices 1 2 3 4 5 6 
#
# 1 0.053774 0.000788 -0.002648 0.000000 0.000000 0.000000
# 2 0.000788 0.029077 -0.016379 0.000000 0.000000 0.000000
# 3 -0.002648 -0.016379 0.013925 0.000000 0.000000 0.000000
# 4 0.000000 0.000000 0.000000 -0.053591 0.000000 0.000000
# 5 0.000000 0.000000 0.000000 0.000000 0.037224 0.000000
# 6 0.000000 0.000000 0.000000 0.000000 0.000000 0.058972
#
#
# Mechanical properties :
#
#
# Convention : Reuss Voigt Hill
#
# Bulk Modulus (GPa) = 16.58456 67.74662 42.16559
# Shear Modulus (GPa) = 25.51548 18.60276 22.05912
#
# Velocity S-wave (km/s) = 3.65671 3.12232 3.40003
# Velocity P-wave (km/s) = 5.14975 6.96431 6.12460
#
# Compressibility (1/GPa) = 0.06029704
#
# Stress axis : x y z
#
# Youngs Moduli (GPa) = 18.59633 34.39159 71.81148
#
# Poissons Ratio (x) = -0.02709 0.19018
# Poissons Ratio (y) = -0.01465 1.17621
# Poissons Ratio (z) = 0.04925 0.56330
#
# Static dielectric constant tensor:
#      x y z
#    x 1.696220 0.000000 0.000000 
#    y 0.000000 1.600280 0.000000 
#    z 0.000000 0.000000 1.718050 
# 
# From -- ./inp_files/18365.got.cif
#   From: 2010.05.17/outbox.cif.g08.bks.cpg/sg35_10_cif.got.tgz:18365.got - 2010.06.03 17:29:28.
