data_PCOD9348203
_publ_section_title
;
Structure prediction by ZEFSAII (Michael W. Deem and Ramdas Pophale) SiO2 
 PCOD9348203
Probable space group: C M M 2
;
_chemical_formula_sum "Si O2"
_cell_formula_units_Z 64
_cell_length_a 29.305007
_cell_length_b 8.803588
_cell_length_c 16.063943
_cell_angle_alpha 90.000000
_cell_angle_beta 90.000000
_cell_angle_gamma 90.000000
_cell_volume 4144.323931
_symmetry_space_group_name_H-M "C M M 2"
_symmetry_group_IT_number 35
_symmetry_cell_setting 'orthorhombic'
loop_
_space_group_symop_operation_xyz
x,y,z
-x,-y,z
-x,y,z
x,-y,z
1/2+x,1/2+y,z
1/2-x,1/2-y,z
1/2-x,1/2+y,z
1/2+x,1/2-y,z
loop_
_atom_site_type_symbol
_atom_site_label
_atom_site_fract_x
_atom_site_fract_y
_atom_site_fract_z
Si Si1 0.141406 0.682975 0.658170
Si Si2 0.948237 0.181592 0.723719
Si Si3 0.198976 0.818131 0.325510
Si Si4 0.199039 0.181527 0.140437
Si Si5 0.800498 0.683144 0.820024
Si Si6 0.448508 0.817068 0.907831
Si Si7 0.144721 0.683119 0.987263
Si Si8 0.801004 0.317688 0.495428
O O1 0.137878 0.500000 0.660831
O O2 0.091287 0.752277 0.666138
O O3 0.170546 0.731482 0.739268
O O4 0.168384 0.724849 0.574605
O O5 0.940888 0.245526 0.816991
O O6 0.000000 0.224978 0.699171
O O7 0.945457 0.000000 0.725854
O O8 0.250000 0.750000 0.323487
O O9 0.180434 0.781898 0.233431
O O10 0.178530 0.745341 0.408766
O O11 0.200766 0.000000 0.334677
O O12 0.250000 0.250000 0.131797
O O13 0.202921 0.000000 0.134443
O O14 0.167044 0.244159 0.068142
O O15 0.797790 0.500000 0.818298
O O16 0.750000 0.750000 0.817908
O O17 0.826377 0.726325 0.904977
O O18 0.500000 0.777485 0.935068
O O19 0.407629 0.772313 0.968964
O O20 0.446109 0.000000 0.898166
O O21 0.146764 0.500000 0.994834
O O22 0.797476 0.500000 0.491090
O O23 0.750000 0.250000 0.505473
#
# Coordination Sequence:
#
# PCOD9348203 Si02
#       8
#     8   8   8   8   8   8   8   8
#     4  10  20  34  48  66  93 126 161 192 228 277
#     4  10  20  32  48  71  94 118 154 198 239 276
#     4   9  17  30  47  66  91 121 155 194 236 278
#     4  10  20  32  47  68  94 126 159 194 234 276
#     4  10  20  32  43  61  91 126 160 187 220 266
#     4   9  17  32  52  69  90 122 156 192 236 280
#     4  10  19  31  47  68  93 123 158 194 230 275
#     4  10  19  30  48  71  96 125 158 194 232 275
#
# _framework density 15.442807999999999
#
# number of rings (size 3 to 8) (size 9 to 14) (size 15 to 20)
#    0.000    2.250    1.250    3.000    0.000    5.750 
#    0.000    0.000    0.000    0.000    0.000    0.875 
#    0.000    3.000    0.000    0.000    0.000    0.000 
#
# Total GULP energy -178416.844143 kJ/mol
# GULP energy per Si atom -5575.526379 kJ/mol
# Density = 1.540766 g / cm^3
# Si number density = 15.442808 Si / 1000 Ang^3
#
#
#
# Elastic Constant Matrix: (Units=GPa)
#
#
# Indices 1 2 3 4 5 6 
#
# 1 112.7879 33.8836 74.5512 0.0000 0.0000 0.0000
# 2 33.8836 29.1359 44.1971 0.0000 0.0000 0.0000
# 3 74.5512 44.1971 149.4710 0.0000 0.0000 0.0000
# 4 0.0000 0.0000 0.0000 22.5939 0.0000 0.0000
# 5 0.0000 0.0000 0.0000 0.0000 8.5429 0.0000
# 6 0.0000 0.0000 0.0000 0.0000 0.0000 22.7593
#
#
#
# Elastic Compliance Matrix: (Units=1/GPa)
#
#
# Indices 1 2 3 4 5 6 
#
# 1 0.014952 -0.011018 -0.004200 0.000000 0.000000 0.000000
# 2 -0.011018 0.070357 -0.015309 0.000000 0.000000 0.000000
# 3 -0.004200 -0.015309 0.013312 0.000000 0.000000 0.000000
# 4 0.000000 0.000000 0.000000 0.044260 0.000000 0.000000
# 5 0.000000 0.000000 0.000000 0.000000 0.117057 0.000000
# 6 0.000000 0.000000 0.000000 0.000000 0.000000 0.043938
#
#
# Mechanical properties :
#
#
# Convention : Reuss Voigt Hill
#
# Bulk Modulus (GPa) = 26.61807 66.29540 46.45673
# Shear Modulus (GPa) = 13.24677 20.03007 16.63842
#
# Velocity S-wave (km/s) = 2.93199 3.60536 3.28597
# Velocity P-wave (km/s) = 5.36060 7.76881 6.67422
#
# Compressibility (1/GPa) = 0.03756846
#
# Stress axis : x y z
#
# Youngs Moduli (GPa) = 66.88000 14.21319 75.12270
#
# Poissons Ratio (x) = 0.15660 0.31550
# Poissons Ratio (y) = 0.73688 1.15002
# Poissons Ratio (z) = 0.28088 0.21758
#
# Static dielectric constant tensor:
#      x y z
#    x 1.504730 0.000000 0.000000 
#    y 0.000000 1.520340 0.000000 
#    z 0.000000 0.000000 1.523000 
# 
# From -- ./inp_files/16239.got.cif
#   From: 2010.05.17/outbox.cif.g08.bks.cpg/sg35_9_cif.got.tgz:16239.got - 2010.06.03 17:29:28.
