data_PCOD9348296
_publ_section_title
;
Structure prediction by ZEFSAII (Michael W. Deem and Ramdas Pophale) SiO2 
 PCOD9348296
Probable space group: C M M 2
;
_chemical_formula_sum "Si O2"
_cell_formula_units_Z 40
_cell_length_a 14.914383
_cell_length_b 14.219687
_cell_length_c 7.953156
_cell_angle_alpha 90.000000
_cell_angle_beta 90.000000
_cell_angle_gamma 90.000000
_cell_volume 1686.688289
_symmetry_space_group_name_H-M "C M M 2"
_symmetry_group_IT_number 35
_symmetry_cell_setting 'orthorhombic'
loop_
_space_group_symop_operation_xyz
x,y,z
-x,-y,z
-x,y,z
x,-y,z
1/2+x,1/2+y,z
1/2-x,1/2-y,z
1/2-x,1/2+y,z
1/2+x,1/2-y,z
loop_
_atom_site_type_symbol
_atom_site_label
_atom_site_fract_x
_atom_site_fract_y
_atom_site_fract_z
Si Si1 0.599038 0.889048 0.526630
Si Si2 0.595143 0.606238 0.214275
Si Si3 0.794666 0.383884 0.199922
Si Si4 0.889769 0.694929 0.866483
Si Si5 0.898421 0.900107 0.809074
O O1 0.500000 0.845808 0.525732
O O2 0.651725 0.855789 0.365472
O O3 0.633512 0.873837 0.714246
O O4 0.592341 0.000000 0.501777
O O5 0.500000 0.651331 0.264505
O O6 0.595912 0.500000 0.285857
O O7 0.692948 0.646978 0.238705
O O8 0.592980 0.596569 0.011725
O O9 0.794539 0.500000 0.178124
O O10 0.839582 0.337929 0.034949
O O11 0.859772 0.796412 0.791872
O O12 0.000000 0.696667 0.895718
O O13 0.000000 0.898511 0.739050
O O14 0.855923 0.000000 0.755350
#
# Coordination Sequence:
#
# PCOD9348296 Si02
#       5
#     8   8   8   8   8
#     4   9  18  32  50  79 122 162 196 240 290 348
#     4   8  15  30  53  80 110 148 195 245 297 350
#     4  10  19  31  53  84 118 159 201 241 293 357
#     4  10  19  31  53  84 118 159 201 241 293 357
#     4   8  15  30  53  80 110 148 195 245 297 350
#
# _framework density 23.715111
#
# number of rings (size 3 to 8) (size 9 to 14) (size 15 to 20)
#    0.000    3.000    0.000    2.400    0.000    2.800 
#    0.000    0.000    0.000    7.200    0.000   22.400 
#    0.000   20.000    0.000    0.000    0.000    0.000 
#
# Total GULP energy -111448.555977 kJ/mol
# GULP energy per Si atom -5572.427799 kJ/mol
# Density = 2.366113 g / cm^3
# Si number density = 23.715111 Si / 1000 Ang^3
#
#
#
# Elastic Constant Matrix: (Units=GPa)
#
#
# Indices 1 2 3 4 5 6 
#
# 1 138.0486 35.8014 73.7291 0.0000 0.0000 0.0000
# 2 35.8014 81.9225 11.3135 0.0000 0.0000 0.0000
# 3 73.7291 11.3135 110.8464 0.0000 0.0000 0.0000
# 4 0.0000 0.0000 0.0000 12.4872 0.0000 0.0000
# 5 0.0000 0.0000 0.0000 0.0000 -14.6174 0.0000
# 6 0.0000 0.0000 0.0000 0.0000 0.0000 -5.0019
#
#
#
# Elastic Compliance Matrix: (Units=1/GPa)
#
#
# Indices 1 2 3 4 5 6 
#
# 1 0.012641 -0.004425 -0.007956 0.000000 0.000000 0.000000
# 2 -0.004425 0.013931 0.001522 0.000000 0.000000 0.000000
# 3 -0.007956 0.001522 0.014158 0.000000 0.000000 0.000000
# 4 0.000000 0.000000 0.000000 0.080082 0.000000 0.000000
# 5 0.000000 0.000000 0.000000 0.000000 -0.068412 0.000000
# 6 0.000000 0.000000 0.000000 0.000000 0.000000 -0.199922
#
#
# Mechanical properties :
#
#
# Convention : Reuss Voigt Hill
#
# Bulk Modulus (GPa) = 52.60503 63.61171 58.10837
# Shear Modulus (GPa) = -41.85307 12.57179 -14.64064
#
# Velocity S-wave (km/s) = -4.20554 2.30493 -2.48736
# Velocity P-wave (km/s) = 1.16271 5.82796 4.03814
#
# Compressibility (1/GPa) = 0.01900959
#
# Stress axis : x y z
#
# Youngs Moduli (GPa) = 79.10862 71.78488 70.62997
#
# Poissons Ratio (x) = 0.31768 0.56196
# Poissons Ratio (y) = 0.35009 -0.10748
# Poissons Ratio (z) = 0.62941 -0.10924
#
# Static dielectric constant tensor:
#      x y z
#    x 1.972720 0.000000 0.000000 
#    y 0.000000 2.000170 0.000000 
#    z 0.000000 0.000000 1.822400 
# 
# From -- ./inp_files/7002.got.cif
#   From: 2010.05.17/outbox.cif.g08.bks.cpg/sg35_4_cif.got.tgz:7002.got - 2010.06.03 17:29:28.
