data_PCOD9348735
_publ_section_title
;
Structure prediction by ZEFSAII (Michael W. Deem and Ramdas Pophale) SiO2 
 PCOD9348735
Probable space group: C M M 2
;
_chemical_formula_sum "Si O2"
_cell_formula_units_Z 48
_cell_length_a 7.475115
_cell_length_b 14.881026
_cell_length_c 18.705941
_cell_angle_alpha 90.000000
_cell_angle_beta 90.000000
_cell_angle_gamma 90.000000
_cell_volume 2080.799880
_symmetry_space_group_name_H-M "C M M 2"
_symmetry_group_IT_number 35
_symmetry_cell_setting 'orthorhombic'
loop_
_space_group_symop_operation_xyz
x,y,z
-x,-y,z
-x,y,z
x,-y,z
1/2+x,1/2+y,z
1/2-x,1/2-y,z
1/2-x,1/2+y,z
1/2+x,1/2-y,z
loop_
_atom_site_type_symbol
_atom_site_label
_atom_site_fract_x
_atom_site_fract_y
_atom_site_fract_z
Si Si1 0.212652 0.145666 0.979400
Si Si2 0.795852 0.892508 0.823496
Si Si3 0.500000 0.110914 0.240960
Si Si4 0.794273 0.110206 0.516355
Si Si5 0.218657 0.105001 0.671683
Si Si6 0.199392 0.895080 0.135478
Si Si7 0.000000 0.609890 0.404561
O O1 0.250000 0.250000 0.985908
O O2 0.287974 0.121241 0.901352
O O3 0.000000 0.122436 0.977087
O O4 0.277188 0.107878 0.054968
O O5 0.717537 0.857752 0.748312
O O6 0.000000 0.856527 0.827982
O O7 0.806606 0.000000 0.815090
O O8 0.670692 0.142258 0.195454
O O9 0.500000 0.140416 0.322913
O O10 0.500000 0.000000 0.240880
O O11 0.726957 0.142133 0.594546
O O12 0.670897 0.138117 0.451101
O O13 0.000000 0.137014 0.507181
O O14 0.791639 0.000000 0.518789
O O15 0.000000 0.107415 0.672980
O O16 0.271516 0.000000 0.670300
O O17 0.000000 0.854057 0.134335
O O18 0.180775 0.000000 0.152287
O O19 0.000000 0.500000 0.402987
#
# Coordination Sequence:
#
# PCOD9348735 Si02
#       7
#     8   8   4   8   8   8   4
#     4  10  20  31  47  69  93 124 153 196 241 282
#     4   8  13  24  44  67  89 119 162 199 227 269
#     4   9  18  30  46  67  91 123 156 193 238 281
#     4   8  13  21  34  54  84 120 151 181 222 270
#     4   7  10  18  35  58  82 113 152 189 220 256
#     4   9  18  33  51  69  91 124 164 197 232 284
#     4   9  16  24  36  59  89 119 149 181 228 281
#
# _framework density 23.068049999999999
#
# number of rings (size 3 to 8) (size 9 to 14) (size 15 to 20)
#    0.000    3.500    0.000    2.500    1.167    2.667 
#    0.000    3.333    1.833    0.000    0.000    0.000 
#    0.000    1.333    2.333    0.000    0.000    0.000 
#
# Total GULP energy -133753.368554 kJ/mol
# GULP energy per Si atom -5573.057023 kJ/mol
# Density = 2.301555 g / cm^3
# Si number density = 23.068050 Si / 1000 Ang^3
#
#
#
# Elastic Constant Matrix: (Units=GPa)
#
#
# Indices 1 2 3 4 5 6 
#
# 1 96.8640 -1.4729 92.9765 0.0000 0.0000 0.0000
# 2 -1.4729 39.4063 2.4812 0.0000 0.0000 0.0000
# 3 92.9765 2.4812 286.7512 0.0000 0.0000 0.0000
# 4 0.0000 0.0000 0.0000 -45.6764 0.0000 0.0000
# 5 0.0000 0.0000 0.0000 0.0000 46.8654 0.0000
# 6 0.0000 0.0000 0.0000 0.0000 0.0000 -28.2570
#
#
#
# Elastic Compliance Matrix: (Units=1/GPa)
#
#
# Indices 1 2 3 4 5 6 
#
# 1 0.015018 0.000868 -0.004877 0.000000 0.000000 0.000000
# 2 0.000868 0.025441 -0.000502 0.000000 0.000000 0.000000
# 3 -0.004877 -0.000502 0.005073 0.000000 0.000000 0.000000
# 4 0.000000 0.000000 0.000000 -0.021893 0.000000 0.000000
# 5 0.000000 0.000000 0.000000 0.000000 0.021338 0.000000
# 6 0.000000 0.000000 0.000000 0.000000 0.000000 -0.035389
#
#
# Mechanical properties :
#
#
# Convention : Reuss Voigt Hill
#
# Bulk Modulus (GPa) = 27.38875 67.88788 47.63832
# Shear Modulus (GPa) = 162.45246 16.52219 89.48733
#
# Velocity S-wave (km/s) = 8.40095 2.67916 6.23514
# Velocity P-wave (km/s) = 10.29564 6.25011 8.51657
#
# Compressibility (1/GPa) = 0.03651134
#
# Stress axis : x y z
#
# Youngs Moduli (GPa) = 66.58558 39.30707 197.12110
#
# Poissons Ratio (x) = -0.03414 0.96137
# Poissons Ratio (y) = -0.05783 0.09890
# Poissons Ratio (z) = 0.32474 0.01972
#
# Static dielectric constant tensor:
#      x y z
#    x 2.078370 0.000000 0.000000 
#    y 0.000000 1.848090 0.000000 
#    z 0.000000 0.000000 1.889600 
# 
# From -- ./inp_files/17854.got.cif
#   From: 2010.05.17/outbox.cif.g08.bks.cpg/sg35_9_cif.got.tgz:17854.got - 2010.06.03 17:29:28.
