data_PCOD9348890
_publ_section_title
;
Structure prediction by ZEFSAII (Michael W. Deem and Ramdas Pophale) SiO2 
 PCOD9348890
Probable space group: C M M 2
;
_chemical_formula_sum "Si O2"
_cell_formula_units_Z 56
_cell_length_a 13.471308
_cell_length_b 13.666656
_cell_length_c 16.950839
_cell_angle_alpha 90.000000
_cell_angle_beta 90.000000
_cell_angle_gamma 90.000000
_cell_volume 3120.780529
_symmetry_space_group_name_H-M "C M M 2"
_symmetry_group_IT_number 35
_symmetry_cell_setting 'orthorhombic'
loop_
_space_group_symop_operation_xyz
x,y,z
-x,-y,z
-x,y,z
x,-y,z
1/2+x,1/2+y,z
1/2-x,1/2-y,z
1/2-x,1/2+y,z
1/2+x,1/2-y,z
loop_
_atom_site_type_symbol
_atom_site_label
_atom_site_fract_x
_atom_site_fract_y
_atom_site_fract_z
Si Si1 0.879603 0.113397 0.621490
Si Si2 0.379603 0.386603 0.796045
Si Si3 0.800389 0.615057 0.039495
Si Si4 0.800389 0.384943 0.378039
Si Si5 0.886149 0.381619 0.208767
Si Si6 0.615667 0.702875 0.960940
Si Si7 0.615667 0.297125 0.456595
O O1 0.844954 0.144735 0.708767
O O2 0.852440 0.176873 0.545803
O O3 0.000000 0.113778 0.623785
O O4 0.849336 0.000000 0.609229
O O5 0.500000 0.386221 0.793750
O O6 0.349336 0.500000 0.808306
O O7 0.352440 0.323127 0.871732
O O8 0.818992 0.500000 0.029334
O O9 0.830083 0.644677 0.128409
O O10 0.687027 0.641101 0.018406
O O11 0.864380 0.684365 0.982248
O O12 0.818993 0.500000 0.388200
O O13 0.830083 0.355323 0.289126
O O14 0.687027 0.358899 0.399129
O O15 0.864381 0.315635 0.435287
O O16 0.891033 0.500000 0.208767
O O17 0.000000 0.344976 0.208767
O O18 0.500000 0.678984 0.970412
O O19 0.500000 0.321016 0.447122
#
# Coordination Sequence:
#
# PCOD9348890 Si02
#       7
#     8   8   8   8   8   8   8
#     4   8  14  27  49  75 103 138 176 208 245 303
#     4   8  14  27  49  75 103 138 176 208 245 303
#     4  10  21  36  53  76 104 135 174 215 257 311
#     4  10  21  36  53  76 104 135 174 215 257 311
#     4   9  18  35  57  75  98 139 181 210 247 311
#     4  10  20  33  53  80 106 134 170 216 264 304
#     4  10  20  33  53  80 106 134 170 216 264 304
#
# _framework density 17.944227999999999
#
# number of rings (size 3 to 8) (size 9 to 14) (size 15 to 20)
#    0.000    2.714    0.000    2.571    0.000    5.714 
#    0.000    5.000    0.000    5.143    0.000    4.000 
#    0.000    0.000    0.000    0.000    0.000    0.000 
#
# Total GULP energy -155993.182218 kJ/mol
# GULP energy per Si atom -5571.185079 kJ/mol
# Density = 1.790339 g / cm^3
# Si number density = 17.944228 Si / 1000 Ang^3
#
#
#
# Elastic Constant Matrix: (Units=GPa)
#
#
# Indices 1 2 3 4 5 6 
#
# 1 85.3883 8.3151 71.4832 0.0000 0.0000 0.0000
# 2 8.3151 82.1629 82.4663 0.0000 0.0000 0.0000
# 3 71.4832 82.4663 179.6003 0.0000 0.0000 0.0000
# 4 0.0000 0.0000 0.0000 18.7296 0.0000 0.0000
# 5 0.0000 0.0000 0.0000 0.0000 15.8977 0.0000
# 6 0.0000 0.0000 0.0000 0.0000 0.0000 17.2423
#
#
#
# Elastic Compliance Matrix: (Units=1/GPa)
#
#
# Indices 1 2 3 4 5 6 
#
# 1 0.023053 0.012754 -0.015032 0.000000 0.000000 0.000000
# 2 0.012754 0.029631 -0.018682 0.000000 0.000000 0.000000
# 3 -0.015032 -0.018682 0.020129 0.000000 0.000000 0.000000
# 4 0.000000 0.000000 0.000000 0.053392 0.000000 0.000000
# 5 0.000000 0.000000 0.000000 0.000000 0.062902 0.000000
# 6 0.000000 0.000000 0.000000 0.000000 0.000000 0.057997
#
#
# Mechanical properties :
#
#
# Convention : Reuss Voigt Hill
#
# Bulk Modulus (GPa) = 32.36876 74.63118 53.49997
# Shear Modulus (GPa) = 16.70455 22.69972 19.70213
#
# Velocity S-wave (km/s) = 3.05440 3.56056 3.31715
# Velocity P-wave (km/s) = 5.52420 7.65405 6.67463
#
# Compressibility (1/GPa) = 0.03089399
#
# Stress axis : x y z
#
# Youngs Moduli (GPa) = 43.37838 33.74849 49.68028
#
# Poissons Ratio (x) = -0.43043 0.74677
# Poissons Ratio (y) = -0.55325 0.92812
# Poissons Ratio (z) = 0.65205 0.63048
#
# Static dielectric constant tensor:
#      x y z
#    x 1.630290 0.000000 0.000000 
#    y 0.000000 1.620720 0.000000 
#    z 0.000000 0.000000 1.633570 
# 
# From -- ./inp_files/16823.got.cif
#   From: 2010.05.17/outbox.cif.g08.bks.cpg/sg35_9_cif.got.tgz:16823.got - 2010.06.03 17:29:28.
