data_PCOD9348859
_publ_section_title
;
Structure prediction by ZEFSAII (Michael W. Deem and Ramdas Pophale) SiO2 
 PCOD9348859
Probable space group: C M M 2
;
_chemical_formula_sum "Si O2"
_cell_formula_units_Z 64
_cell_length_a 9.029981
_cell_length_b 19.096312
_cell_length_c 21.251322
_cell_angle_alpha 90.000000
_cell_angle_beta 90.000000
_cell_angle_gamma 90.000000
_cell_volume 3664.563824
_symmetry_space_group_name_H-M "C M M 2"
_symmetry_group_IT_number 35
_symmetry_cell_setting 'orthorhombic'
loop_
_space_group_symop_operation_xyz
x,y,z
-x,-y,z
-x,y,z
x,-y,z
1/2+x,1/2+y,z
1/2-x,1/2-y,z
1/2-x,1/2+y,z
1/2+x,1/2-y,z
loop_
_atom_site_type_symbol
_atom_site_label
_atom_site_fract_x
_atom_site_fract_y
_atom_site_fract_z
Si Si1 0.322034 0.081727 0.573770
Si Si2 0.826120 0.916143 0.941731
Si Si3 0.321138 0.082696 0.211022
Si Si4 0.321715 0.673339 0.321181
Si Si5 0.670205 0.914965 0.069426
Si Si6 0.322202 0.581440 0.442865
Si Si7 0.322897 0.173614 0.833768
Si Si8 0.178108 0.674157 0.691927
O O1 0.500000 0.087234 0.568434
O O2 0.249636 0.105333 0.508374
O O3 0.273775 0.124543 0.635018
O O4 0.284363 0.000000 0.581929
O O5 0.738640 0.877512 0.886754
O O6 0.000000 0.901834 0.935886
O O7 0.803461 0.000000 0.937372
O O8 0.768159 0.892872 0.010420
O O9 0.500000 0.088909 0.216381
O O10 0.240340 0.129309 0.262441
O O11 0.280754 0.105208 0.139670
O O12 0.285145 0.000000 0.218927
O O13 0.500000 0.678311 0.317824
O O14 0.250000 0.750000 0.322211
O O15 0.281500 0.630250 0.384361
O O16 0.500000 0.892454 0.059958
O O17 0.669700 0.000000 0.070249
O O18 0.500000 0.582670 0.449021
O O19 0.277887 0.500000 0.431584
O O20 0.500000 0.179498 0.838664
O O21 0.250000 0.250000 0.841294
O O22 0.285884 0.148544 0.762612
O O23 0.250000 0.750000 0.684410
O O24 0.000000 0.680521 0.688931
#
# Coordination Sequence:
#
# PCOD9348859 Si02
#       8
#     8   8   8   8   8   8   8   8
#     4   9  18  33  53  77 103 130 164 207 251 297
#     4  10  20  33  51  78 109 137 170 214 258 303
#     4   9  18  34  57  82 106 134 170 211 255 307
#     4  11  23  37  53  75 106 140 174 215 259 304
#     4   8  15  30  52  77 104 134 169 209 254 305
#     4   9  19  36  55  75 100 132 170 209 252 304
#     4  10  20  35  54  74 101 138 176 215 259 308
#     4   9  19  34  52  74 100 132 169 208 251 302
#
# _framework density 17.464561
#
# number of rings (size 3 to 8) (size 9 to 14) (size 15 to 20)
#    0.000    2.625    0.000    2.250    0.000    5.000 
#    0.000    6.875    0.000    4.500    0.000    0.000 
#    0.000    0.000    0.000    0.000    0.000    0.000 
#
# Total GULP energy -178451.321062 kJ/mol
# GULP energy per Si atom -5576.603783 kJ/mol
# Density = 1.742481 g / cm^3
# Si number density = 17.464561 Si / 1000 Ang^3
#
#
#
# Elastic Constant Matrix: (Units=GPa)
#
#
# Indices 1 2 3 4 5 6 
#
# 1 50.3631 43.5125 73.3943 0.0000 0.0000 0.0000
# 2 43.5125 64.9066 83.7196 0.0000 0.0000 0.0000
# 3 73.3943 83.7196 194.5856 0.0000 0.0000 0.0000
# 4 0.0000 0.0000 0.0000 -31.9181 0.0000 0.0000
# 5 0.0000 0.0000 0.0000 0.0000 29.7474 0.0000
# 6 0.0000 0.0000 0.0000 0.0000 0.0000 24.4773
#
#
#
# Elastic Compliance Matrix: (Units=1/GPa)
#
#
# Indices 1 2 3 4 5 6 
#
# 1 0.056341 -0.023278 -0.011236 0.000000 0.000000 0.000000
# 2 -0.023278 0.044236 -0.010252 0.000000 0.000000 0.000000
# 3 -0.011236 -0.010252 0.013788 0.000000 0.000000 0.000000
# 4 0.000000 0.000000 0.000000 -0.031330 0.000000 0.000000
# 5 0.000000 0.000000 0.000000 0.000000 0.033616 0.000000
# 6 0.000000 0.000000 0.000000 0.000000 0.000000 0.040854
#
#
# Mechanical properties :
#
#
# Convention : Reuss Voigt Hill
#
# Bulk Modulus (GPa) = 40.26875 79.01203 59.64039
# Shear Modulus (GPa) = 19.58369 11.74327 15.66348
#
# Velocity S-wave (km/s) = 3.35227 2.59589 2.99803
# Velocity P-wave (km/s) = 6.17180 7.37051 6.79763
#
# Compressibility (1/GPa) = 0.02483315
#
# Stress axis : x y z
#
# Youngs Moduli (GPa) = 17.74903 22.60614 72.52711
#
# Poissons Ratio (x) = 0.52623 0.81488
# Poissons Ratio (y) = 0.41316 0.74356
# Poissons Ratio (z) = 0.19942 0.23176
#
# Static dielectric constant tensor:
#      x y z
#    x 1.583770 0.000000 0.000000 
#    y 0.000000 1.571010 0.000000 
#    z 0.000000 0.000000 1.593380 
# 
# From -- ./inp_files/18313.got.cif
#   From: 2010.05.17/outbox.cif.g08.bks.cpg/sg35_10_cif.got.tgz:18313.got - 2010.06.03 17:29:28.
