data_PCOD9348983
_publ_section_title
;
Structure prediction by ZEFSAII (Michael W. Deem and Ramdas Pophale) SiO2 
 PCOD9348983
Probable space group: C M M 2
;
_chemical_formula_sum "Si O2"
_cell_formula_units_Z 48
_cell_length_a 19.099882
_cell_length_b 8.725864
_cell_length_c 15.873403
_cell_angle_alpha 90.000000
_cell_angle_beta 90.000000
_cell_angle_gamma 90.000000
_cell_volume 2645.508532
_symmetry_space_group_name_H-M "C M M 2"
_symmetry_group_IT_number 35
_symmetry_cell_setting 'orthorhombic'
loop_
_space_group_symop_operation_xyz
x,y,z
-x,-y,z
-x,y,z
x,-y,z
1/2+x,1/2+y,z
1/2-x,1/2-y,z
1/2-x,1/2+y,z
1/2+x,1/2-y,z
loop_
_atom_site_type_symbol
_atom_site_label
_atom_site_fract_x
_atom_site_fract_y
_atom_site_fract_z
Si Si1 0.919320 0.186724 0.007140
Si Si2 0.916283 0.819519 0.818915
Si Si3 0.326759 0.182672 0.670324
Si Si4 0.171882 0.184395 0.167069
Si Si5 0.418629 0.814460 0.320627
Si Si6 0.327268 0.815180 0.479978
O O1 0.867469 0.234148 0.081170
O O2 0.000000 0.235127 0.022915
O O3 0.920319 0.000000 0.005570
O O4 0.897354 0.236481 0.913186
O O5 0.878539 0.736286 0.742862
O O6 0.000000 0.804458 0.812359
O O7 0.899112 0.000000 0.813950
O O8 0.250000 0.250000 0.686670
O O9 0.347356 0.232240 0.575193
O O10 0.322713 0.000000 0.670440
O O11 0.250000 0.250000 0.171433
O O12 0.125801 0.243367 0.244952
O O13 0.174647 0.000000 0.168710
O O14 0.500000 0.768900 0.316852
O O15 0.382329 0.768657 0.408728
O O16 0.415522 0.000000 0.314766
O O17 0.250000 0.750000 0.461781
O O18 0.322901 0.000000 0.478602
#
# Coordination Sequence:
#
# PCOD9348983 Si02
#       6
#     8   8   8   8   8   8
#     4   8  16  33  55  76 101 136 174 212 258 310
#     4   9  18  34  55  78 106 139 173 212 260 310
#     4  10  20  34  53  77 106 139 176 216 258 306
#     4  11  22  36  55  79 107 138 174 214 257 307
#     4  10  21  37  56  79 107 137 170 211 260 311
#     4   9  19  35  54  75 102 138 174 212 259 308
#
# _framework density 18.14396
#
# number of rings (size 3 to 8) (size 9 to 14) (size 15 to 20)
#    0.000    2.500    0.000    3.000    0.000    5.333 
#    0.000    5.000    0.000    2.000    0.000    0.000 
#    0.000    0.000    0.000    0.000    0.000    0.000 
#
# Total GULP energy -133902.058715 kJ/mol
# GULP energy per Si atom -5579.252446 kJ/mol
# Density = 1.810266 g / cm^3
# Si number density = 18.143960 Si / 1000 Ang^3
#
#
#
# Elastic Constant Matrix: (Units=GPa)
#
#
# Indices 1 2 3 4 5 6 
#
# 1 119.9037 36.0389 102.8462 0.0000 0.0000 0.0000
# 2 36.0389 25.7167 42.7270 0.0000 0.0000 0.0000
# 3 102.8462 42.7270 158.6113 0.0000 0.0000 0.0000
# 4 0.0000 0.0000 0.0000 6.2559 0.0000 0.0000
# 5 0.0000 0.0000 0.0000 0.0000 38.0998 0.0000
# 6 0.0000 0.0000 0.0000 0.0000 0.0000 19.9728
#
#
#
# Elastic Compliance Matrix: (Units=1/GPa)
#
#
# Indices 1 2 3 4 5 6 
#
# 1 0.020692 -0.012138 -0.010147 0.000000 0.000000 0.000000
# 2 -0.012138 0.077509 -0.013009 0.000000 0.000000 0.000000
# 3 -0.010147 -0.013009 0.016389 0.000000 0.000000 0.000000
# 4 0.000000 0.000000 0.000000 0.159848 0.000000 0.000000
# 5 0.000000 0.000000 0.000000 0.000000 0.026247 0.000000
# 6 0.000000 0.000000 0.000000 0.000000 0.000000 0.050068
#
#
# Mechanical properties :
#
#
# Convention : Reuss Voigt Hill
#
# Bulk Modulus (GPa) = 22.72671 74.16177 48.44424
# Shear Modulus (GPa) = 11.46765 21.04034 16.25400
#
# Velocity S-wave (km/s) = 2.51676 3.40903 2.99630
# Velocity P-wave (km/s) = 4.58240 7.51386 6.22321
#
# Compressibility (1/GPa) = 0.04400109
#
# Stress axis : x y z
#
# Youngs Moduli (GPa) = 48.32769 12.90170 61.01752
#
# Poissons Ratio (x) = 0.15660 0.61916
# Poissons Ratio (y) = 0.58661 0.79377
# Poissons Ratio (z) = 0.49039 0.16784
#
# Static dielectric constant tensor:
#      x y z
#    x 1.583240 0.000000 0.000000 
#    y 0.000000 1.617400 0.000000 
#    z 0.000000 0.000000 1.631330 
# 
# From -- ./inp_files/15082.got.cif
#   From: 2010.05.17/outbox.cif.g08.bks.cpg/sg35_8_cif.got.tgz:15082.got - 2010.06.03 17:29:28.
