data_PCOD9348431
_publ_section_title
;
Structure prediction by ZEFSAII (Michael W. Deem and Ramdas Pophale) SiO2 
 PCOD9348431
Probable space group: C M M 2
;
_chemical_formula_sum "Si O2"
_cell_formula_units_Z 32
_cell_length_a 16.699218
_cell_length_b 18.440610
_cell_length_c 5.077856
_cell_angle_alpha 90.000000
_cell_angle_beta 90.000000
_cell_angle_gamma 90.000000
_cell_volume 1563.694102
_symmetry_space_group_name_H-M "C M M 2"
_symmetry_group_IT_number 35
_symmetry_cell_setting 'orthorhombic'
loop_
_space_group_symop_operation_xyz
x,y,z
-x,-y,z
-x,y,z
x,-y,z
1/2+x,1/2+y,z
1/2-x,1/2-y,z
1/2-x,1/2+y,z
1/2+x,1/2-y,z
loop_
_atom_site_type_symbol
_atom_site_label
_atom_site_fract_x
_atom_site_fract_y
_atom_site_fract_z
Si Si1 0.695926 0.823098 0.759520
Si Si2 0.909966 0.782107 0.007039
Si Si3 0.278919 0.635174 0.259912
Si Si4 0.589994 0.421412 0.619565
O O1 0.611311 0.790868 0.848802
O O2 0.709644 0.855716 0.474900
O O3 0.843373 0.917470 0.393568
O O4 0.735377 0.874638 0.981474
O O5 0.903328 0.852809 0.815463
O O6 0.000000 0.779989 0.113381
O O7 0.838926 0.795267 0.217530
O O8 0.250000 0.750000 0.758519
O O9 0.500000 0.417604 0.505619
O O10 0.596965 0.500000 0.756234
#
# Coordination Sequence:
#
# PCOD9348431 Si02
#       4
#     8   8   8   8
#     4  10  19  32  54  73 100 138 177 223 273 306
#     4  10  21  34  54  79 109 145 180 221 269 317
#     4  11  19  36  52  74 103 145 176 220 263 309
#     4  10  21  35  51  76 112 151 183 208 247 316
#
# _framework density 20.464362000000001
#
# number of rings (size 3 to 8) (size 9 to 14) (size 15 to 20)
#    0.000    1.750    5.000    3.000    0.000    1.000 
#    0.000    2.500    0.000    0.000    0.000    0.000 
#    0.000    6.000    0.000    0.000    0.000    0.000 
#
# Total GULP energy -89110.640538 kJ/mol
# GULP energy per Si atom -5569.415034 kJ/mol
# Density = 2.041778 g / cm^3
# Si number density = 20.464362 Si / 1000 Ang^3
#
#
#
# Elastic Constant Matrix: (Units=GPa)
#
#
# Indices 1 2 3 4 5 6 
#
# 1 71.9342 29.2440 20.4514 0.0000 0.0000 0.0000
# 2 29.2440 41.8044 12.2976 0.0000 0.0000 0.0000
# 3 20.4514 12.2976 89.0852 0.0000 0.0000 0.0000
# 4 0.0000 0.0000 0.0000 17.7515 0.0000 0.0000
# 5 0.0000 0.0000 0.0000 0.0000 16.9290 0.0000
# 6 0.0000 0.0000 0.0000 0.0000 0.0000 8.4634
#
#
#
# Elastic Compliance Matrix: (Units=1/GPa)
#
#
# Indices 1 2 3 4 5 6 
#
# 1 0.020067 -0.013219 -0.002782 0.000000 0.000000 0.000000
# 2 -0.013219 0.033642 -0.001609 0.000000 0.000000 0.000000
# 3 -0.002782 -0.001609 0.012086 0.000000 0.000000 0.000000
# 4 0.000000 0.000000 0.000000 0.056333 0.000000 0.000000
# 5 0.000000 0.000000 0.000000 0.000000 0.059070 0.000000
# 6 0.000000 0.000000 0.000000 0.000000 0.000000 0.118156
#
#
# Mechanical properties :
#
#
# Convention : Reuss Voigt Hill
#
# Bulk Modulus (GPa) = 32.70784 36.31219 34.51001
# Shear Modulus (GPa) = 14.50259 18.01749 16.26004
#
# Velocity S-wave (km/s) = 2.66498 2.97043 2.82184
# Velocity P-wave (km/s) = 5.04847 5.43574 5.24568
#
# Compressibility (1/GPa) = 0.03057371
#
# Stress axis : x y z
#
# Youngs Moduli (GPa) = 49.83407 29.72505 82.74032
#
# Poissons Ratio (x) = 0.39294 0.23018
# Poissons Ratio (y) = 0.65876 0.13315
# Poissons Ratio (z) = 0.13863 0.04784
#
# Static dielectric constant tensor:
#      x y z
#    x 1.773550 0.000000 0.000000 
#    y 0.000000 1.788810 0.000000 
#    z 0.000000 0.000000 1.835910 
# 
# From -- ./inp_files/2319.got.cif
#   From: 2010.05.17/outbox.cif.g08.bks.cpg/sg35_2_cif.got.tgz:2319.got - 2010.06.03 17:29:28.
