data_PCOD9348880
_publ_section_title
;
Structure prediction by ZEFSAII (Michael W. Deem and Ramdas Pophale) SiO2 
 PCOD9348880
Probable space group: C M M 2
;
_chemical_formula_sum "Si O2"
_cell_formula_units_Z 64
_cell_length_a 17.217669
_cell_length_b 18.023413
_cell_length_c 11.377075
_cell_angle_alpha 90.000000
_cell_angle_beta 90.000000
_cell_angle_gamma 90.000000
_cell_volume 3530.547103
_symmetry_space_group_name_H-M "C M M 2"
_symmetry_group_IT_number 35
_symmetry_cell_setting 'orthorhombic'
loop_
_space_group_symop_operation_xyz
x,y,z
-x,-y,z
-x,y,z
x,-y,z
1/2+x,1/2+y,z
1/2-x,1/2-y,z
1/2-x,1/2+y,z
1/2+x,1/2-y,z
loop_
_atom_site_type_symbol
_atom_site_label
_atom_site_fract_x
_atom_site_fract_y
_atom_site_fract_z
Si Si1 0.590539 0.913396 0.246910
Si Si2 0.911462 0.143799 0.307156
Si Si3 0.093058 0.084587 0.557553
Si Si4 0.338906 0.269055 0.667007
Si Si5 0.410345 0.199159 0.440932
Si Si6 0.818065 0.413036 0.001908
Si Si7 0.811908 0.812832 0.090301
Si Si8 0.409171 0.783046 0.906325
O O1 0.500000 0.891797 0.224887
O O2 0.620077 0.864817 0.355361
O O3 0.639689 0.903920 0.128848
O O4 0.591714 0.000000 0.277304
O O5 0.890581 0.092229 0.417811
O O6 0.910877 0.226104 0.363502
O O7 0.853995 0.147118 0.198016
O O8 0.000000 0.126717 0.270132
O O9 0.142391 0.147159 0.624298
O O10 0.000000 0.101442 0.570510
O O11 0.106526 0.000000 0.595823
O O12 0.250000 0.250000 0.695917
O O13 0.363360 0.216840 0.557839
O O14 0.390074 0.252186 0.780828
O O15 0.500000 0.182299 0.472497
O O16 0.814244 0.500000 0.974470
O O17 0.735303 0.373245 0.015196
O O18 0.868495 0.363401 0.913995
O O19 0.750000 0.750000 0.131484
O O20 0.871353 0.768166 0.007637
O O21 0.500000 0.789969 0.925990
#
# Coordination Sequence:
#
# PCOD9348880 Si02
#       8
#     8   8   8   8   8   8   8   8
#     4   9  17  30  50  77 109 146 187 226 266 318
#     4   9  17  30  51  79 108 140 179 220 264 316
#     4   9  19  37  60  83 109 145 185 221 260 315
#     4  11  22  37  56  81 110 139 178 227 277 326
#     4   9  17  31  50  73 105 144 183 224 266 313
#     4  10  21  36  55  81 113 145 177 220 276 331
#     4  10  20  33  52  80 111 144 180 223 273 320
#     4  11  22  39  61  79 101 140 190 232 266 317
#
# _framework density 18.127502
#
# number of rings (size 3 to 8) (size 9 to 14) (size 15 to 20)
#    0.000    2.250    0.000    5.250    0.000    6.250 
#    0.000    5.000    0.000    3.375    0.000    0.000 
#    0.000    0.000    0.000    0.000    0.000    0.000 
#
# Total GULP energy -178562.039762 kJ/mol
# GULP energy per Si atom -5580.063743 kJ/mol
# Density = 1.808624 g / cm^3
# Si number density = 18.127502 Si / 1000 Ang^3
#
#
#
# Elastic Constant Matrix: (Units=GPa)
#
#
# Indices 1 2 3 4 5 6 
#
# 1 75.3828 30.2356 15.6753 0.0000 0.0000 0.0000
# 2 30.2356 100.7301 25.2885 0.0000 0.0000 0.0000
# 3 15.6753 25.2885 37.6209 0.0000 0.0000 0.0000
# 4 0.0000 0.0000 0.0000 17.1324 0.0000 0.0000
# 5 0.0000 0.0000 0.0000 0.0000 19.7783 0.0000
# 6 0.0000 0.0000 0.0000 0.0000 0.0000 10.4660
#
#
#
# Elastic Compliance Matrix: (Units=1/GPa)
#
#
# Indices 1 2 3 4 5 6 
#
# 1 0.015572 -0.003664 -0.004026 0.000000 0.000000 0.000000
# 2 -0.003664 0.012805 -0.007081 0.000000 0.000000 0.000000
# 3 -0.004026 -0.007081 0.033018 0.000000 0.000000 0.000000
# 4 0.000000 0.000000 0.000000 0.058369 0.000000 0.000000
# 5 0.000000 0.000000 0.000000 0.000000 0.050561 0.000000
# 6 0.000000 0.000000 0.000000 0.000000 0.000000 0.095548
#
#
# Mechanical properties :
#
#
# Convention : Reuss Voigt Hill
#
# Bulk Modulus (GPa) = 31.39248 39.57028 35.48138
# Shear Modulus (GPa) = 16.33821 18.97762 17.65792
#
# Velocity S-wave (km/s) = 3.00541 3.23909 3.12444
# Velocity P-wave (km/s) = 5.42204 5.98875 5.71243
#
# Compressibility (1/GPa) = 0.03185476
#
# Stress axis : x y z
#
# Youngs Moduli (GPa) = 64.21711 78.09549 30.28649
#
# Poissons Ratio (x) = 0.28611 0.12193
# Poissons Ratio (y) = 0.23526 0.21445
# Poissons Ratio (z) = 0.25852 0.55298
#
# Static dielectric constant tensor:
#      x y z
#    x 1.637420 0.000000 0.000000 
#    y 0.000000 1.626530 0.000000 
#    z 0.000000 0.000000 1.604380 
# 
# From -- ./inp_files/13156.got.cif
#   From: 2010.05.17/outbox.cif.g08.bks.cpg/sg35_7_cif.got.tgz:13156.got - 2010.06.03 17:29:28.
