data_PCOD9348694
_publ_section_title
;
Structure prediction by ZEFSAII (Michael W. Deem and Ramdas Pophale) SiO2 
 PCOD9348694
Probable space group: C M M 2
;
_chemical_formula_sum "Si O2"
_cell_formula_units_Z 48
_cell_length_a 8.327172
_cell_length_b 31.440561
_cell_length_c 9.733182
_cell_angle_alpha 90.000000
_cell_angle_beta 90.000000
_cell_angle_gamma 90.000000
_cell_volume 2548.253716
_symmetry_space_group_name_H-M "C M M 2"
_symmetry_group_IT_number 35
_symmetry_cell_setting 'orthorhombic'
loop_
_space_group_symop_operation_xyz
x,y,z
-x,-y,z
-x,y,z
x,-y,z
1/2+x,1/2+y,z
1/2-x,1/2-y,z
1/2-x,1/2+y,z
1/2+x,1/2-y,z
loop_
_atom_site_type_symbol
_atom_site_label
_atom_site_fract_x
_atom_site_fract_y
_atom_site_fract_z
Si Si1 0.691343 0.869861 0.631760
Si Si2 0.820136 0.071828 0.860387
Si Si3 0.193733 0.096513 0.347253
Si Si4 0.318327 0.646879 0.082375
Si Si5 0.193847 0.797869 0.841658
Si Si6 0.176214 0.500000 0.032251
Si Si7 0.685105 0.500000 0.320524
O O1 0.500000 0.869680 0.623961
O O2 0.753517 0.910029 0.719496
O O3 0.764311 0.876386 0.481357
O O4 0.747102 0.828768 0.719224
O O5 0.000000 0.054098 0.843095
O O6 0.831212 0.110842 0.965920
O O7 0.703445 0.039508 0.933903
O O8 0.255485 0.122840 0.213935
O O9 0.000000 0.092994 0.330737
O O10 0.253306 0.047096 0.358797
O O11 0.500000 0.660045 0.123486
O O12 0.244623 0.684985 0.991283
O O13 0.250000 0.750000 0.819143
O O14 0.000000 0.800312 0.844635
O O15 0.304098 0.500000 0.154595
O O16 0.000000 0.500000 0.095936
O O17 0.500000 0.500000 0.367793
#
# Coordination Sequence:
#
# PCOD9348694 Si02
#       7
#     8   8   8   8   8   4   4
#     4  11  23  38  55  83 118 153 189 239 296 349
#     4  10  19  36  57  77 104 148 196 236 280 340
#     4  10  19  36  58  83 114 157 203 241 280 339
#     4   8  16  32  58  83 106 139 188 235 276 331
#     4  10  20  38  63  90 114 147 188 238 292 353
#     4  12  22  31  50  83 116 146 188 246 296 337
#     4  10  20  35  58  81 110 156 208 244 278 333
#
# _framework density 18.836428000000002
#
# number of rings (size 3 to 8) (size 9 to 14) (size 15 to 20)
#    0.000    2.000    1.667    4.250    0.000    1.333 
#    0.000    5.000    0.000    2.000    0.000    0.000 
#    0.000    0.000    0.000    0.000    0.000    0.000 
#
# Total GULP energy -133676.997119 kJ/mol
# GULP energy per Si atom -5569.874880 kJ/mol
# Density = 1.879356 g / cm^3
# Si number density = 18.836428 Si / 1000 Ang^3
#
#
#
# Elastic Constant Matrix: (Units=GPa)
#
#
# Indices 1 2 3 4 5 6 
#
# 1 36.8997 7.4391 -3.0729 0.0000 0.0000 0.0000
# 2 7.4391 96.5368 40.3641 0.0000 0.0000 0.0000
# 3 -3.0729 40.3641 106.0848 0.0000 0.0000 0.0000
# 4 0.0000 0.0000 0.0000 27.0727 0.0000 0.0000
# 5 0.0000 0.0000 0.0000 0.0000 9.4753 0.0000
# 6 0.0000 0.0000 0.0000 0.0000 0.0000 -5.3181
#
#
#
# Elastic Compliance Matrix: (Units=1/GPa)
#
#
# Indices 1 2 3 4 5 6 
#
# 1 0.027857 -0.002954 0.001931 0.000000 0.000000 0.000000
# 2 -0.002954 0.012632 -0.004892 0.000000 0.000000 0.000000
# 3 0.001931 -0.004892 0.011344 0.000000 0.000000 0.000000
# 4 0.000000 0.000000 0.000000 0.036938 0.000000 0.000000
# 5 0.000000 0.000000 0.000000 0.000000 0.105537 0.000000
# 6 0.000000 0.000000 0.000000 0.000000 0.000000 -0.188039
#
#
# Mechanical properties :
#
#
# Convention : Reuss Voigt Hill
#
# Bulk Modulus (GPa) = 24.99850 36.55353 30.77602
# Shear Modulus (GPa) = 159.07121 19.23206 89.15164
#
# Velocity S-wave (km/s) = 9.19957 3.19878 6.88710
# Velocity P-wave (km/s) = 11.23134 5.75246 8.92283
#
# Compressibility (1/GPa) = 0.04000241
#
# Stress axis : x y z
#
# Youngs Moduli (GPa) = 35.89782 79.16558 88.15514
#
# Poissons Ratio (x) = 0.23385 -0.17022
# Poissons Ratio (y) = 0.10604 0.43124
# Poissons Ratio (z) = -0.06931 0.38726
#
# Static dielectric constant tensor:
#      x y z
#    x 1.670820 0.000000 0.000000 
#    y 0.000000 1.630940 0.000000 
#    z 0.000000 0.000000 1.627590 
# 
# From -- ./inp_files/5397.got.cif
#   From: 2010.05.17/outbox.cif.g08.bks.cpg/sg35_3_cif.got.tgz:5397.got - 2010.06.03 17:29:28.
