data_PCOD9348948
_publ_section_title
;
Structure prediction by ZEFSAII (Michael W. Deem and Ramdas Pophale) SiO2 
 PCOD9348948
Probable space group: C M M 2
;
_chemical_formula_sum "Si O2"
_cell_formula_units_Z 58
_cell_length_a 9.492070
_cell_length_b 28.984399
_cell_length_c 12.661830
_cell_angle_alpha 90.000000
_cell_angle_beta 90.000000
_cell_angle_gamma 90.000000
_cell_volume 3483.547287
_symmetry_space_group_name_H-M "C M M 2"
_symmetry_group_IT_number 35
_symmetry_cell_setting 'orthorhombic'
loop_
_space_group_symop_operation_xyz
x,y,z
-x,-y,z
-x,y,z
x,-y,z
1/2+x,1/2+y,z
1/2-x,1/2-y,z
1/2-x,1/2+y,z
1/2+x,1/2-y,z
loop_
_atom_site_type_symbol
_atom_site_label
_atom_site_fract_x
_atom_site_fract_y
_atom_site_fract_z
Si Si1 0.709697 0.950110 0.213170
Si Si2 0.159202 0.446309 0.966084
Si Si3 0.000000 0.000000 0.207319
Si Si4 0.834451 0.203989 0.720578
Si Si5 0.167723 0.797471 0.475666
Si Si6 0.840395 0.647349 0.312395
Si Si7 0.167943 0.298567 0.091101
Si Si8 0.167774 0.140515 0.917990
O O1 0.674188 0.906360 0.283184
O O2 0.875822 0.960324 0.207361
O O3 0.651463 0.000000 0.249193
O O4 0.660856 0.941400 0.093293
O O5 0.190791 0.500000 0.943864
O O6 0.272266 0.411133 0.920692
O O7 0.000000 0.435828 0.929558
O O8 0.750000 0.250000 0.748898
O O9 0.803301 0.191535 0.598965
O O10 0.806760 0.164106 0.804672
O O11 0.000000 0.214972 0.726081
O O12 0.250000 0.750000 0.451404
O O13 0.229448 0.835904 0.398522
O O14 0.000000 0.791661 0.462062
O O15 0.819631 0.676223 0.204313
O O16 0.000000 0.656492 0.349844
O O17 0.250000 0.250000 0.093199
O O18 0.000000 0.292863 0.068841
O O19 0.243938 0.330529 0.004181
O O20 0.000000 0.141936 0.940351
#
# Coordination Sequence:
#
# PCOD9348948 Si02
#       8
#     8   8   2   8   8   8   8   8
#     4   9  19  33  53  76 112 140 180 218 262 314
#     4  10  20  34  52  77 109 144 178 217 266 314
#     4   8  20  32  50  84 108 138 190 220 260 316
#     4   9  20  38  56  80 104 137 179 226 270 314
#     4  10  21  37  58  78 106 138 181 228 271 319
#     4  11  22  35  54  79 110 143 178 218 266 321
#     4  11  23  37  49  74 111 145 176 213 263 320
#     4  11  22  34  56  80 107 140 179 220 267 321
#
# _framework density 16.649695999999999
#
# number of rings (size 3 to 8) (size 9 to 14) (size 15 to 20)
#    0.414    1.517    1.379    2.483    1.931    6.069 
#    0.000    0.000    0.000    0.828    0.000    1.931 
#    0.000    0.000    0.000    0.000    0.000    0.000 
#
# Total GULP energy -161471.157189 kJ/mol
# GULP energy per Si atom -5567.970938 kJ/mol
# Density = 1.661180 g / cm^3
# Si number density = 16.649696 Si / 1000 Ang^3
#
#
#
# Elastic Constant Matrix: (Units=GPa)
#
#
# Indices 1 2 3 4 5 6 
#
# 1 116.2437 57.0550 43.6030 0.0000 0.0000 0.0000
# 2 57.0550 113.2179 48.8579 0.0000 0.0000 0.0000
# 3 43.6030 48.8579 55.2110 0.0000 0.0000 0.0000
# 4 0.0000 0.0000 0.0000 16.8825 0.0000 0.0000
# 5 0.0000 0.0000 0.0000 0.0000 88.6545 0.0000
# 6 0.0000 0.0000 0.0000 0.0000 0.0000 33.2305
#
#
#
# Elastic Compliance Matrix: (Units=1/GPa)
#
#
# Indices 1 2 3 4 5 6 
#
# 1 0.012998 -0.003430 -0.007230 0.000000 0.000000 0.000000
# 2 -0.003430 0.015195 -0.010737 0.000000 0.000000 0.000000
# 3 -0.007230 -0.010737 0.033323 0.000000 0.000000 0.000000
# 4 0.000000 0.000000 0.000000 0.059233 0.000000 0.000000
# 5 0.000000 0.000000 0.000000 0.000000 0.011280 0.000000
# 6 0.000000 0.000000 0.000000 0.000000 0.000000 0.030093
#
#
# Mechanical properties :
#
#
# Convention : Reuss Voigt Hill
#
# Bulk Modulus (GPa) = 53.41278 64.85603 59.13441
# Shear Modulus (GPa) = 23.67906 36.76394 30.22150
#
# Velocity S-wave (km/s) = 3.77529 4.70412 4.26507
# Velocity P-wave (km/s) = 7.15218 8.27906 7.73617
#
# Compressibility (1/GPa) = 0.01872211
#
# Stress axis : x y z
#
# Youngs Moduli (GPa) = 76.93381 65.81235 30.00886
#
# Poissons Ratio (x) = 0.22577 0.21695
# Poissons Ratio (y) = 0.26392 0.32221
# Poissons Ratio (z) = 0.55620 0.70663
#
# Static dielectric constant tensor:
#      x y z
#    x 1.565480 0.000000 0.000000 
#    y 0.000000 1.563680 0.000000 
#    z 0.000000 0.000000 1.544440 
# 
# From -- ./inp_files/11806.got.cif
#   From: 2010.05.17/outbox.cif.g08.bks.cpg/sg35_6_cif.got.tgz:11806.got - 2010.06.03 17:29:28.
