data_PCOD9348692
_publ_section_title
;
Structure prediction by ZEFSAII (Michael W. Deem and Ramdas Pophale) SiO2 
 PCOD9348692
Probable space group: C M M 2
;
_chemical_formula_sum "Si O2"
_cell_formula_units_Z 48
_cell_length_a 23.023544
_cell_length_b 17.907966
_cell_length_c 7.252371
_cell_angle_alpha 90.000000
_cell_angle_beta 90.000000
_cell_angle_gamma 90.000000
_cell_volume 2990.187688
_symmetry_space_group_name_H-M "C M M 2"
_symmetry_group_IT_number 35
_symmetry_cell_setting 'orthorhombic'
loop_
_space_group_symop_operation_xyz
x,y,z
-x,-y,z
-x,y,z
x,-y,z
1/2+x,1/2+y,z
1/2-x,1/2-y,z
1/2-x,1/2+y,z
1/2+x,1/2-y,z
loop_
_atom_site_type_symbol
_atom_site_label
_atom_site_fract_x
_atom_site_fract_y
_atom_site_fract_z
Si Si1 0.433629 0.163522 0.881580
Si Si2 0.346431 0.231194 0.602565
Si Si3 0.433629 0.836478 0.323550
Si Si4 0.395150 0.000000 0.323677
Si Si5 0.604850 0.000000 0.881453
Si Si6 0.232439 0.873175 0.602565
Si Si7 0.757269 0.500000 0.322669
Si Si8 0.757269 0.500000 0.882461
O O1 0.500000 0.184376 0.840125
O O2 0.386926 0.213764 0.777655
O O3 0.423030 0.077635 0.819841
O O4 0.425531 0.166699 0.102565
O O5 0.386926 0.213764 0.427475
O O6 0.292498 0.173479 0.602565
O O7 0.318992 0.313222 0.602564
O O8 0.500000 0.815623 0.365005
O O9 0.423030 0.922365 0.385288
O O10 0.326566 0.000000 0.363486
O O11 0.401771 0.000000 0.102565
O O12 0.673434 0.000000 0.841644
O O13 0.232207 0.927183 0.780451
O O14 0.232207 0.927183 0.424680
O O15 0.749281 0.500000 0.102565
#
# Coordination Sequence:
#
# PCOD9348692 Si02
#       8
#     8   8   8   4   4   8   4   4
#     4  10  20  33  50  74 105 142 178 207 244 297
#     4  11  21  34  48  74 108 138 170 209 257 298
#     4  10  20  33  50  74 105 142 178 207 244 297
#     4   9  16  29  48  72 103 137 174 204 231 285
#     4   9  16  29  48  72 103 137 174 204 231 285
#     4  10  22  34  51  75 102 136 176 211 251 307
#     4  10  19  36  55  73 100 137 176 213 248 293
#     4  10  19  36  55  73 100 137 176 213 248 293
#
# _framework density 16.052503999999999
#
# number of rings (size 3 to 8) (size 9 to 14) (size 15 to 20)
#    0.000    2.000    3.333    1.000    0.000    4.000 
#    0.000    5.000    0.000    0.000    0.000    9.333 
#    0.000   16.000    0.000    0.000    0.000    0.000 
#
# Total GULP energy -133931.122507 kJ/mol
# GULP energy per Si atom -5580.463438 kJ/mol
# Density = 1.601597 g / cm^3
# Si number density = 16.052504 Si / 1000 Ang^3
#
#
#
# Elastic Constant Matrix: (Units=GPa)
#
#
# Indices 1 2 3 4 5 6 
#
# 1 112.6546 70.2867 53.3934 0.0000 0.0000 0.0000
# 2 70.2867 110.9059 53.3124 0.0000 0.0000 0.0000
# 3 53.3934 53.3124 109.3232 0.0000 0.0000 0.0000
# 4 0.0000 0.0000 0.0000 19.2425 0.0000 0.0000
# 5 0.0000 0.0000 0.0000 0.0000 23.2049 0.0000
# 6 0.0000 0.0000 0.0000 0.0000 0.0000 21.4553
#
#
#
# Elastic Compliance Matrix: (Units=1/GPa)
#
#
# Indices 1 2 3 4 5 6 
#
# 1 0.015744 -0.008205 -0.003688 0.000000 0.000000 0.000000
# 2 -0.008205 0.016053 -0.003821 0.000000 0.000000 0.000000
# 3 -0.003688 -0.003821 0.012812 0.000000 0.000000 0.000000
# 4 0.000000 0.000000 0.000000 0.051968 0.000000 0.000000
# 5 0.000000 0.000000 0.000000 0.000000 0.043094 0.000000
# 6 0.000000 0.000000 0.000000 0.000000 0.000000 0.046609
#
#
# Mechanical properties :
#
#
# Convention : Reuss Voigt Hill
#
# Bulk Modulus (GPa) = 75.86891 76.31872 76.09381
# Shear Modulus (GPa) = 22.51216 23.17330 22.84273
#
# Velocity S-wave (km/s) = 3.74894 3.80359 3.77636
# Velocity P-wave (km/s) = 8.13049 8.18145 8.15601
#
# Compressibility (1/GPa) = 0.01318063
#
# Stress axis : x y z
#
# Youngs Moduli (GPa) = 63.51729 62.29239 78.05196
#
# Poissons Ratio (x) = 0.51109 0.28787
# Poissons Ratio (y) = 0.52114 0.29826
# Poissons Ratio (z) = 0.23426 0.23804
#
# Static dielectric constant tensor:
#      x y z
#    x 1.517640 0.000000 0.000000 
#    y 0.000000 1.515960 0.000000 
#    z 0.000000 0.000000 1.576710 
# 
# From -- ./inp_files/9375.got.cif
#   From: 2010.05.17/outbox.cif.g08.bks.cpg/sg35_5_cif.got.tgz:9375.got - 2010.06.03 17:29:28.
