data_PCOD9348528
_publ_section_title
;
Structure prediction by ZEFSAII (Michael W. Deem and Ramdas Pophale) SiO2 
 PCOD9348528
Probable space group: C M M 2
;
_chemical_formula_sum "Si O2"
_cell_formula_units_Z 64
_cell_length_a 29.421193
_cell_length_b 8.853912
_cell_length_c 12.669065
_cell_angle_alpha 90.000000
_cell_angle_beta 90.000000
_cell_angle_gamma 90.000000
_cell_volume 3300.198362
_symmetry_space_group_name_H-M "C M M 2"
_symmetry_group_IT_number 35
_symmetry_cell_setting 'orthorhombic'
loop_
_space_group_symop_operation_xyz
x,y,z
-x,-y,z
-x,y,z
x,-y,z
1/2+x,1/2+y,z
1/2-x,1/2-y,z
1/2-x,1/2+y,z
1/2+x,1/2-y,z
loop_
_atom_site_type_symbol
_atom_site_label
_atom_site_fract_x
_atom_site_fract_y
_atom_site_fract_z
Si Si1 0.898174 0.681174 0.578140
Si Si2 0.886378 0.821317 0.171434
Si Si3 0.053112 0.182307 0.374710
Si Si4 0.702593 0.820239 0.085757
Si Si5 0.816897 0.826762 0.858355
Si Si6 0.922720 0.172185 0.797373
Si Si7 0.551409 0.827050 0.002388
Si Si8 0.204049 0.319806 0.634864
O O1 0.901236 0.500000 0.585230
O O2 0.923901 0.741775 0.475925
O O3 0.920236 0.755979 0.681857
O O4 0.844146 0.721542 0.580556
O O5 0.916638 0.778433 0.272545
O O6 0.839271 0.733782 0.157643
O O7 0.916559 0.780373 0.069778
O O8 0.877410 0.000000 0.174046
O O9 0.000000 0.225495 0.362871
O O10 0.054506 0.000000 0.386131
O O11 0.750000 0.750000 0.123381
O O12 0.704961 0.000000 0.081883
O O13 0.694277 0.755676 0.967390
O O14 0.871024 0.831162 0.840844
O O15 0.799256 0.741421 0.754801
O O16 0.799973 0.000000 0.861645
O O17 0.939671 0.000000 0.794085
O O18 0.948416 0.274170 0.881633
O O19 0.500000 0.819080 0.043424
O O20 0.567725 0.000000 0.010055
O O21 0.207615 0.500000 0.635921
O O22 0.250000 0.250000 0.587061
#
# Coordination Sequence:
#
# PCOD9348528 Si02
#       8
#     8   8   8   8   8   8   8   8
#     4  10  22  39  61  89 122 157 200 253 306 360
#     4  11  23  42  65  90 121 157 201 253 308 366
#     4  10  23  44  69  93 117 152 200 252 306 367
#     4  12  24  38  59  87 123 163 204 250 300 360
#     4  10  19  33  54  83 119 161 205 247 294 353
#     4  10  20  35  58  85 120 163 203 247 301 362
#     4  11  23  37  57  88 124 161 200 246 305 369
#     4  10  20  34  54  84 121 161 203 246 295 353
#
# _framework density 19.392775
#
# number of rings (size 3 to 8) (size 9 to 14) (size 15 to 20)
#    0.000    1.500    1.250    4.125    0.000    5.750 
#    0.000    0.625    0.000    1.500    0.000    0.000 
#    0.000    0.000    0.000    0.000    0.000    0.000 
#
# Total GULP energy -178834.310845 kJ/mol
# GULP energy per Si atom -5588.572214 kJ/mol
# Density = 1.934864 g / cm^3
# Si number density = 19.392775 Si / 1000 Ang^3
#
#
#
# Elastic Constant Matrix: (Units=GPa)
#
#
# Indices 1 2 3 4 5 6 
#
# 1 117.2291 45.2157 52.7062 0.0000 0.0000 0.0000
# 2 45.2157 82.8818 36.9114 0.0000 0.0000 0.0000
# 3 52.7062 36.9114 101.6096 0.0000 0.0000 0.0000
# 4 0.0000 0.0000 0.0000 -6.9752 0.0000 0.0000
# 5 0.0000 0.0000 0.0000 0.0000 12.9768 0.0000
# 6 0.0000 0.0000 0.0000 0.0000 0.0000 25.7059
#
#
#
# Elastic Compliance Matrix: (Units=1/GPa)
#
#
# Indices 1 2 3 4 5 6 
#
# 1 0.012483 -0.004684 -0.004774 0.000000 0.000000 0.000000
# 2 -0.004684 0.016152 -0.003438 0.000000 0.000000 0.000000
# 3 -0.004774 -0.003438 0.013566 0.000000 0.000000 0.000000
# 4 0.000000 0.000000 0.000000 -0.143365 0.000000 0.000000
# 5 0.000000 0.000000 0.000000 0.000000 0.077061 0.000000
# 6 0.000000 0.000000 0.000000 0.000000 0.000000 0.038902
#
#
# Mechanical properties :
#
#
# Convention : Reuss Voigt Hill
#
# Bulk Modulus (GPa) = 60.93626 63.48746 62.21186
# Shear Modulus (GPa) = 108.55270 17.46730 63.01000
#
# Velocity S-wave (km/s) = 7.48982 3.00444 5.70631
# Velocity P-wave (km/s) = 10.30955 6.69659 8.69285
#
# Compressibility (1/GPa) = 0.01641059
#
# Stress axis : x y z
#
# Youngs Moduli (GPa) = 80.10747 61.91264 73.71109
#
# Poissons Ratio (x) = 0.29001 0.35187
# Poissons Ratio (y) = 0.37524 0.25339
# Poissons Ratio (z) = 0.38240 0.21283
#
# Static dielectric constant tensor:
#      x y z
#    x 1.715610 0.000000 0.000000 
#    y 0.000000 1.656360 0.000000 
#    z 0.000000 0.000000 1.640230 
# 
# From -- ./inp_files/14567.got.cif
#   From: 2010.05.17/outbox.cif.g08.bks.cpg/sg35_8_cif.got.tgz:14567.got - 2010.06.03 17:29:28.
