data_PCOD9348413
_publ_section_title
;
Structure prediction by ZEFSAII (Michael W. Deem and Ramdas Pophale) SiO2 
 PCOD9348413
Probable space group: C M M 2
;
_chemical_formula_sum "Si O2"
_cell_formula_units_Z 64
_cell_length_a 7.844042
_cell_length_b 18.547848
_cell_length_c 21.655401
_cell_angle_alpha 90.000000
_cell_angle_beta 90.000000
_cell_angle_gamma 90.000000
_cell_volume 3150.646429
_symmetry_space_group_name_H-M "C M M 2"
_symmetry_group_IT_number 35
_symmetry_cell_setting 'orthorhombic'
loop_
_space_group_symop_operation_xyz
x,y,z
-x,-y,z
-x,y,z
x,-y,z
1/2+x,1/2+y,z
1/2-x,1/2-y,z
1/2-x,1/2+y,z
1/2+x,1/2-y,z
loop_
_atom_site_type_symbol
_atom_site_label
_atom_site_fract_x
_atom_site_fract_y
_atom_site_fract_z
Si Si1 0.294491 0.666343 0.287770
Si Si2 0.203287 0.082393 0.407519
Si Si3 0.203918 0.585427 0.541354
Si Si4 0.202241 0.166547 0.798422
Si Si5 0.705193 0.666080 0.042407
Si Si6 0.295090 0.917335 0.675377
Si Si7 0.709040 0.583367 0.919622
Si Si8 0.791209 0.916633 0.165093
O O1 0.500000 0.660987 0.288065
O O2 0.250000 0.750000 0.284249
O O3 0.229762 0.629774 0.350960
O O4 0.234064 0.623295 0.227343
O O5 0.232883 0.114217 0.475859
O O6 0.000000 0.077252 0.399962
O O7 0.271945 0.000000 0.405291
O O8 0.247049 0.500000 0.541540
O O9 0.266155 0.611830 0.608445
O O10 0.000000 0.591921 0.539896
O O11 0.250000 0.250000 0.801838
O O12 0.253859 0.131089 0.733778
O O13 0.270510 0.122254 0.857266
O O14 0.000000 0.161710 0.801860
O O15 0.500000 0.660451 0.042446
O O16 0.750000 0.750000 0.042638
O O17 0.766545 0.625925 0.104163
O O18 0.766138 0.626535 0.980304
O O19 0.500000 0.921344 0.671002
O O20 0.232863 0.000000 0.684163
O O21 0.500000 0.584237 0.919501
O O22 0.760983 0.500000 0.921565
O O23 0.000000 0.915967 0.165039
O O24 0.738727 0.000000 0.163900
#
# Coordination Sequence:
#
# PCOD9348413 Si02
#       8
#     8   8   8   8   8   8   8   8
#     4  10  20  33  49  71 100 131 164 205 251 297
#     4   9  17  30  49  72  97 127 165 207 246 288
#     4   8  15  29  50  75 101 128 159 200 250 300
#     4  11  22  35  52  74 103 137 172 212 258 307
#     4  10  19  32  53  78 105 136 167 203 248 297
#     4   9  18  34  55  78 104 133 167 209 256 306
#     4   9  18  33  53  77 102 130 170 215 252 293
#     4   9  17  31  53  77  98 128 172 212 244 286
#
# _framework density 20.313291
#
# number of rings (size 3 to 8) (size 9 to 14) (size 15 to 20)
#    0.000    2.625    0.000    3.000    0.000    4.750 
#    0.000    2.500    0.000    6.375    0.000    0.000 
#    0.000    0.000    0.000    0.000    0.000    0.000 
#
# Total GULP energy -178554.437757 kJ/mol
# GULP energy per Si atom -5579.826180 kJ/mol
# Density = 2.026706 g / cm^3
# Si number density = 20.313291 Si / 1000 Ang^3
#
#
#
# Elastic Constant Matrix: (Units=GPa)
#
#
# Indices 1 2 3 4 5 6 
#
# 1 19.2072 2.5478 15.9328 0.0000 0.0000 0.0000
# 2 2.5478 160.3720 128.1365 0.0000 0.0000 0.0000
# 3 15.9328 128.1365 245.7009 0.0000 0.0000 0.0000
# 4 0.0000 0.0000 0.0000 -4.5562 0.0000 0.0000
# 5 0.0000 0.0000 0.0000 0.0000 76.3862 0.0000
# 6 0.0000 0.0000 0.0000 0.0000 0.0000 16.3109
#
#
#
# Elastic Compliance Matrix: (Units=1/GPa)
#
#
# Indices 1 2 3 4 5 6 
#
# 1 0.056119 0.003456 -0.005442 0.000000 0.000000 0.000000
# 2 0.003456 0.010903 -0.005910 0.000000 0.000000 0.000000
# 3 -0.005442 -0.005910 0.007505 0.000000 0.000000 0.000000
# 4 0.000000 0.000000 0.000000 -0.219481 0.000000 0.000000
# 5 0.000000 0.000000 0.000000 0.000000 0.013091 0.000000
# 6 0.000000 0.000000 0.000000 0.000000 0.000000 0.061309
#
#
# Mechanical properties :
#
#
# Convention : Reuss Voigt Hill
#
# Bulk Modulus (GPa) = 17.02525 79.83492 48.43009
# Shear Modulus (GPa) = -142.10692 36.20571 -52.95061
#
# Velocity S-wave (km/s) = -8.37314 4.22639 -5.11112
# Velocity P-wave (km/s) = 9.22387 7.95007 3.30728
#
# Compressibility (1/GPa) = 0.05873628
#
# Stress axis : x y z
#
# Youngs Moduli (GPa) = 17.81917 91.72055 133.24401
#
# Poissons Ratio (x) = -0.31701 0.72507
# Poissons Ratio (y) = -0.06159 0.78748
# Poissons Ratio (z) = 0.09697 0.54207
#
# Static dielectric constant tensor:
#      x y z
#    x 1.751230 0.000000 0.000000 
#    y 0.000000 1.667180 0.000000 
#    z 0.000000 0.000000 1.743420 
# 
# From -- ./inp_files/18404.got.cif
#   From: 2010.05.17/outbox.cif.g08.bks.cpg/sg35_10_cif.got.tgz:18404.got - 2010.06.03 17:29:28.
