data_PCOD9348869
_publ_section_title
;
Structure prediction by ZEFSAII (Michael W. Deem and Ramdas Pophale) SiO2 
 PCOD9348869
Probable space group: C M M 2
;
_chemical_formula_sum "Si O2"
_cell_formula_units_Z 48
_cell_length_a 9.056448
_cell_length_b 33.089610
_cell_length_c 9.363333
_cell_angle_alpha 90.000000
_cell_angle_beta 90.000000
_cell_angle_gamma 90.000000
_cell_volume 2805.950565
_symmetry_space_group_name_H-M "C M M 2"
_symmetry_group_IT_number 35
_symmetry_cell_setting 'orthorhombic'
loop_
_space_group_symop_operation_xyz
x,y,z
-x,-y,z
-x,y,z
x,-y,z
1/2+x,1/2+y,z
1/2-x,1/2-y,z
1/2-x,1/2+y,z
1/2+x,1/2-y,z
loop_
_atom_site_type_symbol
_atom_site_label
_atom_site_fract_x
_atom_site_fract_y
_atom_site_fract_z
Si Si1 0.830101 0.916814 0.582430
Si Si2 0.168233 0.831839 0.756075
Si Si3 0.676967 0.873098 0.330455
Si Si4 0.174975 0.546523 0.844918
Si Si5 0.674413 0.208788 0.504134
Si Si6 0.178221 0.118063 0.022246
O O1 0.833218 0.874425 0.670115
O O2 0.745963 0.906543 0.436580
O O3 0.743485 0.946603 0.687625
O O4 0.000000 0.929143 0.558959
O O5 0.268286 0.802626 0.662448
O O6 0.000000 0.816490 0.759545
O O7 0.216073 0.844928 0.914434
O O8 0.500000 0.877705 0.321631
O O9 0.708984 0.829460 0.402716
O O10 0.752036 0.875879 0.176740
O O11 0.195162 0.500000 0.888098
O O12 0.000000 0.555584 0.841605
O O13 0.256265 0.577601 0.950287
O O14 0.500000 0.213943 0.506581
O O15 0.750000 0.250000 0.455646
O O16 0.000000 0.115502 0.027305
#
# Coordination Sequence:
#
# PCOD9348869 Si02
#       6
#     8   8   8   8   8   8
#     4   9  17  31  52  75  99 130 168 208 248 296
#     4   8  16  31  50  72  97 127 164 203 245 296
#     4  10  20  34  53  77 105 138 173 210 256 309
#     4  10  20  34  53  77 105 136 170 212 259 305
#     4  10  20  33  52  76 101 132 169 211 257 303
#     4  10  20  34  54  78 104 137 173 211 256 307
#
# _framework density 17.106503
#
# number of rings (size 3 to 8) (size 9 to 14) (size 15 to 20)
#    0.000    2.500    0.000    3.500    0.000    8.000 
#    0.000    1.667    0.000    7.000    0.000    0.000 
#    0.000    0.000    0.000    0.000    0.000    0.000 
#
# Total GULP energy -133802.696826 kJ/mol
# GULP energy per Si atom -5575.112368 kJ/mol
# Density = 1.706757 g / cm^3
# Si number density = 17.106503 Si / 1000 Ang^3
#
#
#
# Elastic Constant Matrix: (Units=GPa)
#
#
# Indices 1 2 3 4 5 6 
#
# 1 95.7104 50.8477 65.3960 0.0000 0.0000 0.0000
# 2 50.8477 62.1768 36.6188 0.0000 0.0000 0.0000
# 3 65.3960 36.6188 145.5405 0.0000 0.0000 0.0000
# 4 0.0000 0.0000 0.0000 13.3982 0.0000 0.0000
# 5 0.0000 0.0000 0.0000 0.0000 31.2867 0.0000
# 6 0.0000 0.0000 0.0000 0.0000 0.0000 26.3731
#
#
#
# Elastic Compliance Matrix: (Units=1/GPa)
#
#
# Indices 1 2 3 4 5 6 
#
# 1 0.022732 -0.014762 -0.006500 0.000000 0.000000 0.000000
# 2 -0.014762 0.028467 -0.000530 0.000000 0.000000 0.000000
# 3 -0.006500 -0.000530 0.009925 0.000000 0.000000 0.000000
# 4 0.000000 0.000000 0.000000 0.074637 0.000000 0.000000
# 5 0.000000 0.000000 0.000000 0.000000 0.031962 0.000000
# 6 0.000000 0.000000 0.000000 0.000000 0.000000 0.037917
#
#
# Mechanical properties :
#
#
# Convention : Reuss Voigt Hill
#
# Bulk Modulus (GPa) = 57.00881 67.68364 62.34623
# Shear Modulus (GPa) = 19.60244 24.24929 21.92587
#
# Velocity S-wave (km/s) = 3.38880 3.76912 3.58401
# Velocity P-wave (km/s) = 6.97926 7.65465 7.32474
#
# Compressibility (1/GPa) = 0.01754115
#
# Stress axis : x y z
#
# Youngs Moduli (GPa) = 43.99100 35.12819 100.75730
#
# Poissons Ratio (x) = 0.51856 0.65492
# Poissons Ratio (y) = 0.64939 0.05335
# Poissons Ratio (z) = 0.28594 0.01860
#
# Static dielectric constant tensor:
#      x y z
#    x 1.573590 0.000000 0.000000 
#    y 0.000000 1.578950 0.000000 
#    z 0.000000 0.000000 1.571750 
# 
# From -- ./inp_files/5268.got.cif
#   From: 2010.05.17/outbox.cif.g08.bks.cpg/sg35_3_cif.got.tgz:5268.got - 2010.06.03 17:29:28.
