data_PCOD9348428
_publ_section_title
;
Structure prediction by ZEFSAII (Michael W. Deem and Ramdas Pophale) SiO2 
 PCOD9348428
Probable space group: C M M 2
;
_chemical_formula_sum "Si O2"
_cell_formula_units_Z 64
_cell_length_a 8.344967
_cell_length_b 29.996581
_cell_length_c 12.754912
_cell_angle_alpha 90.000000
_cell_angle_beta 90.000000
_cell_angle_gamma 90.000000
_cell_volume 3192.815676
_symmetry_space_group_name_H-M "C M M 2"
_symmetry_group_IT_number 35
_symmetry_cell_setting 'orthorhombic'
loop_
_space_group_symop_operation_xyz
x,y,z
-x,-y,z
-x,y,z
x,-y,z
1/2+x,1/2+y,z
1/2-x,1/2-y,z
1/2-x,1/2+y,z
1/2+x,1/2-y,z
loop_
_atom_site_type_symbol
_atom_site_label
_atom_site_fract_x
_atom_site_fract_y
_atom_site_fract_z
Si Si1 0.807469 0.895304 0.411200
Si Si2 0.811090 0.672108 0.122920
Si Si3 0.688881 0.885108 0.802794
Si Si4 0.185739 0.920919 0.186240
Si Si5 0.806639 0.448448 0.614239
Si Si6 0.811418 0.797090 0.899365
Si Si7 0.189466 0.702046 0.355608
Si Si8 0.805966 0.951540 0.971812
O O1 0.743493 0.917010 0.302168
O O2 0.741085 0.923137 0.508097
O O3 0.762334 0.842833 0.406418
O O4 0.000000 0.933195 0.199801
O O5 0.703430 0.628346 0.137210
O O6 0.778879 0.699264 0.229816
O O7 0.000000 0.660120 0.123886
O O8 0.771448 0.694716 0.012660
O O9 0.500000 0.877720 0.788073
O O10 0.750810 0.916752 0.709312
O O11 0.770643 0.837701 0.821967
O O12 0.720406 0.913317 0.907634
O O13 0.000000 0.944661 0.970142
O O14 0.249920 0.950809 0.092499
O O15 0.748938 0.500000 0.618502
O O16 0.000000 0.450120 0.621212
O O17 0.750000 0.750000 0.857351
O O18 0.000000 0.795504 0.917441
O O19 0.250000 0.750000 0.394321
O O20 0.000000 0.699637 0.370708
O O21 0.000000 0.897846 0.411729
O O22 0.772494 0.000000 0.924641
#
# Coordination Sequence:
#
# PCOD9348428 Si02
#       8
#     8   8   8   8   8   8   8   8
#     4  10  21  37  60  89 120 155 201 250 298 354
#     4  10  19  32  53  83 119 161 203 243 287 345
#     4  11  23  41  63  87 117 153 199 251 302 354
#     4   9  18  33  53  81 121 162 195 240 297 349
#     4  10  23  44  67  89 116 153 198 251 306 357
#     4  12  24  38  58  86 121 159 199 243 295 354
#     4  10  20  34  55  85 123 163 204 246 293 349
#     4  10  20  34  55  85 120 158 196 238 296 359
#
# _framework density 20.045003000000001
#
# number of rings (size 3 to 8) (size 9 to 14) (size 15 to 20)
#    0.000    1.750    1.250    3.375    0.000    5.500 
#    0.000    1.875    0.000    3.000    0.000    0.000 
#    0.000    0.000    0.000    0.000    0.000    0.000 
#
# Total GULP energy -178576.126089 kJ/mol
# GULP energy per Si atom -5580.503940 kJ/mol
# Density = 1.999938 g / cm^3
# Si number density = 20.045003 Si / 1000 Ang^3
#
#
#
# Elastic Constant Matrix: (Units=GPa)
#
#
# Indices 1 2 3 4 5 6 
#
# 1 27.9662 15.1297 5.0815 0.0000 0.0000 0.0000
# 2 15.1297 128.9336 59.1575 0.0000 0.0000 0.0000
# 3 5.0815 59.1575 105.5086 0.0000 0.0000 0.0000
# 4 0.0000 0.0000 0.0000 15.8788 0.0000 0.0000
# 5 0.0000 0.0000 0.0000 0.0000 23.3930 0.0000
# 6 0.0000 0.0000 0.0000 0.0000 0.0000 23.5901
#
#
#
# Elastic Compliance Matrix: (Units=1/GPa)
#
#
# Indices 1 2 3 4 5 6 
#
# 1 0.038246 -0.004905 0.000908 0.000000 0.000000 0.000000
# 2 -0.004905 0.011071 -0.005971 0.000000 0.000000 0.000000
# 3 0.000908 -0.005971 0.012782 0.000000 0.000000 0.000000
# 4 0.000000 0.000000 0.000000 0.062977 0.000000 0.000000
# 5 0.000000 0.000000 0.000000 0.000000 0.042748 0.000000
# 6 0.000000 0.000000 0.000000 0.000000 0.000000 0.042391
#
#
# Mechanical properties :
#
#
# Convention : Reuss Voigt Hill
#
# Bulk Modulus (GPa) = 23.71725 46.79398 35.25561
# Shear Modulus (GPa) = 20.47460 24.77503 22.62481
#
# Velocity S-wave (km/s) = 3.19945 3.51945 3.36326
# Velocity P-wave (km/s) = 5.05038 6.31748 5.71913
#
# Compressibility (1/GPa) = 0.04216341
#
# Stress axis : x y z
#
# Youngs Moduli (GPa) = 26.14668 90.32442 78.23371
#
# Poissons Ratio (x) = 0.44300 -0.07103
# Poissons Ratio (y) = 0.12824 0.46716
# Poissons Ratio (z) = -0.02374 0.53935
#
# Static dielectric constant tensor:
#      x y z
#    x 1.692770 0.000000 0.000000 
#    y 0.000000 1.721780 0.000000 
#    z 0.000000 0.000000 1.724560 
# 
# From -- ./inp_files/11864.got.cif
#   From: 2010.05.17/outbox.cif.g08.bks.cpg/sg35_6_cif.got.tgz:11864.got - 2010.06.03 17:29:28.
