data_PCOD9348651
_publ_section_title
;
Structure prediction by ZEFSAII (Michael W. Deem and Ramdas Pophale) SiO2 
 PCOD9348651
Probable space group: C M M 2
;
_chemical_formula_sum "Si O2"
_cell_formula_units_Z 24
_cell_length_a 13.648618
_cell_length_b 14.075885
_cell_length_c 5.118111
_cell_angle_alpha 90.000000
_cell_angle_beta 90.000000
_cell_angle_gamma 90.000000
_cell_volume 983.272944
_symmetry_space_group_name_H-M "C M M 2"
_symmetry_group_IT_number 35
_symmetry_cell_setting 'orthorhombic'
loop_
_space_group_symop_operation_xyz
x,y,z
-x,-y,z
-x,y,z
x,-y,z
1/2+x,1/2+y,z
1/2-x,1/2-y,z
1/2-x,1/2+y,z
1/2+x,1/2-y,z
loop_
_atom_site_type_symbol
_atom_site_label
_atom_site_fract_x
_atom_site_fract_y
_atom_site_fract_z
Si Si1 0.394581 0.890329 0.024310
Si Si2 0.670288 0.611235 0.879667
Si Si3 0.637952 0.278326 0.388054
O O1 0.500000 0.882220 0.878119
O O2 0.402364 0.817999 0.264498
O O3 0.386576 0.000000 0.111670
O O4 0.289711 0.870798 0.883924
O O5 0.656702 0.500000 0.828820
O O6 0.615651 0.675105 0.664991
O O7 0.631223 0.642151 0.162416
O O8 0.750000 0.250000 0.410285
#
# Coordination Sequence:
#
# PCOD9348651 Si02
#       3
#     8   8   8
#     4   9  19  37  62  94 127 156 194 252 316 365
#     4  10  20  36  59  84 113 154 201 243 287 349
#     4  10  19  35  56  83 116 154 196 237 289 355
#
# _framework density 24.408279
#
# number of rings (size 3 to 8) (size 9 to 14) (size 15 to 20)
#    0.000    2.333    0.000    4.000    0.000    1.333 
#    0.000   16.667    0.000   50.000    0.000    0.000 
#    0.000    0.000    0.000    0.000    0.000    0.000 
#
# Total GULP energy -66947.391787 kJ/mol
# GULP energy per Si atom -5578.949316 kJ/mol
# Density = 2.435272 g / cm^3
# Si number density = 24.408279 Si / 1000 Ang^3
#
#
#
# Elastic Constant Matrix: (Units=GPa)
#
#
# Indices 1 2 3 4 5 6 
#
# 1 112.0305 33.1755 7.9289 0.0000 0.0000 0.0000
# 2 33.1755 163.0485 53.6801 0.0000 0.0000 0.0000
# 3 7.9289 53.6801 111.2432 0.0000 0.0000 0.0000
# 4 0.0000 0.0000 0.0000 21.5065 0.0000 0.0000
# 5 0.0000 0.0000 0.0000 0.0000 -33.8972 0.0000
# 6 0.0000 0.0000 0.0000 0.0000 0.0000 -51.6278
#
#
#
# Elastic Compliance Matrix: (Units=1/GPa)
#
#
# Indices 1 2 3 4 5 6 
#
# 1 0.009507 -0.002035 0.000304 0.000000 0.000000 0.000000
# 2 -0.002035 0.007727 -0.003584 0.000000 0.000000 0.000000
# 3 0.000304 -0.003584 0.010697 0.000000 0.000000 0.000000
# 4 0.000000 0.000000 0.000000 0.046498 0.000000 0.000000
# 5 0.000000 0.000000 0.000000 0.000000 -0.029501 0.000000
# 6 0.000000 0.000000 0.000000 0.000000 0.000000 -0.019369
#
#
# Mechanical properties :
#
#
# Convention : Reuss Voigt Hill
#
# Bulk Modulus (GPa) = 57.79369 63.98792 60.89081
# Shear Modulus (GPa) = 119.17880 6.63214 62.90547
#
# Velocity S-wave (km/s) = 6.99523 1.65017 5.08214
# Velocity P-wave (km/s) = 9.43258 5.46839 7.70963
#
# Compressibility (1/GPa) = 0.01730293
#
# Stress axis : x y z
#
# Youngs Moduli (GPa) = 105.18449 129.41746 93.48508
#
# Poissons Ratio (x) = 0.26331 -0.02843
# Poissons Ratio (y) = 0.21400 0.33501
# Poissons Ratio (z) = -0.03199 0.46378
#
# Static dielectric constant tensor:
#      x y z
#    x 2.246960 0.000000 0.000000 
#    y 0.000000 1.914560 0.000000 
#    z 0.000000 0.000000 1.917530 
# 
# From -- ./inp_files/832.got.cif
#   From: 2010.05.17/outbox.cif.g08.bks.cpg/sg35_1_cif.got.tgz:832.got - 2010.06.03 17:29:28.
