data_PCOD9348315
_publ_section_title
;
Structure prediction by ZEFSAII (Michael W. Deem and Ramdas Pophale) SiO2 
 PCOD9348315
Probable space group: C M M 2
;
_chemical_formula_sum "Si O2"
_cell_formula_units_Z 48
_cell_length_a 18.122717
_cell_length_b 25.443486
_cell_length_c 5.088773
_cell_angle_alpha 90.000000
_cell_angle_beta 90.000000
_cell_angle_gamma 90.000000
_cell_volume 2346.459164
_symmetry_space_group_name_H-M "C M M 2"
_symmetry_group_IT_number 35
_symmetry_cell_setting 'orthorhombic'
loop_
_space_group_symop_operation_xyz
x,y,z
-x,-y,z
-x,y,z
x,-y,z
1/2+x,1/2+y,z
1/2-x,1/2-y,z
1/2-x,1/2+y,z
1/2+x,1/2-y,z
loop_
_atom_site_type_symbol
_atom_site_label
_atom_site_fract_x
_atom_site_fract_y
_atom_site_fract_z
Si Si1 0.087855 0.119732 0.840410
Si Si2 0.209931 0.805120 0.940654
Si Si3 0.158919 0.937054 0.340697
Si Si4 0.084803 0.621846 0.237427
Si Si5 0.913318 0.443349 0.750794
Si Si6 0.769545 0.353292 0.439765
O O1 0.126624 0.177385 0.866163
O O2 0.112022 0.091112 0.571337
O O3 0.000000 0.122598 0.862921
O O4 0.123596 0.083978 0.070389
O O5 0.250000 0.750000 0.889740
O O6 0.254313 0.843363 0.742909
O O7 0.219808 0.817783 0.247813
O O8 0.241039 0.912090 0.372169
O O9 0.158245 0.000000 0.357633
O O10 0.087923 0.574735 0.450520
O O11 0.147300 0.659291 0.353305
O O12 0.000000 0.640920 0.227923
O O13 0.110814 0.600564 0.956263
O O14 0.877432 0.500000 0.788263
O O15 0.000000 0.447840 0.819004
#
# Coordination Sequence:
#
# PCOD9348315 Si02
#       6
#     8   8   8   8   8   8
#     4  10  21  37  58  86 116 144 185 232 272 330
#     4  10  21  40  62  80 106 144 180 222 281 336
#     4  10  21  35  54  82 117 156 188 222 276 334
#     4  10  19  32  49  71 103 138 175 225 274 310
#     4   9  17  28  43  65  94 133 178 215 251 297
#     4  10  21  37  55  80 110 143 185 229 274 334
#
# _framework density 20.456351999999999
#
# number of rings (size 3 to 8) (size 9 to 14) (size 15 to 20)
#    0.000    2.167    0.000    3.000    0.000    5.333 
#    0.000    1.667    0.000    0.000    0.000    0.000 
#    0.000    0.000    0.000    0.000    0.000    0.000 
#
# Total GULP energy -133651.769864 kJ/mol
# GULP energy per Si atom -5568.823744 kJ/mol
# Density = 2.040979 g / cm^3
# Si number density = 20.456352 Si / 1000 Ang^3
#
#
#
# Elastic Constant Matrix: (Units=GPa)
#
#
# Indices 1 2 3 4 5 6 
#
# 1 109.2315 30.7422 7.1592 0.0000 0.0000 0.0000
# 2 30.7422 55.1435 3.7913 0.0000 0.0000 0.0000
# 3 7.1592 3.7913 85.2113 0.0000 0.0000 0.0000
# 4 0.0000 0.0000 0.0000 9.7927 0.0000 0.0000
# 5 0.0000 0.0000 0.0000 0.0000 17.9750 0.0000
# 6 0.0000 0.0000 0.0000 0.0000 0.0000 12.0340
#
#
#
# Elastic Compliance Matrix: (Units=1/GPa)
#
#
# Indices 1 2 3 4 5 6 
#
# 1 0.010894 -0.006029 -0.000647 0.000000 0.000000 0.000000
# 2 -0.006029 0.021527 -0.000451 0.000000 0.000000 0.000000
# 3 -0.000647 -0.000451 0.011810 0.000000 0.000000 0.000000
# 4 0.000000 0.000000 0.000000 0.102117 0.000000 0.000000
# 5 0.000000 0.000000 0.000000 0.000000 0.055633 0.000000
# 6 0.000000 0.000000 0.000000 0.000000 0.000000 0.083098
#
#
# Mechanical properties :
#
#
# Convention : Reuss Voigt Hill
#
# Bulk Modulus (GPa) = 33.35976 36.99689 35.17833
# Shear Modulus (GPa) = 16.16423 21.81990 18.99206
#
# Velocity S-wave (km/s) = 2.81407 3.26951 3.05030
# Velocity P-wave (km/s) = 5.18669 5.69017 5.44425
#
# Compressibility (1/GPa) = 0.02997623
#
# Stress axis : x y z
#
# Youngs Moduli (GPa) = 91.79322 46.45415 84.67420
#
# Poissons Ratio (x) = 0.28007 0.05479
# Poissons Ratio (y) = 0.55341 0.03821
# Poissons Ratio (z) = 0.05939 0.02096
#
# Static dielectric constant tensor:
#      x y z
#    x 1.781220 0.000000 0.000000 
#    y 0.000000 1.778870 0.000000 
#    z 0.000000 0.000000 1.715830 
# 
# From -- ./inp_files/2573.got.cif
#   From: 2010.05.17/outbox.cif.g08.bks.cpg/sg35_2_cif.got.tgz:2573.got - 2010.06.03 17:29:28.
