data_PCOD9348226
_publ_section_title
;
Structure prediction by ZEFSAII (Michael W. Deem and Ramdas Pophale) SiO2 
 PCOD9348226
Probable space group: C M M 2
;
_chemical_formula_sum "Si O2"
_cell_formula_units_Z 64
_cell_length_a 29.617291
_cell_length_b 18.060037
_cell_length_c 7.513992
_cell_angle_alpha 90.000000
_cell_angle_beta 90.000000
_cell_angle_gamma 90.000000
_cell_volume 4019.154457
_symmetry_space_group_name_H-M "C M M 2"
_symmetry_group_IT_number 35
_symmetry_cell_setting 'orthorhombic'
loop_
_space_group_symop_operation_xyz
x,y,z
-x,-y,z
-x,y,z
x,-y,z
1/2+x,1/2+y,z
1/2-x,1/2-y,z
1/2-x,1/2+y,z
1/2+x,1/2-y,z
loop_
_atom_site_type_symbol
_atom_site_label
_atom_site_fract_x
_atom_site_fract_y
_atom_site_fract_z
Si Si1 0.702860 0.290826 0.336300
Si Si2 0.704832 0.584307 0.058709
Si Si3 0.551322 0.084939 0.820989
Si Si4 0.550184 0.915297 0.389652
Si Si5 0.642478 0.849785 0.400771
Si Si6 0.188923 0.421582 0.094733
Si Si7 0.360458 0.826668 0.811061
Si Si8 0.205744 0.198295 0.749649
O O1 0.750000 0.250000 0.278904
O O2 0.688318 0.356580 0.205685
O O3 0.664508 0.228118 0.348076
O O4 0.710345 0.317547 0.539297
O O5 0.686465 0.500000 0.061373
O O6 0.757767 0.579081 0.101549
O O7 0.703152 0.625236 0.868648
O O8 0.500000 0.100296 0.883188
O O9 0.549274 0.083333 0.605213
O O10 0.588943 0.146925 0.864103
O O11 0.563182 0.000000 0.876484
O O12 0.500000 0.894733 0.328180
O O13 0.590741 0.860982 0.342653
O O14 0.559587 0.000000 0.331565
O O15 0.670292 0.909494 0.291020
O O16 0.646646 0.859946 0.612660
O O17 0.172822 0.500000 0.021441
O O18 0.170931 0.360232 0.962435
O O19 0.340598 0.744143 0.785934
O O20 0.250000 0.250000 0.794490
#
# Coordination Sequence:
#
# PCOD9348226 Si02
#       8
#     8   8   8   8   8   8   8   8
#     4  10  19  33  50  68  92 122 155 195 238 276
#     4  11  22  34  48  66  93 124 154 195 238 278
#     4   8  14  26  44  66  94 126 156 187 225 267
#     4   8  14  26  44  66  94 126 156 187 225 267
#     4  10  19  31  48  66  89 124 160 193 229 271
#     4  11  21  29  42  66  91 119 159 197 226 268
#     4  10  19  31  48  66  89 124 160 193 229 271
#     4  10  19  33  50  68  92 122 155 195 238 276
#
# _framework density 15.923747000000001
#
# number of rings (size 3 to 8) (size 9 to 14) (size 15 to 20)
#    0.000    2.250    2.500    2.625    0.000    2.000 
#    0.000    3.125    0.000    2.250    0.000    0.000 
#    0.000    2.000    0.000    9.750    0.000    0.000 
#
# Total GULP energy -178167.847628 kJ/mol
# GULP energy per Si atom -5567.745238 kJ/mol
# Density = 1.588750 g / cm^3
# Si number density = 15.923747 Si / 1000 Ang^3
#
#
#
# Elastic Constant Matrix: (Units=GPa)
#
#
# Indices 1 2 3 4 5 6 
#
# 1 80.4129 18.1714 1.0190 0.0000 0.0000 0.0000
# 2 18.1714 50.6327 19.8743 0.0000 0.0000 0.0000
# 3 1.0190 19.8743 48.1667 0.0000 0.0000 0.0000
# 4 0.0000 0.0000 0.0000 -18.8434 0.0000 0.0000
# 5 0.0000 0.0000 0.0000 0.0000 -9.9071 0.0000
# 6 0.0000 0.0000 0.0000 0.0000 0.0000 20.8566
#
#
#
# Elastic Compliance Matrix: (Units=1/GPa)
#
#
# Indices 1 2 3 4 5 6 
#
# 1 0.013705 -0.005733 0.002076 0.000000 0.000000 0.000000
# 2 -0.005733 0.025965 -0.010592 0.000000 0.000000 0.000000
# 3 0.002076 -0.010592 0.025088 0.000000 0.000000 0.000000
# 4 0.000000 0.000000 0.000000 -0.053069 0.000000 0.000000
# 5 0.000000 0.000000 0.000000 0.000000 -0.100937 0.000000
# 6 0.000000 0.000000 0.000000 0.000000 0.000000 0.047947
#
#
# Mechanical properties :
#
#
# Convention : Reuss Voigt Hill
#
# Bulk Modulus (GPa) = 27.57987 28.59353 28.08670
# Shear Modulus (GPa) = -6993.05265 7.76437 -3492.64414
#
# Velocity S-wave (km/s) = -66.34095 2.21056 -46.88408
# Velocity P-wave (km/s) = 76.49055 4.95085 53.97357
#
# Compressibility (1/GPa) = 0.03625833
#
# Stress axis : x y z
#
# Youngs Moduli (GPa) = 72.96545 38.51271 39.85981
#
# Poissons Ratio (x) = 0.22081 -0.08274
# Poissons Ratio (y) = 0.41834 0.42221
# Poissons Ratio (z) = -0.15146 0.40794
#
# Static dielectric constant tensor:
#      x y z
#    x 1.552170 0.000000 0.000000 
#    y 0.000000 1.550770 0.000000 
#    z 0.000000 0.000000 1.567510 
# 
# From -- ./inp_files/10667.got.cif
#   From: 2010.05.17/outbox.cif.g08.bks.cpg/sg35_6_cif.got.tgz:10667.got - 2010.06.03 17:29:28.
