data_PCOD9348454
_publ_section_title
;
Structure prediction by ZEFSAII (Michael W. Deem and Ramdas Pophale) SiO2 
 PCOD9348454
Probable space group: C M M 2
;
_chemical_formula_sum "Si O2"
_cell_formula_units_Z 64
_cell_length_a 15.207387
_cell_length_b 18.213812
_cell_length_c 12.125071
_cell_angle_alpha 90.000000
_cell_angle_beta 90.000000
_cell_angle_gamma 90.000000
_cell_volume 3358.456581
_symmetry_space_group_name_H-M "C M M 2"
_symmetry_group_IT_number 35
_symmetry_cell_setting 'orthorhombic'
loop_
_space_group_symop_operation_xyz
x,y,z
-x,-y,z
-x,y,z
x,-y,z
1/2+x,1/2+y,z
1/2-x,1/2-y,z
1/2-x,1/2+y,z
1/2+x,1/2-y,z
loop_
_atom_site_type_symbol
_atom_site_label
_atom_site_fract_x
_atom_site_fract_y
_atom_site_fract_z
Si Si1 0.393963 0.587810 0.286780
Si Si2 0.398032 0.843355 0.297740
Si Si3 0.242477 0.160305 0.872073
Si Si4 0.096967 0.179958 0.700895
Si Si5 0.097507 0.349912 0.738024
Si Si6 0.843923 0.209121 0.449294
Si Si7 0.255924 0.661442 0.126756
Si Si8 0.606545 0.081077 0.516279
O O1 0.500000 0.600076 0.281399
O O2 0.379731 0.500000 0.288345
O O3 0.353381 0.630116 0.391939
O O4 0.339521 0.626709 0.188738
O O5 0.500000 0.856051 0.268430
O O6 0.393787 0.764871 0.363815
O O7 0.333034 0.855873 0.195502
O O8 0.365868 0.897378 0.394759
O O9 0.250000 0.250000 0.870585
O O10 0.166765 0.142292 0.782559
O O11 0.332039 0.125763 0.825965
O O12 0.234558 0.139192 0.999353
O O13 0.089836 0.262715 0.747411
O O14 0.123452 0.194588 0.573632
O O15 0.000000 0.145557 0.703953
O O16 0.132615 0.365781 0.614881
O O17 0.000000 0.382628 0.749132
O O18 0.750000 0.250000 0.454599
O O19 0.250000 0.750000 0.130559
O O20 0.500000 0.084296 0.511948
O O21 0.634899 0.000000 0.546181
#
# Coordination Sequence:
#
# PCOD9348454 Si02
#       8
#     8   8   8   8   8   8   8   8
#     4  11  24  41  61  86 118 157 201 251 305 361
#     4  11  20  33  56  87 119 151 190 241 297 355
#     4   9  20  34  52  77 112 144 193 246 291 344
#     4  10  19  32  55  85 114 147 187 241 300 352
#     4   9  16  30  51  78 111 146 184 233 289 346
#     4  12  20  36  62  90 120 152 189 244 303 360
#     4  11  22  39  57  83 113 155 203 252 297 346
#     4   9  18  31  49  78 114 149 183 221 277 351
#
# _framework density 19.056373000000001
#
# number of rings (size 3 to 8) (size 9 to 14) (size 15 to 20)
#    0.000    1.750    3.750    2.250    0.000    1.500 
#    0.000    3.125    0.000    0.750    0.000    5.250 
#    0.000    0.000    0.000    0.000    0.000    0.000 
#
# Total GULP energy -178149.631342 kJ/mol
# GULP energy per Si atom -5567.175979 kJ/mol
# Density = 1.901300 g / cm^3
# Si number density = 19.056373 Si / 1000 Ang^3
#
#
#
# Elastic Constant Matrix: (Units=GPa)
#
#
# Indices 1 2 3 4 5 6 
#
# 1 134.1322 26.5557 82.4878 0.0000 0.0000 0.0000
# 2 26.5557 41.5339 18.8378 0.0000 0.0000 0.0000
# 3 82.4878 18.8378 140.7659 0.0000 0.0000 0.0000
# 4 0.0000 0.0000 0.0000 5.4378 0.0000 0.0000
# 5 0.0000 0.0000 0.0000 0.0000 16.2456 0.0000
# 6 0.0000 0.0000 0.0000 0.0000 0.0000 15.3205
#
#
#
# Elastic Compliance Matrix: (Units=1/GPa)
#
#
# Indices 1 2 3 4 5 6 
#
# 1 0.012559 -0.004995 -0.006691 0.000000 0.000000 0.000000
# 2 -0.004995 0.027619 -0.000769 0.000000 0.000000 0.000000
# 3 -0.006691 -0.000769 0.011128 0.000000 0.000000 0.000000
# 4 0.000000 0.000000 0.000000 0.183898 0.000000 0.000000
# 5 0.000000 0.000000 0.000000 0.000000 0.061555 0.000000
# 6 0.000000 0.000000 0.000000 0.000000 0.000000 0.065272
#
#
# Mechanical properties :
#
#
# Convention : Reuss Voigt Hill
#
# Bulk Modulus (GPa) = 37.88491 63.57718 50.73105
# Shear Modulus (GPa) = 12.63453 19.97081 16.30267
#
# Velocity S-wave (km/s) = 2.57769 3.24077 2.92806
# Velocity P-wave (km/s) = 5.36497 6.88757 6.17339
#
# Compressibility (1/GPa) = 0.02639573
#
# Stress axis : x y z
#
# Youngs Moduli (GPa) = 79.62324 36.20659 89.86479
#
# Poissons Ratio (x) = 0.18086 0.60129
# Poissons Ratio (y) = 0.39774 0.06910
# Poissons Ratio (z) = 0.53277 0.02784
#
# Static dielectric constant tensor:
#      x y z
#    x 1.718930 0.000000 0.000000 
#    y 0.000000 1.683430 0.000000 
#    z 0.000000 0.000000 1.672510 
# 
# From -- ./inp_files/13166.got.cif
#   From: 2010.05.17/outbox.cif.g08.bks.cpg/sg35_7_cif.got.tgz:13166.got - 2010.06.03 17:29:28.
