data_PCOD9348936
_publ_section_title
;
Structure prediction by ZEFSAII (Michael W. Deem and Ramdas Pophale) SiO2 
 PCOD9348936
Probable space group: C M M 2
;
_chemical_formula_sum "Si O2"
_cell_formula_units_Z 48
_cell_length_a 9.241559
_cell_length_b 16.025211
_cell_length_c 16.127022
_cell_angle_alpha 90.000000
_cell_angle_beta 90.000000
_cell_angle_gamma 90.000000
_cell_volume 2388.378623
_symmetry_space_group_name_H-M "C M M 2"
_symmetry_group_IT_number 35
_symmetry_cell_setting 'orthorhombic'
loop_
_space_group_symop_operation_xyz
x,y,z
-x,-y,z
-x,y,z
x,-y,z
1/2+x,1/2+y,z
1/2-x,1/2-y,z
1/2-x,1/2+y,z
1/2+x,1/2-y,z
loop_
_atom_site_type_symbol
_atom_site_label
_atom_site_fract_x
_atom_site_fract_y
_atom_site_fract_z
Si Si1 0.333677 0.397582 0.780760
Si Si2 0.673955 0.336254 0.469809
Si Si3 0.168094 0.102180 0.110405
Si Si4 0.662170 0.902220 0.620864
Si Si5 0.175781 0.096119 0.291106
Si Si6 0.834023 0.397955 0.946168
O O1 0.500000 0.370800 0.777275
O O2 0.334174 0.500000 0.780105
O O3 0.245165 0.366871 0.700776
O O4 0.257328 0.371821 0.866131
O O5 0.500000 0.334442 0.474355
O O6 0.750000 0.250000 0.490777
O O7 0.740756 0.396056 0.538881
O O8 0.717430 0.358893 0.375634
O O9 0.222481 0.130162 0.201333
O O10 0.000000 0.125985 0.099306
O O11 0.170399 0.000000 0.113136
O O12 0.261995 0.129483 0.032378
O O13 0.500000 0.866960 0.609158
O O14 0.645939 0.000000 0.638689
O O15 0.000000 0.095834 0.288009
O O16 0.223276 0.000000 0.297997
O O17 0.832623 0.500000 0.946990
O O18 0.000000 0.371267 0.939706
#
# Coordination Sequence:
#
# PCOD9348936 Si02
#       6
#     8   8   8   8   8   8
#     4   9  16  26  42  65  93 127 164 198 236 286
#     4  11  22  36  53  73  99 131 168 208 252 301
#     4   8  13  23  40  62  88 119 156 195 235 283
#     4  10  20  34  52  75 102 130 163 206 253 299
#     4   8  15  29  50  73  95 124 164 206 245 289
#     4   9  15  22  34  58  94 129 156 188 235 286
#
# _framework density 20.097317
#
# number of rings (size 3 to 8) (size 9 to 14) (size 15 to 20)
#    0.000    2.833    0.000    3.500    0.000    5.667 
#    0.000    1.667    0.000    4.000    0.000    1.167 
#    0.000    2.667    0.000    0.000    0.000    0.000 
#
# Total GULP energy -133803.911894 kJ/mol
# GULP energy per Si atom -5575.162996 kJ/mol
# Density = 2.005157 g / cm^3
# Si number density = 20.097317 Si / 1000 Ang^3
#
#
#
# Elastic Constant Matrix: (Units=GPa)
#
#
# Indices 1 2 3 4 5 6 
#
# 1 126.9242 7.7708 81.3496 0.0000 0.0000 0.0000
# 2 7.7708 8.4104 0.5503 0.0000 0.0000 0.0000
# 3 81.3496 0.5503 164.5332 0.0000 0.0000 0.0000
# 4 0.0000 0.0000 0.0000 -20.7057 0.0000 0.0000
# 5 0.0000 0.0000 0.0000 0.0000 -43.2402 0.0000
# 6 0.0000 0.0000 0.0000 0.0000 0.0000 8.7186
#
#
#
# Elastic Compliance Matrix: (Units=1/GPa)
#
#
# Indices 1 2 3 4 5 6 
#
# 1 0.012498 -0.011145 -0.006142 0.000000 0.000000 0.000000
# 2 -0.011145 0.128867 0.005080 0.000000 0.000000 0.000000
# 3 -0.006142 0.005080 0.009098 0.000000 0.000000 0.000000
# 4 0.000000 0.000000 0.000000 -0.048296 0.000000 0.000000
# 5 0.000000 0.000000 0.000000 0.000000 -0.023127 0.000000
# 6 0.000000 0.000000 0.000000 0.000000 0.000000 0.114697
#
#
# Mechanical properties :
#
#
# Convention : Reuss Voigt Hill
#
# Bulk Modulus (GPa) = 7.93359 53.24545 30.58952
# Shear Modulus (GPa) = 19.21844 2.96768 11.09306
#
# Velocity S-wave (km/s) = 3.09571 1.21650 2.35195
# Velocity P-wave (km/s) = 4.09073 5.34083 4.75702
#
# Compressibility (1/GPa) = 0.12604639
#
# Stress axis : x y z
#
# Youngs Moduli (GPa) = 80.01541 7.75996 109.92007
#
# Poissons Ratio (x) = 0.08649 0.67511
# Poissons Ratio (y) = 0.89180 -0.55835
# Poissons Ratio (z) = 0.49144 -0.03942
#
# Static dielectric constant tensor:
#      x y z
#    x 1.693220 0.000000 0.000000 
#    y 0.000000 1.772170 0.000000 
#    z 0.000000 0.000000 1.707190 
# 
# From -- ./inp_files/15164.got.cif
#   From: 2010.05.17/outbox.cif.g08.bks.cpg/sg35_8_cif.got.tgz:15164.got - 2010.06.03 17:29:28.
