data_PCOD9348767
_publ_section_title
;
Structure prediction by ZEFSAII (Michael W. Deem and Ramdas Pophale) SiO2 
 PCOD9348767
Probable space group: C M M 2
;
_chemical_formula_sum "Si O2"
_cell_formula_units_Z 64
_cell_length_a 7.570542
_cell_length_b 29.990678
_cell_length_c 13.035742
_cell_angle_alpha 90.000000
_cell_angle_beta 90.000000
_cell_angle_gamma 90.000000
_cell_volume 2959.709003
_symmetry_space_group_name_H-M "C M M 2"
_symmetry_group_IT_number 35
_symmetry_cell_setting 'orthorhombic'
loop_
_space_group_symop_operation_xyz
x,y,z
-x,-y,z
-x,y,z
x,-y,z
1/2+x,1/2+y,z
1/2-x,1/2-y,z
1/2-x,1/2+y,z
1/2+x,1/2-y,z
loop_
_atom_site_type_symbol
_atom_site_label
_atom_site_fract_x
_atom_site_fract_y
_atom_site_fract_z
Si Si1 0.212624 0.302803 0.066620
Si Si2 0.712159 0.549097 0.349552
Si Si3 0.288262 0.202842 0.437265
Si Si4 0.288724 0.851816 0.862069
Si Si5 0.701909 0.176719 0.645298
Si Si6 0.289089 0.141103 0.261425
Si Si7 0.712154 0.451783 0.799748
Si Si8 0.785155 0.078945 0.576132
O O1 0.250000 0.250000 0.071693
O O2 0.278920 0.331473 0.163852
O O3 0.000000 0.306808 0.066028
O O4 0.278586 0.326775 0.962775
O O5 0.500000 0.547715 0.354561
O O6 0.776545 0.500000 0.320012
O O7 0.757762 0.588666 0.271822
O O8 0.772264 0.560199 0.466141
O O9 0.500000 0.197846 0.446821
O O10 0.250000 0.250000 0.385561
O O11 0.210959 0.203166 0.552015
O O12 0.218512 0.163686 0.365643
O O13 0.500000 0.845905 0.859342
O O14 0.216341 0.829285 0.757464
O O15 0.262153 0.905298 0.854440
O O16 0.500000 0.192374 0.659750
O O17 0.703545 0.127159 0.597087
O O18 0.500000 0.147466 0.261904
O O19 0.500000 0.452522 0.803190
O O20 0.776362 0.500000 0.839811
O O21 0.762121 0.447988 0.679185
O O22 0.000000 0.082556 0.574797
#
# Coordination Sequence:
#
# PCOD9348767 Si02
#       8
#     8   8   8   8   8   8   8   8
#     4  10  22  40  61  82 103 134 178 225 270 316
#     4  10  20  33  52  80 111 142 177 217 262 312
#     4  10  20  32  49  74 103 134 168 209 259 315
#     4   9  19  35  54  77 106 138 175 219 264 312
#     4   9  17  31  49  72 106 140 169 210 259 309
#     4  10  21  38  56  76 105 138 176 220 263 313
#     4   9  17  30  50  78 111 145 180 216 257 308
#     4   9  16  28  48  74 106 143 177 212 254 305
#
# _framework density 21.623749
#
# number of rings (size 3 to 8) (size 9 to 14) (size 15 to 20)
#    0.000    2.500    1.250    0.750    0.000    4.500 
#    0.000    0.625    0.000    6.000    0.000    0.000 
#    0.000    0.000    0.000    0.000    0.000    0.000 
#
# Total GULP energy -178444.075841 kJ/mol
# GULP energy per Si atom -5576.377370 kJ/mol
# Density = 2.157453 g / cm^3
# Si number density = 21.623749 Si / 1000 Ang^3
#
#
#
# Elastic Constant Matrix: (Units=GPa)
#
#
# Indices 1 2 3 4 5 6 
#
# 1 51.8821 -6.0529 11.6300 0.0000 0.0000 0.0000
# 2 -6.0529 150.6455 87.2323 0.0000 0.0000 0.0000
# 3 11.6300 87.2323 150.2626 0.0000 0.0000 0.0000
# 4 0.0000 0.0000 0.0000 22.3764 0.0000 0.0000
# 5 0.0000 0.0000 0.0000 0.0000 3.2413 0.0000
# 6 0.0000 0.0000 0.0000 0.0000 0.0000 21.2035
#
#
#
# Elastic Compliance Matrix: (Units=1/GPa)
#
#
# Indices 1 2 3 4 5 6 
#
# 1 0.020266 0.002595 -0.003075 0.000000 0.000000 0.000000
# 2 0.002595 0.010332 -0.006199 0.000000 0.000000 0.000000
# 3 -0.003075 -0.006199 0.010492 0.000000 0.000000 0.000000
# 4 0.000000 0.000000 0.000000 0.044690 0.000000 0.000000
# 5 0.000000 0.000000 0.000000 0.000000 0.308515 0.000000
# 6 0.000000 0.000000 0.000000 0.000000 0.000000 0.047162
#
#
# Mechanical properties :
#
#
# Convention : Reuss Voigt Hill
#
# Bulk Modulus (GPa) = 36.05926 59.82324 47.94125
# Shear Modulus (GPa) = 10.77450 26.69629 18.73540
#
# Velocity S-wave (km/s) = 2.23462 3.51747 2.94671
# Velocity P-wave (km/s) = 4.83425 6.64999 5.81345
#
# Compressibility (1/GPa) = 0.02773212
#
# Stress axis : x y z
#
# Youngs Moduli (GPa) = 49.34252 96.78837 95.31413
#
# Poissons Ratio (x) = -0.25116 0.29309
# Poissons Ratio (y) = -0.12804 0.59083
# Poissons Ratio (z) = 0.15173 0.59997
#
# Static dielectric constant tensor:
#      x y z
#    x 1.805260 0.000000 0.000000 
#    y 0.000000 1.827550 0.000000 
#    z 0.000000 0.000000 1.809400 
# 
# From -- ./inp_files/11883.got.cif
#   From: 2010.05.17/outbox.cif.g08.bks.cpg/sg35_6_cif.got.tgz:11883.got - 2010.06.03 17:29:28.
