data_PCOD9348957
_publ_section_title
;
Structure prediction by ZEFSAII (Michael W. Deem and Ramdas Pophale) SiO2 
 PCOD9348957
Probable space group: C M M 2
;
_chemical_formula_sum "Si O2"
_cell_formula_units_Z 64
_cell_length_a 9.319289
_cell_length_b 18.221976
_cell_length_c 21.342988
_cell_angle_alpha 90.000000
_cell_angle_beta 90.000000
_cell_angle_gamma 90.000000
_cell_volume 3624.377873
_symmetry_space_group_name_H-M "C M M 2"
_symmetry_group_IT_number 35
_symmetry_cell_setting 'orthorhombic'
loop_
_space_group_symop_operation_xyz
x,y,z
-x,-y,z
-x,y,z
x,-y,z
1/2+x,1/2+y,z
1/2-x,1/2-y,z
1/2-x,1/2+y,z
1/2+x,1/2-y,z
loop_
_atom_site_type_symbol
_atom_site_label
_atom_site_fract_x
_atom_site_fract_y
_atom_site_fract_z
Si Si1 0.164989 0.589519 0.265170
Si Si2 0.164730 0.089685 0.388836
Si Si3 0.165211 0.589308 0.510959
Si Si4 0.172921 0.171751 0.763348
Si Si5 0.673174 0.672175 0.012840
Si Si6 0.329670 0.911961 0.652729
Si Si7 0.674055 0.583524 0.889120
Si Si8 0.829630 0.913090 0.140214
O O1 0.167646 0.500000 0.265494
O O2 0.247001 0.613524 0.327803
O O3 0.243713 0.612271 0.201391
O O4 0.000000 0.612778 0.266001
O O5 0.236447 0.114289 0.453820
O O6 0.000000 0.112441 0.384497
O O7 0.167505 0.000000 0.389135
O O8 0.167171 0.500000 0.510892
O O9 0.207709 0.611072 0.581410
O O10 0.000000 0.611139 0.500215
O O11 0.250000 0.250000 0.765208
O O12 0.233514 0.127930 0.703773
O O13 0.212276 0.127492 0.826530
O O14 0.000000 0.178806 0.760465
O O15 0.500000 0.680797 0.010393
O O16 0.750000 0.750000 0.011364
O O17 0.707890 0.629977 0.077171
O O18 0.718427 0.624949 0.952301
O O19 0.500000 0.896802 0.662017
O O20 0.311424 0.000000 0.657457
O O21 0.500000 0.580719 0.890572
O O22 0.727136 0.500000 0.887263
O O23 0.000000 0.904858 0.151686
O O24 0.802450 0.000000 0.130800
#
# Coordination Sequence:
#
# PCOD9348957 Si02
#       8
#     8   8   8   8   8   8   8   8
#     4   9  16  25  39  61  91 126 161 201 250 298
#     4   9  15  22  35  59  92 127 162 202 246 293
#     4   8  14  25  41  62  91 127 163 201 249 301
#     4  11  22  35  53  76 104 137 173 213 255 303
#     4  10  20  34  53  75 101 132 164 202 247 296
#     4   9  18  33  52  74 102 135 171 213 260 309
#     4   9  18  34  56  80 103 130 167 208 250 298
#     4   9  17  30  48  69  93 125 166 207 246 291
#
# _framework density 17.658201999999999
#
# number of rings (size 3 to 8) (size 9 to 14) (size 15 to 20)
#    0.000    2.750    0.000    3.000    0.000    6.250 
#    0.000    1.875    0.000    2.625    0.000    0.875 
#    0.000    2.000    0.000    0.000    0.000    0.000 
#
# Total GULP energy -178423.103861 kJ/mol
# GULP energy per Si atom -5575.721996 kJ/mol
# Density = 1.761801 g / cm^3
# Si number density = 17.658202 Si / 1000 Ang^3
#
#
#
# Elastic Constant Matrix: (Units=GPa)
#
#
# Indices 1 2 3 4 5 6 
#
# 1 81.5975 45.9469 98.0943 0.0000 0.0000 0.0000
# 2 45.9469 61.7661 66.0093 0.0000 0.0000 0.0000
# 3 98.0943 66.0093 204.5078 0.0000 0.0000 0.0000
# 4 0.0000 0.0000 0.0000 -7.5185 0.0000 0.0000
# 5 0.0000 0.0000 0.0000 0.0000 16.9894 0.0000
# 6 0.0000 0.0000 0.0000 0.0000 0.0000 19.2341
#
#
#
# Elastic Compliance Matrix: (Units=1/GPa)
#
#
# Indices 1 2 3 4 5 6 
#
# 1 0.033896 -0.011967 -0.012396 0.000000 0.000000 0.000000
# 2 -0.011967 0.028941 -0.003601 0.000000 0.000000 0.000000
# 3 -0.012396 -0.003601 0.011998 0.000000 0.000000 0.000000
# 4 0.000000 0.000000 0.000000 -0.133005 0.000000 0.000000
# 5 0.000000 0.000000 0.000000 0.000000 0.058860 0.000000
# 6 0.000000 0.000000 0.000000 0.000000 0.000000 0.051991
#
#
# Mechanical properties :
#
#
# Convention : Reuss Voigt Hill
#
# Bulk Modulus (GPa) = 52.89238 85.33027 69.11132
# Shear Modulus (GPa) = 43.51172 14.92905 29.22039
#
# Velocity S-wave (km/s) = 4.96936 2.91081 4.07231
# Velocity P-wave (km/s) = 7.93376 7.72821 7.83166
#
# Compressibility (1/GPa) = 0.01890632
#
# Stress axis : x y z
#
# Youngs Moduli (GPa) = 29.50212 34.55322 83.34801
#
# Poissons Ratio (x) = 0.41351 1.03317
# Poissons Ratio (y) = 0.35306 0.30014
# Poissons Ratio (z) = 0.36570 0.12443
#
# Static dielectric constant tensor:
#      x y z
#    x 1.589330 0.000000 0.000000 
#    y 0.000000 1.579880 0.000000 
#    z 0.000000 0.000000 1.592820 
# 
# From -- ./inp_files/18402.got.cif
#   From: 2010.05.17/outbox.cif.g08.bks.cpg/sg35_10_cif.got.tgz:18402.got - 2010.06.03 17:29:28.
