data_PCOD9348553
_publ_section_title
;
Structure prediction by ZEFSAII (Michael W. Deem and Ramdas Pophale) SiO2 
 PCOD9348553
Probable space group: C M M 2
;
_chemical_formula_sum "Si O2"
_cell_formula_units_Z 56
_cell_length_a 13.588133
_cell_length_b 14.095580
_cell_length_c 13.443078
_cell_angle_alpha 90.000000
_cell_angle_beta 90.000000
_cell_angle_gamma 90.000000
_cell_volume 2574.787893
_symmetry_space_group_name_H-M "C M M 2"
_symmetry_group_IT_number 35
_symmetry_cell_setting 'orthorhombic'
loop_
_space_group_symop_operation_xyz
x,y,z
-x,-y,z
-x,y,z
x,-y,z
1/2+x,1/2+y,z
1/2-x,1/2-y,z
1/2-x,1/2+y,z
1/2+x,1/2-y,z
loop_
_atom_site_type_symbol
_atom_site_label
_atom_site_fract_x
_atom_site_fract_y
_atom_site_fract_z
Si Si1 0.750236 0.613289 0.373300
Si Si2 0.117282 0.599551 0.703939
Si Si3 0.887569 0.256468 0.276832
Si Si4 0.890790 0.109838 0.546896
Si Si5 0.884250 0.801414 0.744672
Si Si6 0.256260 0.106797 0.896498
Si Si7 0.886590 0.388029 0.083714
O O1 0.757852 0.500000 0.363300
O O2 0.853057 0.666744 0.359215
O O3 0.681157 0.664333 0.290091
O O4 0.695951 0.641878 0.475281
O O5 0.154607 0.500000 0.657113
O O6 0.145546 0.707442 0.681290
O O7 0.153821 0.598807 0.818039
O O8 0.000000 0.596722 0.695630
O O9 0.877405 0.314843 0.174318
O O10 0.000000 0.228092 0.289251
O O11 0.868540 0.117215 0.663571
O O12 0.000000 0.154591 0.531821
O O13 0.900498 0.000000 0.520477
O O14 0.822890 0.825780 0.842874
O O15 0.000000 0.794342 0.768893
O O16 0.213891 0.000000 0.905881
O O17 0.305696 0.133872 0.000111
O O18 0.874218 0.500000 0.113263
O O19 0.000000 0.380387 0.045973
#
# Coordination Sequence:
#
# PCOD9348553 Si02
#       7
#     8   8   8   8   8   8   8
#     4  10  21  39  64  95 128 163 206 258 317 378
#     4   9  18  34  54  77 108 150 198 244 291 345
#     4  10  21  39  64  95 125 159 207 261 312 372
#     4   9  18  35  61  89 118 158 206 248 298 371
#     4  10  20  35  57  86 120 160 203 249 294 349
#     4  10  19  33  56  85 116 153 196 241 289 351
#     4   9  18  35  62  91 120 160 204 245 301 374
#
# _framework density 21.749362999999999
#
# number of rings (size 3 to 8) (size 9 to 14) (size 15 to 20)
#    0.000    2.429    0.000    2.143    0.000    4.286 
#   10.286    0.000    0.000    2.571    0.000   12.000 
#    0.000    0.000    0.000    0.000    0.000    0.000 
#
# Total GULP energy -156025.548138 kJ/mol
# GULP energy per Si atom -5572.341005 kJ/mol
# Density = 2.169986 g / cm^3
# Si number density = 21.749363 Si / 1000 Ang^3
#
#
#
# Elastic Constant Matrix: (Units=GPa)
#
#
# Indices 1 2 3 4 5 6 
#
# 1 66.6109 10.2094 11.3737 0.0000 0.0000 0.0000
# 2 10.2094 88.0576 -4.4955 0.0000 0.0000 0.0000
# 3 11.3737 -4.4955 47.1873 0.0000 0.0000 0.0000
# 4 0.0000 0.0000 0.0000 19.9138 0.0000 0.0000
# 5 0.0000 0.0000 0.0000 0.0000 33.0031 0.0000
# 6 0.0000 0.0000 0.0000 0.0000 0.0000 32.7546
#
#
#
# Elastic Compliance Matrix: (Units=1/GPa)
#
#
# Indices 1 2 3 4 5 6 
#
# 1 0.016022 -0.002065 -0.004059 0.000000 0.000000 0.000000
# 2 -0.002065 0.011678 0.001610 0.000000 0.000000 0.000000
# 3 -0.004059 0.001610 0.022324 0.000000 0.000000 0.000000
# 4 0.000000 0.000000 0.000000 0.050216 0.000000 0.000000
# 5 0.000000 0.000000 0.000000 0.000000 0.030300 0.000000
# 6 0.000000 0.000000 0.000000 0.000000 0.000000 0.030530
#
#
# Mechanical properties :
#
#
# Convention : Reuss Voigt Hill
#
# Bulk Modulus (GPa) = 24.39179 26.22565 25.30872
# Shear Modulus (GPa) = 27.20907 29.45219 28.33063
#
# Velocity S-wave (km/s) = 3.54083 3.68389 3.61306
# Velocity P-wave (km/s) = 5.28733 5.49354 5.39142
#
# Compressibility (1/GPa) = 0.04099740
#
# Stress axis : x y z
#
# Youngs Moduli (GPa) = 62.41413 85.63258 44.79527
#
# Poissons Ratio (x) = 0.17681 0.18180
# Poissons Ratio (y) = 0.12887 -0.07213
# Poissons Ratio (z) = 0.25331 -0.13789
#
# Static dielectric constant tensor:
#      x y z
#    x 1.848200 0.000000 0.000000 
#    y 0.000000 1.919380 0.000000 
#    z 0.000000 0.000000 1.773040 
# 
# From -- ./inp_files/13007.got.cif
#   From: 2010.05.17/outbox.cif.g08.bks.cpg/sg35_7_cif.got.tgz:13007.got - 2010.06.03 17:29:28.
