data_PCOD9348451
_publ_section_title
;
Structure prediction by ZEFSAII (Michael W. Deem and Ramdas Pophale) SiO2 
 PCOD9348451
Probable space group: C M M 2
;
_chemical_formula_sum "Si O2"
_cell_formula_units_Z 64
_cell_length_a 16.296284
_cell_length_b 17.924050
_cell_length_c 11.982337
_cell_angle_alpha 90.000000
_cell_angle_beta 90.000000
_cell_angle_gamma 90.000000
_cell_volume 3499.985630
_symmetry_space_group_name_H-M "C M M 2"
_symmetry_group_IT_number 35
_symmetry_cell_setting 'orthorhombic'
loop_
_space_group_symop_operation_xyz
x,y,z
-x,-y,z
-x,y,z
x,-y,z
1/2+x,1/2+y,z
1/2-x,1/2-y,z
1/2-x,1/2+y,z
1/2+x,1/2-y,z
loop_
_atom_site_type_symbol
_atom_site_label
_atom_site_fract_x
_atom_site_fract_y
_atom_site_fract_z
Si Si1 0.653854 0.410721 0.674360
Si Si2 0.900231 0.299068 0.054280
Si Si3 0.399695 0.725251 0.276338
Si Si4 0.404043 0.279187 0.529859
Si Si5 0.098866 0.152038 0.915627
Si Si6 0.306213 0.181946 0.706892
Si Si7 0.599074 0.915052 0.884546
Si Si8 0.599859 0.580360 0.143694
O O1 0.642778 0.500000 0.670040
O O2 0.606469 0.362612 0.580505
O O3 0.629655 0.377703 0.796825
O O4 0.747116 0.382736 0.660737
O O5 0.872582 0.283360 0.180585
O O6 0.000000 0.295644 0.056350
O O7 0.875601 0.232210 0.968748
O O8 0.876253 0.377802 0.002100
O O9 0.500000 0.727006 0.279141
O O10 0.372516 0.730425 0.403640
O O11 0.373844 0.646420 0.223817
O O12 0.500000 0.261198 0.532211
O O13 0.356462 0.223566 0.611149
O O14 0.000000 0.154983 0.906065
O O15 0.122406 0.096098 0.015461
O O16 0.250000 0.250000 0.754830
O O17 0.364838 0.141048 0.793475
O O18 0.500000 0.914825 0.877567
O O19 0.627810 0.000000 0.871396
O O20 0.500000 0.581523 0.144832
O O21 0.628766 0.500000 0.180908
#
# Coordination Sequence:
#
# PCOD9348451 Si02
#       8
#     8   8   8   8   8   8   8   8
#     4  11  22  33  48  72 105 139 165 202 255 300
#     4   8  14  27  48  75 103 127 155 197 250 301
#     4   8  15  27  45  70  97 126 162 205 249 290
#     4  10  20  34  53  75  97 128 174 217 246 283
#     4   9  16  27  46  73 104 137 170 198 234 296
#     4  10  21  36  52  70  99 140 176 203 240 294
#     4  10  19  32  55  83 105 125 156 205 257 300
#     4   8  13  22  39  66 101 135 162 195 243 295
#
# _framework density 18.285789000000001
#
# number of rings (size 3 to 8) (size 9 to 14) (size 15 to 20)
#    0.000    2.750    0.000    4.500    0.000    3.000 
#    0.000    1.250    0.000   12.750    0.000    5.250 
#    0.000    0.000    0.000    0.000    0.000    0.000 
#
# Total GULP energy -178212.115292 kJ/mol
# GULP energy per Si atom -5569.128603 kJ/mol
# Density = 1.824417 g / cm^3
# Si number density = 18.285789 Si / 1000 Ang^3
#
#
#
# Elastic Constant Matrix: (Units=GPa)
#
#
# Indices 1 2 3 4 5 6 
#
# 1 23.3563 18.8869 26.8440 0.0000 0.0000 0.0000
# 2 18.8869 118.4416 81.9153 0.0000 0.0000 0.0000
# 3 26.8440 81.9153 149.2266 0.0000 0.0000 0.0000
# 4 0.0000 0.0000 0.0000 10.5081 0.0000 0.0000
# 5 0.0000 0.0000 0.0000 0.0000 -21.9694 0.0000
# 6 0.0000 0.0000 0.0000 0.0000 0.0000 14.2703
#
#
#
# Elastic Compliance Matrix: (Units=1/GPa)
#
#
# Indices 1 2 3 4 5 6 
#
# 1 0.054666 -0.003089 -0.008138 0.000000 0.000000 0.000000
# 2 -0.003089 0.013784 -0.007011 0.000000 0.000000 0.000000
# 3 -0.008138 -0.007011 0.012014 0.000000 0.000000 0.000000
# 4 0.000000 0.000000 0.000000 0.095165 0.000000 0.000000
# 5 0.000000 0.000000 0.000000 0.000000 -0.045518 0.000000
# 6 0.000000 0.000000 0.000000 0.000000 0.000000 0.070075
#
#
# Mechanical properties :
#
#
# Convention : Reuss Voigt Hill
#
# Bulk Modulus (GPa) = 22.73330 60.70186 41.71758
# Shear Modulus (GPa) = 19.89448 11.45369 15.67409
#
# Velocity S-wave (km/s) = 3.30203 2.50546 2.93093
# Velocity P-wave (km/s) = 5.19587 6.45275 5.85812
#
# Compressibility (1/GPa) = 0.04398833
#
# Stress axis : x y z
#
# Youngs Moduli (GPa) = 18.29287 72.54544 83.23734
#
# Poissons Ratio (x) = 0.22406 0.67741
# Poissons Ratio (y) = 0.05650 0.58359
# Poissons Ratio (z) = 0.14887 0.50863
#
# Static dielectric constant tensor:
#      x y z
#    x 1.666190 0.000000 0.000000 
#    y 0.000000 1.635670 0.000000 
#    z 0.000000 0.000000 1.635800 
# 
# From -- ./inp_files/13693.got.cif
#   From: 2010.05.17/outbox.cif.g08.bks.cpg/sg35_7_cif.got.tgz:13693.got - 2010.06.03 17:29:28.
