data_PCOD9348360
_publ_section_title
;
Structure prediction by ZEFSAII (Michael W. Deem and Ramdas Pophale) SiO2 
 PCOD9348360
Probable space group: C M M 2
;
_chemical_formula_sum "Si O2"
_cell_formula_units_Z 48
_cell_length_a 8.539003
_cell_length_b 18.697487
_cell_length_c 16.097336
_cell_angle_alpha 90.000000
_cell_angle_beta 90.000000
_cell_angle_gamma 90.000000
_cell_volume 2570.066822
_symmetry_space_group_name_H-M "C M M 2"
_symmetry_group_IT_number 35
_symmetry_cell_setting 'orthorhombic'
loop_
_space_group_symop_operation_xyz
x,y,z
-x,-y,z
-x,y,z
x,-y,z
1/2+x,1/2+y,z
1/2-x,1/2-y,z
1/2-x,1/2+y,z
1/2+x,1/2-y,z
loop_
_atom_site_type_symbol
_atom_site_label
_atom_site_fract_x
_atom_site_fract_y
_atom_site_fract_z
Si Si1 0.818819 0.413103 0.614380
Si Si2 0.691359 0.082887 0.796414
Si Si3 0.310472 0.830379 0.958331
Si Si4 0.808775 0.582278 0.121449
Si Si5 0.812940 0.669800 0.283331
Si Si6 0.185997 0.917078 0.438356
O O1 0.816311 0.500000 0.617872
O O2 0.757350 0.390594 0.705069
O O3 0.728419 0.392091 0.531448
O O4 0.000000 0.391099 0.605775
O O5 0.500000 0.082739 0.794194
O O6 0.741695 0.131124 0.873346
O O7 0.738900 0.000000 0.808351
O O8 0.500000 0.829606 0.958050
O O9 0.250000 0.750000 0.963606
O O10 0.259785 0.876145 0.038437
O O11 0.756852 0.500000 0.121570
O O12 0.756804 0.624058 0.203837
O O13 0.000000 0.581614 0.121760
O O14 0.750000 0.750000 0.279550
O O15 0.761845 0.630902 0.367628
O O16 0.000000 0.672033 0.280211
O O17 0.000000 0.915941 0.428376
O O18 0.240116 0.000000 0.430072
#
# Coordination Sequence:
#
# PCOD9348360 Si02
#       6
#     8   8   8   8   8   8
#     4   8  14  27  49  75 100 129 170 217 259 298
#     4   8  14  27  50  76  98 128 174 218 250 288
#     4  10  19  32  51  75 105 136 166 204 250 301
#     4   9  18  33  55  80 101 128 170 213 250 295
#     4  11  22  36  54  76 105 138 172 211 258 311
#     4  10  20  34  53  78 106 136 173 216 261 308
#
# _framework density 18.676556999999999
#
# number of rings (size 3 to 8) (size 9 to 14) (size 15 to 20)
#    0.000    2.667    0.000    3.500    0.000    3.667 
#    0.000    2.500    0.000    7.000    0.000    0.000 
#    0.000    0.000    0.000    0.000    0.000    0.000 
#
# Total GULP energy -133869.336864 kJ/mol
# GULP energy per Si atom -5577.889036 kJ/mol
# Density = 1.863405 g / cm^3
# Si number density = 18.676557 Si / 1000 Ang^3
#
#
#
# Elastic Constant Matrix: (Units=GPa)
#
#
# Indices 1 2 3 4 5 6 
#
# 1 18.1328 22.3129 29.4399 0.0000 0.0000 0.0000
# 2 22.3129 136.4214 106.7878 0.0000 0.0000 0.0000
# 3 29.4399 106.7878 203.4650 0.0000 0.0000 0.0000
# 4 0.0000 0.0000 0.0000 -7.3172 0.0000 0.0000
# 5 0.0000 0.0000 0.0000 0.0000 -1.9170 0.0000
# 6 0.0000 0.0000 0.0000 0.0000 0.0000 22.8446
#
#
#
# Elastic Compliance Matrix: (Units=1/GPa)
#
#
# Indices 1 2 3 4 5 6 
#
# 1 0.075260 -0.006425 -0.007517 0.000000 0.000000 0.000000
# 2 -0.006425 0.012990 -0.005888 0.000000 0.000000 0.000000
# 3 -0.007517 -0.005888 0.009093 0.000000 0.000000 0.000000
# 4 0.000000 0.000000 0.000000 -0.136665 0.000000 0.000000
# 5 0.000000 0.000000 0.000000 0.000000 -0.521651 0.000000
# 6 0.000000 0.000000 0.000000 0.000000 0.000000 0.043774
#
#
# Mechanical properties :
#
#
# Convention : Reuss Voigt Hill
#
# Bulk Modulus (GPa) = 17.33646 75.01116 46.17381
# Shear Modulus (GPa) = -10.90964 16.02066 2.55551
#
# Velocity S-wave (km/s) = -2.41951 2.93199 1.17101
# Velocity P-wave (km/s) = 1.22362 7.19114 5.15799
#
# Compressibility (1/GPa) = 0.05768190
#
# Stress axis : x y z
#
# Youngs Moduli (GPa) = 13.28730 76.98057 109.97453
#
# Poissons Ratio (x) = 0.49459 0.82673
# Poissons Ratio (y) = 0.08537 0.64756
# Poissons Ratio (z) = 0.09989 0.45328
#
# Static dielectric constant tensor:
#      x y z
#    x 1.640580 0.000000 0.000000 
#    y 0.000000 1.613320 0.000000 
#    z 0.000000 0.000000 1.653100 
# 
# From -- ./inp_files/15132.got.cif
#   From: 2010.05.17/outbox.cif.g08.bks.cpg/sg35_8_cif.got.tgz:15132.got - 2010.06.03 17:29:28.
