data_PCOD9348956
_publ_section_title
;
Structure prediction by ZEFSAII (Michael W. Deem and Ramdas Pophale) SiO2 
 PCOD9348956
Probable space group: C M M 2
;
_chemical_formula_sum "Si O2"
_cell_formula_units_Z 48
_cell_length_a 15.952885
_cell_length_b 8.787526
_cell_length_c 17.881973
_cell_angle_alpha 90.000000
_cell_angle_beta 90.000000
_cell_angle_gamma 90.000000
_cell_volume 2506.809272
_symmetry_space_group_name_H-M "C M M 2"
_symmetry_group_IT_number 35
_symmetry_cell_setting 'orthorhombic'
loop_
_space_group_symop_operation_xyz
x,y,z
-x,-y,z
-x,y,z
x,-y,z
1/2+x,1/2+y,z
1/2-x,1/2-y,z
1/2-x,1/2+y,z
1/2+x,1/2-y,z
loop_
_atom_site_type_symbol
_atom_site_label
_atom_site_fract_x
_atom_site_fract_y
_atom_site_fract_z
Si Si1 0.000000 0.183976 0.128060
Si Si2 0.837335 0.183585 0.223715
Si Si3 0.156325 0.316119 0.860300
Si Si4 0.402261 0.685728 0.383129
Si Si5 0.500000 0.184219 0.962365
Si Si6 0.099458 0.828971 0.543489
Si Si7 0.842202 0.319017 0.692984
O O1 0.083036 0.229414 0.173932
O O2 0.000000 0.000000 0.123787
O O3 0.000000 0.252315 0.045704
O O4 0.750000 0.250000 0.195804
O O5 0.853195 0.234524 0.309424
O O6 0.833855 0.000000 0.223534
O O7 0.163011 0.500000 0.863233
O O8 0.250000 0.250000 0.872546
O O9 0.126626 0.274134 0.775864
O O10 0.084512 0.267779 0.918293
O O11 0.500000 0.729718 0.373339
O O12 0.400768 0.500000 0.385862
O O13 0.368924 0.737788 0.464342
O O14 0.500000 0.000000 0.963599
O O15 0.111854 0.738642 0.619390
O O16 0.000000 0.841393 0.531209
O O17 0.134113 0.000000 0.553886
O O18 0.839492 0.500000 0.691177
O O19 0.750000 0.250000 0.687964
#
# Coordination Sequence:
#
# PCOD9348956 Si02
#       7
#     4   8   8   8   4   8   8
#     4  10  22  40  60  83 112 144 180 221 268 334
#     4  10  20  36  59  84 110 145 186 224 270 325
#     4   9  20  38  59  82 111 146 184 226 273 328
#     4   8  14  30  54  75 103 146 187 224 266 318
#     4  10  22  40  62  85 110 144 178 219 280 334
#     4   9  18  31  50  78 109 143 185 226 267 317
#     4  10  20  34  53  74 105 144 183 226 274 322
#
# _framework density 19.147848
#
# number of rings (size 3 to 8) (size 9 to 14) (size 15 to 20)
#    0.000    2.667    0.833    1.500    1.167    3.667 
#    0.000    5.833    0.000    1.000    0.000    0.000 
#    0.000    0.000    0.000    0.000    0.000    0.000 
#
# Total GULP energy -133763.401607 kJ/mol
# GULP energy per Si atom -5573.475067 kJ/mol
# Density = 1.910427 g / cm^3
# Si number density = 19.147848 Si / 1000 Ang^3
#
#
#
# Elastic Constant Matrix: (Units=GPa)
#
#
# Indices 1 2 3 4 5 6 
#
# 1 107.7005 21.3016 83.2589 0.0000 0.0000 0.0000
# 2 21.3016 14.4359 34.9630 0.0000 0.0000 0.0000
# 3 83.2589 34.9630 175.3796 0.0000 0.0000 0.0000
# 4 0.0000 0.0000 0.0000 -72.2510 0.0000 0.0000
# 5 0.0000 0.0000 0.0000 0.0000 -8.4392 0.0000
# 6 0.0000 0.0000 0.0000 0.0000 0.0000 23.5663
#
#
#
# Elastic Compliance Matrix: (Units=1/GPa)
#
#
# Indices 1 2 3 4 5 6 
#
# 1 0.015335 -0.009661 -0.005354 0.000000 0.000000 0.000000
# 2 -0.009661 0.140030 -0.023330 0.000000 0.000000 0.000000
# 3 -0.005354 -0.023330 0.012895 0.000000 0.000000 0.000000
# 4 0.000000 0.000000 0.000000 -0.013841 0.000000 0.000000
# 5 0.000000 0.000000 0.000000 0.000000 -0.118495 0.000000
# 6 0.000000 0.000000 0.000000 0.000000 0.000000 0.042434
#
#
# Mechanical properties :
#
#
# Convention : Reuss Voigt Hill
#
# Bulk Modulus (GPa) = 10.92052 64.06255 37.49153
# Shear Modulus (GPa) = 26.94410 -0.89194 13.02608
#
# Velocity S-wave (km/s) = 3.75528 -0.68325 2.61107
# Velocity P-wave (km/s) = 4.95162 5.73646 5.35843
#
# Compressibility (1/GPa) = 0.09157075
#
# Stress axis : x y z
#
# Youngs Moduli (GPa) = 65.21149 7.14132 77.55205
#
# Poissons Ratio (x) = 0.06899 0.41522
# Poissons Ratio (y) = 0.62999 1.80926
# Poissons Ratio (z) = 0.34914 0.16660
#
# Static dielectric constant tensor:
#      x y z
#    x 1.662160 0.000000 0.000000 
#    y 0.000000 1.718890 0.000000 
#    z 0.000000 0.000000 1.702010 
# 
# From -- ./inp_files/15256.got.cif
#   From: 2010.05.17/outbox.cif.g08.bks.cpg/sg35_8_cif.got.tgz:15256.got - 2010.06.03 17:29:28.
