data_PCOD9348465
_publ_section_title
;
Structure prediction by ZEFSAII (Michael W. Deem and Ramdas Pophale) SiO2 
 PCOD9348465
Probable space group: C M M 2
;
_chemical_formula_sum "Si O2"
_cell_formula_units_Z 48
_cell_length_a 8.549076
_cell_length_b 33.807427
_cell_length_c 9.505481
_cell_angle_alpha 90.000000
_cell_angle_beta 90.000000
_cell_angle_gamma 90.000000
_cell_volume 2747.295628
_symmetry_space_group_name_H-M "C M M 2"
_symmetry_group_IT_number 35
_symmetry_cell_setting 'orthorhombic'
loop_
_space_group_symop_operation_xyz
x,y,z
-x,-y,z
-x,y,z
x,-y,z
1/2+x,1/2+y,z
1/2-x,1/2-y,z
1/2-x,1/2+y,z
1/2+x,1/2-y,z
loop_
_atom_site_type_symbol
_atom_site_label
_atom_site_fract_x
_atom_site_fract_y
_atom_site_fract_z
Si Si1 0.311222 0.121109 0.388030
Si Si2 0.184865 0.792532 0.866615
Si Si3 0.812298 0.370163 0.710398
Si Si4 0.812566 0.043834 0.230509
Si Si5 0.315618 0.168125 0.127388
Si Si6 0.814082 0.092377 0.968880
O O1 0.500000 0.121104 0.383730
O O2 0.261336 0.126454 0.548676
O O3 0.254681 0.079578 0.323037
O O4 0.260553 0.157008 0.284494
O O5 0.250000 0.750000 0.823703
O O6 0.259512 0.828330 0.777156
O O7 0.000000 0.794051 0.849943
O O8 0.228060 0.800326 0.030630
O O9 0.738660 0.404522 0.808075
O O10 0.000000 0.372659 0.717208
O O11 0.000000 0.044192 0.249307
O O12 0.753024 0.000000 0.264847
O O13 0.784388 0.054348 0.065741
O O14 0.500000 0.177112 0.127580
O O15 0.283190 0.127084 0.044967
O O16 0.000000 0.101339 0.977455
#
# Coordination Sequence:
#
# PCOD9348465 Si02
#       6
#     8   8   8   8   8   8
#     4   9  19  33  51  74 101 132 164 200 244 295
#     4  11  21  34  52  75  99 127 163 202 245 289
#     4  10  19  33  51  73 101 131 163 200 243 292
#     4   9  18  32  50  72  98 128 165 209 251 290
#     4   9  16  30  50  71  94 123 159 197 237 283
#     4   9  16  28  47  70  94 124 162 199 237 285
#
# _framework density 17.471727000000001
#
# number of rings (size 3 to 8) (size 9 to 14) (size 15 to 20)
#    0.000    2.500    0.000    5.000    0.000    3.000 
#    0.000    1.667    0.000    3.000    0.000    0.000 
#    0.000    0.000    0.000    0.000    0.000    0.000 
#
# Total GULP energy -133661.620042 kJ/mol
# GULP energy per Si atom -5569.234168 kJ/mol
# Density = 1.743196 g / cm^3
# Si number density = 17.471727 Si / 1000 Ang^3
#
#
#
# Elastic Constant Matrix: (Units=GPa)
#
#
# Indices 1 2 3 4 5 6 
#
# 1 32.8302 11.4775 17.8449 0.0000 0.0000 0.0000
# 2 11.4775 72.9110 34.7009 0.0000 0.0000 0.0000
# 3 17.8449 34.7009 139.0048 0.0000 0.0000 0.0000
# 4 0.0000 0.0000 0.0000 14.9072 0.0000 0.0000
# 5 0.0000 0.0000 0.0000 0.0000 21.0918 0.0000
# 6 0.0000 0.0000 0.0000 0.0000 0.0000 19.3574
#
#
#
# Elastic Compliance Matrix: (Units=1/GPa)
#
#
# Indices 1 2 3 4 5 6 
#
# 1 0.033589 -0.003671 -0.003395 0.000000 0.000000 0.000000
# 2 -0.003671 0.015966 -0.003514 0.000000 0.000000 0.000000
# 3 -0.003395 -0.003514 0.008507 0.000000 0.000000 0.000000
# 4 0.000000 0.000000 0.000000 0.067082 0.000000 0.000000
# 5 0.000000 0.000000 0.000000 0.000000 0.047412 0.000000
# 6 0.000000 0.000000 0.000000 0.000000 0.000000 0.051660
#
#
# Mechanical properties :
#
#
# Convention : Reuss Voigt Hill
#
# Bulk Modulus (GPa) = 27.10070 41.42141 34.26105
# Shear Modulus (GPa) = 19.40409 23.11947 21.26178
#
# Velocity S-wave (km/s) = 3.33618 3.64160 3.49223
# Velocity P-wave (km/s) = 5.51226 6.43745 5.99274
#
# Compressibility (1/GPa) = 0.03689941
#
# Stress axis : x y z
#
# Youngs Moduli (GPa) = 29.77175 62.63346 117.54722
#
# Poissons Ratio (x) = 0.22995 0.39913
# Poissons Ratio (y) = 0.10931 0.41311
# Poissons Ratio (z) = 0.10109 0.22012
#
# Static dielectric constant tensor:
#      x y z
#    x 1.590180 0.000000 0.000000 
#    y 0.000000 1.594460 0.000000 
#    z 0.000000 0.000000 1.636690 
# 
# From -- ./inp_files/5349.got.cif
#   From: 2010.05.17/outbox.cif.g08.bks.cpg/sg35_3_cif.got.tgz:5349.got - 2010.06.03 17:29:28.
