data_PCOD9348769
_publ_section_title
;
Structure prediction by ZEFSAII (Michael W. Deem and Ramdas Pophale) SiO2 
 PCOD9348769
Probable space group: C M M 2
;
_chemical_formula_sum "Si O2"
_cell_formula_units_Z 48
_cell_length_a 10.814506
_cell_length_b 20.509120
_cell_length_c 11.154024
_cell_angle_alpha 90.000000
_cell_angle_beta 90.000000
_cell_angle_gamma 90.000000
_cell_volume 2473.917922
_symmetry_space_group_name_H-M "C M M 2"
_symmetry_group_IT_number 35
_symmetry_cell_setting 'orthorhombic'
loop_
_space_group_symop_operation_xyz
x,y,z
-x,-y,z
-x,y,z
x,-y,z
1/2+x,1/2+y,z
1/2-x,1/2-y,z
1/2-x,1/2+y,z
1/2+x,1/2-y,z
loop_
_atom_site_type_symbol
_atom_site_label
_atom_site_fract_x
_atom_site_fract_y
_atom_site_fract_z
Si Si1 0.369296 0.286956 0.591980
Si Si2 0.863036 0.837193 0.847612
Si Si3 0.361928 0.923569 0.758654
Si Si4 0.783692 0.926565 0.526501
Si Si5 0.141184 0.202665 0.120093
Si Si6 0.355173 0.427943 0.265598
O O1 0.500000 0.259168 0.550461
O O2 0.250000 0.250000 0.543867
O O3 0.364883 0.286945 0.736642
O O4 0.363063 0.363408 0.560276
O O5 0.748205 0.884823 0.822877
O O6 0.000000 0.870094 0.844453
O O7 0.852527 0.804196 0.976410
O O8 0.500000 0.898586 0.783802
O O9 0.332707 0.919928 0.615782
O O10 0.356774 0.000000 0.790952
O O11 0.770719 0.922659 0.383651
O O12 0.834665 0.000000 0.550446
O O13 0.250000 0.250000 0.161958
O O14 0.162397 0.131245 0.175905
O O15 0.000000 0.222912 0.151704
O O16 0.500000 0.425064 0.306151
O O17 0.337154 0.500000 0.211609
#
# Coordination Sequence:
#
# PCOD9348769 Si02
#       6
#     8   8   8   8   8   8
#     4  10  20  32  49  76 106 136 171 213 263 317
#     4   9  19  34  52  76 106 143 185 223 263 318
#     4   9  18  32  52  81 114 144 175 218 275 332
#     4   9  18  34  55  77 104 140 181 222 265 317
#     4  10  21  37  57  82 111 144 184 229 276 324
#     4   9  18  34  56  79 105 142 187 231 272 318
#
# _framework density 19.402422999999999
#
# number of rings (size 3 to 8) (size 9 to 14) (size 15 to 20)
#    0.000    2.667    0.000    1.000    0.000    6.667 
#    0.000    7.500    0.000    1.500    0.000    0.000 
#    0.000    0.000    0.000    0.000    0.000    0.000 
#
# Total GULP energy -133643.106365 kJ/mol
# GULP energy per Si atom -5568.462765 kJ/mol
# Density = 1.935826 g / cm^3
# Si number density = 19.402423 Si / 1000 Ang^3
#
#
#
# Elastic Constant Matrix: (Units=GPa)
#
#
# Indices 1 2 3 4 5 6 
#
# 1 164.4059 65.6313 5.2310 0.0000 0.0000 0.0000
# 2 65.6313 75.3295 17.5061 0.0000 0.0000 0.0000
# 3 5.2310 17.5061 24.7663 0.0000 0.0000 0.0000
# 4 0.0000 0.0000 0.0000 10.0608 0.0000 0.0000
# 5 0.0000 0.0000 0.0000 0.0000 12.9105 0.0000
# 6 0.0000 0.0000 0.0000 0.0000 0.0000 28.6348
#
#
#
# Elastic Compliance Matrix: (Units=1/GPa)
#
#
# Indices 1 2 3 4 5 6 
#
# 1 0.009768 -0.009610 0.004730 0.000000 0.000000 0.000000
# 2 -0.009610 0.025338 -0.015881 0.000000 0.000000 0.000000
# 3 0.004730 -0.015881 0.050604 0.000000 0.000000 0.000000
# 4 0.000000 0.000000 0.000000 0.099396 0.000000 0.000000
# 5 0.000000 0.000000 0.000000 0.000000 0.077456 0.000000
# 6 0.000000 0.000000 0.000000 0.000000 0.000000 0.034923
#
#
# Mechanical properties :
#
#
# Convention : Reuss Voigt Hill
#
# Bulk Modulus (GPa) = 22.63034 49.02648 35.82841
# Shear Modulus (GPa) = 14.13483 22.06343 18.09913
#
# Velocity S-wave (km/s) = 2.70202 3.37582 3.05754
# Velocity P-wave (km/s) = 4.62855 6.36537 5.56514
#
# Compressibility (1/GPa) = 0.04418848
#
# Stress axis : x y z
#
# Youngs Moduli (GPa) = 102.37214 39.46612 19.76133
#
# Poissons Ratio (x) = 0.37926 -0.09346
# Poissons Ratio (y) = 0.98377 0.31382
# Poissons Ratio (z) = -0.48417 0.62675
#
# Static dielectric constant tensor:
#      x y z
#    x 1.712040 0.000000 0.000000 
#    y 0.000000 1.694380 0.000000 
#    z 0.000000 0.000000 1.679670 
# 
# From -- ./inp_files/12290.got.cif
#   From: 2010.05.17/outbox.cif.g08.bks.cpg/sg35_7_cif.got.tgz:12290.got - 2010.06.03 17:29:28.
