data_PCOD9348689
_publ_section_title
;
Structure prediction by ZEFSAII (Michael W. Deem and Ramdas Pophale) SiO2 
 PCOD9348689
Probable space group: C M M 2
;
_chemical_formula_sum "Si O2"
_cell_formula_units_Z 56
_cell_length_a 28.330429
_cell_length_b 13.746266
_cell_length_c 7.189018
_cell_angle_alpha 90.000000
_cell_angle_beta 90.000000
_cell_angle_gamma 90.000000
_cell_volume 2799.674009
_symmetry_space_group_name_H-M "C M M 2"
_symmetry_group_IT_number 35
_symmetry_cell_setting 'orthorhombic'
loop_
_space_group_symop_operation_xyz
x,y,z
-x,-y,z
-x,y,z
x,-y,z
1/2+x,1/2+y,z
1/2-x,1/2-y,z
1/2-x,1/2+y,z
1/2+x,1/2-y,z
loop_
_atom_site_type_symbol
_atom_site_label
_atom_site_fract_x
_atom_site_fract_y
_atom_site_fract_z
Si Si1 0.135148 0.301614 0.941170
Si Si2 0.295796 0.611517 0.364650
Si Si3 0.553647 0.227778 0.239458
Si Si4 0.689006 0.833396 0.274856
Si Si5 0.447703 0.384930 0.516203
Si Si6 0.605488 0.111048 0.546758
Si Si7 0.352370 0.610750 0.741810
O O1 0.119010 0.349951 0.749433
O O2 0.155135 0.195248 0.888917
O O3 0.090261 0.293850 0.077609
O O4 0.174059 0.357807 0.064021
O O5 0.308402 0.500000 0.299762
O O6 0.315845 0.714867 0.288192
O O7 0.240268 0.628449 0.330940
O O8 0.313377 0.613842 0.578738
O O9 0.500000 0.209352 0.182721
O O10 0.558929 0.337451 0.314479
O O11 0.566574 0.169051 0.427756
O O12 0.651860 0.877211 0.418872
O O13 0.500000 0.353374 0.585402
O O14 0.448293 0.500000 0.498158
O O15 0.403045 0.364087 0.646469
O O16 0.591026 0.000000 0.560892
O O17 0.354425 0.500000 0.813389
#
# Coordination Sequence:
#
# PCOD9348689 Si02
#       7
#     8   8   8   8   8   8   8
#     4  11  22  39  61  92 122 160 204 254 310 371
#     4  10  20  39  64  88 122 165 203 251 307 360
#     4  10  22  39  62  91 124 160 203 255 307 364
#     4  10  22  41  63  88 123 161 206 255 307 372
#     4   9  17  33  60  90 123 165 202 238 297 369
#     4  11  23  42  64  84 117 161 207 259 314 371
#     4  10  19  35  62  93 126 162 204 251 304 363
#
# _framework density 20.002327999999999
#
# number of rings (size 3 to 8) (size 9 to 14) (size 15 to 20)
#    0.000    1.857    2.857    1.286    0.000    5.429 
#    5.143    0.000    0.000    0.000    0.000    0.000 
#    0.000    0.000    0.000    0.000    0.000    0.000 
#
# Total GULP energy -156087.001842 kJ/mol
# GULP energy per Si atom -5574.535780 kJ/mol
# Density = 1.995680 g / cm^3
# Si number density = 20.002328 Si / 1000 Ang^3
#
#
#
# Elastic Constant Matrix: (Units=GPa)
#
#
# Indices 1 2 3 4 5 6 
#
# 1 78.6388 -4.8182 29.5559 0.0000 0.0000 0.0000
# 2 -4.8182 59.1718 21.9282 0.0000 0.0000 0.0000
# 3 29.5559 21.9282 107.0423 0.0000 0.0000 0.0000
# 4 0.0000 0.0000 0.0000 -5.4198 0.0000 0.0000
# 5 0.0000 0.0000 0.0000 0.0000 6.4454 0.0000
# 6 0.0000 0.0000 0.0000 0.0000 0.0000 20.2327
#
#
#
# Elastic Compliance Matrix: (Units=1/GPa)
#
#
# Indices 1 2 3 4 5 6 
#
# 1 0.014638 0.002911 -0.004638 0.000000 0.000000 0.000000
# 2 0.002911 0.018867 -0.004669 0.000000 0.000000 0.000000
# 3 -0.004638 -0.004669 0.011579 0.000000 0.000000 0.000000
# 4 0.000000 0.000000 0.000000 -0.184509 0.000000 0.000000
# 5 0.000000 0.000000 0.000000 0.000000 0.155149 0.000000
# 6 0.000000 0.000000 0.000000 0.000000 0.000000 0.049425
#
#
# Mechanical properties :
#
#
# Convention : Reuss Voigt Hill
#
# Bulk Modulus (GPa) = 30.96736 37.57607 34.27171
# Shear Modulus (GPa) = 56.36638 17.46414 36.91526
#
# Velocity S-wave (km/s) = 5.31423 2.95804 4.30065
# Velocity P-wave (km/s) = 7.29179 5.52207 6.46775
#
# Compressibility (1/GPa) = 0.03229207
#
# Stress axis : x y z
#
# Youngs Moduli (GPa) = 68.31596 53.00233 86.36235
#
# Poissons Ratio (x) = -0.15427 0.40055
# Poissons Ratio (y) = -0.19885 0.40320
# Poissons Ratio (z) = 0.31685 0.24745
#
# Static dielectric constant tensor:
#      x y z
#    x 1.721660 0.000000 0.000000 
#    y 0.000000 1.750480 0.000000 
#    z 0.000000 0.000000 1.689120 
# 
# From -- ./inp_files/4018.got.cif
#   From: 2010.05.17/outbox.cif.g08.bks.cpg/sg35_3_cif.got.tgz:4018.got - 2010.06.03 17:29:28.
