data_PCOD9348323
_publ_section_title
;
Structure prediction by ZEFSAII (Michael W. Deem and Ramdas Pophale) SiO2 
 PCOD9348323
Probable space group: C M M 2
;
_chemical_formula_sum "Si O2"
_cell_formula_units_Z 56
_cell_length_a 9.105889
_cell_length_b 18.994998
_cell_length_c 18.922699
_cell_angle_alpha 90.000000
_cell_angle_beta 90.000000
_cell_angle_gamma 90.000000
_cell_volume 3272.990052
_symmetry_space_group_name_H-M "C M M 2"
_symmetry_group_IT_number 35
_symmetry_cell_setting 'orthorhombic'
loop_
_space_group_symop_operation_xyz
x,y,z
-x,-y,z
-x,y,z
x,-y,z
1/2+x,1/2+y,z
1/2-x,1/2-y,z
1/2-x,1/2+y,z
1/2+x,1/2-y,z
loop_
_atom_site_type_symbol
_atom_site_label
_atom_site_fract_x
_atom_site_fract_y
_atom_site_fract_z
Si Si1 0.677813 0.173162 0.685600
Si Si2 0.321444 0.080678 0.821212
Si Si3 0.329894 0.914143 0.976002
Si Si4 0.330771 0.914197 0.260395
Si Si5 0.331151 0.585909 0.118022
Si Si6 0.324770 0.418005 0.403838
Si Si7 0.322864 0.673333 0.541982
O O1 0.500000 0.177556 0.679625
O O2 0.750000 0.250000 0.693804
O O3 0.717112 0.127305 0.754056
O O4 0.748497 0.143655 0.613337
O O5 0.500000 0.079232 0.824948
O O6 0.272727 0.107702 0.898526
O O7 0.271913 0.000000 0.811943
O O8 0.500000 0.893295 0.983774
O O9 0.327356 0.000000 0.974477
O O10 0.241052 0.890660 0.044510
O O11 0.500000 0.893392 0.260262
O O12 0.252876 0.890506 0.188412
O O13 0.252897 0.891524 0.332684
O O14 0.323969 0.000000 0.260154
O O15 0.500000 0.606803 0.121623
O O16 0.325373 0.500000 0.117649
O O17 0.500000 0.415331 0.392648
O O18 0.284015 0.500000 0.414580
O O19 0.290704 0.373688 0.473562
O O20 0.500000 0.678973 0.550390
O O21 0.250000 0.750000 0.532103
#
# Coordination Sequence:
#
# PCOD9348323 Si02
#       7
#     8   8   8   8   8   8   8
#     4  10  19  32  50  69  91 119 152 189 227 271
#     4   8  15  28  46  68  92 119 152 190 230 269
#     4   8  13  23  39  58  82 112 147 185 222 262
#     4   9  16  25  39  61  88 118 152 187 222 263
#     4   9  15  22  34  55  86 121 151 179 218 267
#     4   9  18  32  48  67  93 122 150 185 231 275
#     4  10  20  34  51  69  91 120 153 188 226 271
#
# _framework density 17.109738
#
# number of rings (size 3 to 8) (size 9 to 14) (size 15 to 20)
#    0.000    3.000    0.000    3.429    0.000    5.143 
#    0.000    1.429    0.000    3.000    0.000    1.000 
#    0.000    4.571    0.000    0.000    0.000    0.000 
#
# Total GULP energy -155934.969325 kJ/mol
# GULP energy per Si atom -5569.106047 kJ/mol
# Density = 1.707080 g / cm^3
# Si number density = 17.109738 Si / 1000 Ang^3
#
#
#
# Elastic Constant Matrix: (Units=GPa)
#
#
# Indices 1 2 3 4 5 6 
#
# 1 76.7587 23.7360 88.3944 0.0000 0.0000 0.0000
# 2 23.7360 20.7519 50.4223 0.0000 0.0000 0.0000
# 3 88.3944 50.4223 223.1102 0.0000 0.0000 0.0000
# 4 0.0000 0.0000 0.0000 -8.7732 0.0000 0.0000
# 5 0.0000 0.0000 0.0000 0.0000 29.9019 0.0000
# 6 0.0000 0.0000 0.0000 0.0000 0.0000 10.5430
#
#
#
# Elastic Compliance Matrix: (Units=1/GPa)
#
#
# Indices 1 2 3 4 5 6 
#
# 1 0.024859 -0.009987 -0.007592 0.000000 0.000000 0.000000
# 2 -0.009987 0.110889 -0.021104 0.000000 0.000000 0.000000
# 3 -0.007592 -0.021104 0.012259 0.000000 0.000000 0.000000
# 4 0.000000 0.000000 0.000000 -0.113983 0.000000 0.000000
# 5 0.000000 0.000000 0.000000 0.000000 0.033443 0.000000
# 6 0.000000 0.000000 0.000000 0.000000 0.000000 0.094850
#
#
# Mechanical properties :
#
#
# Convention : Reuss Voigt Hill
#
# Bulk Modulus (GPa) = 14.15593 71.74735 42.95164
# Shear Modulus (GPa) = 18.99486 16.87222 17.93354
#
# Velocity S-wave (km/s) = 3.33555 3.14366 3.24102
# Velocity P-wave (km/s) = 4.80896 7.42977 6.25810
#
# Compressibility (1/GPa) = 0.07064175
#
# Stress axis : x y z
#
# Youngs Moduli (GPa) = 40.22737 9.01800 81.57082
#
# Poissons Ratio (x) = 0.09006 0.61926
# Poissons Ratio (y) = 0.40176 1.72146
# Poissons Ratio (z) = 0.30540 0.19031
#
# Static dielectric constant tensor:
#      x y z
#    x 1.575860 0.000000 0.000000 
#    y 0.000000 1.563030 0.000000 
#    z 0.000000 0.000000 1.594740 
# 
# From -- ./inp_files/18199.got.cif
#   From: 2010.05.17/outbox.cif.g08.bks.cpg/sg35_10_cif.got.tgz:18199.got - 2010.06.03 17:29:28.
