data_PCOD9348687
_publ_section_title
;
Structure prediction by ZEFSAII (Michael W. Deem and Ramdas Pophale) SiO2 
 PCOD9348687
Probable space group: C M M 2
;
_chemical_formula_sum "Si O2"
_cell_formula_units_Z 56
_cell_length_a 22.521776
_cell_length_b 13.797312
_cell_length_c 9.498106
_cell_angle_alpha 90.000000
_cell_angle_beta 90.000000
_cell_angle_gamma 90.000000
_cell_volume 2951.441176
_symmetry_space_group_name_H-M "C M M 2"
_symmetry_group_IT_number 35
_symmetry_cell_setting 'orthorhombic'
loop_
_space_group_symop_operation_xyz
x,y,z
-x,-y,z
-x,y,z
x,-y,z
1/2+x,1/2+y,z
1/2-x,1/2-y,z
1/2-x,1/2+y,z
1/2+x,1/2-y,z
loop_
_atom_site_type_symbol
_atom_site_label
_atom_site_fract_x
_atom_site_fract_y
_atom_site_fract_z
Si Si1 0.563613 0.728088 0.373340
Si Si2 0.431782 0.109891 0.003152
Si Si3 0.717748 0.616926 0.317929
Si Si4 0.395033 0.613276 0.129119
Si Si5 0.929302 0.803190 0.833971
Si Si6 0.352802 0.886174 0.281480
Si Si7 0.137033 0.113711 0.571445
O O1 0.500000 0.763707 0.418417
O O2 0.563622 0.685869 0.216080
O O3 0.609814 0.815604 0.381192
O O4 0.583754 0.635887 0.463200
O O5 0.500000 0.117972 0.058748
O O6 0.424481 0.192309 0.886528
O O7 0.425353 0.000000 0.948400
O O8 0.384451 0.121647 0.129017
O O9 0.718913 0.500000 0.321887
O O10 0.669816 0.639143 0.195215
O O11 0.784506 0.647592 0.283982
O O12 0.692964 0.645018 0.473102
O O13 0.405725 0.500000 0.158519
O O14 0.406961 0.633594 0.966650
O O15 0.884602 0.827553 0.707130
O O16 0.000000 0.822649 0.804334
O O17 0.355519 0.000000 0.320862
O O18 0.142521 0.000000 0.604503
#
# Coordination Sequence:
#
# PCOD9348687 Si02
#       7
#     8   8   8   8   8   8   8
#     4  11  21  34  54  83 115 148 193 241 291 349
#     4   9  18  34  57  88 124 154 187 241 299 344
#     4   8  18  37  59  81 110 151 196 240 288 341
#     4  10  20  33  52  81 115 147 191 244 284 331
#     4  11  21  35  56  87 119 153 194 231 284 355
#     4  10  19  35  62  86 111 147 191 243 295 342
#     4  10  22  38  56  81 117 157 192 232 285 345
#
# _framework density 18.973782
#
# number of rings (size 3 to 8) (size 9 to 14) (size 15 to 20)
#    0.000    2.143    1.429    3.000    0.000    6.571 
#    0.000    0.714    6.286    1.714    0.000    1.000 
#    0.000    0.000    0.000    0.000    0.000    0.000 
#
# Total GULP energy -155989.340804 kJ/mol
# GULP energy per Si atom -5571.047886 kJ/mol
# Density = 1.893060 g / cm^3
# Si number density = 18.973782 Si / 1000 Ang^3
#
#
#
# Elastic Constant Matrix: (Units=GPa)
#
#
# Indices 1 2 3 4 5 6 
#
# 1 139.1726 38.6392 29.7030 0.0000 0.0000 0.0000
# 2 38.6392 99.8377 14.3882 0.0000 0.0000 0.0000
# 3 29.7030 14.3882 72.0170 0.0000 0.0000 0.0000
# 4 0.0000 0.0000 0.0000 26.0776 0.0000 0.0000
# 5 0.0000 0.0000 0.0000 0.0000 15.2335 0.0000
# 6 0.0000 0.0000 0.0000 0.0000 0.0000 24.6435
#
#
#
# Elastic Compliance Matrix: (Units=1/GPa)
#
#
# Indices 1 2 3 4 5 6 
#
# 1 0.008629 -0.002910 -0.002977 0.000000 0.000000 0.000000
# 2 -0.002910 0.011295 -0.001056 0.000000 0.000000 0.000000
# 3 -0.002977 -0.001056 0.015325 0.000000 0.000000 0.000000
# 4 0.000000 0.000000 0.000000 0.038347 0.000000 0.000000
# 5 0.000000 0.000000 0.000000 0.000000 0.065645 0.000000
# 6 0.000000 0.000000 0.000000 0.000000 0.000000 0.040579
#
#
# Mechanical properties :
#
#
# Convention : Reuss Voigt Hill
#
# Bulk Modulus (GPa) = 46.81602 52.94314 49.87958
# Shear Modulus (GPa) = 24.89702 28.41070 26.65386
#
# Velocity S-wave (km/s) = 3.62633 3.87378 3.75210
# Velocity P-wave (km/s) = 6.50087 6.92619 6.71690
#
# Compressibility (1/GPa) = 0.02136021
#
# Stress axis : x y z
#
# Youngs Moduli (GPa) = 115.89063 88.53577 65.25432
#
# Poissons Ratio (x) = 0.25768 0.19429
# Poissons Ratio (y) = 0.33729 0.06892
# Poissons Ratio (z) = 0.34506 0.09351
#
# Static dielectric constant tensor:
#      x y z
#    x 1.729530 0.000000 0.000000 
#    y 0.000000 1.700540 0.000000 
#    z 0.000000 0.000000 1.680670 
# 
# From -- ./inp_files/7642.got.cif
#   From: 2010.05.17/outbox.cif.g08.bks.cpg/sg35_4_cif.got.tgz:7642.got - 2010.06.03 17:29:28.
