data_PCOD9348674
_publ_section_title
;
Structure prediction by ZEFSAII (Michael W. Deem and Ramdas Pophale) SiO2 
 PCOD9348674
Probable space group: C M M 2
;
_chemical_formula_sum "Si O2"
_cell_formula_units_Z 48
_cell_length_a 15.945927
_cell_length_b 8.260269
_cell_length_c 17.982482
_cell_angle_alpha 90.000000
_cell_angle_beta 90.000000
_cell_angle_gamma 90.000000
_cell_volume 2368.610207
_symmetry_space_group_name_H-M "C M M 2"
_symmetry_group_IT_number 35
_symmetry_cell_setting 'orthorhombic'
loop_
_space_group_symop_operation_xyz
x,y,z
-x,-y,z
-x,y,z
x,-y,z
1/2+x,1/2+y,z
1/2-x,1/2-y,z
1/2-x,1/2+y,z
1/2+x,1/2-y,z
loop_
_atom_site_type_symbol
_atom_site_label
_atom_site_fract_x
_atom_site_fract_y
_atom_site_fract_z
Si Si1 0.000000 0.198255 0.486521
Si Si2 0.347082 0.694234 0.918124
Si Si3 0.153510 0.804026 0.078720
Si Si4 0.161129 0.804783 0.392840
Si Si5 0.904263 0.803814 0.238739
Si Si6 0.153000 0.308809 0.757390
Si Si7 0.500000 0.693268 0.656664
O O1 0.082871 0.250173 0.442166
O O2 0.000000 0.253335 0.571646
O O3 0.000000 0.000000 0.486243
O O4 0.350743 0.500000 0.914624
O O5 0.250000 0.750000 0.920060
O O6 0.379146 0.760573 0.840075
O O7 0.383361 0.747334 0.998376
O O8 0.250000 0.750000 0.080305
O O9 0.114432 0.743254 0.155743
O O10 0.149235 0.000000 0.079135
O O11 0.250000 0.750000 0.423469
O O12 0.150844 0.744407 0.307614
O O13 0.158572 0.000000 0.390710
O O14 0.000000 0.768869 0.258279
O O15 0.895613 0.000000 0.235634
O O16 0.156162 0.500000 0.752818
O O17 0.250000 0.250000 0.748086
O O18 0.084687 0.245824 0.699023
O O19 0.500000 0.500000 0.654947
#
# Coordination Sequence:
#
# PCOD9348674 Si02
#       7
#     4   8   8   8   8   8   4
#     4   9  20  39  61  84 113 146 182 225 279 343
#     4   9  16  29  49  76 108 146 189 236 283 331
#     4   9  17  28  46  74 104 140 187 231 274 321
#     4  10  19  35  59  85 111 147 187 227 275 331
#     4   9  16  29  50  74 106 146 188 229 268 322
#     4  11  22  39  62  88 118 154 195 239 291 350
#     4  11  23  41  63  88 117 150 190 239 293 353
#
# _framework density 20.265048
#
# number of rings (size 3 to 8) (size 9 to 14) (size 15 to 20)
#    0.000    2.333    0.833    3.750    0.000    1.333 
#    1.500    3.750    0.000    1.500    0.000    0.000 
#    0.000    0.000    0.000    0.000    0.000    0.000 
#
# Total GULP energy -133827.969198 kJ/mol
# GULP energy per Si atom -5576.165383 kJ/mol
# Density = 2.021892 g / cm^3
# Si number density = 20.265048 Si / 1000 Ang^3
#
#
#
# Elastic Constant Matrix: (Units=GPa)
#
#
# Indices 1 2 3 4 5 6 
#
# 1 111.4163 11.8109 81.9107 0.0000 0.0000 0.0000
# 2 11.8109 41.1089 27.0666 0.0000 0.0000 0.0000
# 3 81.9107 27.0666 178.4368 0.0000 0.0000 0.0000
# 4 0.0000 0.0000 0.0000 -4.2171 0.0000 0.0000
# 5 0.0000 0.0000 0.0000 0.0000 32.1248 0.0000
# 6 0.0000 0.0000 0.0000 0.0000 0.0000 24.4012
#
#
#
# Elastic Compliance Matrix: (Units=1/GPa)
#
#
# Indices 1 2 3 4 5 6 
#
# 1 0.013549 0.000225 -0.006254 0.000000 0.000000 0.000000
# 2 0.000225 0.027028 -0.004203 0.000000 0.000000 0.000000
# 3 -0.006254 -0.004203 0.009113 0.000000 0.000000 0.000000
# 4 0.000000 0.000000 0.000000 -0.237129 0.000000 0.000000
# 5 0.000000 0.000000 0.000000 0.000000 0.031129 0.000000
# 6 0.000000 0.000000 0.000000 0.000000 0.000000 0.040982
#
#
# Mechanical properties :
#
#
# Convention : Reuss Voigt Hill
#
# Bulk Modulus (GPa) = 34.21609 63.61539 48.91574
# Shear Modulus (GPa) = -58.73892 24.47336 -17.13278
#
# Velocity S-wave (km/s) = -5.38964 3.47892 -2.91079
# Velocity P-wave (km/s) = 4.67013 6.89906 3.59074
#
# Compressibility (1/GPa) = 0.02922602
#
# Stress axis : x y z
#
# Youngs Moduli (GPa) = 73.80530 36.99811 109.73873
#
# Poissons Ratio (x) = -0.00832 0.68628
# Poissons Ratio (y) = -0.01659 0.46124
# Poissons Ratio (z) = 0.46156 0.15551
#
# Static dielectric constant tensor:
#      x y z
#    x 1.605830 0.000000 0.000000 
#    y 0.000000 1.714480 0.000000 
#    z 0.000000 0.000000 1.766460 
# 
# From -- ./inp_files/17930.got.cif
#   From: 2010.05.17/outbox.cif.g08.bks.cpg/sg35_9_cif.got.tgz:17930.got - 2010.06.03 17:29:28.
