data_PCOD9348909
_publ_section_title
;
Structure prediction by ZEFSAII (Michael W. Deem and Ramdas Pophale) SiO2 
 PCOD9348909
Probable space group: C M M 2
;
_chemical_formula_sum "Si O2"
_cell_formula_units_Z 64
_cell_length_a 14.382981
_cell_length_b 17.662035
_cell_length_c 15.899481
_cell_angle_alpha 90.000000
_cell_angle_beta 90.000000
_cell_angle_gamma 90.000000
_cell_volume 4038.988307
_symmetry_space_group_name_H-M "C M M 2"
_symmetry_group_IT_number 35
_symmetry_cell_setting 'orthorhombic'
loop_
_space_group_symop_operation_xyz
x,y,z
-x,-y,z
-x,y,z
x,-y,z
1/2+x,1/2+y,z
1/2-x,1/2-y,z
1/2-x,1/2+y,z
1/2+x,1/2-y,z
loop_
_atom_site_type_symbol
_atom_site_label
_atom_site_fract_x
_atom_site_fract_y
_atom_site_fract_z
Si Si1 0.896267 0.911064 0.628010
Si Si2 0.605941 0.680564 0.453553
Si Si3 0.732293 0.912257 0.378023
Si Si4 0.218828 0.662937 0.697055
Si Si5 0.611319 0.090890 0.851293
Si Si6 0.393072 0.092337 0.219789
Si Si7 0.612889 0.912115 0.036574
Si Si8 0.889652 0.649875 0.521112
O O1 0.887427 0.865650 0.541002
O O2 0.812833 0.885238 0.686574
O O3 0.000000 0.895083 0.662154
O O4 0.889625 0.000000 0.610449
O O5 0.500000 0.674118 0.422248
O O6 0.681287 0.643069 0.393369
O O7 0.623603 0.767401 0.478646
O O8 0.672875 0.887961 0.296876
O O9 0.665268 0.905932 0.459405
O O10 0.761529 0.000000 0.368452
O O11 0.250000 0.750000 0.701888
O O12 0.162733 0.634884 0.777722
O O13 0.156704 0.651352 0.613031
O O14 0.500000 0.100656 0.843704
O O15 0.628624 0.000000 0.845236
O O16 0.640337 0.118442 0.945108
O O17 0.500000 0.116558 0.234688
O O18 0.360095 0.120194 0.127652
O O19 0.395017 0.000000 0.216026
O O20 0.500000 0.912036 0.037787
O O21 0.642355 0.000000 0.035986
O O22 0.000000 0.634544 0.526093
#
# Coordination Sequence:
#
# PCOD9348909 Si02
#       8
#     8   8   8   8   8   8   8   8
#     4  10  20  34  50  65  83 116 165 208 230 254
#     4  10  20  35  49  61  85 127 170 198 222 259
#     4  11  20  30  47  74  99 119 150 195 240 276
#     4  12  21  32  48  68  95 128 156 190 234 282
#     4   9  18  31  49  74  99 121 150 189 234 283
#     4   8  14  25  43  69  99 124 147 181 230 284
#     4   7  11  24  45  67  93 123 150 180 222 276
#     4  11  22  35  48  63  93 130 160 186 226 285
#
# _framework density 15.845552
#
# number of rings (size 3 to 8) (size 9 to 14) (size 15 to 20)
#    0.000    2.250    2.500    3.375    0.000    2.500 
#    0.000    0.000    0.000    1.500    0.000    0.875 
#    0.000    3.000    0.000    0.000    0.000    0.000 
#
# Total GULP energy -178314.685531 kJ/mol
# GULP energy per Si atom -5572.333923 kJ/mol
# Density = 1.580949 g / cm^3
# Si number density = 15.845552 Si / 1000 Ang^3
#
#
#
# Elastic Constant Matrix: (Units=GPa)
#
#
# Indices 1 2 3 4 5 6 
#
# 1 69.1792 10.3004 42.7730 0.0000 0.0000 0.0000
# 2 10.3004 23.2515 9.6111 0.0000 0.0000 0.0000
# 3 42.7730 9.6111 123.1122 0.0000 0.0000 0.0000
# 4 0.0000 0.0000 0.0000 8.3228 0.0000 0.0000
# 5 0.0000 0.0000 0.0000 0.0000 24.5564 0.0000
# 6 0.0000 0.0000 0.0000 0.0000 0.0000 17.8223
#
#
#
# Elastic Compliance Matrix: (Units=1/GPa)
#
#
# Indices 1 2 3 4 5 6 
#
# 1 0.019170 -0.005931 -0.006197 0.000000 0.000000 0.000000
# 2 -0.005931 0.046277 -0.001552 0.000000 0.000000 0.000000
# 3 -0.006197 -0.001552 0.010397 0.000000 0.000000 0.000000
# 4 0.000000 0.000000 0.000000 0.120151 0.000000 0.000000
# 5 0.000000 0.000000 0.000000 0.000000 0.040723 0.000000
# 6 0.000000 0.000000 0.000000 0.000000 0.000000 0.056110
#
#
# Mechanical properties :
#
#
# Convention : Reuss Voigt Hill
#
# Bulk Modulus (GPa) = 20.62557 37.87912 29.25234
# Shear Modulus (GPa) = 14.86552 20.33086 17.59819
#
# Velocity S-wave (km/s) = 3.06625 3.58587 3.33619
# Velocity P-wave (km/s) = 5.05774 6.41107 5.77419
#
# Compressibility (1/GPa) = 0.04848352
#
# Stress axis : x y z
#
# Youngs Moduli (GPa) = 52.16494 21.60907 96.18189
#
# Poissons Ratio (x) = 0.12816 0.59606
# Poissons Ratio (y) = 0.30937 0.14930
# Poissons Ratio (z) = 0.32328 0.03354
#
# Static dielectric constant tensor:
#      x y z
#    x 1.535100 0.000000 0.000000 
#    y 0.000000 1.542530 0.000000 
#    z 0.000000 0.000000 1.541290 
# 
# From -- ./inp_files/16882.got.cif
#   From: 2010.05.17/outbox.cif.g08.bks.cpg/sg35_9_cif.got.tgz:16882.got - 2010.06.03 17:29:28.
