data_PCOD9348949
_publ_section_title
;
Structure prediction by ZEFSAII (Michael W. Deem and Ramdas Pophale) SiO2 
 PCOD9348949
Probable space group: C M M 2
;
_chemical_formula_sum "Si O2"
_cell_formula_units_Z 52
_cell_length_a 21.671365
_cell_length_b 11.957857
_cell_length_c 9.789249
_cell_angle_alpha 90.000000
_cell_angle_beta 90.000000
_cell_angle_gamma 90.000000
_cell_volume 2536.816173
_symmetry_space_group_name_H-M "C M M 2"
_symmetry_group_IT_number 35
_symmetry_cell_setting 'orthorhombic'
loop_
_space_group_symop_operation_xyz
x,y,z
-x,-y,z
-x,y,z
x,-y,z
1/2+x,1/2+y,z
1/2-x,1/2-y,z
1/2-x,1/2+y,z
1/2+x,1/2-y,z
loop_
_atom_site_type_symbol
_atom_site_label
_atom_site_fract_x
_atom_site_fract_y
_atom_site_fract_z
Si Si1 0.750000 0.750000 0.809830
Si Si2 0.869510 0.366234 0.912538
Si Si3 0.257627 0.127008 0.553377
Si Si4 0.925452 0.786430 0.122151
Si Si5 0.569544 0.684898 0.425722
Si Si6 0.076263 0.000000 0.630617
Si Si7 0.403738 0.125192 0.620703
Si Si8 0.074982 0.000000 0.943109
O O1 0.804393 0.696033 0.895911
O O2 0.772634 0.845147 0.701477
O O3 0.862032 0.500000 0.906126
O O4 0.901394 0.324699 0.049608
O O5 0.908830 0.332212 0.776772
O O6 0.250000 0.250000 0.478127
O O7 0.330614 0.122789 0.587815
O O8 0.241339 0.000000 0.504220
O O9 0.000000 0.782071 0.126334
O O10 0.906244 0.889879 0.026298
O O11 0.901862 0.805089 0.276371
O O12 0.500000 0.641963 0.402179
O O13 0.598055 0.604095 0.539111
O O14 0.567228 0.801425 0.503381
O O15 0.096302 0.000000 0.786871
O O16 0.000000 0.000000 0.637344
O O17 0.427514 0.000000 0.617706
O O18 0.000000 0.000000 0.942227
#
# Coordination Sequence:
#
# PCOD9348949 Si02
#       8
#     4   8   8   8   8   4   8   4
#     4   8  16  32  54  74 108 142 188 236 290 346
#     4  10  20  36  57  82 113 148 189 243 290 340
#     4   8  15  30  52  77 106 136 177 235 292 340
#     4  10  21  36  54  81 118 155 189 230 286 348
#     4  10  20  34  52  77 113 153 187 224 278 343
#     4   9  17  31  53  75 105 143 185 233 273 317
#     4   9  18  33  52  77 106 139 182 234 280 323
#     4   9  17  33  55  81 111 145 189 233 276 329
#
# _framework density 20.498135000000001
#
# number of rings (size 3 to 8) (size 9 to 14) (size 15 to 20)
#    0.462    2.308    0.000    2.769    0.000    4.923 
#    4.154    3.077    1.692    0.000    0.000    0.000 
#    0.000    0.000    0.000    0.000    0.000    0.000 
#
# Total GULP energy -144757.230945 kJ/mol
# GULP energy per Si atom -5567.585806 kJ/mol
# Density = 2.045148 g / cm^3
# Si number density = 20.498135 Si / 1000 Ang^3
#
#
#
# Elastic Constant Matrix: (Units=GPa)
#
#
# Indices 1 2 3 4 5 6 
#
# 1 39.6169 19.0537 20.8981 0.0000 0.0000 0.0000
# 2 19.0537 108.6008 56.0434 0.0000 0.0000 0.0000
# 3 20.8981 56.0434 161.2556 0.0000 0.0000 0.0000
# 4 0.0000 0.0000 0.0000 11.3596 0.0000 0.0000
# 5 0.0000 0.0000 0.0000 0.0000 11.3801 0.0000
# 6 0.0000 0.0000 0.0000 0.0000 0.0000 1.4070
#
#
#
# Elastic Compliance Matrix: (Units=1/GPa)
#
#
# Indices 1 2 3 4 5 6 
#
# 1 0.028290 -0.003743 -0.002366 0.000000 0.000000 0.000000
# 2 -0.003743 0.011716 -0.003587 0.000000 0.000000 0.000000
# 3 -0.002366 -0.003587 0.007754 0.000000 0.000000 0.000000
# 4 0.000000 0.000000 0.000000 0.088031 0.000000 0.000000
# 5 0.000000 0.000000 0.000000 0.000000 0.087873 0.000000
# 6 0.000000 0.000000 0.000000 0.000000 0.000000 0.710755
#
#
# Mechanical properties :
#
#
# Convention : Reuss Voigt Hill
#
# Bulk Modulus (GPa) = 35.24846 55.71818 45.48332
# Shear Modulus (GPa) = 5.19068 19.06120 12.12594
#
# Velocity S-wave (km/s) = 1.59304 3.05273 2.43485
# Velocity P-wave (km/s) = 4.54059 6.29815 5.49016
#
# Compressibility (1/GPa) = 0.02837003
#
# Stress axis : x y z
#
# Youngs Moduli (GPa) = 35.34872 85.35668 128.95885
#
# Poissons Ratio (x) = 0.31946 0.30505
# Poissons Ratio (y) = 0.13230 0.46253
# Poissons Ratio (z) = 0.08362 0.30614
#
# Static dielectric constant tensor:
#      x y z
#    x 1.800150 0.000000 0.000000 
#    y 0.000000 1.787610 0.000000 
#    z 0.000000 0.000000 1.711570 
# 
# From -- ./inp_files/10199.got.cif
#   From: 2010.05.17/outbox.cif.g08.bks.cpg/sg35_6_cif.got.tgz:10199.got - 2010.06.03 17:29:28.
