data_PCOD9348137
_publ_section_title
;
Structure prediction by ZEFSAII (Michael W. Deem and Ramdas Pophale) SiO2 
 PCOD9348137
Probable space group: C M M 2
;
_chemical_formula_sum "Si O2"
_cell_formula_units_Z 56
_cell_length_a 9.231501
_cell_length_b 22.279608
_cell_length_c 14.772830
_cell_angle_alpha 90.000000
_cell_angle_beta 90.000000
_cell_angle_gamma 90.000000
_cell_volume 3038.390340
_symmetry_space_group_name_H-M "C M M 2"
_symmetry_group_IT_number 35
_symmetry_cell_setting 'orthorhombic'
loop_
_space_group_symop_operation_xyz
x,y,z
-x,-y,z
-x,y,z
x,-y,z
1/2+x,1/2+y,z
1/2-x,1/2-y,z
1/2-x,1/2+y,z
1/2+x,1/2-y,z
loop_
_atom_site_type_symbol
_atom_site_label
_atom_site_fract_x
_atom_site_fract_y
_atom_site_fract_z
Si Si1 0.831885 0.000000 0.354481
Si Si2 0.828321 0.118267 0.136206
Si Si3 0.673015 0.310643 0.314052
Si Si4 0.328129 0.000000 0.163175
Si Si5 0.330427 0.070487 0.653497
Si Si6 0.174886 0.931494 0.846028
Si Si7 0.671387 0.616150 0.481787
Si Si8 0.326976 0.312413 0.959814
O O1 0.811761 0.942733 0.418835
O O2 0.731082 0.000000 0.266800
O O3 0.000000 0.000000 0.322305
O O4 0.795532 0.139993 0.237663
O O5 0.737266 0.059127 0.117208
O O6 0.000000 0.104455 0.129646
O O7 0.797863 0.170690 0.064572
O O8 0.500000 0.303465 0.314530
O O9 0.750000 0.250000 0.287680
O O10 0.718048 0.331019 0.414264
O O11 0.500000 0.000000 0.161841
O O12 0.500000 0.083942 0.665487
O O13 0.245380 0.077301 0.747457
O O14 0.260700 0.108595 0.572935
O O15 0.317367 0.000000 0.627702
O O16 0.215968 0.873523 0.906206
O O17 0.000000 0.931045 0.839720
O O18 0.215320 0.000000 0.876946
O O19 0.500000 0.621698 0.502367
O O20 0.500000 0.304968 0.948347
O O21 0.250000 0.250000 0.934425
#
# Coordination Sequence:
#
# PCOD9348137 Si02
#       8
#     4   8   8   4   8   8   8   8
#     4  10  18  34  56  77 108 147 184 221 272 334
#     4  10  21  39  60  81 113 155 193 230 281 349
#     4  10  21  36  54  77 107 149 193 232 278 329
#     4  12  24  34  52  87 120 149 188 241 292 328
#     4  10  20  33  53  84 116 145 177 228 293 340
#     4   9  19  37  60  87 114 148 194 237 284 350
#     4  10  19  33  55  80 107 146 187 224 270 331
#     4  10  22  39  64  90 115 152 195 242 293 347
#
# _framework density 18.430812
#
# number of rings (size 3 to 8) (size 9 to 14) (size 15 to 20)
#    0.000    2.000    2.143    1.500    1.000    3.429 
#    0.000    0.714    0.000    0.000    0.000    0.000 
#    0.000    0.000    0.000    0.000    0.000    0.000 
#
# Total GULP energy -156212.437852 kJ/mol
# GULP energy per Si atom -5579.015638 kJ/mol
# Density = 1.838886 g / cm^3
# Si number density = 18.430812 Si / 1000 Ang^3
#
#
#
# Elastic Constant Matrix: (Units=GPa)
#
#
# Indices 1 2 3 4 5 6 
#
# 1 31.3069 47.2378 27.4672 0.0000 0.0000 0.0000
# 2 47.2378 114.2825 38.6615 0.0000 0.0000 0.0000
# 3 27.4672 38.6615 77.4354 0.0000 0.0000 0.0000
# 4 0.0000 0.0000 0.0000 23.1741 0.0000 0.0000
# 5 0.0000 0.0000 0.0000 0.0000 16.4482 0.0000
# 6 0.0000 0.0000 0.0000 0.0000 0.0000 30.3878
#
#
#
# Elastic Compliance Matrix: (Units=1/GPa)
#
#
# Indices 1 2 3 4 5 6 
#
# 1 0.102761 -0.036271 -0.018342 0.000000 0.000000 0.000000
# 2 -0.036271 0.023331 0.001217 0.000000 0.000000 0.000000
# 3 -0.018342 0.001217 0.018812 0.000000 0.000000 0.000000
# 4 0.000000 0.000000 0.000000 0.043152 0.000000 0.000000
# 5 0.000000 0.000000 0.000000 0.000000 0.060797 0.000000
# 6 0.000000 0.000000 0.000000 0.000000 0.000000 0.032908
#
#
# Mechanical properties :
#
#
# Convention : Reuss Voigt Hill
#
# Bulk Modulus (GPa) = 26.23696 49.97308 38.10502
# Shear Modulus (GPa) = 12.46089 21.31259 16.88674
#
# Velocity S-wave (km/s) = 2.60299 3.40421 3.03020
# Velocity P-wave (km/s) = 4.82705 6.52873 5.74128
#
# Compressibility (1/GPa) = 0.03811417
#
# Stress axis : x y z
#
# Youngs Moduli (GPa) = 9.73128 42.86195 53.15704
#
# Poissons Ratio (x) = 1.55464 0.97498
# Poissons Ratio (y) = 0.35296 -0.06470
# Poissons Ratio (z) = 0.17849 -0.05217
#
# Static dielectric constant tensor:
#      x y z
#    x 1.609350 0.000000 0.000000 
#    y 0.000000 1.634220 0.000000 
#    z 0.000000 0.000000 1.623290 
# 
# From -- ./inp_files/15726.got.cif
#   From: 2010.05.17/outbox.cif.g08.bks.cpg/sg35_8_cif.got.tgz:15726.got - 2010.06.03 17:29:28.
