data_PCOD9348361
_publ_section_title
;
Structure prediction by ZEFSAII (Michael W. Deem and Ramdas Pophale) SiO2 
 PCOD9348361
Probable space group: C M M 2
;
_chemical_formula_sum "Si O2"
_cell_formula_units_Z 64
_cell_length_a 8.231256
_cell_length_b 29.022646
_cell_length_c 13.468180
_cell_angle_alpha 90.000000
_cell_angle_beta 90.000000
_cell_angle_gamma 90.000000
_cell_volume 3217.451622
_symmetry_space_group_name_H-M "C M M 2"
_symmetry_group_IT_number 35
_symmetry_cell_setting 'orthorhombic'
loop_
_space_group_symop_operation_xyz
x,y,z
-x,-y,z
-x,y,z
x,-y,z
1/2+x,1/2+y,z
1/2-x,1/2-y,z
1/2-x,1/2+y,z
1/2+x,1/2-y,z
loop_
_atom_site_type_symbol
_atom_site_label
_atom_site_fract_x
_atom_site_fract_y
_atom_site_fract_z
Si Si1 0.185522 0.443964 0.490650
Si Si2 0.803046 0.144906 0.785409
Si Si3 0.193944 0.697004 0.375089
Si Si4 0.193068 0.948368 0.705481
Si Si5 0.694012 0.303006 0.587747
Si Si6 0.698573 0.143970 0.177987
Si Si7 0.194211 0.697189 0.982414
Si Si8 0.198728 0.552435 0.271301
O O1 0.180624 0.500000 0.486989
O O2 0.278824 0.432829 0.591334
O O3 0.251330 0.431519 0.381921
O O4 0.000000 0.427191 0.499679
O O5 0.744861 0.092024 0.776541
O O6 0.746339 0.170608 0.685228
O O7 0.748160 0.171604 0.882586
O O8 0.000000 0.144842 0.784156
O O9 0.250000 0.750000 0.369883
O O10 0.249117 0.677625 0.481602
O O11 0.252425 0.670518 0.277462
O O12 0.000000 0.695972 0.374430
O O13 0.000000 0.951512 0.719876
O O14 0.262514 0.000000 0.718295
O O15 0.500000 0.303883 0.588006
O O16 0.750000 0.250000 0.593172
O O17 0.500000 0.144975 0.176937
O O18 0.747165 0.090723 0.191774
O O19 0.755903 0.169615 0.079291
O O20 0.250000 0.750000 0.983531
O O21 0.000000 0.697039 0.985800
O O22 0.252529 0.500000 0.252662
O O23 0.000000 0.551546 0.275707
#
# Coordination Sequence:
#
# PCOD9348361 Si02
#       8
#     8   8   8   8   8   8   8   8
#     4   8  14  25  45  74 105 139 179 220 258 303
#     4  10  22  38  56  79 108 142 184 226 270 324
#     4  10  19  32  51  75 106 138 169 210 261 320
#     4   9  18  33  52  75 108 148 183 218 266 321
#     4  10  20  34  51  74 105 136 170 215 266 322
#     4   9  19  33  51  78 107 138 178 218 263 319
#     4  11  23  40  61  82 106 137 180 231 279 328
#     4   8  14  27  48  75 109 144 176 214 262 314
#
# _framework density 19.891518999999999
#
# number of rings (size 3 to 8) (size 9 to 14) (size 15 to 20)
#    0.000    2.625    0.000    3.375    1.750    2.500 
#    0.000    2.500    0.000    2.250    0.000    0.000 
#    0.000    0.000    0.000    0.000    0.000    0.000 
#
# Total GULP energy -178540.451113 kJ/mol
# GULP energy per Si atom -5579.389097 kJ/mol
# Density = 1.984624 g / cm^3
# Si number density = 19.891519 Si / 1000 Ang^3
#
#
#
# Elastic Constant Matrix: (Units=GPa)
#
#
# Indices 1 2 3 4 5 6 
#
# 1 15.2053 10.5705 13.1910 0.0000 0.0000 0.0000
# 2 10.5705 144.8681 101.0103 0.0000 0.0000 0.0000
# 3 13.1910 101.0103 160.8033 0.0000 0.0000 0.0000
# 4 0.0000 0.0000 0.0000 38.7770 0.0000 0.0000
# 5 0.0000 0.0000 0.0000 0.0000 17.3198 0.0000
# 6 0.0000 0.0000 0.0000 0.0000 0.0000 5.6486
#
#
#
# Elastic Compliance Matrix: (Units=1/GPa)
#
#
# Indices 1 2 3 4 5 6 
#
# 1 0.071128 -0.001996 -0.004581 0.000000 0.000000 0.000000
# 2 -0.001996 0.012338 -0.007587 0.000000 0.000000 0.000000
# 3 -0.004581 -0.007587 0.011360 0.000000 0.000000 0.000000
# 4 0.000000 0.000000 0.000000 0.025789 0.000000 0.000000
# 5 0.000000 0.000000 0.000000 0.000000 0.057737 0.000000
# 6 0.000000 0.000000 0.000000 0.000000 0.000000 0.177036
#
#
# Mechanical properties :
#
#
# Convention : Reuss Voigt Hill
#
# Bulk Modulus (GPa) = 15.03769 63.38003 39.20886
# Shear Modulus (GPa) = 12.31883 25.42273 18.87078
#
# Velocity S-wave (km/s) = 2.49128 3.57889 3.08341
# Velocity P-wave (km/s) = 3.98140 7.00071 5.69480
#
# Compressibility (1/GPa) = 0.06649955
#
# Stress axis : x y z
#
# Youngs Moduli (GPa) = 14.05913 81.04787 88.02584
#
# Poissons Ratio (x) = 0.16175 0.40326
# Poissons Ratio (y) = 0.02806 0.66783
# Poissons Ratio (z) = 0.06441 0.61489
#
# Static dielectric constant tensor:
#      x y z
#    x 1.695640 0.000000 0.000000 
#    y 0.000000 1.743530 0.000000 
#    z 0.000000 0.000000 1.691090 
# 
# From -- ./inp_files/11913.got.cif
#   From: 2010.05.17/outbox.cif.g08.bks.cpg/sg35_6_cif.got.tgz:11913.got - 2010.06.03 17:29:28.
