data_PCOD9348396
_publ_section_title
;
Structure prediction by ZEFSAII (Michael W. Deem and Ramdas Pophale) SiO2 
 PCOD9348396
Probable space group: C M M 2
;
_chemical_formula_sum "Si O2"
_cell_formula_units_Z 48
_cell_length_a 17.377977
_cell_length_b 28.009678
_cell_length_c 4.931271
_cell_angle_alpha 90.000000
_cell_angle_beta 90.000000
_cell_angle_gamma 90.000000
_cell_volume 2400.303754
_symmetry_space_group_name_H-M "C M M 2"
_symmetry_group_IT_number 35
_symmetry_cell_setting 'orthorhombic'
loop_
_space_group_symop_operation_xyz
x,y,z
-x,-y,z
-x,y,z
x,-y,z
1/2+x,1/2+y,z
1/2-x,1/2-y,z
1/2-x,1/2+y,z
1/2+x,1/2-y,z
loop_
_atom_site_type_symbol
_atom_site_label
_atom_site_fract_x
_atom_site_fract_y
_atom_site_fract_z
Si Si1 0.587258 0.123939 0.828200
Si Si2 0.790830 0.894150 0.304467
Si Si3 0.769970 0.444614 0.799736
Si Si4 0.148957 0.674569 0.323608
Si Si5 0.911908 0.770870 0.109435
Si Si6 0.414141 0.662294 0.623144
O O1 0.500000 0.112230 0.759369
O O2 0.646427 0.080125 0.813703
O O3 0.618275 0.165952 0.627795
O O4 0.594915 0.142276 0.133803
O O5 0.755300 0.935315 0.492541
O O6 0.733696 0.848335 0.312144
O O7 0.866491 0.878019 0.465398
O O8 0.786478 0.914836 0.001482
O O9 0.770717 0.500000 0.868382
O O10 0.141086 0.726227 0.188217
O O11 0.919993 0.797935 0.391948
O O12 0.000000 0.755946 0.024892
O O13 0.882424 0.809116 0.886104
O O14 0.500000 0.645388 0.699786
#
# Coordination Sequence:
#
# PCOD9348396 Si02
#       6
#     8   8   8   8   8   8
#     4  10  19  32  52  78 110 146 182 219 261 309
#     4  10  21  38  56  78 108 141 179 224 277 329
#     4  10  21  37  58  80 104 139 179 224 280 334
#     4  10  20  33  51  77 111 150 183 215 257 307
#     4  10  19  32  52  78 108 142 181 217 254 308
#     4  10  21  36  56  80 106 141 179 221 272 319
#
# _framework density 19.997468000000001
#
# number of rings (size 3 to 8) (size 9 to 14) (size 15 to 20)
#    0.000    2.000    0.000    4.000    0.000    2.333 
#    0.000    1.667    0.000    9.000    0.000    0.000 
#    0.000    0.000    0.000    0.000    0.000    0.000 
#
# Total GULP energy -133769.814559 kJ/mol
# GULP energy per Si atom -5573.742273 kJ/mol
# Density = 1.995195 g / cm^3
# Si number density = 19.997468 Si / 1000 Ang^3
#
#
#
# Elastic Constant Matrix: (Units=GPa)
#
#
# Indices 1 2 3 4 5 6 
#
# 1 50.0551 19.7882 -2.6586 0.0000 0.0000 0.0000
# 2 19.7882 52.7038 -7.9432 0.0000 0.0000 0.0000
# 3 -2.6586 -7.9432 86.6946 0.0000 0.0000 0.0000
# 4 0.0000 0.0000 0.0000 26.0677 0.0000 0.0000
# 5 0.0000 0.0000 0.0000 0.0000 16.7333 0.0000
# 6 0.0000 0.0000 0.0000 0.0000 0.0000 -7.6068
#
#
#
# Elastic Compliance Matrix: (Units=1/GPa)
#
#
# Indices 1 2 3 4 5 6 
#
# 1 0.023461 -0.008822 -0.000089 0.000000 0.000000 0.000000
# 2 -0.008822 0.022557 0.001796 0.000000 0.000000 0.000000
# 3 -0.000089 0.001796 0.011697 0.000000 0.000000 0.000000
# 4 0.000000 0.000000 0.000000 0.038362 0.000000 0.000000
# 5 0.000000 0.000000 0.000000 0.000000 0.059761 0.000000
# 6 0.000000 0.000000 0.000000 0.000000 0.000000 -0.131462
#
#
# Mechanical properties :
#
#
# Convention : Reuss Voigt Hill
#
# Bulk Modulus (GPa) = 22.99636 23.09180 23.04408
# Shear Modulus (GPa) = 94.16194 19.05664 56.60929
#
# Velocity S-wave (km/s) = 6.86944 3.09034 5.32632
# Velocity P-wave (km/s) = 8.62806 4.93012 7.02672
#
# Compressibility (1/GPa) = 0.04348514
#
# Stress axis : x y z
#
# Youngs Moduli (GPa) = 42.62411 44.33207 85.49496
#
# Poissons Ratio (x) = 0.39110 0.00759
# Poissons Ratio (y) = 0.37603 -0.15357
# Poissons Ratio (z) = 0.00379 -0.07963
#
# Static dielectric constant tensor:
#      x y z
#    x 1.783730 0.000000 0.000000 
#    y 0.000000 1.698960 0.000000 
#    z 0.000000 0.000000 1.693030 
# 
# From -- ./inp_files/2555.got.cif
#   From: 2010.05.17/outbox.cif.g08.bks.cpg/sg35_2_cif.got.tgz:2555.got - 2010.06.03 17:29:28.
