data_PCOD9348088
_publ_section_title
;
Structure prediction by ZEFSAII (Michael W. Deem and Ramdas Pophale) SiO2 
 PCOD9348088
Probable space group: C M M 2
;
_chemical_formula_sum "Si O2"
_cell_formula_units_Z 56
_cell_length_a 8.912937
_cell_length_b 22.150412
_cell_length_c 14.602623
_cell_angle_alpha 90.000000
_cell_angle_beta 90.000000
_cell_angle_gamma 90.000000
_cell_volume 2882.926156
_symmetry_space_group_name_H-M "C M M 2"
_symmetry_group_IT_number 35
_symmetry_cell_setting 'orthorhombic'
loop_
_space_group_symop_operation_xyz
x,y,z
-x,-y,z
-x,y,z
x,-y,z
1/2+x,1/2+y,z
1/2-x,1/2-y,z
1/2-x,1/2+y,z
1/2+x,1/2-y,z
loop_
_atom_site_type_symbol
_atom_site_label
_atom_site_fract_x
_atom_site_fract_y
_atom_site_fract_z
Si Si1 0.678225 0.814308 0.386810
Si Si2 0.677479 0.879151 0.897806
Si Si3 0.177382 0.186388 0.739446
Si Si4 0.820964 0.930511 0.287433
Si Si5 0.675558 0.070412 0.091166
Si Si6 0.677513 0.122620 0.571417
Si Si7 0.322415 0.500000 0.581228
Si Si8 0.674933 0.000000 0.779215
O O1 0.500000 0.812371 0.370413
O O2 0.750000 0.750000 0.360161
O O3 0.745384 0.873978 0.338524
O O4 0.703611 0.826666 0.494959
O O5 0.500000 0.864226 0.892868
O O6 0.773223 0.831419 0.841543
O O7 0.698247 0.941795 0.842694
O O8 0.717884 0.889811 0.003422
O O9 0.250000 0.250000 0.716083
O O10 0.247197 0.139969 0.666961
O O11 0.000000 0.187621 0.730448
O O12 0.775814 0.922689 0.180752
O O13 0.000000 0.927538 0.299622
O O14 0.773229 0.000000 0.312482
O O15 0.500000 0.082390 0.113997
O O16 0.683286 0.000000 0.062484
O O17 0.500000 0.115003 0.583925
O O18 0.750399 0.060023 0.539606
O O19 0.500000 0.500000 0.570413
O O20 0.276630 0.500000 0.688983
O O21 0.500000 0.000000 0.748884
#
# Coordination Sequence:
#
# PCOD9348088 Si02
#       8
#     8   8   8   8   8   8   4   4
#     4  11  25  44  68  93 120 159 206 256 310 374
#     4  10  19  34  58  87 119 157 197 242 292 348
#     4  12  25  40  58  82 115 159 206 252 301 357
#     4  10  22  40  63  94 129 163 200 253 313 368
#     4   9  17  33  59  90 121 157 199 243 298 363
#     4  11  24  42  63  88 121 160 201 249 305 364
#     4  12  24  36  56  91 126 161 202 249 302 356
#     4  10  18  32  56  83 118 157 192 233 288 344
#
# _framework density 19.424707999999999
#
# number of rings (size 3 to 8) (size 9 to 14) (size 15 to 20)
#    0.000    1.429    2.143    3.643    1.000    4.857 
#    0.000    0.714    0.000    3.429    0.000    0.000 
#    0.000    0.000    0.000    0.000    0.000    0.000 
#
# Total GULP energy -156433.731134 kJ/mol
# GULP energy per Si atom -5586.918969 kJ/mol
# Density = 1.938050 g / cm^3
# Si number density = 19.424708 Si / 1000 Ang^3
#
#
#
# Elastic Constant Matrix: (Units=GPa)
#
#
# Indices 1 2 3 4 5 6 
#
# 1 92.1923 55.4571 38.0079 0.0000 0.0000 0.0000
# 2 55.4571 121.8554 37.8146 0.0000 0.0000 0.0000
# 3 38.0079 37.8146 72.0420 0.0000 0.0000 0.0000
# 4 0.0000 0.0000 0.0000 18.4988 0.0000 0.0000
# 5 0.0000 0.0000 0.0000 0.0000 17.3341 0.0000
# 6 0.0000 0.0000 0.0000 0.0000 0.0000 31.3305
#
#
#
# Elastic Compliance Matrix: (Units=1/GPa)
#
#
# Indices 1 2 3 4 5 6 
#
# 1 0.016728 -0.005823 -0.005769 0.000000 0.000000 0.000000
# 2 -0.005823 0.011830 -0.003138 0.000000 0.000000 0.000000
# 3 -0.005769 -0.003138 0.018571 0.000000 0.000000 0.000000
# 4 0.000000 0.000000 0.000000 0.054058 0.000000 0.000000
# 5 0.000000 0.000000 0.000000 0.000000 0.057690 0.000000
# 6 0.000000 0.000000 0.000000 0.000000 0.000000 0.031918
#
#
# Mechanical properties :
#
#
# Convention : Reuss Voigt Hill
#
# Bulk Modulus (GPa) = 56.59100 60.96098 58.77599
# Shear Modulus (GPa) = 22.10989 23.75335 22.93162
#
# Velocity S-wave (km/s) = 3.37743 3.50071 3.43962
# Velocity P-wave (km/s) = 6.66380 6.91313 6.78961
#
# Compressibility (1/GPa) = 0.01767065
#
# Stress axis : x y z
#
# Youngs Moduli (GPa) = 59.78079 84.53038 53.84657
#
# Poissons Ratio (x) = 0.49219 0.31064
# Poissons Ratio (y) = 0.34808 0.16895
# Poissons Ratio (z) = 0.34487 0.26523
#
# Static dielectric constant tensor:
#      x y z
#    x 1.649000 0.000000 0.000000 
#    y 0.000000 1.673110 0.000000 
#    z 0.000000 0.000000 1.672820 
# 
# From -- ./inp_files/15768.got.cif
#   From: 2010.05.17/outbox.cif.g08.bks.cpg/sg35_8_cif.got.tgz:15768.got - 2010.06.03 17:29:28.
