data_PCOD9348016
_publ_section_title
;
Structure prediction by ZEFSAII (Michael W. Deem and Ramdas Pophale) SiO2 
 PCOD9348016
Probable space group: P N N 2
;
_chemical_formula_sum "Si O2"
_cell_formula_units_Z 24
_cell_length_a 21.679635
_cell_length_b 9.265913
_cell_length_c 5.205936
_cell_angle_alpha 90.000000
_cell_angle_beta 90.000000
_cell_angle_gamma 90.000000
_cell_volume 1045.776815
_symmetry_space_group_name_H-M "P N N 2"
_symmetry_group_IT_number 34
_symmetry_cell_setting 'orthorhombic'
loop_
_space_group_symop_operation_xyz
x,y,z
-x,-y,z
1/2-x,1/2+y,1/2+z
1/2+x,1/2-y,1/2+z
loop_
_atom_site_type_symbol
_atom_site_label
_atom_site_fract_x
_atom_site_fract_y
_atom_site_fract_z
Si Si1 0.924497 0.992881 0.932610
Si Si2 0.288969 0.829286 0.921481
Si Si3 0.103712 0.680659 0.994153
Si Si4 0.410966 0.687512 0.938724
Si Si5 0.466780 0.143417 0.994542
Si Si6 0.769560 0.485346 0.922477
O O1 0.899594 0.904070 0.692593
O O2 0.894152 0.149956 0.931404
O O3 0.905777 0.909136 0.187904
O O4 0.000000 0.000000 0.923506
O O5 0.271962 0.659045 0.921018
O O6 0.264788 0.914299 0.171054
O O7 0.363883 0.821664 0.924412
O O8 0.264064 0.912304 0.671478
O O9 0.052236 0.628944 0.790405
O O10 0.087693 0.671817 0.294797
O O11 0.162750 0.586005 0.934130
O O12 0.482113 0.734299 0.960103
O O13 0.500000 0.000000 0.904401
#
# Coordination Sequence:
#
# PCOD9348016 Si02
#       6
#     4   4   4   4   4   4
#     4  12  23  42  66 107 138 189 227 284 352 430
#     4  12  29  51  77 106 143 188 246 298 363 423
#     4  12  25  41  69  97 143 173 237 283 351 423
#     4  12  24  42  69  99 146 176 238 287 354 423
#     4  12  23  40  65  98 133 184 217 293 355 423
#     4  12  28  51  74 108 139 190 242 300 358 431
#
# _framework density 22.949445999999998
#
# number of rings (size 3 to 8) (size 9 to 14) (size 15 to 20)
#    0.000    0.000    3.333    7.000    4.667    0.000 
#    0.000    0.000    0.000    0.000    0.000    0.000 
#    0.000    0.000    0.000    0.000    0.000    0.000 
#
# Total GULP energy -134399.305459 kJ/mol
# GULP energy per Si atom -5599.971061 kJ/mol
# Density = 2.289721 g / cm^3
# Si number density = 22.949446 Si / 1000 Ang^3
#
#
#
# Elastic Constant Matrix: (Units=GPa)
#
#
# Indices 1 2 3 4 5 6 
#
# 1 53.2504 19.0763 20.9744 0.0000 0.0000 0.0000
# 2 19.0763 105.5914 62.6596 0.0000 0.0000 0.0000
# 3 20.9744 62.6596 180.5514 0.0000 0.0000 0.0000
# 4 0.0000 0.0000 0.0000 43.0117 0.0000 0.0000
# 5 0.0000 0.0000 0.0000 0.0000 20.4518 0.0000
# 6 0.0000 0.0000 0.0000 0.0000 0.0000 54.0214
#
#
#
# Elastic Compliance Matrix: (Units=1/GPa)
#
#
# Indices 1 2 3 4 5 6 
#
# 1 0.020344 -0.002862 -0.001370 0.000000 0.000000 0.000000
# 2 -0.002862 0.012329 -0.003946 0.000000 0.000000 0.000000
# 3 -0.001370 -0.003946 0.007067 0.000000 0.000000 0.000000
# 4 0.000000 0.000000 0.000000 0.023249 0.000000 0.000000
# 5 0.000000 0.000000 0.000000 0.000000 0.048895 0.000000
# 6 0.000000 0.000000 0.000000 0.000000 0.000000 0.018511
#
#
# Mechanical properties :
#
#
# Convention : Reuss Voigt Hill
#
# Bulk Modulus (GPa) = 42.76531 60.53488 51.65009
# Shear Modulus (GPa) = 32.35218 39.27585 35.81401
#
# Velocity S-wave (km/s) = 3.75869 4.14140 3.95468
# Velocity P-wave (km/s) = 6.12471 7.02161 6.58844
#
# Compressibility (1/GPa) = 0.02338344
#
# Stress axis : x y z
#
# Youngs Moduli (GPa) = 49.15389 81.10671 141.49677
#
# Poissons Ratio (x) = 0.23217 0.19384
# Poissons Ratio (y) = 0.14070 0.55840
# Poissons Ratio (z) = 0.06734 0.32008
#
# Static dielectric constant tensor:
#      x y z
#    x 1.950450 0.000000 0.000000 
#    y 0.000000 1.838680 0.000000 
#    z 0.000000 0.000000 1.791760 
# 
# From -- ./inp_files/1661.got.cif
#   From: 2010.05.17/outbox.cif.g08.bks.cpg/sg34_1_cif.got.tgz:1661.got - 2010.06.03 17:23:11.
