data_PCOD9348107
_publ_section_title
;
Structure prediction by ZEFSAII (Michael W. Deem and Ramdas Pophale) SiO2 
 PCOD9348107
Probable space group: C M M 2
;
_chemical_formula_sum "Si O2"
_cell_formula_units_Z 48
_cell_length_a 16.863690
_cell_length_b 16.433799
_cell_length_c 9.546968
_cell_angle_alpha 90.000000
_cell_angle_beta 90.000000
_cell_angle_gamma 90.000000
_cell_volume 2645.794125
_symmetry_space_group_name_H-M "C M M 2"
_symmetry_group_IT_number 35
_symmetry_cell_setting 'orthorhombic'
loop_
_space_group_symop_operation_xyz
x,y,z
-x,-y,z
-x,y,z
x,-y,z
1/2+x,1/2+y,z
1/2-x,1/2-y,z
1/2-x,1/2+y,z
1/2+x,1/2-y,z
loop_
_atom_site_type_symbol
_atom_site_label
_atom_site_fract_x
_atom_site_fract_y
_atom_site_fract_z
Si Si1 0.689585 0.405252 0.183900
Si Si2 0.340012 0.847146 0.343347
Si Si3 0.760290 0.848831 0.595072
Si Si4 0.257757 0.846944 0.912595
Si Si5 0.913531 0.595325 0.069229
Si Si6 0.592088 0.331990 0.406812
O O1 0.710878 0.500000 0.204603
O O2 0.756763 0.348446 0.257124
O O3 0.610252 0.383404 0.266427
O O4 0.694554 0.384840 0.020647
O O5 0.309378 0.880987 0.492434
O O6 0.395727 0.893923 0.234703
O O7 0.380466 0.760362 0.371723
O O8 0.750000 0.750000 0.593925
O O9 0.752384 0.877030 0.754032
O O10 0.846062 0.864041 0.524540
O O11 0.250000 0.750000 0.912254
O O12 0.343409 0.867087 0.977957
O O13 0.913538 0.500000 0.038976
O O14 0.000000 0.630569 0.037498
O O15 0.500000 0.334703 0.445990
#
# Coordination Sequence:
#
# PCOD9348107 Si02
#       6
#     8   8   8   8   8   8
#     4  10  19  32  51  74 102 134 169 207 246 298
#     4   9  16  32  54  76  98 127 168 204 244 299
#     4   8  17  32  50  74 102 132 167 207 250 299
#     4  10  18  33  53  74 102 136 174 206 243 301
#     4  10  20  34  52  77 108 135 163 206 255 298
#     4  10  19  33  54  77 101 129 167 216 260 296
#
# _framework density 18.142002000000002
#
# number of rings (size 3 to 8) (size 9 to 14) (size 15 to 20)
#    0.000    2.500    0.000    6.000    0.000    1.000 
#    0.000   17.500    0.000    2.000    0.000    0.000 
#    0.000    0.000    0.000    0.000    0.000    0.000 
#
# Total GULP energy -133618.881687 kJ/mol
# GULP energy per Si atom -5567.453404 kJ/mol
# Density = 1.810071 g / cm^3
# Si number density = 18.142002 Si / 1000 Ang^3
#
#
#
# Elastic Constant Matrix: (Units=GPa)
#
#
# Indices 1 2 3 4 5 6 
#
# 1 109.4262 25.6154 56.4912 0.0000 0.0000 0.0000
# 2 25.6154 40.5827 22.4371 0.0000 0.0000 0.0000
# 3 56.4912 22.4371 157.5295 0.0000 0.0000 0.0000
# 4 0.0000 0.0000 0.0000 -11.9416 0.0000 0.0000
# 5 0.0000 0.0000 0.0000 0.0000 14.9142 0.0000
# 6 0.0000 0.0000 0.0000 0.0000 0.0000 17.7491
#
#
#
# Elastic Compliance Matrix: (Units=1/GPa)
#
#
# Indices 1 2 3 4 5 6 
#
# 1 0.012359 -0.005808 -0.003605 0.000000 0.000000 0.000000
# 2 -0.005808 0.029477 -0.002116 0.000000 0.000000 0.000000
# 3 -0.003605 -0.002116 0.007942 0.000000 0.000000 0.000000
# 4 0.000000 0.000000 0.000000 -0.083741 0.000000 0.000000
# 5 0.000000 0.000000 0.000000 0.000000 0.067050 0.000000
# 6 0.000000 0.000000 0.000000 0.000000 0.000000 0.056341
#
#
# Mechanical properties :
#
#
# Convention : Reuss Voigt Hill
#
# Bulk Modulus (GPa) = 37.42368 57.40285 47.41327
# Shear Modulus (GPa) = 41.18879 17.67730 29.43305
#
# Velocity S-wave (km/s) = 4.76999 3.12490 4.03224
# Velocity P-wave (km/s) = 7.14214 6.68802 6.91880
#
# Compressibility (1/GPa) = 0.02672105
#
# Stress axis : x y z
#
# Youngs Moduli (GPa) = 80.91171 33.92512 125.91174
#
# Poissons Ratio (x) = 0.19704 0.45389
# Poissons Ratio (y) = 0.46993 0.26638
# Poissons Ratio (z) = 0.29167 0.07177
#
# Static dielectric constant tensor:
#      x y z
#    x 1.655840 0.000000 0.000000 
#    y 0.000000 1.633800 0.000000 
#    z 0.000000 0.000000 1.653590 
# 
# From -- ./inp_files/8480.got.cif
#   From: 2010.05.17/outbox.cif.g08.bks.cpg/sg35_5_cif.got.tgz:8480.got - 2010.06.03 17:29:28.
