data_PCOD9348530
_publ_section_title
;
Structure prediction by ZEFSAII (Michael W. Deem and Ramdas Pophale) SiO2 
 PCOD9348530
Probable space group: C M M 2
;
_chemical_formula_sum "Si O2"
_cell_formula_units_Z 44
_cell_length_a 7.456473
_cell_length_b 26.126481
_cell_length_c 9.951014
_cell_angle_alpha 90.000000
_cell_angle_beta 90.000000
_cell_angle_gamma 90.000000
_cell_volume 1938.570970
_symmetry_space_group_name_H-M "C M M 2"
_symmetry_group_IT_number 35
_symmetry_cell_setting 'orthorhombic'
loop_
_space_group_symop_operation_xyz
x,y,z
-x,-y,z
-x,y,z
x,-y,z
1/2+x,1/2+y,z
1/2-x,1/2-y,z
1/2-x,1/2+y,z
1/2+x,1/2-y,z
loop_
_atom_site_type_symbol
_atom_site_label
_atom_site_fract_x
_atom_site_fract_y
_atom_site_fract_z
Si Si1 0.203960 0.358005 0.227460
Si Si2 0.785660 0.911643 0.739265
Si Si3 0.217330 0.057186 0.442771
Si Si4 0.000000 0.807183 0.387676
Si Si5 0.205625 0.303948 0.630622
Si Si6 0.292027 0.055592 0.033346
O O1 0.202686 0.399177 0.350354
O O2 0.341350 0.315091 0.273923
O O3 0.000000 0.340363 0.202479
O O4 0.278329 0.393829 0.106745
O O5 0.728235 0.936407 0.597778
O O6 0.731778 0.852510 0.725603
O O7 0.715405 0.937126 0.873678
O O8 0.000000 0.915787 0.744042
O O9 0.000000 0.064419 0.436502
O O10 0.260384 0.000000 0.396840
O O11 0.843468 0.807277 0.506995
O O12 0.250000 0.250000 0.699579
O O13 0.000000 0.303450 0.581028
O O14 0.500000 0.054146 0.074940
O O15 0.211237 0.000000 0.067937
#
# Coordination Sequence:
#
# PCOD9348530 Si02
#       6
#     8   8   8   4   8   8
#     4  11  22  39  61  88 130 173 213 260 317 387
#     4  11  21  38  60  93 126 166 217 269 323 381
#     4  10  19  33  54  84 122 161 208 263 316 380
#     4  12  22  42  63 100 128 162 217 262 330 394
#     4  12  23  42  70 102 130 163 210 275 336 397
#     4  10  23  40  58  90 134 183 228 265 317 387
#
# _framework density 22.697130999999999
#
# number of rings (size 3 to 8) (size 9 to 14) (size 15 to 20)
#    0.000    1.091    4.545    2.182    1.273    2.909 
#    0.000    0.000    0.000    1.091    0.000    0.000 
#    0.000    0.000    0.000    0.000    0.000    0.000 
#
# Total GULP energy -122480.897778 kJ/mol
# GULP energy per Si atom -5567.313535 kJ/mol
# Density = 2.264547 g / cm^3
# Si number density = 22.697131 Si / 1000 Ang^3
#
#
#
# Elastic Constant Matrix: (Units=GPa)
#
#
# Indices 1 2 3 4 5 6 
#
# 1 126.7764 -1.0254 -2.7857 0.0000 0.0000 0.0000
# 2 -1.0254 57.7943 -4.2288 0.0000 0.0000 0.0000
# 3 -2.7857 -4.2288 78.1211 0.0000 0.0000 0.0000
# 4 0.0000 0.0000 0.0000 -22.0640 0.0000 0.0000
# 5 0.0000 0.0000 0.0000 0.0000 30.7197 0.0000
# 6 0.0000 0.0000 0.0000 0.0000 0.0000 -41.1712
#
#
#
# Elastic Compliance Matrix: (Units=1/GPa)
#
#
# Indices 1 2 3 4 5 6 
#
# 1 0.007896 0.000161 0.000290 0.000000 0.000000 0.000000
# 2 0.000161 0.017375 0.000946 0.000000 0.000000 0.000000
# 3 0.000290 0.000946 0.012862 0.000000 0.000000 0.000000
# 4 0.000000 0.000000 0.000000 -0.045323 0.000000 0.000000
# 5 0.000000 0.000000 0.000000 0.000000 0.032552 0.000000
# 6 0.000000 0.000000 0.000000 0.000000 0.000000 -0.024289
#
#
# Mechanical properties :
#
#
# Convention : Reuss Voigt Hill
#
# Bulk Modulus (GPa) = 24.43291 27.40134 25.91712
# Shear Modulus (GPa) = 419.44323 11.54567 215.49445
#
# Velocity S-wave (km/s) = 13.60887 2.25785 9.75447
# Velocity P-wave (km/s) = 16.05376 4.34695 11.76051
#
# Compressibility (1/GPa) = 0.04092840
#
# Stress axis : x y z
#
# Youngs Moduli (GPa) = 126.65307 57.55448 77.74709
#
# Poissons Ratio (x) = -0.00929 -0.02257
# Poissons Ratio (y) = -0.02043 -0.07357
# Poissons Ratio (z) = -0.03676 -0.05446
#
# Static dielectric constant tensor:
#      x y z
#    x 1.842870 0.000000 0.000000 
#    y 0.000000 1.977250 0.000000 
#    z 0.000000 0.000000 1.826380 
# 
# From -- ./inp_files/5169.got.cif
#   From: 2010.05.17/outbox.cif.g08.bks.cpg/sg35_3_cif.got.tgz:5169.got - 2010.06.03 17:29:28.
