data_PCOD9348072
_publ_section_title
;
Structure prediction by ZEFSAII (Michael W. Deem and Ramdas Pophale) SiO2 
 PCOD9348072
Probable space group: C M M 2
;
_chemical_formula_sum "Si O2"
_cell_formula_units_Z 36
_cell_length_a 9.951591
_cell_length_b 23.408179
_cell_length_c 9.061600
_cell_angle_alpha 90.000000
_cell_angle_beta 90.000000
_cell_angle_gamma 90.000000
_cell_volume 2110.887246
_symmetry_space_group_name_H-M "C M M 2"
_symmetry_group_IT_number 35
_symmetry_cell_setting 'orthorhombic'
loop_
_space_group_symop_operation_xyz
x,y,z
-x,-y,z
-x,y,z
x,-y,z
1/2+x,1/2+y,z
1/2-x,1/2-y,z
1/2-x,1/2+y,z
1/2+x,1/2-y,z
loop_
_atom_site_type_symbol
_atom_site_label
_atom_site_fract_x
_atom_site_fract_y
_atom_site_fract_z
Si Si1 0.658253 0.306490 0.132040
Si Si2 0.342763 0.066084 0.638322
Si Si3 0.150363 0.848322 0.796652
Si Si4 0.151781 0.348623 0.373269
Si Si5 0.750000 0.750000 0.584558
O O1 0.500000 0.296422 0.166254
O O2 0.750000 0.250000 0.136259
O O3 0.731611 0.346140 0.252050
O O4 0.665805 0.330712 0.966620
O O5 0.500000 0.069128 0.678897
O O6 0.256374 0.104252 0.748822
O O7 0.330695 0.097112 0.479951
O O8 0.302306 0.000000 0.634103
O O9 0.169817 0.792688 0.692401
O O10 0.000000 0.870325 0.773341
O O11 0.167231 0.292445 0.477941
O O12 0.000000 0.349028 0.311193
#
# Coordination Sequence:
#
# PCOD9348072 Si02
#       5
#     8   8   8   8   4
#     4  11  22  35  52  78 114 148 178 215 266 326
#     4   9  20  39  60  81 106 140 184 230 273 319
#     4  10  21  35  54  81 111 144 181 223 270 323
#     4  10  20  33  54  80 109 143 179 222 268 321
#     4  10  18  32  52  80 108 142 176 222 268 324
#
# _framework density 17.054441000000001
#
# number of rings (size 3 to 8) (size 9 to 14) (size 15 to 20)
#    0.000    2.000    2.222    1.333    0.000    6.667 
#    0.000    1.111    0.000    4.000    0.000    0.000 
#    0.000    0.000    0.000    0.000    0.000    0.000 
#
# Total GULP energy -100370.502115 kJ/mol
# GULP energy per Si atom -5576.139006 kJ/mol
# Density = 1.701562 g / cm^3
# Si number density = 17.054441 Si / 1000 Ang^3
#
#
#
# Elastic Constant Matrix: (Units=GPa)
#
#
# Indices 1 2 3 4 5 6 
#
# 1 120.6346 35.3835 54.0764 0.0000 0.0000 0.0000
# 2 35.3835 83.2470 17.6459 0.0000 0.0000 0.0000
# 3 54.0764 17.6459 75.0838 0.0000 0.0000 0.0000
# 4 0.0000 0.0000 0.0000 10.7133 0.0000 0.0000
# 5 0.0000 0.0000 0.0000 0.0000 29.9674 0.0000
# 6 0.0000 0.0000 0.0000 0.0000 0.0000 16.2259
#
#
#
# Elastic Compliance Matrix: (Units=1/GPa)
#
#
# Indices 1 2 3 4 5 6 
#
# 1 0.013300 -0.003813 -0.008683 0.000000 0.000000 0.000000
# 2 -0.003813 0.013735 -0.000482 0.000000 0.000000 0.000000
# 3 -0.008683 -0.000482 0.019685 0.000000 0.000000 0.000000
# 4 0.000000 0.000000 0.000000 0.093342 0.000000 0.000000
# 5 0.000000 0.000000 0.000000 0.000000 0.033370 0.000000
# 6 0.000000 0.000000 0.000000 0.000000 0.000000 0.061630
#
#
# Mechanical properties :
#
#
# Convention : Reuss Voigt Hill
#
# Bulk Modulus (GPa) = 48.15711 54.79745 51.47728
# Shear Modulus (GPa) = 18.66096 22.83861 20.74978
#
# Velocity S-wave (km/s) = 3.31146 3.66342 3.49188
# Velocity P-wave (km/s) = 6.55130 7.07777 6.81962
#
# Compressibility (1/GPa) = 0.02076537
#
# Stress axis : x y z
#
# Youngs Moduli (GPa) = 75.18810 72.80592 50.79948
#
# Poissons Ratio (x) = 0.27758 0.44108
# Poissons Ratio (y) = 0.28666 0.02449
# Poissons Ratio (z) = 0.65284 0.03510
#
# Static dielectric constant tensor:
#      x y z
#    x 1.582350 0.000000 0.000000 
#    y 0.000000 1.556800 0.000000 
#    z 0.000000 0.000000 1.572170 
# 
# From -- ./inp_files/4837.got.cif
#   From: 2010.05.17/outbox.cif.g08.bks.cpg/sg35_3_cif.got.tgz:4837.got - 2010.06.03 17:29:28.
