data_PCOD9348917
_publ_section_title
;
Structure prediction by ZEFSAII (Michael W. Deem and Ramdas Pophale) SiO2 
 PCOD9348917
Probable space group: C M M 2
;
_chemical_formula_sum "Si O2"
_cell_formula_units_Z 64
_cell_length_a 25.984035
_cell_length_b 7.563910
_cell_length_c 13.047810
_cell_angle_alpha 90.000000
_cell_angle_beta 90.000000
_cell_angle_gamma 90.000000
_cell_volume 2564.428349
_symmetry_space_group_name_H-M "C M M 2"
_symmetry_group_IT_number 35
_symmetry_cell_setting 'orthorhombic'
loop_
_space_group_symop_operation_xyz
x,y,z
-x,-y,z
-x,y,z
x,-y,z
1/2+x,1/2+y,z
1/2-x,1/2-y,z
1/2-x,1/2+y,z
1/2+x,1/2-y,z
loop_
_atom_site_type_symbol
_atom_site_label
_atom_site_fract_x
_atom_site_fract_y
_atom_site_fract_z
Si Si1 0.307044 0.711027 0.136250
Si Si2 0.194306 0.702267 0.806965
Si Si3 0.556690 0.785024 0.304230
Si Si4 0.167080 0.784603 0.580057
Si Si5 0.554072 0.292584 0.630043
Si Si6 0.170301 0.205259 0.361774
Si Si7 0.417056 0.783376 0.857328
Si Si8 0.080753 0.704161 0.076933
O O1 0.314474 0.500000 0.137175
O O2 0.250000 0.750000 0.096546
O O3 0.310615 0.781878 0.253997
O O4 0.356760 0.788210 0.079575
O O5 0.187587 0.500000 0.831632
O O6 0.250000 0.750000 0.847776
O O7 0.194082 0.726093 0.683957
O O8 0.141726 0.787144 0.846101
O O9 0.500000 0.732816 0.342434
O O10 0.607866 0.716267 0.359259
O O11 0.559645 0.000000 0.305964
O O12 0.562245 0.722273 0.185616
O O13 0.108016 0.719278 0.590744
O O14 0.187861 0.719961 0.470833
O O15 0.167347 0.000000 0.580034
O O16 0.500000 0.213894 0.593498
O O17 0.554216 0.500000 0.604076
O O18 0.556229 0.275579 0.753273
O O19 0.185344 0.000000 0.360229
O O20 0.436791 0.722284 0.967864
O O21 0.418915 0.000000 0.856985
O O22 0.064614 0.500000 0.078760
#
# Coordination Sequence:
#
# PCOD9348917 Si02
#       8
#     8   8   8   8   8   8   8   8
#     4  10  20  34  51  73 100 129 163 202 246 293
#     4  10  20  34  51  73 100 129 163 202 246 293
#     4   9  18  32  50  73 101 132 165 202 245 291
#     4   9  18  34  53  73  99 130 165 204 245 289
#     4   9  18  32  50  73 101 132 165 202 245 291
#     4   9  19  34  52  74  99 129 165 204 245 290
#     4   9  19  34  52  74  99 129 165 204 245 290
#     4   9  18  34  53  73  99 130 165 204 245 289
#
# _framework density 24.956828999999999
#
# number of rings (size 3 to 8) (size 9 to 14) (size 15 to 20)
#    0.000    2.750    0.000    0.750    0.000    4.500 
#    0.000    5.000    0.000    0.000    0.000    0.000 
#    0.000    0.000    0.000    0.000    0.000    0.000 
#
# Total GULP energy -178731.760656 kJ/mol
# GULP energy per Si atom -5585.367520 kJ/mol
# Density = 2.490003 g / cm^3
# Si number density = 24.956829 Si / 1000 Ang^3
#
#
#
# Elastic Constant Matrix: (Units=GPa)
#
#
# Indices 1 2 3 4 5 6 
#
# 1 128.6907 -5.9753 2.3179 0.0000 0.0000 0.0000
# 2 -5.9753 69.0005 -18.4850 0.0000 0.0000 0.0000
# 3 2.3179 -18.4850 97.4810 0.0000 0.0000 0.0000
# 4 0.0000 0.0000 0.0000 9.2988 0.0000 0.0000
# 5 0.0000 0.0000 0.0000 0.0000 -26.0254 0.0000
# 6 0.0000 0.0000 0.0000 0.0000 0.0000 15.9736
#
#
#
# Elastic Compliance Matrix: (Units=1/GPa)
#
#
# Indices 1 2 3 4 5 6 
#
# 1 0.007802 0.000659 -0.000060 0.000000 0.000000 0.000000
# 2 0.000659 0.015324 0.002890 0.000000 0.000000 0.000000
# 3 -0.000060 0.002890 0.010808 0.000000 0.000000 0.000000
# 4 0.000000 0.000000 0.000000 0.107541 0.000000 0.000000
# 5 0.000000 0.000000 0.000000 0.000000 -0.038424 0.000000
# 6 0.000000 0.000000 0.000000 0.000000 0.000000 0.062603
#
#
# Mechanical properties :
#
#
# Convention : Reuss Voigt Hill
#
# Bulk Modulus (GPa) = 24.44240 27.87638 26.15939
# Shear Modulus (GPa) = 29.01688 21.00371 25.01030
#
# Velocity S-wave (km/s) = 3.41351 2.90418 3.16910
# Velocity P-wave (km/s) = 5.03500 4.73707 4.88830
#
# Compressibility (1/GPa) = 0.04091250
#
# Stress axis : x y z
#
# Youngs Moduli (GPa) = 128.16770 65.25701 92.52488
#
# Poissons Ratio (x) = -0.04303 0.00560
# Poissons Ratio (y) = -0.08452 -0.26741
# Poissons Ratio (z) = 0.00775 -0.18860
#
# Static dielectric constant tensor:
#      x y z
#    x 2.015290 0.000000 0.000000 
#    y 0.000000 1.918810 0.000000 
#    z 0.000000 0.000000 1.975750 
# 
# From -- ./inp_files/17757.got.cif
#   From: 2010.05.17/outbox.cif.g08.bks.cpg/sg35_9_cif.got.tgz:17757.got - 2010.06.03 17:29:28.
