data_PCOD9348745
_publ_section_title
;
Structure prediction by ZEFSAII (Michael W. Deem and Ramdas Pophale) SiO2 
 PCOD9348745
Probable space group: C M M 2
;
_chemical_formula_sum "Si O2"
_cell_formula_units_Z 64
_cell_length_a 8.798194
_cell_length_b 29.105329
_cell_length_c 16.072711
_cell_angle_alpha 90.000000
_cell_angle_beta 90.000000
_cell_angle_gamma 90.000000
_cell_volume 4115.808716
_symmetry_space_group_name_H-M "C M M 2"
_symmetry_group_IT_number 35
_symmetry_cell_setting 'orthorhombic'
loop_
_space_group_symop_operation_xyz
x,y,z
-x,-y,z
-x,y,z
x,-y,z
1/2+x,1/2+y,z
1/2-x,1/2-y,z
1/2-x,1/2+y,z
1/2+x,1/2-y,z
loop_
_atom_site_type_symbol
_atom_site_label
_atom_site_fract_x
_atom_site_fract_y
_atom_site_fract_z
Si Si1 0.182159 0.698529 0.408900
Si Si2 0.683052 0.198821 0.224898
Si Si3 0.181854 0.856602 0.745132
Si Si4 0.318016 0.698721 0.578659
Si Si5 0.682373 0.801007 0.900684
Si Si6 0.818298 0.552572 0.806559
Si Si7 0.180988 0.052496 0.990624
Si Si8 0.816849 0.640678 0.065476
O O1 0.250000 0.750000 0.407063
O O2 0.220881 0.679700 0.317154
O O3 0.253012 0.677986 0.492626
O O4 0.000000 0.700196 0.417004
O O5 0.500000 0.202931 0.221144
O O6 0.750000 0.250000 0.215906
O O7 0.732398 0.166435 0.149415
O O8 0.221282 0.831617 0.658790
O O9 0.253724 0.828561 0.821765
O O10 0.243067 0.908369 0.750764
O O11 0.000000 0.856369 0.754009
O O12 0.500000 0.702499 0.572525
O O13 0.250000 0.750000 0.589077
O O14 0.500000 0.798751 0.895102
O O15 0.750000 0.750000 0.902287
O O16 0.722616 0.828109 0.985295
O O17 0.780351 0.500000 0.782948
O O18 0.759039 0.559564 0.900776
O O19 0.000000 0.557718 0.806068
O O20 0.000000 0.057211 0.980511
O O21 0.213886 0.000000 0.016797
O O22 0.243234 0.091124 0.051911
O O23 0.000000 0.636010 0.066858
#
# Coordination Sequence:
#
# PCOD9348745 Si02
#       8
#     8   8   8   8   8   8   8   8
#     4   9  16  28  47  68  92 123 157 198 239 278
#     4   9  18  31  47  70  98 127 161 196 235 280
#     4  11  22  34  49  70  96 127 162 199 238 283
#     4  10  20  32  47  69  96 127 161 197 237 281
#     4  11  22  33  46  65  94 132 167 196 229 275
#     4  10  20  34  52  72  94 122 157 198 243 287
#     4  10  20  33  50  71  94 122 159 201 241 282
#     4  10  20  33  48  69  96 128 162 196 236 283
#
# _framework density 15.549799
#
# number of rings (size 3 to 8) (size 9 to 14) (size 15 to 20)
#    0.000    2.000    1.250    3.750    0.000    6.000 
#    0.000    0.000    0.000    0.000    0.000    0.875 
#    0.000    1.000    0.000    0.000    0.000    0.000 
#
# Total GULP energy -178511.092841 kJ/mol
# GULP energy per Si atom -5578.471651 kJ/mol
# Density = 1.551441 g / cm^3
# Si number density = 15.549799 Si / 1000 Ang^3
#
#
#
# Elastic Constant Matrix: (Units=GPa)
#
#
# Indices 1 2 3 4 5 6 
#
# 1 42.9333 37.7030 49.6623 0.0000 0.0000 0.0000
# 2 37.7030 102.8030 69.8662 0.0000 0.0000 0.0000
# 3 49.6623 69.8662 149.2003 0.0000 0.0000 0.0000
# 4 0.0000 0.0000 0.0000 8.0003 0.0000 0.0000
# 5 0.0000 0.0000 0.0000 0.0000 20.1565 0.0000
# 6 0.0000 0.0000 0.0000 0.0000 0.0000 26.5264
#
#
#
# Elastic Compliance Matrix: (Units=1/GPa)
#
#
# Indices 1 2 3 4 5 6 
#
# 1 0.042690 -0.008800 -0.010089 0.000000 0.000000 0.000000
# 2 -0.008800 0.016082 -0.004602 0.000000 0.000000 0.000000
# 3 -0.010089 -0.004602 0.012215 0.000000 0.000000 0.000000
# 4 0.000000 0.000000 0.000000 0.124995 0.000000 0.000000
# 5 0.000000 0.000000 0.000000 0.000000 0.049612 0.000000
# 6 0.000000 0.000000 0.000000 0.000000 0.000000 0.037698
#
#
# Mechanical properties :
#
#
# Convention : Reuss Voigt Hill
#
# Bulk Modulus (GPa) = 41.65554 67.71108 54.68331
# Shear Modulus (GPa) = 14.78085 20.11698 17.44891
#
# Velocity S-wave (km/s) = 3.08644 3.60072 3.35346
# Velocity P-wave (km/s) = 6.28873 7.80552 7.08782
#
# Compressibility (1/GPa) = 0.02400641
#
# Stress axis : x y z
#
# Youngs Moduli (GPa) = 23.42463 62.18099 81.86425
#
# Poissons Ratio (x) = 0.54720 0.82592
# Poissons Ratio (y) = 0.20614 0.37671
# Poissons Ratio (z) = 0.23633 0.28613
#
# Static dielectric constant tensor:
#      x y z
#    x 1.520950 0.000000 0.000000 
#    y 0.000000 1.503340 0.000000 
#    z 0.000000 0.000000 1.531550 
# 
# From -- ./inp_files/16169.got.cif
#   From: 2010.05.17/outbox.cif.g08.bks.cpg/sg35_9_cif.got.tgz:16169.got - 2010.06.03 17:29:28.
