data_PCOD9348739
_publ_section_title
;
Structure prediction by ZEFSAII (Michael W. Deem and Ramdas Pophale) SiO2 
 PCOD9348739
Probable space group: C M M 2
;
_chemical_formula_sum "Si O2"
_cell_formula_units_Z 64
_cell_length_a 22.575092
_cell_length_b 25.042879
_cell_length_c 7.286001
_cell_angle_alpha 90.000000
_cell_angle_beta 90.000000
_cell_angle_gamma 90.000000
_cell_volume 4119.106402
_symmetry_space_group_name_H-M "C M M 2"
_symmetry_group_IT_number 35
_symmetry_cell_setting 'orthorhombic'
loop_
_space_group_symop_operation_xyz
x,y,z
-x,-y,z
-x,y,z
x,-y,z
1/2+x,1/2+y,z
1/2-x,1/2-y,z
1/2-x,1/2+y,z
1/2+x,1/2-y,z
loop_
_atom_site_type_symbol
_atom_site_label
_atom_site_fract_x
_atom_site_fract_y
_atom_site_fract_z
Si Si1 0.240389 0.940311 0.211630
Si Si2 0.281064 0.829199 0.210144
Si Si3 0.365901 0.560442 0.931218
Si Si4 0.344597 0.274561 0.210484
Si Si5 0.781064 0.670801 0.652294
Si Si6 0.569995 0.670874 0.931219
Si Si7 0.155403 0.774561 0.651954
Si Si8 0.259612 0.440311 0.650805
O O1 0.281852 0.890919 0.154514
O O2 0.231121 0.936685 0.431218
O O3 0.263020 0.000000 0.170301
O O4 0.178379 0.934507 0.105289
O O5 0.330065 0.786395 0.151651
O O6 0.215928 0.806501 0.162076
O O7 0.283552 0.827705 0.431219
O O8 0.390491 0.500000 0.931218
O O9 0.411817 0.608512 0.931218
O O10 0.321622 0.565493 0.757146
O O11 0.351649 0.276958 0.431219
O O12 0.398585 0.301024 0.105058
O O13 0.830065 0.713605 0.710787
O O14 0.715928 0.693499 0.700362
O O15 0.781852 0.609080 0.707923
O O16 0.500000 0.677408 0.931219
O O17 0.601415 0.698976 0.757381
O O18 0.236981 0.500000 0.692135
#
# Coordination Sequence:
#
# PCOD9348739 Si02
#       8
#     8   8   8   8   8   8   8   8
#     4   9  16  27  45  69  95 118 142 175 218 270
#     4   8  14  27  49  71  90 115 142 175 228 281
#     4  10  20  32  45  60  84 120 156 191 225 250
#     4   9  18  32  47  67  92 113 144 187 230 274
#     4   8  14  27  49  71  90 115 142 175 228 281
#     4  12  24  33  46  65  84 120 166 194 222 257
#     4   9  18  32  47  67  92 113 144 187 230 274
#     4   9  16  27  45  69  95 118 142 175 218 270
#
# _framework density 15.537350999999999
#
# number of rings (size 3 to 8) (size 9 to 14) (size 15 to 20)
#    0.000    2.750    2.500    1.500    0.000    3.750 
#    0.000    0.000    0.000    0.000    0.000    5.250 
#    0.000    2.000    0.000    9.750    0.000    0.000 
#
# Total GULP energy -178204.433706 kJ/mol
# GULP energy per Si atom -5568.888553 kJ/mol
# Density = 1.550199 g / cm^3
# Si number density = 15.537351 Si / 1000 Ang^3
#
#
#
# Elastic Constant Matrix: (Units=GPa)
#
#
# Indices 1 2 3 4 5 6 
#
# 1 69.6229 63.4757 23.9332 0.0000 0.0000 0.0000
# 2 63.4757 160.0213 30.8056 0.0000 0.0000 0.0000
# 3 23.9332 30.8056 74.7941 0.0000 0.0000 0.0000
# 4 0.0000 0.0000 0.0000 7.0872 0.0000 0.0000
# 5 0.0000 0.0000 0.0000 0.0000 16.0703 0.0000
# 6 0.0000 0.0000 0.0000 0.0000 0.0000 16.0654
#
#
#
# Elastic Compliance Matrix: (Units=1/GPa)
#
#
# Indices 1 2 3 4 5 6 
#
# 1 0.023556 -0.008573 -0.004007 0.000000 0.000000 0.000000
# 2 -0.008573 0.009907 -0.001337 0.000000 0.000000 0.000000
# 3 -0.004007 -0.001337 0.015203 0.000000 0.000000 0.000000
# 4 0.000000 0.000000 0.000000 0.141099 0.000000 0.000000
# 5 0.000000 0.000000 0.000000 0.000000 0.062227 0.000000
# 6 0.000000 0.000000 0.000000 0.000000 0.000000 0.062245
#
#
# Mechanical properties :
#
#
# Convention : Reuss Voigt Hill
#
# Bulk Modulus (GPa) = 48.00160 60.09636 54.04898
# Shear Modulus (GPa) = 14.32601 20.25950 17.29275
#
# Velocity S-wave (km/s) = 3.03980 3.61490 3.33975
# Velocity P-wave (km/s) = 6.57890 7.49573 7.05223
#
# Compressibility (1/GPa) = 0.02083264
#
# Stress axis : x y z
#
# Youngs Moduli (GPa) = 42.45147 100.93704 65.77650
#
# Poissons Ratio (x) = 0.86531 0.26356
# Poissons Ratio (y) = 0.36393 0.08796
# Poissons Ratio (z) = 0.17010 0.13498
#
# Static dielectric constant tensor:
#      x y z
#    x 1.449300 0.000000 0.000000 
#    y 0.000000 1.584170 0.000000 
#    z 0.000000 0.000000 1.566530 
# 
# From -- ./inp_files/9560.got.cif
#   From: 2010.05.17/outbox.cif.g08.bks.cpg/sg35_5_cif.got.tgz:9560.got - 2010.06.03 17:29:28.
