data_PCOD9348911
_publ_section_title
;
Structure prediction by ZEFSAII (Michael W. Deem and Ramdas Pophale) SiO2 
 PCOD9348911
Probable space group: C M M 2
;
_chemical_formula_sum "Si O2"
_cell_formula_units_Z 64
_cell_length_a 26.566759
_cell_length_b 26.301158
_cell_length_c 5.239324
_cell_angle_alpha 90.000000
_cell_angle_beta 90.000000
_cell_angle_gamma 90.000000
_cell_volume 3660.907050
_symmetry_space_group_name_H-M "C M M 2"
_symmetry_group_IT_number 35
_symmetry_cell_setting 'orthorhombic'
loop_
_space_group_symop_operation_xyz
x,y,z
-x,-y,z
-x,y,z
x,-y,z
1/2+x,1/2+y,z
1/2-x,1/2-y,z
1/2-x,1/2+y,z
1/2+x,1/2-y,z
loop_
_atom_site_type_symbol
_atom_site_label
_atom_site_fract_x
_atom_site_fract_y
_atom_site_fract_z
Si Si1 0.615435 0.695149 0.594420
Si Si2 0.555805 0.250224 0.217731
Si Si3 0.942437 0.136143 0.975594
Si Si4 0.209294 0.801660 0.280578
Si Si5 0.634227 0.559075 0.196972
Si Si6 0.261428 0.156498 0.777586
Si Si7 0.703507 0.558335 0.692637
Si Si8 0.656210 0.776978 0.976734
O O1 0.572021 0.733812 0.502190
O O2 0.590382 0.646744 0.723163
O O3 0.652776 0.681416 0.364369
O O4 0.648404 0.729582 0.785203
O O5 0.500000 0.228633 0.198718
O O6 0.555672 0.306433 0.089149
O O7 0.601500 0.217242 0.103933
O O8 0.000000 0.120608 0.926547
O O9 0.912891 0.096166 0.149473
O O10 0.241004 0.811389 0.536289
O O11 0.230414 0.831656 0.037316
O O12 0.196325 0.744526 0.183886
O O13 0.617361 0.500000 0.211997
O O14 0.668434 0.568384 0.446450
O O15 0.669934 0.563655 0.947566
O O16 0.248659 0.098749 0.706416
O O17 0.317700 0.175671 0.839723
O O18 0.720979 0.500000 0.676595
#
# Coordination Sequence:
#
# PCOD9348911 Si02
#       8
#     8   8   8   8   8   8   8   8
#     4  10  20  34  50  75 107 140 181 221 261 333
#     4   9  20  36  53  74 107 146 182 218 264 325
#     4  10  21  34  52  75  99 135 183 232 279 320
#     4  11  23  33  50  80 112 146 173 216 278 328
#     4  10  22  39  56  76 100 132 180 232 282 332
#     4  12  24  34  56  79 110 144 176 226 276 331
#     4  10  23  40  57  76 102 140 182 222 274 334
#     4  10  23  33  51  80 112 138 181 220 265 330
#
# _framework density 17.482005999999998
#
# number of rings (size 3 to 8) (size 9 to 14) (size 15 to 20)
#    0.000    1.750    1.250    2.250   15.750    0.750 
#    0.000    0.000    0.000    2.250    0.000    0.000 
#    0.000    0.500    0.000    0.250    0.000    0.125 
#
# Total GULP energy -178521.712022 kJ/mol
# GULP energy per Si atom -5578.803501 kJ/mol
# Density = 1.744222 g / cm^3
# Si number density = 17.482006 Si / 1000 Ang^3
#
#
#
# Elastic Constant Matrix: (Units=GPa)
#
#
# Indices 1 2 3 4 5 6 
#
# 1 115.1987 60.2792 38.1235 0.0000 0.0000 0.0000
# 2 60.2792 93.3020 27.8641 0.0000 0.0000 0.0000
# 3 38.1235 27.8641 104.6397 0.0000 0.0000 0.0000
# 4 0.0000 0.0000 0.0000 22.1169 0.0000 0.0000
# 5 0.0000 0.0000 0.0000 0.0000 18.3005 0.0000
# 6 0.0000 0.0000 0.0000 0.0000 0.0000 27.2608
#
#
#
# Elastic Compliance Matrix: (Units=1/GPa)
#
#
# Indices 1 2 3 4 5 6 
#
# 1 0.013879 -0.008101 -0.002899 0.000000 0.000000 0.000000
# 2 -0.008101 0.016372 -0.001408 0.000000 0.000000 0.000000
# 3 -0.002899 -0.001408 0.010988 0.000000 0.000000 0.000000
# 4 0.000000 0.000000 0.000000 0.045214 0.000000 0.000000
# 5 0.000000 0.000000 0.000000 0.000000 0.054643 0.000000
# 6 0.000000 0.000000 0.000000 0.000000 0.000000 0.036683
#
#
# Mechanical properties :
#
#
# Convention : Reuss Voigt Hill
#
# Bulk Modulus (GPa) = 60.89385 62.85265 61.87325
# Shear Modulus (GPa) = 24.03030 25.99388 25.01209
#
# Velocity S-wave (km/s) = 3.71155 3.86021 3.78661
# Velocity P-wave (km/s) = 7.29900 7.47657 7.38832
#
# Compressibility (1/GPa) = 0.01642202
#
# Stress axis : x y z
#
# Youngs Moduli (GPa) = 72.05088 61.07927 91.00872
#
# Poissons Ratio (x) = 0.49480 0.26387
# Poissons Ratio (y) = 0.58368 0.12816
# Poissons Ratio (z) = 0.20891 0.08602
#
# Static dielectric constant tensor:
#      x y z
#    x 1.634330 0.000000 0.000000 
#    y 0.000000 1.620910 0.000000 
#    z 0.000000 0.000000 1.702660 
# 
# From -- ./inp_files/3823.got.cif
#   From: 2010.05.17/outbox.cif.g08.bks.cpg/sg35_2_cif.got.tgz:3823.got - 2010.06.03 17:29:28.
