data_PCOD9348966
_publ_section_title
;
Structure prediction by ZEFSAII (Michael W. Deem and Ramdas Pophale) SiO2 
 PCOD9348966
Probable space group: C M M 2
;
_chemical_formula_sum "Si O2"
_cell_formula_units_Z 56
_cell_length_a 18.614004
_cell_length_b 7.829708
_cell_length_c 18.721427
_cell_angle_alpha 90.000000
_cell_angle_beta 90.000000
_cell_angle_gamma 90.000000
_cell_volume 2728.502258
_symmetry_space_group_name_H-M "C M M 2"
_symmetry_group_IT_number 35
_symmetry_cell_setting 'orthorhombic'
loop_
_space_group_symop_operation_xyz
x,y,z
-x,-y,z
-x,y,z
x,-y,z
1/2+x,1/2+y,z
1/2-x,1/2-y,z
1/2-x,1/2+y,z
1/2+x,1/2-y,z
loop_
_atom_site_type_symbol
_atom_site_label
_atom_site_fract_x
_atom_site_fract_y
_atom_site_fract_z
Si Si1 0.083120 0.209251 0.246200
Si Si2 0.581471 0.795366 0.529823
Si Si3 0.417545 0.294462 0.966076
Si Si4 0.833397 0.794272 0.104738
Si Si5 0.166363 0.796608 0.387069
Si Si6 0.333389 0.793939 0.668815
Si Si7 0.417567 0.205486 0.807615
O O1 0.122850 0.266353 0.174099
O O2 0.125969 0.268914 0.316227
O O3 0.000000 0.261822 0.247919
O O4 0.083830 0.000000 0.246239
O O5 0.500000 0.728455 0.524527
O O6 0.626405 0.761531 0.458568
O O7 0.622912 0.729629 0.599845
O O8 0.576826 0.000000 0.537607
O O9 0.500000 0.231624 0.972571
O O10 0.419851 0.500000 0.970651
O O11 0.390934 0.250000 0.886841
O O12 0.369134 0.230490 0.031220
O O13 0.750000 0.750000 0.109678
O O14 0.839081 0.000000 0.104277
O O15 0.250000 0.750000 0.387346
O O16 0.161459 0.000000 0.385254
O O17 0.250000 0.750000 0.663926
O O18 0.369120 0.731003 0.742454
O O19 0.338807 0.000000 0.668982
O O20 0.500000 0.268513 0.801090
O O21 0.419944 0.000000 0.803058
#
# Coordination Sequence:
#
# PCOD9348966 Si02
#       7
#     8   8   8   8   8   8   8
#     4   9  18  34  56  79 103 136 178 219 259 307
#     4  10  21  38  59  81 107 140 178 220 266 316
#     4   9  18  33  53  76 101 132 172 214 255 303
#     4  10  20  34  53  76 104 137 172 212 258 308
#     4  11  22  36  56  82 112 143 177 218 264 315
#     4  10  21  36  54  77 105 138 175 214 259 312
#     4   9  18  34  55  76 100 133 172 213 258 308
#
# _framework density 20.524080000000001
#
# number of rings (size 3 to 8) (size 9 to 14) (size 15 to 20)
#    0.000    2.286    0.000    2.571    0.000    7.714 
#    0.000    3.571    0.000    5.571    0.000    0.000 
#    0.000    0.000    0.000    0.000    0.000    0.000 
#
# Total GULP energy -156401.521108 kJ/mol
# GULP energy per Si atom -5585.768611 kJ/mol
# Density = 2.047737 g / cm^3
# Si number density = 20.524080 Si / 1000 Ang^3
#
#
#
# Elastic Constant Matrix: (Units=GPa)
#
#
# Indices 1 2 3 4 5 6 
#
# 1 191.4320 3.0582 145.1338 0.0000 0.0000 0.0000
# 2 3.0582 24.1574 8.5661 0.0000 0.0000 0.0000
# 3 145.1338 8.5661 241.1230 0.0000 0.0000 0.0000
# 4 0.0000 0.0000 0.0000 16.4105 0.0000 0.0000
# 5 0.0000 0.0000 0.0000 0.0000 16.7282 0.0000
# 6 0.0000 0.0000 0.0000 0.0000 0.0000 23.1393
#
#
#
# Elastic Compliance Matrix: (Units=1/GPa)
#
#
# Indices 1 2 3 4 5 6 
#
# 1 0.009626 0.000847 -0.005824 0.000000 0.000000 0.000000
# 2 0.000847 0.041998 -0.002002 0.000000 0.000000 0.000000
# 3 -0.005824 -0.002002 0.007724 0.000000 0.000000 0.000000
# 4 0.000000 0.000000 0.000000 0.060937 0.000000 0.000000
# 5 0.000000 0.000000 0.000000 0.000000 0.059779 0.000000
# 6 0.000000 0.000000 0.000000 0.000000 0.000000 0.043216
#
#
# Mechanical properties :
#
#
# Convention : Reuss Voigt Hill
#
# Bulk Modulus (GPa) = 22.03156 85.58097 53.80627
# Shear Modulus (GPa) = 19.81245 31.25257 25.53251
#
# Velocity S-wave (km/s) = 3.11034 3.90645 3.53090
# Velocity P-wave (km/s) = 4.86382 7.88260 6.54951
#
# Compressibility (1/GPa) = 0.04538943
#
# Stress axis : x y z
#
# Youngs Moduli (GPa) = 103.89036 23.81082 129.47108
#
# Poissons Ratio (x) = -0.02016 0.75401
# Poissons Ratio (y) = -0.08794 0.25914
# Poissons Ratio (z) = 0.60503 0.04766
#
# Static dielectric constant tensor:
#      x y z
#    x 1.689860 0.000000 0.000000 
#    y 0.000000 1.760540 0.000000 
#    z 0.000000 0.000000 1.717620 
# 
# From -- ./inp_files/17409.got.cif
#   From: 2010.05.17/outbox.cif.g08.bks.cpg/sg35_9_cif.got.tgz:17409.got - 2010.06.03 17:29:28.
