data_PCOD9348260
_publ_section_title
;
Structure prediction by ZEFSAII (Michael W. Deem and Ramdas Pophale) SiO2 
 PCOD9348260
Probable space group: C M M 2
;
_chemical_formula_sum "Si O2"
_cell_formula_units_Z 48
_cell_length_a 9.024691
_cell_length_b 18.457639
_cell_length_c 16.193660
_cell_angle_alpha 90.000000
_cell_angle_beta 90.000000
_cell_angle_gamma 90.000000
_cell_volume 2697.450632
_symmetry_space_group_name_H-M "C M M 2"
_symmetry_group_IT_number 35
_symmetry_cell_setting 'orthorhombic'
loop_
_space_group_symop_operation_xyz
x,y,z
-x,-y,z
-x,y,z
x,-y,z
1/2+x,1/2+y,z
1/2-x,1/2-y,z
1/2-x,1/2+y,z
1/2+x,1/2-y,z
loop_
_atom_site_type_symbol
_atom_site_label
_atom_site_fract_x
_atom_site_fract_y
_atom_site_fract_z
Si Si1 0.823291 0.329382 0.026690
Si Si2 0.172766 0.912770 0.175436
Si Si3 0.670791 0.088261 0.344375
Si Si4 0.677489 0.169875 0.843299
Si Si5 0.176428 0.914706 0.512608
Si Si6 0.821887 0.829610 0.679502
O O1 0.750000 0.250000 0.031646
O O2 0.759340 0.377872 0.099546
O O3 0.000000 0.321978 0.034215
O O4 0.792922 0.361112 0.934653
O O5 0.239705 0.888558 0.263339
O O6 0.000000 0.893637 0.170780
O O7 0.185645 0.000000 0.171695
O O8 0.500000 0.109863 0.337658
O O9 0.740366 0.112689 0.431002
O O10 0.676934 0.000000 0.345565
O O11 0.500000 0.174841 0.832116
O O12 0.750000 0.250000 0.846483
O O13 0.752699 0.135556 0.762611
O O14 0.213783 0.873515 0.596703
O O15 0.000000 0.907964 0.498804
O O16 0.209753 0.000000 0.522703
O O17 0.750000 0.750000 0.671772
O O18 0.000000 0.824379 0.687832
#
# Coordination Sequence:
#
# PCOD9348260 Si02
#       6
#     8   8   8   8   8   8
#     4  10  20  34  53  76 102 132 167 208 251 297
#     4  10  20  34  53  76 102 133 168 206 248 296
#     4   9  17  30  50  74  98 127 163 202 245 294
#     4   9  17  30  49  71  96 128 164 200 239 288
#     4   9  18  33  51  71  96 127 163 201 242 289
#     4  10  19  31  50  73  98 128 161 200 242 287
#
# _framework density 17.79458
#
# number of rings (size 3 to 8) (size 9 to 14) (size 15 to 20)
#    0.000    2.500    0.000    3.500    0.000    6.333 
#    0.000    1.667    0.000    5.000    0.000    0.000 
#    0.000    0.000    0.000    0.000    0.000    0.000 
#
# Total GULP energy -133786.671596 kJ/mol
# GULP energy per Si atom -5574.444650 kJ/mol
# Density = 1.775408 g / cm^3
# Si number density = 17.794580 Si / 1000 Ang^3
#
#
#
# Elastic Constant Matrix: (Units=GPa)
#
#
# Indices 1 2 3 4 5 6 
#
# 1 106.5477 28.8248 98.7997 0.0000 0.0000 0.0000
# 2 28.8248 14.5928 37.7380 0.0000 0.0000 0.0000
# 3 98.7997 37.7380 204.0594 0.0000 0.0000 0.0000
# 4 0.0000 0.0000 0.0000 30.1348 0.0000 0.0000
# 5 0.0000 0.0000 0.0000 0.0000 39.3681 0.0000
# 6 0.0000 0.0000 0.0000 0.0000 0.0000 19.5870
#
#
#
# Elastic Compliance Matrix: (Units=1/GPa)
#
#
# Indices 1 2 3 4 5 6 
#
# 1 0.022684 -0.031441 -0.005168 0.000000 0.000000 0.000000
# 2 -0.031441 0.174923 -0.017127 0.000000 0.000000 0.000000
# 3 -0.005168 -0.017127 0.010570 0.000000 0.000000 0.000000
# 4 0.000000 0.000000 0.000000 0.033184 0.000000 0.000000
# 5 0.000000 0.000000 0.000000 0.000000 0.025401 0.000000
# 6 0.000000 0.000000 0.000000 0.000000 0.000000 0.051054
#
#
# Mechanical properties :
#
#
# Convention : Reuss Voigt Hill
#
# Bulk Modulus (GPa) = 9.93006 72.88056 41.40531
# Shear Modulus (GPa) = 10.89664 28.47380 19.68522
#
# Velocity S-wave (km/s) = 2.47727 4.00451 3.32964
# Velocity P-wave (km/s) = 3.71147 7.90108 6.17260
#
# Compressibility (1/GPa) = 0.10070430
#
# Stress axis : x y z
#
# Youngs Moduli (GPa) = 44.08428 5.71681 94.60620
#
# Poissons Ratio (x) = 0.17975 0.48894
# Poissons Ratio (y) = 1.38608 1.62027
# Poissons Ratio (z) = 0.22784 0.09791
#
# Static dielectric constant tensor:
#      x y z
#    x 1.594810 0.000000 0.000000 
#    y 0.000000 1.590540 0.000000 
#    z 0.000000 0.000000 1.631960 
# 
# From -- ./inp_files/11373.got.cif
#   From: 2010.05.17/outbox.cif.g08.bks.cpg/sg35_6_cif.got.tgz:11373.got - 2010.06.03 17:29:28.
