data_PCOD9348365
_publ_section_title
;
Structure prediction by ZEFSAII (Michael W. Deem and Ramdas Pophale) SiO2 
 PCOD9348365
Probable space group: C M M 2
;
_chemical_formula_sum "Si O2"
_cell_formula_units_Z 64
_cell_length_a 38.857238
_cell_length_b 7.482251
_cell_length_c 10.404971
_cell_angle_alpha 90.000000
_cell_angle_beta 90.000000
_cell_angle_gamma 90.000000
_cell_volume 3025.137189
_symmetry_space_group_name_H-M "C M M 2"
_symmetry_group_IT_number 35
_symmetry_cell_setting 'orthorhombic'
loop_
_space_group_symop_operation_xyz
x,y,z
-x,-y,z
-x,y,z
x,-y,z
1/2+x,1/2+y,z
1/2-x,1/2-y,z
1/2-x,1/2+y,z
1/2+x,1/2-y,z
loop_
_atom_site_type_symbol
_atom_site_label
_atom_site_fract_x
_atom_site_fract_y
_atom_site_fract_z
Si Si1 0.342826 0.289021 0.000000
Si Si2 0.655075 0.287177 0.705764
Si Si3 0.209751 0.214294 0.210922
Si Si4 0.540144 0.218821 0.344846
Si Si5 0.209705 0.785689 0.499564
Si Si6 0.539101 0.218486 0.848335
Si Si7 0.918205 0.715770 0.093842
Si Si8 0.920326 0.715066 0.599151
O O1 0.336079 0.500000 0.986131
O O2 0.345400 0.216725 0.853293
O O3 0.313356 0.214668 0.094168
O O4 0.378810 0.268825 0.074757
O O5 0.659948 0.500000 0.716163
O O6 0.685326 0.216290 0.613274
O O7 0.618861 0.260019 0.633365
O O8 0.250000 0.250000 0.189524
O O9 0.201019 0.281608 0.355211
O O10 0.204983 0.000000 0.214625
O O11 0.500000 0.274738 0.347386
O O12 0.560995 0.276504 0.218697
O O13 0.562358 0.277986 0.467602
O O14 0.539437 0.000000 0.344853
O O15 0.250000 0.750000 0.522876
O O16 0.205399 0.000000 0.496001
O O17 0.500000 0.276256 0.859661
O O18 0.556418 0.278363 0.717187
O O19 0.539228 0.000000 0.848290
O O20 0.561569 0.277751 0.968057
O O21 0.918840 0.500000 0.096020
O O22 0.922029 0.500000 0.595861
#
# Coordination Sequence:
#
# PCOD9348365 Si02
#       8
#     8   8   8   8   8   8   8   8
#     4  10  21  36  53  75 107 142 172 207 255 306
#     4  10  21  36  53  75 107 142 172 207 255 306
#     4   9  19  36  56  78 103 134 170 207 251 302
#     4   9  18  32  51  77 106 133 168 219 270 309
#     4   9  19  36  56  78 103 134 170 207 251 302
#     4   9  16  28  49  73  98 131 170 211 254 299
#     4  10  19  32  51  77 104 133 173 216 257 304
#     4  10  19  32  51  77 104 133 173 216 257 304
#
# _framework density 21.156065000000002
#
# number of rings (size 3 to 8) (size 9 to 14) (size 15 to 20)
#    0.000    2.500    1.250    0.750    1.750    4.500 
#    0.000    0.000    0.000    4.500    0.000    0.000 
#    0.000    0.000    0.000    0.000    0.000    0.000 
#
# Total GULP energy -178635.728763 kJ/mol
# GULP energy per Si atom -5582.366524 kJ/mol
# Density = 2.110791 g / cm^3
# Si number density = 21.156065 Si / 1000 Ang^3
#
#
#
# Elastic Constant Matrix: (Units=GPa)
#
#
# Indices 1 2 3 4 5 6 
#
# 1 99.8204 -8.4408 47.9658 0.0000 0.0000 0.0000
# 2 -8.4408 59.7791 4.0877 0.0000 0.0000 0.0000
# 3 47.9658 4.0877 125.3453 0.0000 0.0000 0.0000
# 4 0.0000 0.0000 0.0000 -8.1993 0.0000 0.0000
# 5 0.0000 0.0000 0.0000 0.0000 35.1071 0.0000
# 6 0.0000 0.0000 0.0000 0.0000 0.0000 0.7350
#
#
#
# Elastic Compliance Matrix: (Units=1/GPa)
#
#
# Indices 1 2 3 4 5 6 
#
# 1 0.012533 0.002102 -0.004865 0.000000 0.000000 0.000000
# 2 0.002102 0.017118 -0.001363 0.000000 0.000000 0.000000
# 3 -0.004865 -0.001363 0.009884 0.000000 0.000000 0.000000
# 4 0.000000 0.000000 0.000000 -0.121962 0.000000 0.000000
# 5 0.000000 0.000000 0.000000 0.000000 0.028484 0.000000
# 6 0.000000 0.000000 0.000000 0.000000 0.000000 1.360461
#
#
# Mechanical properties :
#
#
# Convention : Reuss Voigt Hill
#
# Bulk Modulus (GPa) = 31.96378 41.35225 36.65801
# Shear Modulus (GPa) = 3.77302 21.61737 12.69520
#
# Velocity S-wave (km/s) = 1.33690 3.20004 2.45230
# Velocity P-wave (km/s) = 4.18622 5.76562 5.03819
#
# Compressibility (1/GPa) = 0.03128541
#
# Stress axis : x y z
#
# Youngs Moduli (GPa) = 79.78718 58.41703 101.17395
#
# Poissons Ratio (x) = -0.12281 0.49218
# Poissons Ratio (y) = -0.16774 0.13788
# Poissons Ratio (z) = 0.38814 0.07961
#
# Static dielectric constant tensor:
#      x y z
#    x 1.711560 0.000000 0.000000 
#    y 0.000000 1.840420 0.000000 
#    z 0.000000 0.000000 1.767390 
# 
# From -- ./inp_files/10634.got.cif
#   From: 2010.05.17/outbox.cif.g08.bks.cpg/sg35_6_cif.got.tgz:10634.got - 2010.06.03 17:29:28.
