data_PCOD9348799
_publ_section_title
;
Structure prediction by ZEFSAII (Michael W. Deem and Ramdas Pophale) SiO2 
 PCOD9348799
Probable space group: C M M 2
;
_chemical_formula_sum "Si O2"
_cell_formula_units_Z 56
_cell_length_a 7.769253
_cell_length_b 18.936199
_cell_length_c 19.009893
_cell_angle_alpha 90.000000
_cell_angle_beta 90.000000
_cell_angle_gamma 90.000000
_cell_volume 2796.737756
_symmetry_space_group_name_H-M "C M M 2"
_symmetry_group_IT_number 35
_symmetry_cell_setting 'orthorhombic'
loop_
_space_group_symop_operation_xyz
x,y,z
-x,-y,z
-x,y,z
x,-y,z
1/2+x,1/2+y,z
1/2-x,1/2-y,z
1/2-x,1/2+y,z
1/2+x,1/2-y,z
loop_
_atom_site_type_symbol
_atom_site_label
_atom_site_fract_x
_atom_site_fract_y
_atom_site_fract_z
Si Si1 0.795411 0.080640 0.277840
Si Si2 0.707228 0.832254 0.837037
Si Si3 0.706355 0.919497 0.126299
Si Si4 0.792724 0.667637 0.564728
Si Si5 0.289060 0.081515 0.701726
Si Si6 0.794173 0.581048 0.430554
Si Si7 0.292656 0.831961 0.993569
O O1 0.743414 0.112982 0.203110
O O2 0.740799 0.111405 0.352769
O O3 0.000000 0.076934 0.278384
O O4 0.722935 0.000000 0.277449
O O5 0.500000 0.837906 0.838197
O O6 0.750000 0.750000 0.824662
O O7 0.769749 0.880848 0.773474
O O8 0.770845 0.852104 0.915338
O O9 0.500000 0.922823 0.120083
O O10 0.773615 0.876889 0.059283
O O11 0.773893 0.000000 0.125785
O O12 0.750000 0.750000 0.566687
O O13 0.731713 0.626319 0.634127
O O14 0.727770 0.628916 0.494168
O O15 0.000000 0.662113 0.564480
O O16 0.500000 0.082186 0.701933
O O17 0.236000 0.000000 0.697405
O O18 0.726652 0.500000 0.434012
O O19 0.000000 0.576652 0.438042
O O20 0.500000 0.839025 0.992477
O O21 0.250000 0.750000 0.003786
#
# Coordination Sequence:
#
# PCOD9348799 Si02
#       7
#     8   8   8   8   8   8   8
#     4   9  17  29  47  72  98 122 152 193 241 288
#     4   9  17  30  49  71  96 127 160 195 236 281
#     4   9  17  30  48  69  94 124 159 198 237 279
#     4  10  20  33  50  72  98 128 160 194 234 281
#     4   9  17  30  50  75  99 124 159 200 236 273
#     4   9  17  31  51  71  92 122 160 198 235 278
#     4   9  18  31  47  69  96 127 161 195 235 282
#
# _framework density 20.023330000000001
#
# number of rings (size 3 to 8) (size 9 to 14) (size 15 to 20)
#    0.000    2.857    0.000    1.286    0.000    5.143 
#    0.000    3.571    0.000    2.571    0.000    4.000 
#    0.000    0.000    0.000    0.000    0.000    0.000 
#
# Total GULP energy -156123.269728 kJ/mol
# GULP energy per Si atom -5575.831062 kJ/mol
# Density = 1.997776 g / cm^3
# Si number density = 20.023330 Si / 1000 Ang^3
#
#
#
# Elastic Constant Matrix: (Units=GPa)
#
#
# Indices 1 2 3 4 5 6 
#
# 1 28.7896 1.8451 9.3750 0.0000 0.0000 0.0000
# 2 1.8451 102.2253 116.9484 0.0000 0.0000 0.0000
# 3 9.3750 116.9484 246.8294 0.0000 0.0000 0.0000
# 4 0.0000 0.0000 0.0000 64.2111 0.0000 0.0000
# 5 0.0000 0.0000 0.0000 0.0000 -137.6402 0.0000
# 6 0.0000 0.0000 0.0000 0.0000 0.0000 19.5725
#
#
#
# Elastic Compliance Matrix: (Units=1/GPa)
#
#
# Indices 1 2 3 4 5 6 
#
# 1 0.035349 0.001961 -0.002272 0.000000 0.000000 0.000000
# 2 0.001961 0.021470 -0.010247 0.000000 0.000000 0.000000
# 3 -0.002272 -0.010247 0.008993 0.000000 0.000000 0.000000
# 4 0.000000 0.000000 0.000000 0.015574 0.000000 0.000000
# 5 0.000000 0.000000 0.000000 0.000000 -0.007265 0.000000
# 6 0.000000 0.000000 0.000000 0.000000 0.000000 0.051092
#
#
# Mechanical properties :
#
#
# Convention : Reuss Voigt Hill
#
# Bulk Modulus (GPa) = 22.37353 70.46460 46.41906
# Shear Modulus (GPa) = 31.01252 5.87373 18.44312
#
# Velocity S-wave (km/s) = 3.93977 1.71459 3.03823
# Velocity P-wave (km/s) = 5.64745 6.25998 5.96159
#
# Compressibility (1/GPa) = 0.04469568
#
# Stress axis : x y z
#
# Youngs Moduli (GPa) = 28.28950 46.57767 111.20232
#
# Poissons Ratio (x) = -0.09133 0.25261
# Poissons Ratio (y) = -0.05547 1.13947
# Poissons Ratio (z) = 0.06426 0.47727
#
# Static dielectric constant tensor:
#      x y z
#    x 1.738650 0.000000 0.000000 
#    y 0.000000 1.671670 0.000000 
#    z 0.000000 0.000000 1.737250 
# 
# From -- ./inp_files/15643.got.cif
#   From: 2010.05.17/outbox.cif.g08.bks.cpg/sg35_8_cif.got.tgz:15643.got - 2010.06.03 17:29:28.
