data_PCOD9348699
_publ_section_title
;
Structure prediction by ZEFSAII (Michael W. Deem and Ramdas Pophale) SiO2 
 PCOD9348699
Probable space group: C M M 2
;
_chemical_formula_sum "Si O2"
_cell_formula_units_Z 54
_cell_length_a 15.428580
_cell_length_b 31.962285
_cell_length_c 4.979380
_cell_angle_alpha 90.000000
_cell_angle_beta 90.000000
_cell_angle_gamma 90.000000
_cell_volume 2455.494960
_symmetry_space_group_name_H-M "C M M 2"
_symmetry_group_IT_number 35
_symmetry_cell_setting 'orthorhombic'
loop_
_space_group_symop_operation_xyz
x,y,z
-x,-y,z
-x,y,z
x,-y,z
1/2+x,1/2+y,z
1/2-x,1/2-y,z
1/2-x,1/2+y,z
1/2+x,1/2-y,z
loop_
_atom_site_type_symbol
_atom_site_label
_atom_site_fract_x
_atom_site_fract_y
_atom_site_fract_z
Si Si1 0.399496 0.548423 0.186610
Si Si2 0.395882 0.683212 0.934814
Si Si3 0.833327 0.904160 0.699021
Si Si4 0.500000 0.000000 0.325757
Si Si5 0.101640 0.318035 0.168549
Si Si6 0.394062 0.268619 0.432656
Si Si7 0.645403 0.870634 0.682579
Si Si8 0.500000 0.935348 0.826552
O O1 0.500000 0.552842 0.102616
O O2 0.384626 0.500000 0.260669
O O3 0.381833 0.577931 0.440093
O O4 0.340845 0.562053 0.937049
O O5 0.500000 0.685486 0.941411
O O6 0.372596 0.638185 0.821763
O O7 0.364810 0.719079 0.728921
O O8 0.366337 0.693979 0.233865
O O9 0.735858 0.892722 0.624802
O O10 0.500000 0.036085 0.562648
O O11 0.500000 0.036453 0.090040
O O12 0.133604 0.274745 0.299627
O O13 0.108305 0.351388 0.409169
O O14 0.000000 0.312886 0.088856
O O15 0.152267 0.334188 0.907680
O O16 0.500000 0.266645 0.441710
O O17 0.582061 0.904668 0.811173
#
# Coordination Sequence:
#
# PCOD9348699 Si02
#       8
#     8   8   8   2   8   8   8   4
#     4  11  24  46  72  96 125 164 209 250 310 382
#     4  10  19  36  58  85 123 163 204 253 314 376
#     4  12  25  42  63 100 131 165 204 262 315 375
#     4  10  24  42  68  90 116 154 210 266 316 386
#     4  11  20  39  64  88 120 171 224 265 309 360
#     4   9  19  33  58  89 117 161 218 260 299 364
#     4  12  24  41  65  94 128 167 216 260 315 374
#     4  11  22  46  64  94 120 170 214 258 322 382
#
# _framework density 21.991492999999998
#
# number of rings (size 3 to 8) (size 9 to 14) (size 15 to 20)
#    0.000    1.185    1.481    5.333    0.000    4.741 
#    8.000    4.444    0.000    0.000    0.000    0.000 
#    0.000    0.000    0.000    0.000    0.000    0.000 
#
# Total GULP energy -150822.668706 kJ/mol
# GULP energy per Si atom -5586.024767 kJ/mol
# Density = 2.194144 g / cm^3
# Si number density = 21.991493 Si / 1000 Ang^3
#
#
#
# Elastic Constant Matrix: (Units=GPa)
#
#
# Indices 1 2 3 4 5 6 
#
# 1 30.7270 7.0854 -9.2786 0.0000 0.0000 0.0000
# 2 7.0854 71.0114 -6.0273 0.0000 0.0000 0.0000
# 3 -9.2786 -6.0273 83.3587 0.0000 0.0000 0.0000
# 4 0.0000 0.0000 0.0000 32.4444 0.0000 0.0000
# 5 0.0000 0.0000 0.0000 0.0000 -400.8279 0.0000
# 6 0.0000 0.0000 0.0000 0.0000 0.0000 -539.4246
#
#
#
# Elastic Compliance Matrix: (Units=1/GPa)
#
#
# Indices 1 2 3 4 5 6 
#
# 1 0.034351 -0.003122 0.003598 0.000000 0.000000 0.000000
# 2 -0.003122 0.014453 0.000698 0.000000 0.000000 0.000000
# 3 0.003598 0.000698 0.012447 0.000000 0.000000 0.000000
# 4 0.000000 0.000000 0.000000 0.030822 0.000000 0.000000
# 5 0.000000 0.000000 0.000000 0.000000 -0.002495 0.000000
# 6 0.000000 0.000000 0.000000 0.000000 0.000000 -0.001854
#
#
# Mechanical properties :
#
#
# Convention : Reuss Voigt Hill
#
# Bulk Modulus (GPa) = 15.72383 18.73956 17.23170
# Shear Modulus (GPa) = 46.91431 -168.67378 -60.87973
#
# Velocity S-wave (km/s) = 4.62377 -8.76733 -5.26720
# Velocity P-wave (km/s) = 5.97253 9.69269 5.39802
#
# Compressibility (1/GPa) = 0.06359775
#
# Stress axis : x y z
#
# Youngs Moduli (GPa) = 29.11124 69.18995 80.33895
#
# Poissons Ratio (x) = 0.21602 -0.28905
# Poissons Ratio (y) = 0.09089 -0.05604
# Poissons Ratio (z) = -0.10474 -0.04826
#
# Static dielectric constant tensor:
#      x y z
#    x 2.631810 0.000000 0.000000 
#    y 0.000000 1.805820 0.000000 
#    z 0.000000 0.000000 1.759210 
# 
# From -- ./inp_files/2094.got.cif
#   From: 2010.05.17/outbox.cif.g08.bks.cpg/sg35_2_cif.got.tgz:2094.got - 2010.06.03 17:29:28.
