data_PCOD9348851
_publ_section_title
;
Structure prediction by ZEFSAII (Michael W. Deem and Ramdas Pophale) SiO2 
 PCOD9348851
Probable space group: C M M 2
;
_chemical_formula_sum "Si O2"
_cell_formula_units_Z 48
_cell_length_a 18.714108
_cell_length_b 8.044919
_cell_length_c 16.223535
_cell_angle_alpha 90.000000
_cell_angle_beta 90.000000
_cell_angle_gamma 90.000000
_cell_volume 2442.509701
_symmetry_space_group_name_H-M "C M M 2"
_symmetry_group_IT_number 35
_symmetry_cell_setting 'orthorhombic'
loop_
_space_group_symop_operation_xyz
x,y,z
-x,-y,z
-x,y,z
x,-y,z
1/2+x,1/2+y,z
1/2-x,1/2-y,z
1/2-x,1/2+y,z
1/2+x,1/2-y,z
loop_
_atom_site_type_symbol
_atom_site_label
_atom_site_fract_x
_atom_site_fract_y
_atom_site_fract_z
Si Si1 0.583085 0.703730 0.965460
Si Si2 0.667828 0.196349 0.445682
Si Si3 0.082335 0.201258 0.606736
Si Si4 0.332237 0.700849 0.126458
Si Si5 0.413020 0.307099 0.785983
Si Si6 0.580938 0.300854 0.285511
O O1 0.500000 0.750177 0.978045
O O2 0.584246 0.500000 0.962852
O O3 0.607740 0.764734 0.874910
O O4 0.631032 0.758983 0.041677
O O5 0.750000 0.250000 0.441773
O O6 0.631990 0.249162 0.531581
O O7 0.623288 0.267946 0.369302
O O8 0.664558 0.000000 0.439245
O O9 0.107256 0.265096 0.696944
O O10 0.000000 0.255530 0.592637
O O11 0.080963 0.000000 0.611353
O O12 0.336154 0.500000 0.126366
O O13 0.250000 0.750000 0.131375
O O14 0.375784 0.762813 0.206141
O O15 0.500000 0.307614 0.786068
O O16 0.389690 0.500000 0.786061
O O17 0.500000 0.235118 0.289018
O O18 0.576340 0.500000 0.276222
#
# Coordination Sequence:
#
# PCOD9348851 Si02
#       6
#     8   8   8   8   8   8
#     4   8  13  25  48  76 102 131 173 217 250 290
#     4  12  25  39  55  76 104 138 174 213 260 311
#     4   9  17  32  55  81 108 138 173 214 260 309
#     4  10  20  33  51  76 106 139 171 207 253 303
#     4   7  11  22  45  76 104 131 167 211 254 295
#     4  10  21  38  59  81 104 132 169 213 260 310
#
# _framework density 19.651917999999998
#
# number of rings (size 3 to 8) (size 9 to 14) (size 15 to 20)
#    0.000    2.667    0.000    5.000    0.000    6.667 
#    0.000    0.833    0.000    4.500    0.000    2.333 
#    0.000    0.000    0.000    0.000    0.000    0.000 
#
# Total GULP energy -133847.635328 kJ/mol
# GULP energy per Si atom -5576.984805 kJ/mol
# Density = 1.960719 g / cm^3
# Si number density = 19.651918 Si / 1000 Ang^3
#
#
#
# Elastic Constant Matrix: (Units=GPa)
#
#
# Indices 1 2 3 4 5 6 
#
# 1 139.2642 5.8300 111.1942 0.0000 0.0000 0.0000
# 2 5.8300 15.9775 4.4333 0.0000 0.0000 0.0000
# 3 111.1942 4.4333 220.0447 0.0000 0.0000 0.0000
# 4 0.0000 0.0000 0.0000 -17.8178 0.0000 0.0000
# 5 0.0000 0.0000 0.0000 0.0000 -13.2918 0.0000
# 6 0.0000 0.0000 0.0000 0.0000 0.0000 18.6650
#
#
#
# Elastic Compliance Matrix: (Units=1/GPa)
#
#
# Indices 1 2 3 4 5 6 
#
# 1 0.012156 -0.002747 -0.006087 0.000000 0.000000 0.000000
# 2 -0.002747 0.063560 0.000107 0.000000 0.000000 0.000000
# 3 -0.006087 0.000107 0.007618 0.000000 0.000000 0.000000
# 4 0.000000 0.000000 0.000000 -0.056124 0.000000 0.000000
# 5 0.000000 0.000000 0.000000 0.000000 -0.075234 0.000000
# 6 0.000000 0.000000 0.000000 0.000000 0.000000 0.053576
#
#
# Mechanical properties :
#
#
# Convention : Reuss Voigt Hill
#
# Bulk Modulus (GPa) = 15.17871 68.68904 41.93387
# Shear Modulus (GPa) = 111.19266 14.43301 62.81284
#
# Velocity S-wave (km/s) = 7.53020 2.71298 5.65969
# Velocity P-wave (km/s) = 9.12939 6.69645 8.00588
#
# Compressibility (1/GPa) = 0.06588174
#
# Stress axis : x y z
#
# Youngs Moduli (GPa) = 82.26393 15.73305 131.25973
#
# Poissons Ratio (x) = 0.04321 0.79903
# Poissons Ratio (y) = 0.22594 -0.01409
# Poissons Ratio (z) = 0.50077 -0.00169
#
# Static dielectric constant tensor:
#      x y z
#    x 1.642830 0.000000 0.000000 
#    y 0.000000 1.707250 0.000000 
#    z 0.000000 0.000000 1.729000 
# 
# From -- ./inp_files/15129.got.cif
#   From: 2010.05.17/outbox.cif.g08.bks.cpg/sg35_8_cif.got.tgz:15129.got - 2010.06.03 17:29:28.
