data_PCOD9348492
_publ_section_title
;
Structure prediction by ZEFSAII (Michael W. Deem and Ramdas Pophale) SiO2 
 PCOD9348492
Probable space group: C M M 2
;
_chemical_formula_sum "Si O2"
_cell_formula_units_Z 64
_cell_length_a 30.367476
_cell_length_b 8.280280
_cell_length_c 12.589480
_cell_angle_alpha 90.000000
_cell_angle_beta 90.000000
_cell_angle_gamma 90.000000
_cell_volume 3165.639906
_symmetry_space_group_name_H-M "C M M 2"
_symmetry_group_IT_number 35
_symmetry_cell_setting 'orthorhombic'
loop_
_space_group_symop_operation_xyz
x,y,z
-x,-y,z
-x,y,z
x,-y,z
1/2+x,1/2+y,z
1/2-x,1/2-y,z
1/2-x,1/2+y,z
1/2+x,1/2-y,z
loop_
_atom_site_type_symbol
_atom_site_label
_atom_site_fract_x
_atom_site_fract_y
_atom_site_fract_z
Si Si1 0.081124 0.187779 0.252870
Si Si2 0.951521 0.310644 0.042699
Si Si3 0.702976 0.806825 0.429558
Si Si4 0.550609 0.305558 0.685235
Si Si5 0.824299 0.693308 0.194616
Si Si6 0.112610 0.189478 0.872759
Si Si7 0.296916 0.305772 0.964438
Si Si8 0.394966 0.193076 0.483278
O O1 0.050727 0.275701 0.167653
O O2 0.129793 0.213610 0.204349
O O3 0.083949 0.262408 0.369716
O O4 0.069931 0.000000 0.259351
O O5 0.943601 0.500000 0.024747
O O6 0.000000 0.267310 0.001878
O O7 0.915033 0.211370 0.980321
O O8 0.750000 0.750000 0.473420
O O9 0.700540 0.763912 0.303915
O O10 0.656448 0.748902 0.479920
O O11 0.702231 0.000000 0.436253
O O12 0.500000 0.245114 0.688278
O O13 0.548185 0.500000 0.696280
O O14 0.581928 0.240446 0.779760
O O15 0.575660 0.265893 0.576368
O O16 0.832590 0.500000 0.196337
O O17 0.801798 0.739105 0.084452
O O18 0.161399 0.254933 0.895769
O O19 0.118135 0.000000 0.849553
O O20 0.298492 0.500000 0.969819
O O21 0.250000 0.250000 0.921126
O O22 0.394220 0.000000 0.494056
#
# Coordination Sequence:
#
# PCOD9348492 Si02
#       8
#     8   8   8   8   8   8   8   8
#     4  11  21  35  57  85 119 160 199 240 295 357
#     4  11  23  37  57  87 121 157 196 241 299 361
#     4   9  19  33  52  81 116 155 195 236 286 343
#     4  10  22  42  67  91 114 148 198 253 306 362
#     4  10  19  33  53  81 120 160 199 246 293 347
#     4  10  22  41  63  87 118 155 198 247 300 359
#     4  11  22  35  55  85 119 161 205 245 296 354
#     4  10  22  40  60  86 120 155 196 247 302 356
#
# _framework density 20.217081
#
# number of rings (size 3 to 8) (size 9 to 14) (size 15 to 20)
#    0.000    1.750    1.250    4.125    0.000    7.250 
#    0.000    0.625    0.000    3.000    0.000    0.000 
#    0.000    0.000    0.000    0.000    0.000    0.000 
#
# Total GULP energy -178627.256543 kJ/mol
# GULP energy per Si atom -5582.101767 kJ/mol
# Density = 2.017107 g / cm^3
# Si number density = 20.217081 Si / 1000 Ang^3
#
#
#
# Elastic Constant Matrix: (Units=GPa)
#
#
# Indices 1 2 3 4 5 6 
#
# 1 148.1872 6.1803 60.7536 0.0000 0.0000 0.0000
# 2 6.1803 16.1393 -8.3354 0.0000 0.0000 0.0000
# 3 60.7536 -8.3354 91.3742 0.0000 0.0000 0.0000
# 4 0.0000 0.0000 0.0000 41.7922 0.0000 0.0000
# 5 0.0000 0.0000 0.0000 0.0000 28.0621 0.0000
# 6 0.0000 0.0000 0.0000 0.0000 0.0000 13.8539
#
#
#
# Elastic Compliance Matrix: (Units=1/GPa)
#
#
# Indices 1 2 3 4 5 6 
#
# 1 0.010116 -0.007710 -0.007429 0.000000 0.000000 0.000000
# 2 -0.007710 0.070901 0.011594 0.000000 0.000000 0.000000
# 3 -0.007429 0.011594 0.016941 0.000000 0.000000 0.000000
# 4 0.000000 0.000000 0.000000 0.023928 0.000000 0.000000
# 5 0.000000 0.000000 0.000000 0.000000 0.035635 0.000000
# 6 0.000000 0.000000 0.000000 0.000000 0.000000 0.072182
#
#
# Mechanical properties :
#
#
# Convention : Reuss Voigt Hill
#
# Bulk Modulus (GPa) = 11.00501 41.43306 26.21904
# Shear Modulus (GPa) = 18.72081 29.88178 24.30130
#
# Velocity S-wave (km/s) = 3.04631 3.84871 3.47077
# Velocity P-wave (km/s) = 4.22239 6.34733 5.39060
#
# Compressibility (1/GPa) = 0.09086768
#
# Stress axis : x y z
#
# Youngs Moduli (GPa) = 98.85757 14.10414 59.02770
#
# Poissons Ratio (x) = 0.10875 0.43852
# Poissons Ratio (y) = 0.76224 -0.68439
# Poissons Ratio (z) = 0.73442 -0.16353
#
# Static dielectric constant tensor:
#      x y z
#    x 1.694850 0.000000 0.000000 
#    y 0.000000 1.706710 0.000000 
#    z 0.000000 0.000000 1.707810 
# 
# From -- ./inp_files/11990.got.cif
#   From: 2010.05.17/outbox.cif.g08.bks.cpg/sg35_6_cif.got.tgz:11990.got - 2010.06.03 17:29:28.
