data_PCOD9348422
_publ_section_title
;
Structure prediction by ZEFSAII (Michael W. Deem and Ramdas Pophale) SiO2 
 PCOD9348422
Probable space group: C M M 2
;
_chemical_formula_sum "Si O2"
_cell_formula_units_Z 64
_cell_length_a 30.321149
_cell_length_b 8.548778
_cell_length_c 12.790223
_cell_angle_alpha 90.000000
_cell_angle_beta 90.000000
_cell_angle_gamma 90.000000
_cell_volume 3315.337991
_symmetry_space_group_name_H-M "C M M 2"
_symmetry_group_IT_number 35
_symmetry_cell_setting 'orthorhombic'
loop_
_space_group_symop_operation_xyz
x,y,z
-x,-y,z
-x,y,z
x,-y,z
1/2+x,1/2+y,z
1/2-x,1/2-y,z
1/2-x,1/2+y,z
1/2+x,1/2-y,z
loop_
_atom_site_type_symbol
_atom_site_label
_atom_site_fract_x
_atom_site_fract_y
_atom_site_fract_z
Si Si1 0.111713 0.808710 0.120710
Si Si2 0.796248 0.689263 0.575332
Si Si3 0.551420 0.310805 0.316085
Si Si4 0.080677 0.679701 0.742302
Si Si5 0.105949 0.689702 0.513213
Si Si6 0.182761 0.319433 0.807736
Si Si7 0.297161 0.313931 0.035466
Si Si8 0.953048 0.186398 0.945249
O O1 0.081811 0.758886 0.218289
O O2 0.112527 0.000000 0.122974
O O3 0.162109 0.756109 0.106922
O O4 0.086540 0.754382 0.016215
O O5 0.796121 0.500000 0.577309
O O6 0.750000 0.750000 0.530499
O O7 0.842096 0.736896 0.518807
O O8 0.799036 0.743499 0.697044
O O9 0.500000 0.258339 0.311373
O O10 0.550408 0.500000 0.314390
O O11 0.577221 0.255281 0.419045
O O12 0.065379 0.500000 0.740502
O O13 0.084407 0.737902 0.623996
O O14 0.130365 0.681184 0.787854
O O15 0.052574 0.774907 0.824399
O O16 0.105448 0.500000 0.510408
O O17 0.197308 0.500000 0.819673
O O18 0.194643 0.232267 0.914037
O O19 0.296479 0.500000 0.040673
O O20 0.250000 0.250000 0.068550
O O21 0.000000 0.247482 0.984234
O O22 0.953012 0.000000 0.957326
#
# Coordination Sequence:
#
# PCOD9348422 Si02
#       8
#     8   8   8   8   8   8   8   8
#     4   9  19  37  57  78 107 141 177 222 276 325
#     4   9  18  32  51  77 110 147 184 220 264 318
#     4  10  21  39  63  85 103 133 184 238 280 323
#     4   9  18  33  52  75 111 150 178 214 266 324
#     4   9  20  38  56  78 111 147 181 221 274 330
#     4   9  17  31  50  75 108 146 184 220 259 309
#     4  11  21  33  52  78 109 145 182 218 264 322
#     4  10  19  32  53  80 108 139 177 220 269 328
#
# _framework density 19.304214999999999
#
# number of rings (size 3 to 8) (size 9 to 14) (size 15 to 20)
#    0.000    2.500    1.250    2.625    0.000    5.000 
#    0.000    7.500    0.000    4.500    0.000    0.000 
#    0.000    0.000    0.000    0.000    0.000    0.000 
#
# Total GULP energy -178368.625528 kJ/mol
# GULP energy per Si atom -5574.019548 kJ/mol
# Density = 1.926028 g / cm^3
# Si number density = 19.304215 Si / 1000 Ang^3
#
#
#
# Elastic Constant Matrix: (Units=GPa)
#
#
# Indices 1 2 3 4 5 6 
#
# 1 163.6195 22.9816 80.7641 0.0000 0.0000 0.0000
# 2 22.9816 6.6736 13.0657 0.0000 0.0000 0.0000
# 3 80.7641 13.0657 111.8708 0.0000 0.0000 0.0000
# 4 0.0000 0.0000 0.0000 28.7589 0.0000 0.0000
# 5 0.0000 0.0000 0.0000 0.0000 17.1891 0.0000
# 6 0.0000 0.0000 0.0000 0.0000 0.0000 16.7508
#
#
#
# Elastic Compliance Matrix: (Units=1/GPa)
#
#
# Indices 1 2 3 4 5 6 
#
# 1 0.014357 -0.037790 -0.005952 0.000000 0.000000 0.000000
# 2 -0.037790 0.293731 -0.007024 0.000000 0.000000 0.000000
# 3 -0.005952 -0.007024 0.014056 0.000000 0.000000 0.000000
# 4 0.000000 0.000000 0.000000 0.034772 0.000000 0.000000
# 5 0.000000 0.000000 0.000000 0.000000 0.058176 0.000000
# 6 0.000000 0.000000 0.000000 0.000000 0.000000 0.059699
#
#
# Mechanical properties :
#
#
# Convention : Reuss Voigt Hill
#
# Bulk Modulus (GPa) = 4.53281 57.30962 30.92121
# Shear Modulus (GPa) = 7.69398 23.56327 15.62863
#
# Velocity S-wave (km/s) = 1.99857 3.49754 2.84843
# Velocity P-wave (km/s) = 2.77109 6.78693 5.18369
#
# Compressibility (1/GPa) = 0.22061386
#
# Stress axis : x y z
#
# Youngs Moduli (GPa) = 69.65082 3.40448 71.14450
#
# Poissons Ratio (x) = 0.12865 0.42342
# Poissons Ratio (y) = 2.63208 0.49971
# Poissons Ratio (z) = 0.41453 0.02391
#
# Static dielectric constant tensor:
#      x y z
#    x 1.715400 0.000000 0.000000 
#    y 0.000000 1.671920 0.000000 
#    z 0.000000 0.000000 1.660240 
# 
# From -- ./inp_files/14572.got.cif
#   From: 2010.05.17/outbox.cif.g08.bks.cpg/sg35_8_cif.got.tgz:14572.got - 2010.06.03 17:29:28.
