data_PCOD9348197
_publ_section_title
;
Structure prediction by ZEFSAII (Michael W. Deem and Ramdas Pophale) SiO2 
 PCOD9348197
Probable space group: C M M 2
;
_chemical_formula_sum "Si O2"
_cell_formula_units_Z 64
_cell_length_a 29.260212
_cell_length_b 8.764654
_cell_length_c 16.056651
_cell_angle_alpha 90.000000
_cell_angle_beta 90.000000
_cell_angle_gamma 90.000000
_cell_volume 4117.818614
_symmetry_space_group_name_H-M "C M M 2"
_symmetry_group_IT_number 35
_symmetry_cell_setting 'orthorhombic'
loop_
_space_group_symop_operation_xyz
x,y,z
-x,-y,z
-x,y,z
x,-y,z
1/2+x,1/2+y,z
1/2-x,1/2-y,z
1/2-x,1/2+y,z
1/2+x,1/2-y,z
loop_
_atom_site_type_symbol
_atom_site_label
_atom_site_fract_x
_atom_site_fract_y
_atom_site_fract_z
Si Si1 0.051633 0.683740 0.774770
Si Si2 0.552137 0.816226 0.580313
Si Si3 0.142742 0.816182 0.839776
Si Si4 0.698731 0.316726 0.003401
Si Si5 0.857322 0.182679 0.511810
Si Si6 0.800754 0.184165 0.676503
Si Si7 0.698803 0.182559 0.173965
Si Si8 0.198759 0.317330 0.359391
O O1 0.053474 0.500000 0.778217
O O2 0.058895 0.727530 0.677604
O O3 0.091946 0.752470 0.829257
O O4 0.000000 0.730775 0.797978
O O5 0.500000 0.775055 0.557619
O O6 0.591304 0.740541 0.525766
O O7 0.555925 0.000000 0.575644
O O8 0.168301 0.770624 0.924390
O O9 0.172225 0.765937 0.759349
O O10 0.140866 0.000000 0.838125
O O11 0.701894 0.500000 0.006457
O O12 0.750000 0.250000 0.993950
O O13 0.678346 0.255520 0.090625
O O14 0.828459 0.230121 0.593873
O O15 0.833222 0.251525 0.430965
O O16 0.856536 0.000000 0.507185
O O17 0.750000 0.250000 0.675278
O O18 0.798305 0.000000 0.677564
O O19 0.750000 0.250000 0.175995
O O20 0.680289 0.218593 0.266131
O O21 0.700474 0.000000 0.164697
O O22 0.201930 0.500000 0.366455
O O23 0.250000 0.250000 0.367640
#
# Coordination Sequence:
#
# PCOD9348197 Si02
#       8
#     8   8   8   8   8   8   8   8
#     4   9  18  32  50  71  92 119 158 200 240 280
#     4   9  18  33  51  70  93 122 158 201 245 285
#     4  10  20  33  46  67  96 126 160 195 234 279
#     4  10  19  30  47  69  96 127 160 197 235 279
#     4  11  21  32  48  70  96 128 163 198 235 281
#     4  10  21  33  43  61  92 128 163 192 223 267
#     4   9  17  30  48  68  92 122 157 197 240 281
#     4  10  20  33  49  70  97 128 161 199 240 284
#
# _framework density 15.542210000000001
#
# number of rings (size 3 to 8) (size 9 to 14) (size 15 to 20)
#    0.000    2.250    1.250    3.750    0.000    5.500 
#    0.000    1.250    0.000    0.000    0.000    0.875 
#    0.000    5.000    0.000    0.000    0.000    0.000 
#
# Total GULP energy -178444.229363 kJ/mol
# GULP energy per Si atom -5576.382168 kJ/mol
# Density = 1.550684 g / cm^3
# Si number density = 15.542210 Si / 1000 Ang^3
#
#
#
# Elastic Constant Matrix: (Units=GPa)
#
#
# Indices 1 2 3 4 5 6 
#
# 1 111.5744 32.5272 75.0737 0.0000 0.0000 0.0000
# 2 32.5272 34.8258 45.5613 0.0000 0.0000 0.0000
# 3 75.0737 45.5613 151.5828 0.0000 0.0000 0.0000
# 4 0.0000 0.0000 0.0000 21.7428 0.0000 0.0000
# 5 0.0000 0.0000 0.0000 0.0000 10.3342 0.0000
# 6 0.0000 0.0000 0.0000 0.0000 0.0000 26.5480
#
#
#
# Elastic Compliance Matrix: (Units=1/GPa)
#
#
# Indices 1 2 3 4 5 6 
#
# 1 0.014348 -0.006764 -0.005073 0.000000 0.000000 0.000000
# 2 -0.006764 0.050512 -0.011832 0.000000 0.000000 0.000000
# 3 -0.005073 -0.011832 0.012666 0.000000 0.000000 0.000000
# 4 0.000000 0.000000 0.000000 0.045992 0.000000 0.000000
# 5 0.000000 0.000000 0.000000 0.000000 0.096766 0.000000
# 6 0.000000 0.000000 0.000000 0.000000 0.000000 0.037668
#
#
# Mechanical properties :
#
#
# Convention : Reuss Voigt Hill
#
# Bulk Modulus (GPa) = 33.12696 67.14526 50.13611
# Shear Modulus (GPa) = 15.85524 21.37971 18.61747
#
# Velocity S-wave (km/s) = 3.19743 3.71292 3.46477
# Velocity P-wave (km/s) = 5.91539 7.85345 6.95228
#
# Compressibility (1/GPa) = 0.03018690
#
# Stress axis : x y z
#
# Youngs Moduli (GPa) = 69.69631 19.79730 78.95207
#
# Poissons Ratio (x) = 0.13391 0.40052
# Poissons Ratio (y) = 0.47145 0.93418
# Poissons Ratio (z) = 0.35356 0.23425
#
# Static dielectric constant tensor:
#      x y z
#    x 1.485360 0.000000 0.000000 
#    y 0.000000 1.523620 0.000000 
#    z 0.000000 0.000000 1.534990 
# 
# From -- ./inp_files/17748.got.cif
#   From: 2010.05.17/outbox.cif.g08.bks.cpg/sg35_9_cif.got.tgz:17748.got - 2010.06.03 17:29:28.
