data_PCOD9348434
_publ_section_title
;
Structure prediction by ZEFSAII (Michael W. Deem and Ramdas Pophale) SiO2 
 PCOD9348434
Probable space group: C M M 2
;
_chemical_formula_sum "Si O2"
_cell_formula_units_Z 48
_cell_length_a 18.345774
_cell_length_b 8.789720
_cell_length_c 15.998598
_cell_angle_alpha 90.000000
_cell_angle_beta 90.000000
_cell_angle_gamma 90.000000
_cell_volume 2579.841388
_symmetry_space_group_name_H-M "C M M 2"
_symmetry_group_IT_number 35
_symmetry_cell_setting 'orthorhombic'
loop_
_space_group_symop_operation_xyz
x,y,z
-x,-y,z
-x,y,z
x,-y,z
1/2+x,1/2+y,z
1/2-x,1/2-y,z
1/2-x,1/2+y,z
1/2+x,1/2-y,z
loop_
_atom_site_type_symbol
_atom_site_label
_atom_site_fract_x
_atom_site_fract_y
_atom_site_fract_z
Si Si1 0.085550 0.182665 0.444320
Si Si2 0.668343 0.818159 0.104057
Si Si3 0.831760 0.682561 0.918323
Si Si4 0.669208 0.818751 0.601758
Si Si5 0.668588 0.682025 0.273868
Si Si6 0.914006 0.181720 0.760657
O O1 0.126864 0.265955 0.518943
O O2 0.121557 0.220771 0.355242
O O3 0.000000 0.219127 0.444976
O O4 0.093108 0.000000 0.456273
O O5 0.750000 0.750000 0.102187
O O6 0.635040 0.746834 0.187702
O O7 0.671702 0.000000 0.112980
O O8 0.638112 0.782960 0.011773
O O9 0.827621 0.500000 0.909935
O O10 0.750000 0.750000 0.911905
O O11 0.880422 0.752567 0.845711
O O12 0.750000 0.750000 0.600338
O O13 0.626966 0.755676 0.682386
O O14 0.673242 0.000000 0.605527
O O15 0.674176 0.500000 0.267265
O O16 0.750000 0.750000 0.283559
O O17 0.000000 0.213969 0.755786
O O18 0.903614 0.000000 0.758249
#
# Coordination Sequence:
#
# PCOD9348434 Si02
#       6
#     8   8   8   8   8   8
#     4  10  22  40  59  82 115 151 186 228 279 332
#     4   9  17  30  51  79 110 144 183 231 280 324
#     4  10  20  35  57  84 114 148 189 235 280 329
#     4  12  25  41  63  88 113 144 184 229 276 329
#     4  10  19  32  54  81 110 146 187 232 278 327
#     4  11  24  41  60  83 114 150 185 226 278 333
#
# _framework density 18.605796000000002
#
# number of rings (size 3 to 8) (size 9 to 14) (size 15 to 20)
#    0.000    1.667    0.000    6.000    0.000    8.333 
#    0.000    0.833    0.000    3.000    0.000    0.000 
#    0.000    0.000    0.000    0.000    0.000    0.000 
#
# Total GULP energy -134072.822425 kJ/mol
# GULP energy per Si atom -5586.367601 kJ/mol
# Density = 1.856345 g / cm^3
# Si number density = 18.605796 Si / 1000 Ang^3
#
#
#
# Elastic Constant Matrix: (Units=GPa)
#
#
# Indices 1 2 3 4 5 6 
#
# 1 115.9382 74.2397 99.5250 0.0000 0.0000 0.0000
# 2 74.2397 98.9102 98.7788 0.0000 0.0000 0.0000
# 3 99.5250 98.7788 221.3724 0.0000 0.0000 0.0000
# 4 0.0000 0.0000 0.0000 42.1052 0.0000 0.0000
# 5 0.0000 0.0000 0.0000 0.0000 -4.6104 0.0000
# 6 0.0000 0.0000 0.0000 0.0000 0.0000 23.0290
#
#
#
# Elastic Compliance Matrix: (Units=1/GPa)
#
#
# Indices 1 2 3 4 5 6 
#
# 1 0.018193 -0.009897 -0.003763 0.000000 0.000000 0.000000
# 2 -0.009897 0.023621 -0.006090 0.000000 0.000000 0.000000
# 3 -0.003763 -0.006090 0.008927 0.000000 0.000000 0.000000
# 4 0.000000 0.000000 0.000000 0.023750 0.000000 0.000000
# 5 0.000000 0.000000 0.000000 0.000000 -0.216902 0.000000
# 6 0.000000 0.000000 0.000000 0.000000 0.000000 0.043423
#
#
# Mechanical properties :
#
#
# Convention : Reuss Voigt Hill
#
# Bulk Modulus (GPa) = 88.97154 109.03421 99.00287
# Shear Modulus (GPa) = -89.70353 23.01659 -33.34347
#
# Velocity S-wave (km/s) = -6.95107 3.52101 -4.23791
# Velocity P-wave (km/s) = 4.06203 8.67522 5.42031
#
# Compressibility (1/GPa) = 0.01123955
#
# Stress axis : x y z
#
# Youngs Moduli (GPa) = 54.96529 42.33479 112.02408
#
# Poissons Ratio (x) = 0.41901 0.42155
# Poissons Ratio (y) = 0.54401 0.68227
# Poissons Ratio (z) = 0.20684 0.25783
#
# Static dielectric constant tensor:
#      x y z
#    x 1.604390 0.000000 0.000000 
#    y 0.000000 1.623370 0.000000 
#    z 0.000000 0.000000 1.655980 
# 
# From -- ./inp_files/15165.got.cif
#   From: 2010.05.17/outbox.cif.g08.bks.cpg/sg35_8_cif.got.tgz:15165.got - 2010.06.03 17:29:28.
