data_PCOD9348551
_publ_section_title
;
Structure prediction by ZEFSAII (Michael W. Deem and Ramdas Pophale) SiO2 
 PCOD9348551
Probable space group: C M M 2
;
_chemical_formula_sum "Si O2"
_cell_formula_units_Z 58
_cell_length_a 7.727814
_cell_length_b 19.374553
_cell_length_c 18.156227
_cell_angle_alpha 90.000000
_cell_angle_beta 90.000000
_cell_angle_gamma 90.000000
_cell_volume 2718.403721
_symmetry_space_group_name_H-M "C M M 2"
_symmetry_group_IT_number 35
_symmetry_cell_setting 'orthorhombic'
loop_
_space_group_symop_operation_xyz
x,y,z
-x,-y,z
-x,y,z
x,-y,z
1/2+x,1/2+y,z
1/2-x,1/2-y,z
1/2-x,1/2+y,z
1/2+x,1/2-y,z
loop_
_atom_site_type_symbol
_atom_site_label
_atom_site_fract_x
_atom_site_fract_y
_atom_site_fract_z
Si Si1 0.288142 0.920715 0.383070
Si Si2 0.500000 0.000000 0.622729
Si Si3 0.810320 0.893427 0.647826
Si Si4 0.708040 0.830292 0.964628
Si Si5 0.787937 0.580056 0.102670
Si Si6 0.291957 0.831103 0.243596
Si Si7 0.705704 0.823281 0.512431
Si Si8 0.207175 0.669654 0.799206
O O1 0.500000 0.921487 0.382701
O O2 0.230430 0.871989 0.316029
O O3 0.235692 0.885449 0.459622
O O4 0.231896 0.000000 0.375809
O O5 0.652036 0.941229 0.625562
O O6 0.793415 0.829410 0.591794
O O7 0.788014 0.872389 0.732647
O O8 0.000000 0.923371 0.637500
O O9 0.500000 0.834987 0.962978
O O10 0.750000 0.750000 0.980405
O O11 0.769271 0.847841 0.881949
O O12 0.769987 0.881805 0.027947
O O13 0.733983 0.500000 0.107803
O O14 0.731336 0.626883 0.171613
O O15 0.000000 0.579802 0.102675
O O16 0.500000 0.835794 0.243865
O O17 0.250000 0.750000 0.242377
O O18 0.500000 0.826893 0.519790
O O19 0.750000 0.750000 0.476770
O O20 0.250000 0.750000 0.788556
O O21 0.000000 0.660046 0.796114
#
# Coordination Sequence:
#
# PCOD9348551 Si02
#       8
#     8   2   8   8   8   8   8   8
#     4   9  19  34  57  84 116 159 200 248 309 367
#     4  12  26  48  64  94 132 168 206 264 316 386
#     4  12  25  43  67  94 126 168 215 261 316 378
#     4   9  18  32  54  83 113 153 195 247 304 359
#     4   9  17  31  52  81 113 149 198 247 297 361
#     4  10  19  33  56  84 113 149 197 248 300 363
#     4  11  22  38  62  89 123 160 210 264 315 375
#     4  10  19  36  58  88 120 157 208 264 317 374
#
# _framework density 21.33605
#
# number of rings (size 3 to 8) (size 9 to 14) (size 15 to 20)
#    0.000    1.931    1.379    2.690    0.966    2.207 
#    1.241    0.690    0.000    4.552    0.000    0.000 
#    0.000    0.000    0.000    0.000    0.000    0.000 
#
# Total GULP energy -161728.338496 kJ/mol
# GULP energy per Si atom -5576.839258 kJ/mol
# Density = 2.128749 g / cm^3
# Si number density = 21.336050 Si / 1000 Ang^3
#
#
#
# Elastic Constant Matrix: (Units=GPa)
#
#
# Indices 1 2 3 4 5 6 
#
# 1 87.2517 17.0274 18.3171 0.0000 0.0000 0.0000
# 2 17.0274 156.6881 76.2624 0.0000 0.0000 0.0000
# 3 18.3171 76.2624 126.3914 0.0000 0.0000 0.0000
# 4 0.0000 0.0000 0.0000 -229.2084 0.0000 0.0000
# 5 0.0000 0.0000 0.0000 0.0000 -8.0392 0.0000
# 6 0.0000 0.0000 0.0000 0.0000 0.0000 11.4134
#
#
#
# Elastic Compliance Matrix: (Units=1/GPa)
#
#
# Indices 1 2 3 4 5 6 
#
# 1 0.011866 -0.000641 -0.001333 0.000000 0.000000 0.000000
# 2 -0.000641 0.009070 -0.005380 0.000000 0.000000 0.000000
# 3 -0.001333 -0.005380 0.011351 0.000000 0.000000 0.000000
# 4 0.000000 0.000000 0.000000 -0.004363 0.000000 0.000000
# 5 0.000000 0.000000 0.000000 0.000000 -0.124390 0.000000
# 6 0.000000 0.000000 0.000000 0.000000 0.000000 0.087616
#
#
# Mechanical properties :
#
#
# Convention : Reuss Voigt Hill
#
# Bulk Modulus (GPa) = 56.88255 65.94943 61.41599
# Shear Modulus (GPa) = 426.69734 -27.91856 199.38939
#
# Velocity S-wave (km/s) = 14.15709 -3.62127 9.67754
# Velocity P-wave (km/s) = 17.14494 3.67317 12.39841
#
# Compressibility (1/GPa) = 0.01758008
#
# Stress axis : x y z
#
# Youngs Moduli (GPa) = 84.27450 110.25064 88.09543
#
# Poissons Ratio (x) = 0.07063 0.11744
# Poissons Ratio (y) = 0.05399 0.47395
# Poissons Ratio (z) = 0.11235 0.59315
#
# Static dielectric constant tensor:
#      x y z
#    x 1.776160 0.000000 0.000000 
#    y 0.000000 2.011700 0.000000 
#    z 0.000000 0.000000 1.774040 
# 
# From -- ./inp_files/18127.got.cif
#   From: 2010.05.17/outbox.cif.g08.bks.cpg/sg35_10_cif.got.tgz:18127.got - 2010.06.03 17:29:28.
