data_PCOD9348116
_publ_section_title
;
Structure prediction by ZEFSAII (Michael W. Deem and Ramdas Pophale) SiO2 
 PCOD9348116
Probable space group: C M M 2
;
_chemical_formula_sum "Si O2"
_cell_formula_units_Z 52
_cell_length_a 22.439055
_cell_length_b 8.158764
_cell_length_c 15.252019
_cell_angle_alpha 90.000000
_cell_angle_beta 90.000000
_cell_angle_gamma 90.000000
_cell_volume 2792.262679
_symmetry_space_group_name_H-M "C M M 2"
_symmetry_group_IT_number 35
_symmetry_cell_setting 'orthorhombic'
loop_
_space_group_symop_operation_xyz
x,y,z
-x,-y,z
-x,y,z
x,-y,z
1/2+x,1/2+y,z
1/2-x,1/2-y,z
1/2-x,1/2+y,z
1/2+x,1/2-y,z
loop_
_atom_site_type_symbol
_atom_site_label
_atom_site_fract_x
_atom_site_fract_y
_atom_site_fract_z
Si Si1 0.566479 0.500000 0.723891
Si Si2 0.815310 0.689767 0.558872
Si Si3 0.144442 0.316137 0.756609
Si Si4 0.068358 0.000000 0.329522
Si Si5 0.397941 0.500000 0.525107
Si Si6 0.928919 0.678044 0.239838
Si Si7 0.932821 0.193363 0.044821
Si Si8 0.814937 0.310644 0.949686
O O1 0.500000 0.500000 0.757934
O O2 0.599388 0.664621 0.754000
O O3 0.567755 0.500000 0.617600
O O4 0.826997 0.500000 0.532247
O O5 0.750000 0.750000 0.532819
O O6 0.820037 0.691996 0.665240
O O7 0.859912 0.831374 0.526905
O O8 0.116819 0.500000 0.759979
O O9 0.182925 0.298211 0.844081
O O10 0.096387 0.833394 0.292006
O O11 0.067835 0.000000 0.433961
O O12 0.000000 0.000000 0.296312
O O13 0.903257 0.500000 0.262278
O O14 0.924058 0.712042 0.136297
O O15 0.000000 0.670834 0.259113
O O16 0.000000 0.236261 0.010406
O O17 0.934048 0.000000 0.064610
O O18 0.875291 0.226305 0.984829
O O19 0.820252 0.500000 0.974318
O O20 0.750000 0.250000 0.980426
#
# Coordination Sequence:
#
# PCOD9348116 Si02
#       8
#     4   8   8   4   4   8   8   8
#     4  10  21  36  55  78 111 155 189 227 281 341
#     4  10  18  33  55  78 102 140 184 233 277 325
#     4   9  21  36  53  79 110 145 194 235 279 326
#     4  10  19  34  55  82 113 143 178 227 276 326
#     4  10  21  34  52  82 112 140 179 226 283 341
#     4   9  17  32  56  83 108 139 181 226 275 332
#     4  10  20  36  58  85 116 150 191 237 286 343
#     4  11  23  37  55  83 116 153 192 245 292 338
#
# _framework density 18.622890999999999
#
# number of rings (size 3 to 8) (size 9 to 14) (size 15 to 20)
#    0.000    2.154    1.538    1.615    2.154    2.462 
#    0.000    1.538    0.000    3.692    0.000    0.000 
#    0.000    0.000    0.000    0.000    0.000    0.000 
#
# Total GULP energy -144829.152509 kJ/mol
# GULP energy per Si atom -5570.352020 kJ/mol
# Density = 1.858050 g / cm^3
# Si number density = 18.622891 Si / 1000 Ang^3
#
#
#
# Elastic Constant Matrix: (Units=GPa)
#
#
# Indices 1 2 3 4 5 6 
#
# 1 78.0218 48.1377 7.5201 0.0000 0.0000 0.0000
# 2 48.1377 166.2299 27.0874 0.0000 0.0000 0.0000
# 3 7.5201 27.0874 38.5765 0.0000 0.0000 0.0000
# 4 0.0000 0.0000 0.0000 -5.0849 0.0000 0.0000
# 5 0.0000 0.0000 0.0000 0.0000 9.2078 0.0000
# 6 0.0000 0.0000 0.0000 0.0000 0.0000 8.0040
#
#
#
# Elastic Compliance Matrix: (Units=1/GPa)
#
#
# Indices 1 2 3 4 5 6 
#
# 1 0.015606 -0.004543 0.000148 0.000000 0.000000 0.000000
# 2 -0.004543 0.008116 -0.004813 0.000000 0.000000 0.000000
# 3 0.000148 -0.004813 0.029273 0.000000 0.000000 0.000000
# 4 0.000000 0.000000 0.000000 -0.196661 0.000000 0.000000
# 5 0.000000 0.000000 0.000000 0.000000 0.108603 0.000000
# 6 0.000000 0.000000 0.000000 0.000000 0.000000 0.124938
#
#
# Mechanical properties :
#
#
# Convention : Reuss Voigt Hill
#
# Bulk Modulus (GPa) = 28.92001 49.81316 39.36659
# Shear Modulus (GPa) = 41.73038 15.76426 28.74732
#
# Velocity S-wave (km/s) = 4.73886 2.91262 3.93320
# Velocity P-wave (km/s) = 6.74576 6.17394 6.46618
#
# Compressibility (1/GPa) = 0.03457813
#
# Stress axis : x y z
#
# Youngs Moduli (GPa) = 64.07876 123.21765 34.16100
#
# Poissons Ratio (x) = 0.55982 -0.00506
# Poissons Ratio (y) = 0.29113 0.16442
# Poissons Ratio (z) = -0.00948 0.59304
#
# Static dielectric constant tensor:
#      x y z
#    x 1.661390 0.000000 0.000000 
#    y 0.000000 1.690290 0.000000 
#    z 0.000000 0.000000 1.629530 
# 
# From -- ./inp_files/15561.got.cif
#   From: 2010.05.17/outbox.cif.g08.bks.cpg/sg35_8_cif.got.tgz:15561.got - 2010.06.03 17:29:28.
