data_PCOD9348848
_publ_section_title
;
Structure prediction by ZEFSAII (Michael W. Deem and Ramdas Pophale) SiO2 
 PCOD9348848
Probable space group: C M M 2
;
_chemical_formula_sum "Si O2"
_cell_formula_units_Z 64
_cell_length_a 9.191194
_cell_length_b 18.782596
_cell_length_c 21.112002
_cell_angle_alpha 90.000000
_cell_angle_beta 90.000000
_cell_angle_gamma 90.000000
_cell_volume 3644.659564
_symmetry_space_group_name_H-M "C M M 2"
_symmetry_group_IT_number 35
_symmetry_cell_setting 'orthorhombic'
loop_
_space_group_symop_operation_xyz
x,y,z
-x,-y,z
-x,y,z
x,-y,z
1/2+x,1/2+y,z
1/2-x,1/2-y,z
1/2-x,1/2+y,z
1/2+x,1/2-y,z
loop_
_atom_site_type_symbol
_atom_site_label
_atom_site_fract_x
_atom_site_fract_y
_atom_site_fract_z
Si Si1 0.826306 0.583447 0.858810
Si Si2 0.827041 0.174076 0.112009
Si Si3 0.168216 0.413239 0.472010
Si Si4 0.175255 0.326222 0.733361
Si Si5 0.322712 0.082108 0.612324
Si Si6 0.333078 0.586808 0.346235
Si Si7 0.827222 0.174017 0.964844
Si Si8 0.669074 0.085786 0.218512
O O1 0.794859 0.500000 0.851227
O O2 0.790493 0.626118 0.794752
O O3 0.740230 0.617430 0.917015
O O4 0.000000 0.591104 0.869683
O O5 0.750000 0.250000 0.121879
O O6 0.757548 0.119071 0.160744
O O7 0.000000 0.180134 0.121728
O O8 0.802188 0.153906 0.038403
O O9 0.168378 0.500000 0.472496
O O10 0.222159 0.392652 0.542106
O O11 0.262936 0.389405 0.412490
O O12 0.000000 0.391276 0.463906
O O13 0.250000 0.250000 0.738059
O O14 0.222229 0.367785 0.669825
O O15 0.000000 0.318027 0.731090
O O16 0.500000 0.080916 0.611283
O O17 0.276065 0.000000 0.622074
O O18 0.500000 0.609556 0.340108
O O19 0.331509 0.500000 0.347171
O O20 0.239609 0.608612 0.285303
O O21 0.750000 0.250000 0.953829
O O22 0.000000 0.181417 0.955136
O O23 0.500000 0.106635 0.215476
O O24 0.676698 0.000000 0.215714
#
# Coordination Sequence:
#
# PCOD9348848 Si02
#       8
#     8   8   8   8   8   8   8   8
#     4  10  21  36  55  79 106 136 171 213 258 304
#     4  10  21  37  56  77 103 136 173 211 254 306
#     4   8  13  23  42  67  92 120 159 207 255 302
#     4  10  20  34  52  74 101 134 171 208 250 302
#     4   8  14  27  49  73  95 124 165 210 252 298
#     4   9  16  26  42  67 100 134 166 205 255 307
#     4  10  21  37  57  79 104 136 172 210 253 305
#     4  10  20  33  51  76 105 137 174 216 259 304
#
# _framework density 17.559939
#
# number of rings (size 3 to 8) (size 9 to 14) (size 15 to 20)
#    0.000    2.625    0.000    3.000    0.000    7.500 
#    0.000    3.125    0.000    2.625    0.000    3.500 
#    0.000    0.000    0.000    0.000    0.000    0.000 
#
# Total GULP energy -178468.708580 kJ/mol
# GULP energy per Si atom -5577.147143 kJ/mol
# Density = 1.751997 g / cm^3
# Si number density = 17.559939 Si / 1000 Ang^3
#
#
#
# Elastic Constant Matrix: (Units=GPa)
#
#
# Indices 1 2 3 4 5 6 
#
# 1 83.4900 45.7025 81.3698 0.0000 0.0000 0.0000
# 2 45.7025 70.5700 74.3621 0.0000 0.0000 0.0000
# 3 81.3698 74.3621 150.1078 0.0000 0.0000 0.0000
# 4 0.0000 0.0000 0.0000 -35.1142 0.0000 0.0000
# 5 0.0000 0.0000 0.0000 0.0000 1.7947 0.0000
# 6 0.0000 0.0000 0.0000 0.0000 0.0000 25.6184
#
#
#
# Elastic Compliance Matrix: (Units=1/GPa)
#
#
# Indices 1 2 3 4 5 6 
#
# 1 0.025961 -0.004150 -0.012017 0.000000 0.000000 0.000000
# 2 -0.004150 0.030309 -0.012765 0.000000 0.000000 0.000000
# 3 -0.012017 -0.012765 0.019500 0.000000 0.000000 0.000000
# 4 0.000000 0.000000 0.000000 -0.028478 0.000000 0.000000
# 5 0.000000 0.000000 0.000000 0.000000 0.557210 0.000000
# 6 0.000000 0.000000 0.000000 0.000000 0.000000 0.039034
#
#
# Mechanical properties :
#
#
# Convention : Reuss Voigt Hill
#
# Bulk Modulus (GPa) = 55.84928 78.55963 67.20445
# Shear Modulus (GPa) = 7.06845 5.30867 6.18856
#
# Velocity S-wave (km/s) = 2.00850 1.74061 1.87933
# Velocity P-wave (km/s) = 6.10350 6.99105 6.56230
#
# Compressibility (1/GPa) = 0.01790534
#
# Stress axis : x y z
#
# Youngs Moduli (GPa) = 38.51930 32.99329 51.28307
#
# Poissons Ratio (x) = 0.13693 0.61626
# Poissons Ratio (y) = 0.15987 0.65463
# Poissons Ratio (z) = 0.46288 0.42116
#
# Static dielectric constant tensor:
#      x y z
#    x 1.586790 0.000000 0.000000 
#    y 0.000000 1.573640 0.000000 
#    z 0.000000 0.000000 1.597990 
# 
# From -- ./inp_files/18369.got.cif
#   From: 2010.05.17/outbox.cif.g08.bks.cpg/sg35_10_cif.got.tgz:18369.got - 2010.06.03 17:29:28.
