data_PCOD9348729
_publ_section_title
;
Structure prediction by ZEFSAII (Michael W. Deem and Ramdas Pophale) SiO2 
 PCOD9348729
Probable space group: C M M 2
;
_chemical_formula_sum "Si O2"
_cell_formula_units_Z 64
_cell_length_a 28.993738
_cell_length_b 8.064857
_cell_length_c 14.419527
_cell_angle_alpha 90.000000
_cell_angle_beta 90.000000
_cell_angle_gamma 90.000000
_cell_volume 3371.723058
_symmetry_space_group_name_H-M "C M M 2"
_symmetry_group_IT_number 35
_symmetry_cell_setting 'orthorhombic'
loop_
_space_group_symop_operation_xyz
x,y,z
-x,-y,z
-x,y,z
x,-y,z
1/2+x,1/2+y,z
1/2-x,1/2-y,z
1/2-x,1/2+y,z
1/2+x,1/2-y,z
loop_
_atom_site_type_symbol
_atom_site_label
_atom_site_fract_x
_atom_site_fract_y
_atom_site_fract_z
Si Si1 0.376051 0.692729 0.834820
Si Si2 0.054267 0.685641 0.193727
Si Si3 0.877386 0.185726 0.330630
Si Si4 0.051590 0.696453 0.481785
Si Si5 0.948416 0.197298 0.692324
Si Si6 0.947713 0.189292 0.000899
Si Si7 0.196660 0.799327 0.188367
Si Si8 0.803225 0.200844 0.979378
O O1 0.364287 0.500000 0.811863
O O2 0.403937 0.766394 0.747414
O O3 0.332440 0.764902 0.891193
O O4 0.414760 0.695113 0.914434
O O5 0.062996 0.500000 0.230437
O O6 0.084144 0.812775 0.250388
O O7 0.065898 0.695777 0.085671
O O8 0.000000 0.718877 0.201001
O O9 0.905372 0.264211 0.415690
O O10 0.834180 0.263847 0.274566
O O11 0.864351 0.000000 0.358782
O O12 0.050257 0.500000 0.495082
O O13 0.056734 0.778111 0.582526
O O14 0.000000 0.745816 0.444579
O O15 0.000000 0.262649 0.717653
O O16 0.949427 0.000000 0.712901
O O17 0.000000 0.226967 0.972696
O O18 0.946692 0.000000 0.037099
O O19 0.250000 0.750000 0.198730
O O20 0.192926 0.000000 0.189186
O O21 0.181718 0.744706 0.083862
O O22 0.750000 0.250000 0.970441
O O23 0.807640 0.000000 0.979178
#
# Coordination Sequence:
#
# PCOD9348729 Si02
#       8
#     8   8   8   8   8   8   8   8
#     4   9  16  28  49  73  96 124 160 203 246 287
#     4  10  20  31  42  63  98 134 164 196 238 289
#     4  11  21  33  52  75  96 124 166 209 247 293
#     4  10  21  36  52  73 103 135 165 202 251 302
#     4   9  17  31  52  76  99 126 164 206 247 295
#     4   9  16  27  44  66  93 125 159 194 235 287
#     4   9  19  34  52  75 102 131 164 203 247 296
#     4   9  17  31  49  70  99 131 162 198 240 286
#
# _framework density 18.981392
#
# number of rings (size 3 to 8) (size 9 to 14) (size 15 to 20)
#    0.000    2.500    0.000    2.625    0.000    7.500 
#    0.000    4.375    0.000    3.750    0.000    1.750 
#    0.000    0.000    0.000    0.000    0.000    0.000 
#
# Total GULP energy -178222.147001 kJ/mol
# GULP energy per Si atom -5569.442094 kJ/mol
# Density = 1.893819 g / cm^3
# Si number density = 18.981392 Si / 1000 Ang^3
#
#
#
# Elastic Constant Matrix: (Units=GPa)
#
#
# Indices 1 2 3 4 5 6 
#
# 1 97.5715 7.0966 50.9397 0.0000 0.0000 0.0000
# 2 7.0966 12.3870 2.4501 0.0000 0.0000 0.0000
# 3 50.9397 2.4501 73.8875 0.0000 0.0000 0.0000
# 4 0.0000 0.0000 0.0000 4.8361 0.0000 0.0000
# 5 0.0000 0.0000 0.0000 0.0000 35.1448 0.0000
# 6 0.0000 0.0000 0.0000 0.0000 0.0000 15.9405
#
#
#
# Elastic Compliance Matrix: (Units=1/GPa)
#
#
# Indices 1 2 3 4 5 6 
#
# 1 0.016645 -0.007314 -0.011233 0.000000 0.000000 0.000000
# 2 -0.007314 0.084477 0.002241 0.000000 0.000000 0.000000
# 3 -0.011233 0.002241 0.021204 0.000000 0.000000 0.000000
# 4 0.000000 0.000000 0.000000 0.206777 0.000000 0.000000
# 5 0.000000 0.000000 0.000000 0.000000 0.028454 0.000000
# 6 0.000000 0.000000 0.000000 0.000000 0.000000 0.062733
#
#
# Mechanical properties :
#
#
# Convention : Reuss Voigt Hill
#
# Bulk Modulus (GPa) = 11.14654 33.86876 22.50765
# Shear Modulus (GPa) = 10.35610 19.40826 14.88218
#
# Velocity S-wave (km/s) = 2.33833 3.20111 2.80311
# Velocity P-wave (km/s) = 3.62980 5.61646 4.72864
#
# Compressibility (1/GPa) = 0.08971390
#
# Stress axis : x y z
#
# Youngs Moduli (GPa) = 60.07647 11.83760 47.16052
#
# Poissons Ratio (x) = 0.08658 0.52976
# Poissons Ratio (y) = 0.43942 -0.10571
# Poissons Ratio (z) = 0.67485 -0.02653
#
# Static dielectric constant tensor:
#      x y z
#    x 1.682400 0.000000 0.000000 
#    y 0.000000 1.687020 0.000000 
#    z 0.000000 0.000000 1.671410 
# 
# From -- ./inp_files/17736.got.cif
#   From: 2010.05.17/outbox.cif.g08.bks.cpg/sg35_9_cif.got.tgz:17736.got - 2010.06.03 17:29:28.
