data_PCOD9348565
_publ_section_title
;
Structure prediction by ZEFSAII (Michael W. Deem and Ramdas Pophale) SiO2 
 PCOD9348565
Probable space group: C M M 2
;
_chemical_formula_sum "Si O2"
_cell_formula_units_Z 64
_cell_length_a 34.937167
_cell_length_b 11.682684
_cell_length_c 7.463887
_cell_angle_alpha 90.000000
_cell_angle_beta 90.000000
_cell_angle_gamma 90.000000
_cell_volume 3046.459237
_symmetry_space_group_name_H-M "C M M 2"
_symmetry_group_IT_number 35
_symmetry_cell_setting 'orthorhombic'
loop_
_space_group_symop_operation_xyz
x,y,z
-x,-y,z
-x,y,z
x,-y,z
1/2+x,1/2+y,z
1/2-x,1/2-y,z
1/2-x,1/2+y,z
1/2+x,1/2-y,z
loop_
_atom_site_type_symbol
_atom_site_label
_atom_site_fract_x
_atom_site_fract_y
_atom_site_fract_z
Si Si1 0.542398 0.698337 0.653010
Si Si2 0.150989 0.298685 0.849636
Si Si3 0.846058 0.129622 0.186355
Si Si4 0.544341 0.128287 0.323959
Si Si5 0.232846 0.625654 0.926120
Si Si6 0.568503 0.872088 0.935903
Si Si7 0.759134 0.127302 0.330947
Si Si8 0.624482 0.627142 0.563917
O O1 0.500000 0.644652 0.644035
O O2 0.546782 0.784237 0.485222
O O3 0.545464 0.776215 0.829585
O O4 0.581186 0.626317 0.639031
O O5 0.151461 0.214964 0.021898
O O6 0.189433 0.370487 0.859556
O O7 0.111600 0.367561 0.862258
O O8 0.148103 0.219788 0.674430
O O9 0.803398 0.131858 0.269654
O O10 0.873903 0.154560 0.353028
O O11 0.853596 0.000000 0.122827
O O12 0.500000 0.128292 0.263828
O O13 0.553819 0.000000 0.388291
O O14 0.568474 0.152982 0.147228
O O15 0.250354 0.500000 0.876266
O O16 0.250000 0.750000 0.870077
O O17 0.235394 0.628107 0.143611
O O18 0.552544 0.000000 0.911747
O O19 0.750000 0.250000 0.423649
O O20 0.752547 0.000000 0.414983
O O21 0.641184 0.500000 0.583970
#
# Coordination Sequence:
#
# PCOD9348565 Si02
#       8
#     8   8   8   8   8   8   8   8
#     4  10  20  35  55  76 106 146 183 230 287 340
#     4  11  20  35  57  80 112 150 187 234 290 343
#     4  10  19  35  58  80 109 148 188 235 286 341
#     4   9  17  30  50  77 106 138 180 225 273 338
#     4  10  19  33  57  87 116 152 197 240 289 348
#     4  10  20  32  50  79 111 144 183 228 282 343
#     4   9  16  30  54  81 108 145 187 228 278 336
#     4  10  23  38  55  84 112 142 193 241 285 348
#
# _framework density 21.007994
#
# number of rings (size 3 to 8) (size 9 to 14) (size 15 to 20)
#    0.000    2.125    2.500    2.250    0.000    2.000 
#    0.000    0.625    0.000    7.500    0.000    3.500 
#    0.000    0.000    0.000    0.000    0.000    0.000 
#
# Total GULP energy -178456.871305 kJ/mol
# GULP energy per Si atom -5576.777228 kJ/mol
# Density = 2.096018 g / cm^3
# Si number density = 21.007994 Si / 1000 Ang^3
#
#
#
# Elastic Constant Matrix: (Units=GPa)
#
#
# Indices 1 2 3 4 5 6 
#
# 1 54.4326 7.8994 -13.4616 0.0000 0.0000 0.0000
# 2 7.8994 137.5548 29.7405 0.0000 0.0000 0.0000
# 3 -13.4616 29.7405 32.4891 0.0000 0.0000 0.0000
# 4 0.0000 0.0000 0.0000 16.0581 0.0000 0.0000
# 5 0.0000 0.0000 0.0000 0.0000 15.0916 0.0000
# 6 0.0000 0.0000 0.0000 0.0000 0.0000 25.9882
#
#
#
# Elastic Compliance Matrix: (Units=1/GPa)
#
#
# Indices 1 2 3 4 5 6 
#
# 1 0.022149 -0.004060 0.012894 0.000000 0.000000 0.000000
# 2 -0.004060 0.009808 -0.010660 0.000000 0.000000 0.000000
# 3 0.012894 -0.010660 0.045880 0.000000 0.000000 0.000000
# 4 0.000000 0.000000 0.000000 0.062274 0.000000 0.000000
# 5 0.000000 0.000000 0.000000 0.000000 0.066262 0.000000
# 6 0.000000 0.000000 0.000000 0.000000 0.000000 0.038479
#
#
# Mechanical properties :
#
#
# Convention : Reuss Voigt Hill
#
# Bulk Modulus (GPa) = 13.47987 30.31480 21.89734
# Shear Modulus (GPa) = 18.29942 24.78078 21.54010
#
# Velocity S-wave (km/s) = 2.95459 3.43824 3.20555
# Velocity P-wave (km/s) = 4.25088 5.49758 4.91393
#
# Compressibility (1/GPa) = 0.07418469
#
# Stress axis : x y z
#
# Youngs Moduli (GPa) = 45.14837 101.95992 21.79591
#
# Poissons Ratio (x) = 0.41392 -0.28103
# Poissons Ratio (y) = 0.18329 0.23235
# Poissons Ratio (z) = -0.58212 1.08691
#
# Static dielectric constant tensor:
#      x y z
#    x 1.779020 0.000000 0.000000 
#    y 0.000000 1.792190 0.000000 
#    z 0.000000 0.000000 1.724710 
# 
# From -- ./inp_files/10640.got.cif
#   From: 2010.05.17/outbox.cif.g08.bks.cpg/sg35_6_cif.got.tgz:10640.got - 2010.06.03 17:29:28.
