data_PCOD9348046
_publ_section_title
;
Structure prediction by ZEFSAII (Michael W. Deem and Ramdas Pophale) SiO2 
 PCOD9348046
Probable space group: P N N 2
;
_chemical_formula_sum "Si O2"
_cell_formula_units_Z 20
_cell_length_a 9.724818
_cell_length_b 15.155242
_cell_length_c 4.934119
_cell_angle_alpha 90.000000
_cell_angle_beta 90.000000
_cell_angle_gamma 90.000000
_cell_volume 727.200179
_symmetry_space_group_name_H-M "P N N 2"
_symmetry_group_IT_number 34
_symmetry_cell_setting 'orthorhombic'
loop_
_space_group_symop_operation_xyz
x,y,z
-x,-y,z
1/2-x,1/2+y,1/2+z
1/2+x,1/2-y,1/2+z
loop_
_atom_site_type_symbol
_atom_site_label
_atom_site_fract_x
_atom_site_fract_y
_atom_site_fract_z
Si Si1 0.344720 0.527685 0.482460
Si Si2 0.735368 0.829298 0.383394
Si Si3 0.478054 0.271031 0.082496
Si Si4 0.499869 0.099265 0.729106
Si Si5 0.219752 0.921581 0.454279
O O1 0.500000 0.500000 0.556616
O O2 0.302339 0.622076 0.617468
O O3 0.254054 0.461108 0.660680
O O4 0.331684 0.495669 0.171505
O O5 0.630079 0.747813 0.325994
O O6 0.628732 0.894803 0.526933
O O7 0.862729 0.800962 0.575646
O O8 0.480289 0.176332 0.941426
O O9 0.397259 0.348303 0.931493
O O10 0.639579 0.117432 0.568631
O O11 0.500000 0.000000 0.836998
#
# Coordination Sequence:
#
# PCOD9348046 Si02
#       5
#     4   4   4   4   4
#     4  12  27  52  87 123 168 222 286 349 433 522
#     4  12  29  49  84 122 175 228 295 356 452 514
#     4  12  29  50  80 126 165 233 278 373 419 537
#     4  12  28  51  81 121 173 225 292 359 439 517
#     4  12  28  52  83 122 166 220 285 358 427 515
#
# _framework density 27.502745999999998
#
# number of rings (size 3 to 8) (size 9 to 14) (size 15 to 20)
#    0.000    0.000    6.000    1.800    8.400    0.800 
#    0.000    0.000    0.000    0.000    0.000    0.000 
#    0.000    0.000    0.000    0.000    0.000    0.000 
#
# Total GULP energy -111990.573096 kJ/mol
# GULP energy per Si atom -5599.528655 kJ/mol
# Density = 2.744015 g / cm^3
# Si number density = 27.502746 Si / 1000 Ang^3
#
#
#
# Elastic Constant Matrix: (Units=GPa)
#
#
# Indices 1 2 3 4 5 6 
#
# 1 246.5715 41.5825 40.9415 0.0000 0.0000 0.0000
# 2 41.5825 117.1146 49.5672 0.0000 0.0000 0.0000
# 3 40.9415 49.5672 89.5835 0.0000 0.0000 0.0000
# 4 0.0000 0.0000 0.0000 33.7356 0.0000 0.0000
# 5 0.0000 0.0000 0.0000 0.0000 35.0135 0.0000
# 6 0.0000 0.0000 0.0000 0.0000 0.0000 50.5337
#
#
#
# Elastic Compliance Matrix: (Units=1/GPa)
#
#
# Indices 1 2 3 4 5 6 
#
# 1 0.004467 -0.000943 -0.001520 0.000000 0.000000 0.000000
# 2 -0.000943 0.011349 -0.005848 0.000000 0.000000 0.000000
# 3 -0.001520 -0.005848 0.015093 0.000000 0.000000 0.000000
# 4 0.000000 0.000000 0.000000 0.029642 0.000000 0.000000
# 5 0.000000 0.000000 0.000000 0.000000 0.028560 0.000000
# 6 0.000000 0.000000 0.000000 0.000000 0.000000 0.019789
#
#
# Mechanical properties :
#
#
# Convention : Reuss Voigt Hill
#
# Bulk Modulus (GPa) = 69.99435 79.71688 74.85561
# Shear Modulus (GPa) = 38.37745 45.26845 41.82295
#
# Velocity S-wave (km/s) = 3.73956 4.06145 3.90382
# Velocity P-wave (km/s) = 6.64462 7.14435 6.89901
#
# Compressibility (1/GPa) = 0.01428687
#
# Stress axis : x y z
#
# Youngs Moduli (GPa) = 223.86528 88.11619 66.25441
#
# Poissons Ratio (x) = 0.08307 0.10070
# Poissons Ratio (y) = 0.21106 0.38748
# Poissons Ratio (z) = 0.34024 0.51534
#
# Static dielectric constant tensor:
#      x y z
#    x 2.129540 0.000000 0.000000 
#    y 0.000000 2.188470 0.000000 
#    z 0.000000 0.000000 2.190300 
# 
# From -- ./inp_files/426.got.cif
#   From: 2010.05.17/outbox.cif.g08.bks.cpg/sg34_1_cif.got.tgz:426.got - 2010.06.03 17:23:11.
