data_PCOD9348252
_publ_section_title
;
Structure prediction by ZEFSAII (Michael W. Deem and Ramdas Pophale) SiO2 
 PCOD9348252
Probable space group: C M M 2
;
_chemical_formula_sum "Si O2"
_cell_formula_units_Z 48
_cell_length_a 15.826120
_cell_length_b 8.329090
_cell_length_c 18.059096
_cell_angle_alpha 90.000000
_cell_angle_beta 90.000000
_cell_angle_gamma 90.000000
_cell_volume 2380.499069
_symmetry_space_group_name_H-M "C M M 2"
_symmetry_group_IT_number 35
_symmetry_cell_setting 'orthorhombic'
loop_
_space_group_symop_operation_xyz
x,y,z
-x,-y,z
-x,y,z
x,-y,z
1/2+x,1/2+y,z
1/2-x,1/2-y,z
1/2-x,1/2+y,z
1/2+x,1/2-y,z
loop_
_atom_site_type_symbol
_atom_site_label
_atom_site_fract_x
_atom_site_fract_y
_atom_site_fract_z
Si Si1 0.847080 0.694443 0.289350
Si Si2 0.598132 0.315528 0.767150
Si Si3 0.659969 0.694281 0.921301
Si Si4 0.000000 0.305857 0.185702
Si Si5 0.346500 0.809140 0.611841
Si Si6 0.000000 0.194110 0.017300
Si Si7 0.652535 0.193959 0.452773
O O1 0.845604 0.500000 0.288735
O O2 0.750000 0.750000 0.278110
O O3 0.915322 0.748769 0.228910
O O4 0.878050 0.747149 0.371807
O O5 0.500000 0.314522 0.789235
O O6 0.625773 0.500000 0.757972
O O7 0.647579 0.243818 0.836965
O O8 0.608133 0.238597 0.687145
O O9 0.656915 0.500000 0.917891
O O10 0.750000 0.750000 0.950224
O O11 0.583071 0.748318 0.972796
O O12 0.000000 0.251119 0.101326
O O13 0.000000 0.500000 0.187914
O O14 0.250000 0.750000 0.617605
O O15 0.383279 0.750361 0.532394
O O16 0.345558 0.000000 0.608363
O O17 0.000000 0.000000 0.016689
O O18 0.750000 0.250000 0.454500
O O19 0.648041 0.000000 0.452228
#
# Coordination Sequence:
#
# PCOD9348252 Si02
#       7
#     8   8   8   4   8   4   8
#     4   9  18  35  57  81 110 147 185 225 272 325
#     4  10  20  36  55  75 108 149 185 226 277 327
#     4  10  21  39  62  85 109 145 185 223 271 330
#     4  10  22  38  58  85 114 142 178 223 276 330
#     4  10  19  31  49  77 108 142 186 231 273 321
#     4  10  22  42  62  81 112 146 178 219 274 334
#     4   8  15  29  49  73 102 141 182 223 268 314
#
# _framework density 20.163838999999999
#
# number of rings (size 3 to 8) (size 9 to 14) (size 15 to 20)
#    0.000    2.500    0.833    1.000    0.000    5.000 
#    1.500    3.333    0.000    0.000    0.000    0.000 
#    0.000    0.000    0.000    0.000    0.000    0.000 
#
# Total GULP energy -133783.013965 kJ/mol
# GULP energy per Si atom -5574.292249 kJ/mol
# Density = 2.011795 g / cm^3
# Si number density = 20.163839 Si / 1000 Ang^3
#
#
#
# Elastic Constant Matrix: (Units=GPa)
#
#
# Indices 1 2 3 4 5 6 
#
# 1 104.3193 9.6488 78.5622 0.0000 0.0000 0.0000
# 2 9.6488 9.1561 19.8020 0.0000 0.0000 0.0000
# 3 78.5622 19.8020 180.1717 0.0000 0.0000 0.0000
# 4 0.0000 0.0000 0.0000 27.9906 0.0000 0.0000
# 5 0.0000 0.0000 0.0000 0.0000 -2.0926 0.0000
# 6 0.0000 0.0000 0.0000 0.0000 0.0000 20.1541
#
#
#
# Elastic Compliance Matrix: (Units=1/GPa)
#
#
# Indices 1 2 3 4 5 6 
#
# 1 0.014303 -0.002078 -0.006008 0.000000 0.000000 0.000000
# 2 -0.002078 0.143574 -0.014873 0.000000 0.000000 0.000000
# 3 -0.006008 -0.014873 0.009805 0.000000 0.000000 0.000000
# 4 0.000000 0.000000 0.000000 0.035726 0.000000 0.000000
# 5 0.000000 0.000000 0.000000 0.000000 -0.477868 0.000000
# 6 0.000000 0.000000 0.000000 0.000000 0.000000 0.049618
#
#
# Mechanical properties :
#
#
# Convention : Reuss Voigt Hill
#
# Bulk Modulus (GPa) = 8.21276 56.63033 32.42155
# Shear Modulus (GPa) = -36.14434 21.58601 -7.27917
#
# Velocity S-wave (km/s) = -4.23842 3.27545 -1.90206
# Velocity P-wave (km/s) = 4.45763 6.51543 3.36008
#
# Compressibility (1/GPa) = 0.12176171
#
# Stress axis : x y z
#
# Youngs Moduli (GPa) = 69.91558 6.96504 101.99103
#
# Poissons Ratio (x) = 0.01448 0.61279
# Poissons Ratio (y) = 0.14532 1.51696
# Poissons Ratio (z) = 0.42007 0.10359
#
# Static dielectric constant tensor:
#      x y z
#    x 1.696720 0.000000 0.000000 
#    y 0.000000 1.711630 0.000000 
#    z 0.000000 0.000000 1.751360 
# 
# From -- ./inp_files/15190.got.cif
#   From: 2010.05.17/outbox.cif.g08.bks.cpg/sg35_8_cif.got.tgz:15190.got - 2010.06.03 17:29:28.
