data_PCOD9348510
_publ_section_title
;
Structure prediction by ZEFSAII (Michael W. Deem and Ramdas Pophale) SiO2 
 PCOD9348510
Probable space group: C M M 2
;
_chemical_formula_sum "Si O2"
_cell_formula_units_Z 56
_cell_length_a 19.556729
_cell_length_b 8.641546
_cell_length_c 18.381236
_cell_angle_alpha 90.000000
_cell_angle_beta 90.000000
_cell_angle_gamma 90.000000
_cell_volume 3106.435745
_symmetry_space_group_name_H-M "C M M 2"
_symmetry_group_IT_number 35
_symmetry_cell_setting 'orthorhombic'
loop_
_space_group_symop_operation_xyz
x,y,z
-x,-y,z
-x,y,z
x,-y,z
1/2+x,1/2+y,z
1/2-x,1/2-y,z
1/2-x,1/2+y,z
1/2+x,1/2-y,z
loop_
_atom_site_type_symbol
_atom_site_label
_atom_site_fract_x
_atom_site_fract_y
_atom_site_fract_z
Si Si1 0.420361 0.812863 0.177350
Si Si2 0.421568 0.188469 0.759172
Si Si3 0.174301 0.685505 0.312521
Si Si4 0.325119 0.316539 0.470626
Si Si5 0.326351 0.315217 0.049552
Si Si6 0.581464 0.184867 0.596273
Si Si7 0.674093 0.813435 0.891736
O O1 0.500000 0.767105 0.178770
O O2 0.380141 0.769448 0.251055
O O3 0.379118 0.740917 0.110302
O O4 0.417611 0.000000 0.171282
O O5 0.500000 0.238444 0.769432
O O6 0.398425 0.235525 0.678178
O O7 0.374490 0.237238 0.825819
O O8 0.421876 0.000000 0.758524
O O9 0.178372 0.500000 0.315144
O O10 0.250000 0.750000 0.295161
O O11 0.154797 0.747151 0.392196
O O12 0.320589 0.500000 0.464082
O O13 0.250000 0.250000 0.487750
O O14 0.377019 0.268550 0.533570
O O15 0.322554 0.500000 0.047494
O O16 0.250000 0.250000 0.064832
O O17 0.347440 0.251071 0.970348
O O18 0.500000 0.210147 0.589503
O O19 0.593164 0.000000 0.590291
O O20 0.750000 0.750000 0.878550
O O21 0.675265 0.000000 0.895021
#
# Coordination Sequence:
#
# PCOD9348510 Si02
#       7
#     8   8   8   8   8   8   8
#     4  10  22  39  58  82 111 142 177 217 263 316
#     4   8  16  32  54  78 103 137 179 218 261 316
#     4  10  20  36  58  81 106 140 180 220 266 318
#     4  11  22  36  55  80 110 142 180 223 267 316
#     4  11  22  37  57  80 108 143 182 221 266 318
#     4   9  18  35  57  79 107 143 181 220 266 321
#     4  10  19  33  54  79 107 138 176 221 267 316
#
# _framework density 18.027092
#
# number of rings (size 3 to 8) (size 9 to 14) (size 15 to 20)
#    0.000    2.143    0.000    6.429    0.000    4.571 
#    0.000    5.714    0.000    3.000    0.000    0.000 
#    0.000    0.000    0.000    0.000    0.000    0.000 
#
# Total GULP energy -156322.540731 kJ/mol
# GULP energy per Si atom -5582.947883 kJ/mol
# Density = 1.798606 g / cm^3
# Si number density = 18.027092 Si / 1000 Ang^3
#
#
#
# Elastic Constant Matrix: (Units=GPa)
#
#
# Indices 1 2 3 4 5 6 
#
# 1 96.4963 46.6006 114.1313 0.0000 0.0000 0.0000
# 2 46.6006 68.3735 59.1450 0.0000 0.0000 0.0000
# 3 114.1313 59.1450 173.2640 0.0000 0.0000 0.0000
# 4 0.0000 0.0000 0.0000 12.6544 0.0000 0.0000
# 5 0.0000 0.0000 0.0000 0.0000 40.0611 0.0000
# 6 0.0000 0.0000 0.0000 0.0000 0.0000 26.7968
#
#
#
# Elastic Compliance Matrix: (Units=1/GPa)
#
#
# Indices 1 2 3 4 5 6 
#
# 1 0.049739 -0.007888 -0.030072 0.000000 0.000000 0.000000
# 2 -0.007888 0.022005 -0.002316 0.000000 0.000000 0.000000
# 3 -0.030072 -0.002316 0.026371 0.000000 0.000000 0.000000
# 4 0.000000 0.000000 0.000000 0.079024 0.000000 0.000000
# 5 0.000000 0.000000 0.000000 0.000000 0.024962 0.000000
# 6 0.000000 0.000000 0.000000 0.000000 0.000000 0.037318
#
#
# Mechanical properties :
#
#
# Convention : Reuss Voigt Hill
#
# Bulk Modulus (GPa) = 56.93213 86.43195 71.68204
# Shear Modulus (GPa) = 15.34574 23.78625 19.56599
#
# Velocity S-wave (km/s) = 2.92080 3.63639 3.29806
# Velocity P-wave (km/s) = 6.55933 8.10437 7.37243
#
# Compressibility (1/GPa) = 0.01756477
#
# Stress axis : x y z
#
# Youngs Moduli (GPa) = 20.10475 45.44492 37.92108
#
# Poissons Ratio (x) = 0.35846 1.14035
# Poissons Ratio (y) = 0.15858 0.08781
# Poissons Ratio (z) = 0.60458 0.10524
#
# Static dielectric constant tensor:
#      x y z
#    x 1.593000 0.000000 0.000000 
#    y 0.000000 1.610110 0.000000 
#    z 0.000000 0.000000 1.610390 
# 
# From -- ./inp_files/15654.got.cif
#   From: 2010.05.17/outbox.cif.g08.bks.cpg/sg35_8_cif.got.tgz:15654.got - 2010.06.03 17:29:28.
