data_PCOD9348217
_publ_section_title
;
Structure prediction by ZEFSAII (Michael W. Deem and Ramdas Pophale) SiO2 
 PCOD9348217
Probable space group: C M M 2
;
_chemical_formula_sum "Si O2"
_cell_formula_units_Z 64
_cell_length_a 28.482253
_cell_length_b 15.281588
_cell_length_c 8.504059
_cell_angle_alpha 90.000000
_cell_angle_beta 90.000000
_cell_angle_gamma 90.000000
_cell_volume 3701.426169
_symmetry_space_group_name_H-M "C M M 2"
_symmetry_group_IT_number 35
_symmetry_cell_setting 'orthorhombic'
loop_
_space_group_symop_operation_xyz
x,y,z
-x,-y,z
-x,y,z
x,-y,z
1/2+x,1/2+y,z
1/2-x,1/2-y,z
1/2-x,1/2+y,z
1/2+x,1/2-y,z
loop_
_atom_site_type_symbol
_atom_site_label
_atom_site_fract_x
_atom_site_fract_y
_atom_site_fract_z
Si Si1 0.730104 0.654110 0.416870
Si Si2 0.718737 0.401760 0.068061
Si Si3 0.829068 0.403634 0.454614
Si Si4 0.137556 0.778186 0.575480
Si Si5 0.862488 0.776513 0.950874
Si Si6 0.672325 0.901493 0.074593
Si Si7 0.053617 0.099929 0.955198
Si Si8 0.553486 0.400078 0.571692
O O1 0.750000 0.750000 0.368802
O O2 0.717462 0.604284 0.257624
O O3 0.774284 0.609222 0.501797
O O4 0.684320 0.671085 0.519689
O O5 0.705397 0.500000 0.017569
O O6 0.773330 0.386941 0.024861
O O7 0.683610 0.329846 0.002959
O O8 0.845395 0.500000 0.504011
O O9 0.857944 0.320956 0.514724
O O10 0.828406 0.400115 0.264574
O O11 0.136224 0.775383 0.762999
O O12 0.092066 0.830936 0.516905
O O13 0.907835 0.830566 0.009455
O O14 0.858543 0.677921 0.012580
O O15 0.658702 0.000000 0.024782
O O16 0.054015 0.100705 0.763456
O O17 0.000000 0.119066 0.003940
O O18 0.065159 0.000000 0.003000
O O19 0.500000 0.380373 0.522978
O O20 0.564751 0.500000 0.523919
#
# Coordination Sequence:
#
# PCOD9348217 Si02
#       8
#     8   8   8   8   8   8   8   8
#     4   9  17  31  47  64  91 128 163 186 217 269
#     4  10  19  31  47  66  91 128 164 188 218 269
#     4   9  18  34  50  64  89 128 166 190 217 269
#     4  10  20  29  46  75  97 117 149 195 241 275
#     4  11  19  29  47  73  99 117 148 196 241 275
#     4   9  19  34  50  65  88 128 167 190 217 269
#     4   8  15  29  47  67  93 124 152 178 220 280
#     4   8  15  29  47  66  92 124 152 180 222 279
#
# _framework density 17.290633
#
# number of rings (size 3 to 8) (size 9 to 14) (size 15 to 20)
#    0.000    2.750    0.000    4.875    0.000    5.000 
#    0.000    1.250    0.000    3.750    0.000   12.250 
#    0.000    0.000    0.000    0.000    0.000    0.000 
#
# Total GULP energy -178374.244978 kJ/mol
# GULP energy per Si atom -5574.195156 kJ/mol
# Density = 1.725128 g / cm^3
# Si number density = 17.290633 Si / 1000 Ang^3
#
#
#
# Elastic Constant Matrix: (Units=GPa)
#
#
# Indices 1 2 3 4 5 6 
#
# 1 101.9771 93.3535 20.2272 0.0000 0.0000 0.0000
# 2 93.3535 154.9136 23.2719 0.0000 0.0000 0.0000
# 3 20.2272 23.2719 13.5452 0.0000 0.0000 0.0000
# 4 0.0000 0.0000 0.0000 14.7810 0.0000 0.0000
# 5 0.0000 0.0000 0.0000 0.0000 64.4340 0.0000
# 6 0.0000 0.0000 0.0000 0.0000 0.0000 30.4638
#
#
#
# Elastic Compliance Matrix: (Units=1/GPa)
#
#
# Indices 1 2 3 4 5 6 
#
# 1 0.023871 -0.012172 -0.014735 0.000000 0.000000 0.000000
# 2 -0.012172 0.014907 -0.007436 0.000000 0.000000 0.000000
# 3 -0.014735 -0.007436 0.108606 0.000000 0.000000 0.000000
# 4 0.000000 0.000000 0.000000 0.067654 0.000000 0.000000
# 5 0.000000 0.000000 0.000000 0.000000 0.015520 0.000000
# 6 0.000000 0.000000 0.000000 0.000000 0.000000 0.032826
#
#
# Mechanical properties :
#
#
# Convention : Reuss Voigt Hill
#
# Bulk Modulus (GPa) = 12.70660 60.46013 36.58337
# Shear Modulus (GPa) = 13.95471 30.84132 22.39802
#
# Velocity S-wave (km/s) = 2.84398 4.22797 3.60305
# Velocity P-wave (km/s) = 4.26017 7.67315 6.20589
#
# Compressibility (1/GPa) = 0.07869928
#
# Stress axis : x y z
#
# Youngs Moduli (GPa) = 41.89155 67.08244 9.20760
#
# Poissons Ratio (x) = 0.81650 0.13568
# Poissons Ratio (y) = 0.50989 0.06846
# Poissons Ratio (z) = 0.61728 0.49880
#
# Static dielectric constant tensor:
#      x y z
#    x 1.581990 0.000000 0.000000 
#    y 0.000000 1.605580 0.000000 
#    z 0.000000 0.000000 1.594410 
# 
# From -- ./inp_files/10664.got.cif
#   From: 2010.05.17/outbox.cif.g08.bks.cpg/sg35_6_cif.got.tgz:10664.got - 2010.06.03 17:29:28.
