data_PCOD9348796
_publ_section_title
;
Structure prediction by ZEFSAII (Michael W. Deem and Ramdas Pophale) SiO2 
 PCOD9348796
Probable space group: C M M 2
;
_chemical_formula_sum "Si O2"
_cell_formula_units_Z 56
_cell_length_a 8.923856
_cell_length_b 15.507952
_cell_length_c 19.346972
_cell_angle_alpha 90.000000
_cell_angle_beta 90.000000
_cell_angle_gamma 90.000000
_cell_volume 2677.441588
_symmetry_space_group_name_H-M "C M M 2"
_symmetry_group_IT_number 35
_symmetry_cell_setting 'orthorhombic'
loop_
_space_group_symop_operation_xyz
x,y,z
-x,-y,z
-x,y,z
x,-y,z
1/2+x,1/2+y,z
1/2-x,1/2-y,z
1/2-x,1/2+y,z
1/2+x,1/2-y,z
loop_
_atom_site_type_symbol
_atom_site_label
_atom_site_fract_x
_atom_site_fract_y
_atom_site_fract_z
Si Si1 0.677894 0.344982 0.307760
Si Si2 0.178208 0.344350 0.595237
Si Si3 0.833546 0.602487 0.169874
Si Si4 0.816920 0.899597 0.882043
Si Si5 0.668800 0.397452 0.734206
Si Si6 0.819752 0.346866 0.444871
Si Si7 0.674651 0.605908 0.032154
O O1 0.500000 0.341499 0.314836
O O2 0.750000 0.250000 0.305594
O O3 0.726755 0.384684 0.235178
O O4 0.749153 0.388138 0.376312
O O5 0.250000 0.250000 0.594587
O O6 0.236801 0.385454 0.665453
O O7 0.215858 0.386082 0.520424
O O8 0.000000 0.338192 0.597608
O O9 0.846193 0.500000 0.160524
O O10 0.767600 0.636906 0.097980
O O11 0.000000 0.637998 0.184486
O O12 0.769455 0.862324 0.807600
O O13 0.000000 0.898540 0.881239
O O14 0.769452 0.000000 0.883533
O O15 0.770862 0.863063 0.956558
O O16 0.500000 0.362761 0.722861
O O17 0.656142 0.500000 0.744855
O O18 0.750000 0.250000 0.447405
O O19 0.000000 0.342160 0.437513
O O20 0.500000 0.628708 0.040718
O O21 0.679459 0.500000 0.030747
#
# Coordination Sequence:
#
# PCOD9348796 Si02
#       7
#     8   8   8   8   8   8   8
#     4  11  21  34  54  76  98 125 160 199 240 288
#     4  10  20  33  51  73  97 127 162 200 241 286
#     4  10  20  33  49  72 103 133 161 197 241 285
#     4   7  11  22  42  67  93 123 159 197 236 279
#     4   9  17  30  49  73 101 131 162 198 241 287
#     4   9  17  31  50  71  94 122 159 200 240 283
#     4   8  13  24  44  68  93 123 161 200 237 281
#
# _framework density 20.915486999999999
#
# number of rings (size 3 to 8) (size 9 to 14) (size 15 to 20)
#    0.000    2.857    0.000    5.143    0.000    2.857 
#    0.000    1.429    0.000    4.286    0.000    4.000 
#    0.000    0.000    0.000    0.000    0.000    0.000 
#
# Total GULP energy -155972.961729 kJ/mol
# GULP energy per Si atom -5570.462919 kJ/mol
# Density = 2.086788 g / cm^3
# Si number density = 20.915487 Si / 1000 Ang^3
#
#
#
# Elastic Constant Matrix: (Units=GPa)
#
#
# Indices 1 2 3 4 5 6 
#
# 1 99.2165 2.8335 77.9179 0.0000 0.0000 0.0000
# 2 2.8335 18.9394 13.0963 0.0000 0.0000 0.0000
# 3 77.9179 13.0963 233.2829 0.0000 0.0000 0.0000
# 4 0.0000 0.0000 0.0000 -58.9237 0.0000 0.0000
# 5 0.0000 0.0000 0.0000 0.0000 21.6200 0.0000
# 6 0.0000 0.0000 0.0000 0.0000 0.0000 13.0667
#
#
#
# Elastic Compliance Matrix: (Units=1/GPa)
#
#
# Indices 1 2 3 4 5 6 
#
# 1 0.013687 0.001158 -0.004637 0.000000 0.000000 0.000000
# 2 0.001158 0.055030 -0.003476 0.000000 0.000000 0.000000
# 3 -0.004637 -0.003476 0.006030 0.000000 0.000000 0.000000
# 4 0.000000 0.000000 0.000000 -0.016971 0.000000 0.000000
# 5 0.000000 0.000000 0.000000 0.000000 0.046253 0.000000
# 6 0.000000 0.000000 0.000000 0.000000 0.000000 0.076530
#
#
# Mechanical properties :
#
#
# Convention : Reuss Voigt Hill
#
# Bulk Modulus (GPa) = 16.43680 59.90383 38.17031
# Shear Modulus (GPa) = 23.28294 12.32535 17.80415
#
# Velocity S-wave (km/s) = 3.34007 2.43017 2.92077
# Velocity P-wave (km/s) = 4.76975 6.04792 5.44646
#
# Compressibility (1/GPa) = 0.06083910
#
# Stress axis : x y z
#
# Youngs Moduli (GPa) = 73.06102 18.17176 165.82477
#
# Poissons Ratio (x) = -0.02105 0.76887
# Poissons Ratio (y) = -0.08464 0.57645
# Poissons Ratio (z) = 0.33876 0.06317
#
# Static dielectric constant tensor:
#      x y z
#    x 1.713790 0.000000 0.000000 
#    y 0.000000 1.841570 0.000000 
#    z 0.000000 0.000000 1.842650 
# 
# From -- ./inp_files/18250.got.cif
#   From: 2010.05.17/outbox.cif.g08.bks.cpg/sg35_10_cif.got.tgz:18250.got - 2010.06.03 17:29:28.
