data_PCOD9348267
_publ_section_title
;
Structure prediction by ZEFSAII (Michael W. Deem and Ramdas Pophale) SiO2 
 PCOD9348267
Probable space group: C M M 2
;
_chemical_formula_sum "Si O2"
_cell_formula_units_Z 64
_cell_length_a 7.529365
_cell_length_b 30.643160
_cell_length_c 12.728958
_cell_angle_alpha 90.000000
_cell_angle_beta 90.000000
_cell_angle_gamma 90.000000
_cell_volume 2936.870204
_symmetry_space_group_name_H-M "C M M 2"
_symmetry_group_IT_number 35
_symmetry_cell_setting 'orthorhombic'
loop_
_space_group_symop_operation_xyz
x,y,z
-x,-y,z
-x,y,z
x,-y,z
1/2+x,1/2+y,z
1/2-x,1/2-y,z
1/2-x,1/2+y,z
1/2+x,1/2-y,z
loop_
_atom_site_type_symbol
_atom_site_label
_atom_site_fract_x
_atom_site_fract_y
_atom_site_fract_z
Si Si1 0.212786 0.701984 0.089810
Si Si2 0.792456 0.609204 0.624348
Si Si3 0.213669 0.452790 0.191862
Si Si4 0.716944 0.889437 0.011153
Si Si5 0.717700 0.949442 0.815539
Si Si6 0.213332 0.702575 0.555103
Si Si7 0.702536 0.188148 0.323147
Si Si8 0.206459 0.905371 0.390276
O O1 0.250000 0.750000 0.046841
O O2 0.275796 0.660754 0.021671
O O3 0.283806 0.699496 0.210333
O O4 0.000000 0.697002 0.098148
O O5 0.720666 0.576016 0.710884
O O6 0.719894 0.658884 0.613404
O O7 0.777150 0.589506 0.507554
O O8 0.000000 0.614288 0.650799
O O9 0.273740 0.500000 0.153086
O O10 0.276108 0.414403 0.116330
O O11 0.268691 0.444998 0.311309
O O12 0.000000 0.452198 0.188400
O O13 0.500000 0.889296 0.008493
O O14 0.772560 0.918884 0.912942
O O15 0.500000 0.950933 0.815814
O O16 0.775592 0.000000 0.821863
O O17 0.250000 0.750000 0.602753
O O18 0.284371 0.702653 0.434548
O O19 0.000000 0.697400 0.547168
O O20 0.500000 0.204856 0.321490
O O21 0.699823 0.135885 0.335595
O O22 0.000000 0.894571 0.398320
#
# Coordination Sequence:
#
# PCOD9348267 Si02
#       8
#     8   8   8   8   8   8   8   8
#     4  10  19  31  50  76 111 147 179 217 261 316
#     4   9  19  35  53  76 108 139 175 224 273 318
#     4  10  19  33  55  79 106 141 176 213 268 331
#     4   9  17  32  54  81 110 135 171 227 275 310
#     4   9  17  32  58  86 103 126 177 234 275 316
#     4   9  17  28  45  69 101 139 176 214 254 307
#     4   9  17  32  50  71 104 144 182 219 261 310
#     4  11  21  32  50  77 111 145 176 217 265 322
#
# _framework density 21.791906000000001
#
# number of rings (size 3 to 8) (size 9 to 14) (size 15 to 20)
#    0.000    2.500    1.250    2.625    0.000    4.750 
#    0.000    1.875    0.000    1.500    0.000    0.000 
#    0.000    0.000    0.000    0.000    0.000    0.000 
#
# Total GULP energy -178510.953975 kJ/mol
# GULP energy per Si atom -5578.467312 kJ/mol
# Density = 2.174231 g / cm^3
# Si number density = 21.791906 Si / 1000 Ang^3
#
#
#
# Elastic Constant Matrix: (Units=GPa)
#
#
# Indices 1 2 3 4 5 6 
#
# 1 55.0174 6.4042 -7.4363 0.0000 0.0000 0.0000
# 2 6.4042 197.6615 93.3284 0.0000 0.0000 0.0000
# 3 -7.4363 93.3284 108.5607 0.0000 0.0000 0.0000
# 4 0.0000 0.0000 0.0000 20.0415 0.0000 0.0000
# 5 0.0000 0.0000 0.0000 0.0000 20.9804 0.0000
# 6 0.0000 0.0000 0.0000 0.0000 0.0000 13.5089
#
#
#
# Elastic Compliance Matrix: (Units=1/GPa)
#
#
# Indices 1 2 3 4 5 6 
#
# 1 0.018828 -0.002052 0.003054 0.000000 0.000000 0.000000
# 2 -0.002052 0.008739 -0.007654 0.000000 0.000000 0.000000
# 3 0.003054 -0.007654 0.016000 0.000000 0.000000 0.000000
# 4 0.000000 0.000000 0.000000 0.049897 0.000000 0.000000
# 5 0.000000 0.000000 0.000000 0.000000 0.047663 0.000000
# 6 0.000000 0.000000 0.000000 0.000000 0.000000 0.074025
#
#
# Mechanical properties :
#
#
# Convention : Reuss Voigt Hill
#
# Bulk Modulus (GPa) = 33.04301 60.64803 46.84552
# Shear Modulus (GPa) = 20.96045 28.83571 24.89808
#
# Velocity S-wave (km/s) = 3.10473 3.64157 3.38381
# Velocity P-wave (km/s) = 5.29607 6.75073 6.06715
#
# Compressibility (1/GPa) = 0.03026359
#
# Stress axis : x y z
#
# Youngs Moduli (GPa) = 53.11340 114.42363 62.49823
#
# Poissons Ratio (x) = 0.23477 -0.19084
# Poissons Ratio (y) = 0.10898 0.47835
# Poissons Ratio (z) = -0.16219 0.87577
#
# Static dielectric constant tensor:
#      x y z
#    x 1.821250 0.000000 0.000000 
#    y 0.000000 1.825030 0.000000 
#    z 0.000000 0.000000 1.772710 
# 
# From -- ./inp_files/11935.got.cif
#   From: 2010.05.17/outbox.cif.g08.bks.cpg/sg35_6_cif.got.tgz:11935.got - 2010.06.03 17:29:28.
