data_PCOD9348334
_publ_section_title
;
Structure prediction by ZEFSAII (Michael W. Deem and Ramdas Pophale) SiO2 
 PCOD9348334
Probable space group: C M M 2
;
_chemical_formula_sum "Si O2"
_cell_formula_units_Z 48
_cell_length_a 9.018495
_cell_length_b 33.635432
_cell_length_c 9.412967
_cell_angle_alpha 90.000000
_cell_angle_beta 90.000000
_cell_angle_gamma 90.000000
_cell_volume 2855.338590
_symmetry_space_group_name_H-M "C M M 2"
_symmetry_group_IT_number 35
_symmetry_cell_setting 'orthorhombic'
loop_
_space_group_symop_operation_xyz
x,y,z
-x,-y,z
-x,y,z
x,-y,z
1/2+x,1/2+y,z
1/2-x,1/2-y,z
1/2-x,1/2+y,z
1/2+x,1/2-y,z
loop_
_atom_site_type_symbol
_atom_site_label
_atom_site_fract_x
_atom_site_fract_y
_atom_site_fract_z
Si Si1 0.829158 0.166333 0.409740
Si Si2 0.821429 0.379764 0.163945
Si Si3 0.177851 0.291321 0.662972
Si Si4 0.179125 0.045241 0.316404
Si Si5 0.822541 0.370151 0.836912
Si Si6 0.668961 0.584959 0.595752
O O1 0.748456 0.154168 0.264605
O O2 0.741330 0.197212 0.507771
O O3 0.830701 0.125530 0.502177
O O4 0.000000 0.178315 0.387536
O O5 0.759682 0.421763 0.221901
O O6 0.000000 0.378937 0.175426
O O7 0.776858 0.373927 0.000235
O O8 0.250000 0.250000 0.708911
O O9 0.220122 0.327714 0.767624
O O10 0.000000 0.288488 0.658481
O O11 0.223025 0.052733 0.481426
O O12 0.000000 0.051653 0.309729
O O13 0.210557 0.000000 0.274595
O O14 0.759585 0.404687 0.735814
O O15 0.000000 0.372133 0.831812
O O16 0.500000 0.575607 0.635326
#
# Coordination Sequence:
#
# PCOD9348334 Si02
#       6
#     8   8   8   8   8   8
#     4   9  17  31  50  72  95 124 162 199 237 285
#     4  10  19  32  50  73 101 132 165 202 245 294
#     4  10  19  33  52  74  99 128 163 205 250 292
#     4   9  18  33  51  72  98 127 163 208 252 294
#     4   9  19  33  49  70  99 132 163 198 242 293
#     4   8  15  28  48  70  91 119 158 199 237 283
#
# _framework density 16.810614999999999
#
# number of rings (size 3 to 8) (size 9 to 14) (size 15 to 20)
#    0.000    2.833    0.000    2.500    0.000    6.333 
#    0.000    1.667    0.000    5.000    0.000    0.000 
#    0.000    0.000    0.000    0.000    0.000    0.000 
#
# Total GULP energy -133689.845411 kJ/mol
# GULP energy per Si atom -5570.410225 kJ/mol
# Density = 1.677235 g / cm^3
# Si number density = 16.810615 Si / 1000 Ang^3
#
#
#
# Elastic Constant Matrix: (Units=GPa)
#
#
# Indices 1 2 3 4 5 6 
#
# 1 54.3695 31.9144 48.8804 0.0000 0.0000 0.0000
# 2 31.9144 69.4912 41.1905 0.0000 0.0000 0.0000
# 3 48.8804 41.1905 143.3770 0.0000 0.0000 0.0000
# 4 0.0000 0.0000 0.0000 15.4107 0.0000 0.0000
# 5 0.0000 0.0000 0.0000 0.0000 24.0001 0.0000
# 6 0.0000 0.0000 0.0000 0.0000 0.0000 19.8078
#
#
#
# Elastic Compliance Matrix: (Units=1/GPa)
#
#
# Indices 1 2 3 4 5 6 
#
# 1 0.031089 -0.009636 -0.007831 0.000000 0.000000 0.000000
# 2 -0.009636 0.020331 -0.002555 0.000000 0.000000 0.000000
# 3 -0.007831 -0.002555 0.010378 0.000000 0.000000 0.000000
# 4 0.000000 0.000000 0.000000 0.064890 0.000000 0.000000
# 5 0.000000 0.000000 0.000000 0.000000 0.041666 0.000000
# 6 0.000000 0.000000 0.000000 0.000000 0.000000 0.050485
#
#
# Mechanical properties :
#
#
# Convention : Reuss Voigt Hill
#
# Bulk Modulus (GPa) = 45.97009 56.80091 51.38550
# Shear Modulus (GPa) = 18.78741 21.52723 20.15732
#
# Velocity S-wave (km/s) = 3.34667 3.58239 3.46653
# Velocity P-wave (km/s) = 6.50683 7.13957 6.83053
#
# Compressibility (1/GPa) = 0.02175327
#
# Stress axis : x y z
#
# Youngs Moduli (GPa) = 32.16555 49.18676 96.35407
#
# Poissons Ratio (x) = 0.47399 0.75451
# Poissons Ratio (y) = 0.30996 0.24623
# Poissons Ratio (z) = 0.25187 0.12570
#
# Static dielectric constant tensor:
#      x y z
#    x 1.568950 0.000000 0.000000 
#    y 0.000000 1.574840 0.000000 
#    z 0.000000 0.000000 1.565510 
# 
# From -- ./inp_files/5303.got.cif
#   From: 2010.05.17/outbox.cif.g08.bks.cpg/sg35_3_cif.got.tgz:5303.got - 2010.06.03 17:29:28.
