data_PCOD9348887
_publ_section_title
;
Structure prediction by ZEFSAII (Michael W. Deem and Ramdas Pophale) SiO2 
 PCOD9348887
Probable space group: C M M 2
;
_chemical_formula_sum "Si O2"
_cell_formula_units_Z 64
_cell_length_a 14.471264
_cell_length_b 18.455513
_cell_length_c 12.060205
_cell_angle_alpha 90.000000
_cell_angle_beta 90.000000
_cell_angle_gamma 90.000000
_cell_volume 3220.974437
_symmetry_space_group_name_H-M "C M M 2"
_symmetry_group_IT_number 35
_symmetry_cell_setting 'orthorhombic'
loop_
_space_group_symop_operation_xyz
x,y,z
-x,-y,z
-x,y,z
x,-y,z
1/2+x,1/2+y,z
1/2-x,1/2-y,z
1/2-x,1/2+y,z
1/2+x,1/2-y,z
loop_
_atom_site_type_symbol
_atom_site_label
_atom_site_fract_x
_atom_site_fract_y
_atom_site_fract_z
Si Si1 0.108245 0.708884 0.311660
Si Si2 0.392569 0.340423 0.148073
Si Si3 0.100192 0.414898 0.946301
Si Si4 0.107431 0.840422 0.475248
Si Si5 0.718729 0.332973 0.937424
Si Si6 0.600192 0.914898 0.677020
Si Si7 0.718729 0.667027 0.685897
Si Si8 0.740805 0.416517 0.311660
O O1 0.125796 0.762447 0.206838
O O2 0.125796 0.762446 0.416483
O O3 0.174469 0.640009 0.311660
O O4 0.000000 0.689013 0.311660
O O5 0.500000 0.356886 0.167310
O O6 0.325272 0.396908 0.208183
O O7 0.366433 0.338959 0.019815
O O8 0.104769 0.500000 0.972170
O O9 0.192096 0.375430 0.984393
O O10 0.099736 0.408155 0.811660
O O11 0.000000 0.386567 0.986067
O O12 0.133567 0.838959 0.603506
O O13 0.174728 0.896907 0.415137
O O14 0.000000 0.856885 0.456011
O O15 0.750000 0.250000 0.932127
O O16 0.698981 0.357953 0.811660
O O17 0.500000 0.886567 0.637254
O O18 0.692096 0.875430 0.638927
O O19 0.604768 0.000000 0.651151
O O20 0.750000 0.750000 0.691194
O O21 0.769402 0.500000 0.311661
#
# Coordination Sequence:
#
# PCOD9348887 Si02
#       8
#     8   8   8   8   8   8   8   8
#     4   9  19  39  65  87 110 143 181 224 280 341
#     4  10  21  38  59  81 111 153 193 226 267 326
#     4   8  15  30  51  73 100 138 183 228 275 326
#     4  10  21  38  59  81 111 153 193 226 267 326
#     4  10  20  33  52  82 118 151 186 230 276 325
#     4   8  15  30  51  73 100 138 183 228 275 326
#     4  10  20  33  52  82 118 151 186 230 276 325
#     4  11  22  38  63  89 111 137 179 237 288 330
#
# _framework density 19.869764
#
# number of rings (size 3 to 8) (size 9 to 14) (size 15 to 20)
#    0.000    2.500    0.000    4.875    0.000    3.750 
#    0.000    3.750    0.000    0.000    0.000    5.250 
#    0.000    0.000    0.000    0.000    0.000    0.000 
#
# Total GULP energy -178591.182389 kJ/mol
# GULP energy per Si atom -5580.974450 kJ/mol
# Density = 1.982454 g / cm^3
# Si number density = 19.869764 Si / 1000 Ang^3
#
#
#
# Elastic Constant Matrix: (Units=GPa)
#
#
# Indices 1 2 3 4 5 6 
#
# 1 120.7794 56.9625 36.3034 0.0000 0.0000 0.0000
# 2 56.9625 76.8044 7.9262 0.0000 0.0000 0.0000
# 3 36.3034 7.9262 80.3909 0.0000 0.0000 0.0000
# 4 0.0000 0.0000 0.0000 3.1570 0.0000 0.0000
# 5 0.0000 0.0000 0.0000 0.0000 29.8172 0.0000
# 6 0.0000 0.0000 0.0000 0.0000 0.0000 21.7743
#
#
#
# Elastic Compliance Matrix: (Units=1/GPa)
#
#
# Indices 1 2 3 4 5 6 
#
# 1 0.014948 -0.010496 -0.005715 0.000000 0.000000 0.000000
# 2 -0.010496 0.020524 0.002716 0.000000 0.000000 0.000000
# 3 -0.005715 0.002716 0.014752 0.000000 0.000000 0.000000
# 4 0.000000 0.000000 0.000000 0.316758 0.000000 0.000000
# 5 0.000000 0.000000 0.000000 0.000000 0.033538 0.000000
# 6 0.000000 0.000000 0.000000 0.000000 0.000000 0.045926
#
#
# Mechanical properties :
#
#
# Convention : Reuss Voigt Hill
#
# Bulk Modulus (GPa) = 43.04031 53.37320 48.20676
# Shear Modulus (GPa) = 10.39110 22.73521 16.56315
#
# Velocity S-wave (km/s) = 2.28931 3.38629 2.89032
# Velocity P-wave (km/s) = 5.35688 6.49685 5.95421
#
# Compressibility (1/GPa) = 0.02323403
#
# Stress axis : x y z
#
# Youngs Moduli (GPa) = 66.89983 48.72256 67.78584
#
# Poissons Ratio (x) = 0.51140 0.38742
# Poissons Ratio (y) = 0.70220 -0.18413
# Poissons Ratio (z) = 0.38235 -0.13235
#
# Static dielectric constant tensor:
#      x y z
#    x 1.703430 0.000000 0.000000 
#    y 0.000000 1.673330 0.000000 
#    z 0.000000 0.000000 1.748480 
# 
# From -- ./inp_files/13239.got.cif
#   From: 2010.05.17/outbox.cif.g08.bks.cpg/sg35_7_cif.got.tgz:13239.got - 2010.06.03 17:29:28.
