data_PCOD9348343
_publ_section_title
;
Structure prediction by ZEFSAII (Michael W. Deem and Ramdas Pophale) SiO2 
 PCOD9348343
Probable space group: C M M 2
;
_chemical_formula_sum "Si O2"
_cell_formula_units_Z 48
_cell_length_a 15.924919
_cell_length_b 8.148381
_cell_length_c 18.070638
_cell_angle_alpha 90.000000
_cell_angle_beta 90.000000
_cell_angle_gamma 90.000000
_cell_volume 2344.887683
_symmetry_space_group_name_H-M "C M M 2"
_symmetry_group_IT_number 35
_symmetry_cell_setting 'orthorhombic'
loop_
_space_group_symop_operation_xyz
x,y,z
-x,-y,z
-x,y,z
x,-y,z
1/2+x,1/2+y,z
1/2-x,1/2-y,z
1/2-x,1/2+y,z
1/2+x,1/2-y,z
loop_
_atom_site_type_symbol
_atom_site_label
_atom_site_fract_x
_atom_site_fract_y
_atom_site_fract_z
Si Si1 0.000000 0.798950 0.833740
Si Si2 0.659657 0.304668 0.740162
Si Si3 0.153521 0.303151 0.266867
Si Si4 0.097100 0.301692 0.583577
Si Si5 0.347351 0.694900 0.106153
Si Si6 0.000000 0.201330 0.004409
Si Si7 0.100514 0.311691 0.425302
O O1 0.917518 0.742395 0.789651
O O2 0.000000 0.747879 0.918985
O O3 0.000000 0.000000 0.832874
O O4 0.656256 0.500000 0.740542
O O5 0.750000 0.250000 0.768570
O O6 0.647513 0.247827 0.655710
O O7 0.144114 0.500000 0.265782
O O8 0.250000 0.250000 0.266551
O O9 0.120147 0.240006 0.188502
O O10 0.118887 0.237378 0.345079
O O11 0.096285 0.500000 0.578629
O O12 0.129769 0.238153 0.503707
O O13 0.000000 0.246923 0.593998
O O14 0.345140 0.500000 0.100946
O O15 0.250000 0.750000 0.097051
O O16 0.415501 0.756766 0.046875
O O17 0.000000 0.000000 0.006037
O O18 0.132813 0.500000 0.422030
O O19 0.000000 0.319008 0.432596
#
# Coordination Sequence:
#
# PCOD9348343 Si02
#       7
#     4   8   8   8   8   4   8
#     4   9  20  40  61  82 113 146 178 223 277 337
#     4  11  22  37  59  86 114 147 188 227 277 333
#     4  10  19  32  51  73 105 143 181 223 270 317
#     4   9  17  33  56  79 110 148 187 231 278 325
#     4  10  20  36  57  82 112 144 182 225 273 327
#     4   9  20  38  61  84 109 146 180 217 279 337
#     4   8  16  30  49  75 104 141 183 223 267 315
#
# _framework density 20.470065000000002
#
# number of rings (size 3 to 8) (size 9 to 14) (size 15 to 20)
#    0.000    2.500    0.833    3.500    1.167    1.333 
#    0.000    4.583    0.000    9.000    0.000    0.000 
#    0.000    0.000    0.000    0.000    0.000    0.000 
#
# Total GULP energy -133807.106127 kJ/mol
# GULP energy per Si atom -5575.296089 kJ/mol
# Density = 2.042347 g / cm^3
# Si number density = 20.470065 Si / 1000 Ang^3
#
#
#
# Elastic Constant Matrix: (Units=GPa)
#
#
# Indices 1 2 3 4 5 6 
#
# 1 106.1338 10.5743 85.3527 0.0000 0.0000 0.0000
# 2 10.5743 23.4769 13.3266 0.0000 0.0000 0.0000
# 3 85.3527 13.3266 193.8823 0.0000 0.0000 0.0000
# 4 0.0000 0.0000 0.0000 17.6507 0.0000 0.0000
# 5 0.0000 0.0000 0.0000 0.0000 699.3184 0.0000
# 6 0.0000 0.0000 0.0000 0.0000 0.0000 14.7886
#
#
#
# Elastic Compliance Matrix: (Units=1/GPa)
#
#
# Indices 1 2 3 4 5 6 
#
# 1 0.014798 -0.003088 -0.006302 0.000000 0.000000 0.000000
# 2 -0.003088 0.044969 -0.001732 0.000000 0.000000 0.000000
# 3 -0.006302 -0.001732 0.008051 0.000000 0.000000 0.000000
# 4 0.000000 0.000000 0.000000 0.056655 0.000000 0.000000
# 5 0.000000 0.000000 0.000000 0.000000 0.001430 0.000000
# 6 0.000000 0.000000 0.000000 0.000000 0.000000 0.067620
#
#
# Mechanical properties :
#
#
# Convention : Reuss Voigt Hill
#
# Bulk Modulus (GPa) = 21.94196 60.22223 41.08209
# Shear Modulus (GPa) = 21.64900 160.63416 91.14158
#
# Velocity S-wave (km/s) = 3.25559 8.86809 6.67989
# Velocity P-wave (km/s) = 4.98740 11.59055 8.92231
#
# Compressibility (1/GPa) = 0.04557478
#
# Stress axis : x y z
#
# Youngs Moduli (GPa) = 67.57680 22.23762 124.20454
#
# Poissons Ratio (x) = 0.06866 0.78277
# Poissons Ratio (y) = 0.20866 0.21508
# Poissons Ratio (z) = 0.42589 0.03851
#
# Static dielectric constant tensor:
#      x y z
#    x 1.628440 0.000000 0.000000 
#    y 0.000000 1.736580 0.000000 
#    z 0.000000 0.000000 1.765040 
# 
# From -- ./inp_files/18763.got.cif
#   From: 2010.05.17/outbox.cif.g08.bks.cpg/sg35_10_cif.got.tgz:18763.got - 2010.06.03 17:29:28.
