data_PCOD9348744
_publ_section_title
;
Structure prediction by ZEFSAII (Michael W. Deem and Ramdas Pophale) SiO2 
 PCOD9348744
Probable space group: C M M 2
;
_chemical_formula_sum "Si O2"
_cell_formula_units_Z 64
_cell_length_a 29.420996
_cell_length_b 8.670041
_cell_length_c 16.032875
_cell_angle_alpha 90.000000
_cell_angle_beta 90.000000
_cell_angle_gamma 90.000000
_cell_volume 4089.685661
_symmetry_space_group_name_H-M "C M M 2"
_symmetry_group_IT_number 35
_symmetry_cell_setting 'orthorhombic'
loop_
_space_group_symop_operation_xyz
x,y,z
-x,-y,z
-x,y,z
x,-y,z
1/2+x,1/2+y,z
1/2-x,1/2-y,z
1/2-x,1/2+y,z
1/2+x,1/2-y,z
loop_
_atom_site_type_symbol
_atom_site_label
_atom_site_fract_x
_atom_site_fract_y
_atom_site_fract_z
Si Si1 0.144635 0.685724 0.900760
Si Si2 0.300943 0.814409 0.069743
Si Si3 0.801103 0.815727 0.745347
Si Si4 0.550793 0.685880 0.160649
Si Si5 0.698659 0.183788 0.388224
Si Si6 0.550789 0.186267 0.974223
Si Si7 0.854003 0.185444 0.230076
Si Si8 0.698725 0.684927 0.560820
O O1 0.145404 0.500000 0.893438
O O2 0.167698 0.755555 0.819481
O O3 0.092754 0.736610 0.917139
O O4 0.173283 0.725871 0.983815
O O5 0.250000 0.750000 0.067614
O O6 0.327345 0.743420 0.148246
O O7 0.300346 0.000000 0.077531
O O8 0.750000 0.750000 0.754271
O O9 0.819707 0.774574 0.652708
O O10 0.797850 0.000000 0.749125
O O11 0.500000 0.732776 0.188572
O O12 0.551454 0.500000 0.154512
O O13 0.593213 0.731278 0.217823
O O14 0.557844 0.752800 0.068018
O O15 0.750000 0.250000 0.379555
O O16 0.668969 0.242582 0.311294
O O17 0.678813 0.243003 0.476680
O O18 0.701444 0.000000 0.388784
O O19 0.500000 0.234038 0.947303
O O20 0.551868 0.000000 0.977562
O O21 0.850974 0.000000 0.234584
O O22 0.699559 0.500000 0.552529
O O23 0.750000 0.750000 0.562841
#
# Coordination Sequence:
#
# PCOD9348744 Si02
#       8
#     8   8   8   8   8   8   8   8
#     4  10  20  32  47  69  96 127 161 197 235 281
#     4  11  22  34  45  63  93 129 166 197 230 273
#     4  10  20  32  49  71  97 128 160 197 236 280
#     4   9  18  32  50  71  93 120 156 197 240 283
#     4  11  21  33  50  71  97 127 160 196 235 281
#     4   9  17  31  50  70  93 122 157 198 242 282
#     4  11  21  33  49  69  95 127 159 195 236 280
#     4   9  17  31  49  70  94 121 156 196 239 281
#
# _framework density 15.649124
#
# number of rings (size 3 to 8) (size 9 to 14) (size 15 to 20)
#    0.000    2.000    1.250    4.125    0.000    4.500 
#    0.000    0.000    0.000    0.000    0.000    0.875 
#    0.000    1.000    0.000    0.000    0.000    0.000 
#
# Total GULP energy -178474.839451 kJ/mol
# GULP energy per Si atom -5577.338733 kJ/mol
# Density = 1.561351 g / cm^3
# Si number density = 15.649124 Si / 1000 Ang^3
#
#
#
# Elastic Constant Matrix: (Units=GPa)
#
#
# Indices 1 2 3 4 5 6 
#
# 1 119.6177 37.0110 77.4581 0.0000 0.0000 0.0000
# 2 37.0110 53.9868 49.8961 0.0000 0.0000 0.0000
# 3 77.4581 49.8961 153.1385 0.0000 0.0000 0.0000
# 4 0.0000 0.0000 0.0000 32.6483 0.0000 0.0000
# 5 0.0000 0.0000 0.0000 0.0000 5.9928 0.0000
# 6 0.0000 0.0000 0.0000 0.0000 0.0000 10.6170
#
#
#
# Elastic Compliance Matrix: (Units=1/GPa)
#
#
# Indices 1 2 3 4 5 6 
#
# 1 0.013027 -0.004065 -0.005265 0.000000 0.000000 0.000000
# 2 -0.004065 0.027773 -0.006993 0.000000 0.000000 0.000000
# 3 -0.005265 -0.006993 0.011471 0.000000 0.000000 0.000000
# 4 0.000000 0.000000 0.000000 0.030629 0.000000 0.000000
# 5 0.000000 0.000000 0.000000 0.000000 0.166867 0.000000
# 6 0.000000 0.000000 0.000000 0.000000 0.000000 0.094189
#
#
# Mechanical properties :
#
#
# Convention : Reuss Voigt Hill
#
# Bulk Modulus (GPa) = 50.95271 72.83037 61.89154
# Shear Modulus (GPa) = 13.04994 20.67680 16.86337
#
# Velocity S-wave (km/s) = 2.89088 3.63888 3.28623
# Velocity P-wave (km/s) = 6.61612 8.01847 7.35081
#
# Compressibility (1/GPa) = 0.01962604
#
# Stress axis : x y z
#
# Youngs Moduli (GPa) = 76.76523 36.00635 87.17382
#
# Poissons Ratio (x) = 0.14636 0.45893
# Poissons Ratio (y) = 0.31205 0.60961
# Poissons Ratio (z) = 0.40413 0.25179
#
# Static dielectric constant tensor:
#      x y z
#    x 1.521070 0.000000 0.000000 
#    y 0.000000 1.511150 0.000000 
#    z 0.000000 0.000000 1.520060 
# 
# From -- ./inp_files/16171.got.cif
#   From: 2010.05.17/outbox.cif.g08.bks.cpg/sg35_9_cif.got.tgz:16171.got - 2010.06.03 17:29:28.
