data_PCOD9348289
_publ_section_title
;
Structure prediction by ZEFSAII (Michael W. Deem and Ramdas Pophale) SiO2 
 PCOD9348289
Probable space group: C M M 2
;
_chemical_formula_sum "Si O2"
_cell_formula_units_Z 58
_cell_length_a 7.655079
_cell_length_b 34.721734
_cell_length_c 9.984708
_cell_angle_alpha 90.000000
_cell_angle_beta 90.000000
_cell_angle_gamma 90.000000
_cell_volume 2653.911591
_symmetry_space_group_name_H-M "C M M 2"
_symmetry_group_IT_number 35
_symmetry_cell_setting 'orthorhombic'
loop_
_space_group_symop_operation_xyz
x,y,z
-x,-y,z
-x,y,z
x,-y,z
1/2+x,1/2+y,z
1/2-x,1/2-y,z
1/2-x,1/2+y,z
1/2+x,1/2-y,z
loop_
_atom_site_type_symbol
_atom_site_label
_atom_site_fract_x
_atom_site_fract_y
_atom_site_fract_z
Si Si1 0.000000 0.000000 0.505651
Si Si2 0.297682 0.854207 0.449632
Si Si3 0.212108 0.443273 0.396475
Si Si4 0.804291 0.793156 0.239652
Si Si5 0.798041 0.559907 0.095248
Si Si6 0.288879 0.626001 0.739772
Si Si7 0.287021 0.353644 0.035010
Si Si8 0.796889 0.041487 0.799176
O O1 0.842931 0.966912 0.488857
O O2 0.500000 0.849501 0.415431
O O3 0.248253 0.897896 0.412299
O O4 0.201707 0.821410 0.366731
O O5 0.272327 0.852309 0.608547
O O6 0.255379 0.454234 0.241866
O O7 0.000000 0.448653 0.416574
O O8 0.750000 0.750000 0.271604
O O9 0.717425 0.817776 0.120133
O O10 0.000000 0.788448 0.191090
O O11 0.779784 0.606188 0.095583
O O12 0.000000 0.549535 0.077098
O O13 0.703891 0.545867 0.961115
O O14 0.500000 0.623746 0.737600
O O15 0.221738 0.581591 0.744481
O O16 0.237650 0.645754 0.879088
O O17 0.500000 0.355800 0.041829
O O18 0.000000 0.039005 0.757027
O O19 0.715498 0.000000 0.766426
#
# Coordination Sequence:
#
# PCOD9348289 Si02
#       8
#     2   8   8   8   8   8   8   8
#     4  12  26  36  64  82 122 184 222 268 354 386
#     4  11  23  42  64  89 129 172 217 267 319 383
#     4  10  24  40  56  90 126 164 223 283 323 394
#     4  11  23  40  68 101 131 161 205 257 321 391
#     4  10  19  31  52  80 116 156 200 261 323 377
#     4   9  19  37  60  88 119 161 216 261 310 386
#     4   9  19  37  62  89 120 156 204 254 305 389
#     4   9  19  34  53  79 113 154 208 271 316 376
#
# _framework density 21.854534000000001
#
# number of rings (size 3 to 8) (size 9 to 14) (size 15 to 20)
#    0.000    2.069    1.379    2.276    4.828    3.034 
#    1.241    0.690    0.000    1.655    0.000    0.000 
#    0.000    0.000    0.000    0.000    0.000    0.000 
#
# Total GULP energy -161761.963334 kJ/mol
# GULP energy per Si atom -5577.998736 kJ/mol
# Density = 2.180479 g / cm^3
# Si number density = 21.854534 Si / 1000 Ang^3
#
#
#
# Elastic Constant Matrix: (Units=GPa)
#
#
# Indices 1 2 3 4 5 6 
#
# 1 57.9193 23.3259 5.3751 0.0000 0.0000 0.0000
# 2 23.3259 145.7629 41.4178 0.0000 0.0000 0.0000
# 3 5.3751 41.4178 115.9496 0.0000 0.0000 0.0000
# 4 0.0000 0.0000 0.0000 12.4463 0.0000 0.0000
# 5 0.0000 0.0000 0.0000 0.0000 17.6821 0.0000
# 6 0.0000 0.0000 0.0000 0.0000 0.0000 18.0032
#
#
#
# Elastic Compliance Matrix: (Units=1/GPa)
#
#
# Indices 1 2 3 4 5 6 
#
# 1 0.018460 -0.003017 0.000222 0.000000 0.000000 0.000000
# 2 -0.003017 0.008129 -0.002764 0.000000 0.000000 0.000000
# 3 0.000222 -0.002764 0.009601 0.000000 0.000000 0.000000
# 4 0.000000 0.000000 0.000000 0.080345 0.000000 0.000000
# 5 0.000000 0.000000 0.000000 0.000000 0.056554 0.000000
# 6 0.000000 0.000000 0.000000 0.000000 0.000000 0.055546
#
#
# Mechanical properties :
#
#
# Convention : Reuss Voigt Hill
#
# Bulk Modulus (GPa) = 39.88494 51.09660 45.49077
# Shear Modulus (GPa) = 20.15237 26.26054 23.20645
#
# Velocity S-wave (km/s) = 3.03993 3.47018 3.26215
# Velocity P-wave (km/s) = 5.53275 6.28389 5.92025
#
# Compressibility (1/GPa) = 0.02507212
#
# Stress axis : x y z
#
# Youngs Moduli (GPa) = 54.17147 123.02286 104.15192
#
# Poissons Ratio (x) = 0.37118 -0.02312
# Poissons Ratio (y) = 0.16344 0.28785
# Poissons Ratio (z) = -0.01203 0.34000
#
# Static dielectric constant tensor:
#      x y z
#    x 1.836560 0.000000 0.000000 
#    y 0.000000 1.821780 0.000000 
#    z 0.000000 0.000000 1.860480 
# 
# From -- ./inp_files/11819.got.cif
#   From: 2010.05.17/outbox.cif.g08.bks.cpg/sg35_6_cif.got.tgz:11819.got - 2010.06.03 17:29:28.
