data_PCOD9348750
_publ_section_title
;
Structure prediction by ZEFSAII (Michael W. Deem and Ramdas Pophale) SiO2 
 PCOD9348750
Probable space group: C M M 2
;
_chemical_formula_sum "Si O2"
_cell_formula_units_Z 64
_cell_length_a 7.697772
_cell_length_b 18.918748
_cell_length_c 21.392358
_cell_angle_alpha 90.000000
_cell_angle_beta 90.000000
_cell_angle_gamma 90.000000
_cell_volume 3115.416343
_symmetry_space_group_name_H-M "C M M 2"
_symmetry_group_IT_number 35
_symmetry_cell_setting 'orthorhombic'
loop_
_space_group_symop_operation_xyz
x,y,z
-x,-y,z
-x,y,z
x,-y,z
1/2+x,1/2+y,z
1/2-x,1/2-y,z
1/2-x,1/2+y,z
1/2+x,1/2-y,z
loop_
_atom_site_type_symbol
_atom_site_label
_atom_site_fract_x
_atom_site_fract_y
_atom_site_fract_z
Si Si1 0.293385 0.167520 0.146850
Si Si2 0.711913 0.581790 0.643759
Si Si3 0.711957 0.418129 0.783879
Si Si4 0.291151 0.419226 0.405033
Si Si5 0.207412 0.919833 0.023176
Si Si6 0.709011 0.667800 0.524062
Si Si7 0.209202 0.832491 0.903769
Si Si8 0.208742 0.418962 0.265426
O O1 0.500000 0.162379 0.149030
O O2 0.250000 0.250000 0.142553
O O3 0.236301 0.123874 0.086258
O O4 0.223754 0.130662 0.210027
O O5 0.500000 0.583626 0.643917
O O6 0.760945 0.500000 0.633201
O O7 0.768320 0.602381 0.713795
O O8 0.774046 0.630454 0.587322
O O9 0.500000 0.416936 0.783850
O O10 0.761744 0.500000 0.795004
O O11 0.773000 0.367674 0.839324
O O12 0.500000 0.421854 0.409727
O O13 0.225853 0.500000 0.410374
O O14 0.225490 0.371485 0.461763
O O15 0.249546 0.393281 0.335319
O O16 0.000000 0.925193 0.014874
O O17 0.276480 0.000000 0.027099
O O18 0.275666 0.876358 0.963526
O O19 0.500000 0.660175 0.524337
O O20 0.750000 0.750000 0.523048
O O21 0.250000 0.750000 0.908460
O O22 0.000000 0.838706 0.903467
O O23 0.274041 0.500000 0.259262
O O24 0.000000 0.421851 0.260467
#
# Coordination Sequence:
#
# PCOD9348750 Si02
#       8
#     8   8   8   8   8   8   8   8
#     4  11  23  38  56  79 108 139 171 209 254 304
#     4   8  14  27  49  73  95 125 168 212 248 287
#     4   8  14  27  49  74  97 126 168 212 249 289
#     4   9  18  33  53  74  96 127 168 210 247 288
#     4  10  21  37  57  79 103 134 173 216 259 304
#     4  10  20  32  47  71 102 131 162 203 250 298
#     4  10  20  33  50  75 106 136 167 206 252 301
#     4   9  19  36  56  77 101 130 165 206 252 301
#
# _framework density 20.542999999999999
#
# number of rings (size 3 to 8) (size 9 to 14) (size 15 to 20)
#    0.000    2.625    0.000    2.625    0.000    7.750 
#    0.000    3.750    0.000    2.250    0.000    1.750 
#    0.000    0.000    0.000    0.000    0.000    0.000 
#
# Total GULP energy -178637.401893 kJ/mol
# GULP energy per Si atom -5582.418809 kJ/mol
# Density = 2.049624 g / cm^3
# Si number density = 20.543000 Si / 1000 Ang^3
#
#
#
# Elastic Constant Matrix: (Units=GPa)
#
#
# Indices 1 2 3 4 5 6 
#
# 1 34.8595 2.4035 5.9675 0.0000 0.0000 0.0000
# 2 2.4035 162.7461 147.5796 0.0000 0.0000 0.0000
# 3 5.9675 147.5796 236.9303 0.0000 0.0000 0.0000
# 4 0.0000 0.0000 0.0000 0.3296 0.0000 0.0000
# 5 0.0000 0.0000 0.0000 0.0000 60.0194 0.0000
# 6 0.0000 0.0000 0.0000 0.0000 0.0000 19.7992
#
#
#
# Elastic Compliance Matrix: (Units=1/GPa)
#
#
# Indices 1 2 3 4 5 6 
#
# 1 0.028831 0.000535 -0.001059 0.000000 0.000000 0.000000
# 2 0.000535 0.014130 -0.008815 0.000000 0.000000 0.000000
# 3 -0.001059 -0.008815 0.009738 0.000000 0.000000 0.000000
# 4 0.000000 0.000000 0.000000 3.034316 0.000000 0.000000
# 5 0.000000 0.000000 0.000000 0.000000 0.016661 0.000000
# 6 0.000000 0.000000 0.000000 0.000000 0.000000 0.050507
#
#
# Mechanical properties :
#
#
# Convention : Reuss Voigt Hill
#
# Bulk Modulus (GPa) = 29.39417 82.93746 56.16582
# Shear Modulus (GPa) = 1.57025 34.60197 18.08611
#
# Velocity S-wave (km/s) = 0.87523 4.10856 2.97038
# Velocity P-wave (km/s) = 3.91932 7.93519 6.25813
#
# Compressibility (1/GPa) = 0.03402035
#
# Stress axis : x y z
#
# Youngs Moduli (GPa) = 34.68483 70.77172 102.69175
#
# Poissons Ratio (x) = -0.03784 0.10878
# Poissons Ratio (y) = -0.01855 0.90520
# Poissons Ratio (z) = 0.03674 0.62384
#
# Static dielectric constant tensor:
#      x y z
#    x 1.774380 0.000000 0.000000 
#    y 0.000000 1.689000 0.000000 
#    z 0.000000 0.000000 1.729570 
# 
# From -- ./inp_files/18445.got.cif
#   From: 2010.05.17/outbox.cif.g08.bks.cpg/sg35_10_cif.got.tgz:18445.got - 2010.06.03 17:29:28.
