data_PCOD9348568
_publ_section_title
;
Structure prediction by ZEFSAII (Michael W. Deem and Ramdas Pophale) SiO2 
 PCOD9348568
Probable space group: C M M 2
;
_chemical_formula_sum "Si O2"
_cell_formula_units_Z 64
_cell_length_a 15.350651
_cell_length_b 15.032469
_cell_length_c 12.397143
_cell_angle_alpha 90.000000
_cell_angle_beta 90.000000
_cell_angle_gamma 90.000000
_cell_volume 2860.742221
_symmetry_space_group_name_H-M "C M M 2"
_symmetry_group_IT_number 35
_symmetry_cell_setting 'orthorhombic'
loop_
_space_group_symop_operation_xyz
x,y,z
-x,-y,z
-x,y,z
x,-y,z
1/2+x,1/2+y,z
1/2-x,1/2-y,z
1/2-x,1/2+y,z
1/2+x,1/2-y,z
loop_
_atom_site_type_symbol
_atom_site_label
_atom_site_fract_x
_atom_site_fract_y
_atom_site_fract_z
Si Si1 0.742216 0.358895 0.292340
Si Si2 0.594215 0.133414 0.150818
Si Si3 0.760988 0.852632 0.533760
Si Si4 0.401441 0.393312 0.706837
Si Si5 0.212348 0.892106 0.912942
Si Si6 0.600364 0.651619 0.123989
Si Si7 0.403915 0.852875 0.915497
Si Si8 0.908825 0.601687 0.666615
O O1 0.750000 0.250000 0.290489
O O2 0.824741 0.392315 0.223628
O O3 0.742854 0.393676 0.414571
O O4 0.654099 0.380599 0.227953
O O5 0.500000 0.115269 0.202042
O O6 0.600533 0.240363 0.129722
O O7 0.593495 0.095973 0.029686
O O8 0.750000 0.750000 0.511441
O O9 0.849121 0.871527 0.598495
O O10 0.680620 0.869989 0.613533
O O11 0.500000 0.358418 0.709314
O O12 0.405518 0.500000 0.715081
O O13 0.344819 0.363278 0.809457
O O14 0.300127 0.833341 0.919014
O O15 0.231965 0.000000 0.903015
O O16 0.153622 0.877843 0.018616
O O17 0.500000 0.622333 0.120620
O O18 0.500000 0.802733 0.919032
O O19 0.406452 0.894191 0.796175
O O20 0.914617 0.500000 0.634494
O O21 0.000000 0.647357 0.631975
#
# Coordination Sequence:
#
# PCOD9348568 Si02
#       8
#     8   8   8   8   8   8   8   8
#     4   9  19  36  55  79 110 147 188 228 281 336
#     4   9  18  34  58  85 112 143 179 226 286 344
#     4  11  23  37  59  88 116 149 192 247 292 332
#     4  10  22  41  62  83 115 159 198 233 282 346
#     4  11  21  35  57  82 111 149 186 226 277 337
#     4  10  20  35  56  81 111 147 185 229 277 332
#     4  10  19  33  59  89 111 138 179 226 280 342
#     4  10  21  39  61  83 114 155 192 229 282 350
#
# _framework density 22.371815999999999
#
# number of rings (size 3 to 8) (size 9 to 14) (size 15 to 20)
#    0.000    2.000    2.500    1.125    0.000    4.000 
#    0.000    5.000    0.000    0.000    0.000    0.000 
#    0.000    0.000    0.000    0.000    0.000    0.000 
#
# Total GULP energy -178337.067777 kJ/mol
# GULP energy per Si atom -5573.033368 kJ/mol
# Density = 2.232090 g / cm^3
# Si number density = 22.371816 Si / 1000 Ang^3
#
#
#
# Elastic Constant Matrix: (Units=GPa)
#
#
# Indices 1 2 3 4 5 6 
#
# 1 239.4379 18.9315 89.3867 0.0000 0.0000 0.0000
# 2 18.9315 49.8670 2.1849 0.0000 0.0000 0.0000
# 3 89.3867 2.1849 157.9550 0.0000 0.0000 0.0000
# 4 0.0000 0.0000 0.0000 48.8375 0.0000 0.0000
# 5 0.0000 0.0000 0.0000 0.0000 19.6614 0.0000
# 6 0.0000 0.0000 0.0000 0.0000 0.0000 27.0571
#
#
#
# Elastic Compliance Matrix: (Units=1/GPa)
#
#
# Indices 1 2 3 4 5 6 
#
# 1 0.005477 -0.001945 -0.003073 0.000000 0.000000 0.000000
# 2 -0.001945 0.020756 0.000813 0.000000 0.000000 0.000000
# 3 -0.003073 0.000813 0.008059 0.000000 0.000000 0.000000
# 4 0.000000 0.000000 0.000000 0.020476 0.000000 0.000000
# 5 0.000000 0.000000 0.000000 0.000000 0.050861 0.000000
# 6 0.000000 0.000000 0.000000 0.000000 0.000000 0.036959
#
#
# Mechanical properties :
#
#
# Convention : Reuss Voigt Hill
#
# Bulk Modulus (GPa) = 38.63431 74.25179 56.44305
# Shear Modulus (GPa) = 31.32367 41.56167 36.44267
#
# Velocity S-wave (km/s) = 3.74590 4.31486 4.04041
# Velocity P-wave (km/s) = 6.00131 7.62141 6.85936
#
# Compressibility (1/GPa) = 0.02588373
#
# Stress axis : x y z
#
# Youngs Moduli (GPa) = 182.57115 48.17885 124.09236
#
# Poissons Ratio (x) = 0.09370 0.38130
# Poissons Ratio (y) = 0.35506 -0.10094
# Poissons Ratio (z) = 0.56099 -0.03919
#
# Static dielectric constant tensor:
#      x y z
#    x 1.741430 0.000000 0.000000 
#    y 0.000000 1.875220 0.000000 
#    z 0.000000 0.000000 1.799760 
# 
# From -- ./inp_files/13148.got.cif
#   From: 2010.05.17/outbox.cif.g08.bks.cpg/sg35_7_cif.got.tgz:13148.got - 2010.06.03 17:29:28.
