data_PCOD9348929
_publ_section_title
;
Structure prediction by ZEFSAII (Michael W. Deem and Ramdas Pophale) SiO2 
 PCOD9348929
Probable space group: C M M 2
;
_chemical_formula_sum "Si O2"
_cell_formula_units_Z 64
_cell_length_a 7.853773
_cell_length_b 20.857997
_cell_length_c 20.646812
_cell_angle_alpha 90.000000
_cell_angle_beta 90.000000
_cell_angle_gamma 90.000000
_cell_volume 3382.236317
_symmetry_space_group_name_H-M "C M M 2"
_symmetry_group_IT_number 35
_symmetry_cell_setting 'orthorhombic'
loop_
_space_group_symop_operation_xyz
x,y,z
-x,-y,z
-x,y,z
x,-y,z
1/2+x,1/2+y,z
1/2-x,1/2-y,z
1/2-x,1/2+y,z
1/2+x,1/2-y,z
loop_
_atom_site_type_symbol
_atom_site_label
_atom_site_fract_x
_atom_site_fract_y
_atom_site_fract_z
Si Si1 0.294816 0.677455 0.845500
Si Si2 0.708098 0.426575 0.742322
Si Si3 0.794737 0.427148 0.242598
Si Si4 0.701828 0.821864 0.491483
Si Si5 0.204321 0.071983 0.595694
Si Si6 0.794718 0.822570 0.993013
Si Si7 0.705524 0.177456 0.344889
Si Si8 0.294748 0.572857 0.095288
O O1 0.500000 0.672800 0.847146
O O2 0.250000 0.750000 0.826188
O O3 0.231382 0.624774 0.794734
O O4 0.232258 0.667345 0.919235
O O5 0.500000 0.425087 0.742841
O O6 0.757427 0.500000 0.757216
O O7 0.763668 0.411826 0.668672
O O8 0.732463 0.500000 0.254222
O O9 0.730837 0.375772 0.294679
O O10 0.749756 0.409422 0.168965
O O11 0.000000 0.428596 0.247069
O O12 0.500000 0.823883 0.486320
O O13 0.750000 0.750000 0.512384
O O14 0.753112 0.875505 0.542522
O O15 0.771195 0.832280 0.418462
O O16 0.000000 0.068784 0.599080
O O17 0.266686 0.000000 0.579451
O O18 0.750000 0.750000 0.012382
O O19 0.730832 0.875665 0.043307
O O20 0.000000 0.826966 0.991482
O O21 0.500000 0.172901 0.346251
O O22 0.750000 0.250000 0.325321
O O23 0.500000 0.571402 0.090598
O O24 0.232444 0.500000 0.083744
#
# Coordination Sequence:
#
# PCOD9348929 Si02
#       8
#     8   8   8   8   8   8   8   8
#     4   9  17  30  48  69  93 122 156 192 231 275
#     4   8  15  29  49  71  94 122 157 195 233 275
#     4   9  18  33  51  70  93 122 155 189 228 276
#     4  10  20  34  52  73  98 128 162 200 241 286
#     4   9  18  33  51  72 100 130 160 198 242 287
#     4   9  18  31  47  68  94 123 154 191 232 274
#     4   9  19  34  51  71  95 123 155 194 235 276
#     4   9  18  32  48  68  94 121 152 192 233 271
#
# _framework density 18.922391999999999
#
# number of rings (size 3 to 8) (size 9 to 14) (size 15 to 20)
#    0.000    3.000    0.000    1.125    0.000    3.750 
#    0.000    8.125    0.000    2.625    0.000    3.500 
#    0.000    0.000    0.000    0.000    0.000    0.000 
#
# Total GULP energy -178406.467717 kJ/mol
# GULP energy per Si atom -5575.202116 kJ/mol
# Density = 1.887932 g / cm^3
# Si number density = 18.922392 Si / 1000 Ang^3
#
#
#
# Elastic Constant Matrix: (Units=GPa)
#
#
# Indices 1 2 3 4 5 6 
#
# 1 19.7675 6.2795 7.5389 0.0000 0.0000 0.0000
# 2 6.2795 176.0164 146.2084 0.0000 0.0000 0.0000
# 3 7.5389 146.2084 145.3666 0.0000 0.0000 0.0000
# 4 0.0000 0.0000 0.0000 46.7515 0.0000 0.0000
# 5 0.0000 0.0000 0.0000 0.0000 14.6312 0.0000
# 6 0.0000 0.0000 0.0000 0.0000 0.0000 23.0849
#
#
#
# Elastic Compliance Matrix: (Units=1/GPa)
#
#
# Indices 1 2 3 4 5 6 
#
# 1 0.051765 0.002329 -0.005027 0.000000 0.000000 0.000000
# 2 0.002329 0.034633 -0.034955 0.000000 0.000000 0.000000
# 3 -0.005027 -0.034955 0.042297 0.000000 0.000000 0.000000
# 4 0.000000 0.000000 0.000000 0.021390 0.000000 0.000000
# 5 0.000000 0.000000 0.000000 0.000000 0.068347 0.000000
# 6 0.000000 0.000000 0.000000 0.000000 0.000000 0.043318
#
#
# Mechanical properties :
#
#
# Convention : Reuss Voigt Hill
#
# Bulk Modulus (GPa) = 18.73004 73.46713 46.09858
# Shear Modulus (GPa) = 14.09031 28.96845 21.52938
#
# Velocity S-wave (km/s) = 2.73176 3.91693 3.37675
# Velocity P-wave (km/s) = 4.45756 7.70495 6.29429
#
# Compressibility (1/GPa) = 0.05339018
#
# Stress axis : x y z
#
# Youngs Moduli (GPa) = 19.31789 28.87379 23.64227
#
# Poissons Ratio (x) = -0.06725 0.11886
# Poissons Ratio (y) = -0.04499 0.82641
# Poissons Ratio (z) = 0.09712 1.00928
#
# Static dielectric constant tensor:
#      x y z
#    x 1.696100 0.000000 0.000000 
#    y 0.000000 1.625280 0.000000 
#    z 0.000000 0.000000 1.655580 
# 
# From -- ./inp_files/18343.got.cif
#   From: 2010.05.17/outbox.cif.g08.bks.cpg/sg35_10_cif.got.tgz:18343.got - 2010.06.03 17:29:28.
