data_PCOD9348490
_publ_section_title
;
Structure prediction by ZEFSAII (Michael W. Deem and Ramdas Pophale) SiO2 
 PCOD9348490
Probable space group: C M M 2
;
_chemical_formula_sum "Si O2"
_cell_formula_units_Z 40
_cell_length_a 7.839893
_cell_length_b 18.346262
_cell_length_c 15.095365
_cell_angle_alpha 90.000000
_cell_angle_beta 90.000000
_cell_angle_gamma 90.000000
_cell_volume 2171.207574
_symmetry_space_group_name_H-M "C M M 2"
_symmetry_group_IT_number 35
_symmetry_cell_setting 'orthorhombic'
loop_
_space_group_symop_operation_xyz
x,y,z
-x,-y,z
-x,y,z
x,-y,z
1/2+x,1/2+y,z
1/2-x,1/2-y,z
1/2-x,1/2+y,z
1/2+x,1/2-y,z
loop_
_atom_site_type_symbol
_atom_site_label
_atom_site_fract_x
_atom_site_fract_y
_atom_site_fract_z
Si Si1 0.793909 0.584919 0.282660
Si Si2 0.500000 0.911170 0.598795
Si Si3 0.704648 0.834501 0.104921
Si Si4 0.000000 0.412285 0.804342
Si Si5 0.803253 0.164451 0.909203
Si Si6 0.810738 0.911097 0.476653
O O1 0.747542 0.500000 0.275652
O O2 0.737961 0.624692 0.193470
O O3 0.722638 0.613591 0.375809
O O4 0.000000 0.589496 0.288209
O O5 0.500000 0.889969 0.701111
O O6 0.665641 0.886594 0.544155
O O7 0.500000 0.000000 0.597477
O O8 0.500000 0.842558 0.096500
O O9 0.750000 0.750000 0.115380
O O10 0.784879 0.859188 0.012090
O O11 0.832354 0.380117 0.851730
O O12 0.000000 0.500000 0.810132
O O13 0.750000 0.250000 0.906296
O O14 0.000000 0.156773 0.881308
O O15 0.000000 0.890223 0.505120
O O16 0.802003 0.000000 0.473946
#
# Coordination Sequence:
#
# PCOD9348490 Si02
#       6
#     8   4   8   4   8   8
#     4   9  17  30  50  77 108 145 185 227 276 328
#     4   9  18  34  53  77 115 148 179 234 296 343
#     4  10  19  33  53  81 110 150 192 231 274 343
#     4  11  24  40  61  95 124 146 195 268 311 337
#     4  11  21  40  65  86 114 162 207 237 291 373
#     4   9  16  28  50  77 106 145 187 222 273 347
#
# _framework density 18.422927999999999
#
# number of rings (size 3 to 8) (size 9 to 14) (size 15 to 20)
#    0.000    2.200    3.000    1.800    0.000    3.600 
#    0.000    2.000    0.000    1.200    0.000    0.000 
#    0.000    0.000    0.000    0.000    0.000    0.000 
#
# Total GULP energy -111579.472029 kJ/mol
# GULP energy per Si atom -5578.973601 kJ/mol
# Density = 1.838100 g / cm^3
# Si number density = 18.422928 Si / 1000 Ang^3
#
#
#
# Elastic Constant Matrix: (Units=GPa)
#
#
# Indices 1 2 3 4 5 6 
#
# 1 147.1643 30.3712 86.7906 0.0000 0.0000 0.0000
# 2 30.3712 27.5676 44.5462 0.0000 0.0000 0.0000
# 3 86.7906 44.5462 171.2446 0.0000 0.0000 0.0000
# 4 0.0000 0.0000 0.0000 13.8228 0.0000 0.0000
# 5 0.0000 0.0000 0.0000 0.0000 5.7353 0.0000
# 6 0.0000 0.0000 0.0000 0.0000 0.0000 19.6009
#
#
#
# Elastic Compliance Matrix: (Units=1/GPa)
#
#
# Indices 1 2 3 4 5 6 
#
# 1 0.010063 -0.004908 -0.003823 0.000000 0.000000 0.000000
# 2 -0.004908 0.064973 -0.014414 0.000000 0.000000 0.000000
# 3 -0.003823 -0.014414 0.011527 0.000000 0.000000 0.000000
# 4 0.000000 0.000000 0.000000 0.072344 0.000000 0.000000
# 5 0.000000 0.000000 0.000000 0.000000 0.174358 0.000000
# 6 0.000000 0.000000 0.000000 0.000000 0.000000 0.051018
#
#
# Mechanical properties :
#
#
# Convention : Reuss Voigt Hill
#
# Bulk Modulus (GPa) = 24.83121 74.37695 49.60408
# Shear Modulus (GPa) = 11.26131 20.11638 15.68884
#
# Velocity S-wave (km/s) = 2.47506 3.30801 2.92137
# Velocity P-wave (km/s) = 4.65571 7.41958 6.19378
#
# Compressibility (1/GPa) = 0.04027190
#
# Stress axis : x y z
#
# Youngs Moduli (GPa) = 99.37520 15.39097 86.75372
#
# Poissons Ratio (x) = 0.07554 0.33169
# Poissons Ratio (y) = 0.48775 1.25047
# Poissons Ratio (z) = 0.37994 0.22185
#
# Static dielectric constant tensor:
#      x y z
#    x 1.648100 0.000000 0.000000 
#    y 0.000000 1.611840 0.000000 
#    z 0.000000 0.000000 1.625740 
# 
# From -- ./inp_files/14763.got.cif
#   From: 2010.05.17/outbox.cif.g08.bks.cpg/sg35_8_cif.got.tgz:14763.got - 2010.06.03 17:29:28.
