data_PCOD9348921
_publ_section_title
;
Structure prediction by ZEFSAII (Michael W. Deem and Ramdas Pophale) SiO2 
 PCOD9348921
Probable space group: C M M 2
;
_chemical_formula_sum "Si O2"
_cell_formula_units_Z 56
_cell_length_a 9.438026
_cell_length_b 18.913573
_cell_length_c 18.593556
_cell_angle_alpha 90.000000
_cell_angle_beta 90.000000
_cell_angle_gamma 90.000000
_cell_volume 3319.076066
_symmetry_space_group_name_H-M "C M M 2"
_symmetry_group_IT_number 35
_symmetry_cell_setting 'orthorhombic'
loop_
_space_group_symop_operation_xyz
x,y,z
-x,-y,z
-x,y,z
x,-y,z
1/2+x,1/2+y,z
1/2-x,1/2-y,z
1/2-x,1/2+y,z
1/2+x,1/2-y,z
loop_
_atom_site_type_symbol
_atom_site_label
_atom_site_fract_x
_atom_site_fract_y
_atom_site_fract_z
Si Si1 0.667644 0.915935 0.378150
Si Si2 0.337150 0.913636 0.660295
Si Si3 0.331478 0.823375 0.241108
Si Si4 0.330676 0.175279 0.077788
Si Si5 0.167338 0.084744 0.961763
Si Si6 0.662920 0.413979 0.798601
Si Si7 0.663178 0.413763 0.519717
O O1 0.500000 0.904445 0.391874
O O2 0.707663 0.876530 0.304815
O O3 0.757584 0.891648 0.446883
O O4 0.688184 0.000000 0.369514
O O5 0.500000 0.891324 0.655301
O O6 0.264190 0.890165 0.734505
O O7 0.247406 0.891037 0.590874
O O8 0.335839 0.000000 0.660544
O O9 0.500000 0.810592 0.245954
O O10 0.250000 0.750000 0.249957
O O11 0.304496 0.850253 0.159943
O O12 0.500000 0.183593 0.068363
O O13 0.250000 0.250000 0.070791
O O14 0.264207 0.122997 0.019649
O O15 0.000000 0.100274 0.973361
O O16 0.183875 0.000000 0.966241
O O17 0.202753 0.107173 0.879720
O O18 0.500000 0.392824 0.784896
O O19 0.664246 0.500000 0.798435
O O20 0.500000 0.391124 0.521213
O O21 0.664486 0.500000 0.520031
#
# Coordination Sequence:
#
# PCOD9348921 Si02
#       7
#     8   8   8   8   8   8   8
#     4   9  17  30  47  67  93 122 152 189 233 277
#     4   9  15  22  35  57  86 120 155 189 226 268
#     4   9  19  34  51  70  92 121 155 193 235 279
#     4  10  20  34  52  72  95 125 162 201 240 286
#     4   9  18  32  49  71 100 130 159 196 243 289
#     4   8  14  25  40  59  87 122 155 188 229 275
#     4   9  16  25  38  59  88 120 153 188 227 271
#
# _framework density 16.872166
#
# number of rings (size 3 to 8) (size 9 to 14) (size 15 to 20)
#    0.000    3.000    0.000    2.143    0.000    6.000 
#    0.000    2.857    0.000    1.714    0.000    1.000 
#    0.000    2.286    0.000    0.000    0.000    0.000 
#
# Total GULP energy -155983.567933 kJ/mol
# GULP energy per Si atom -5570.841712 kJ/mol
# Density = 1.683376 g / cm^3
# Si number density = 16.872166 Si / 1000 Ang^3
#
#
#
# Elastic Constant Matrix: (Units=GPa)
#
#
# Indices 1 2 3 4 5 6 
#
# 1 110.6131 33.6937 113.2980 0.0000 0.0000 0.0000
# 2 33.6937 15.0739 45.1204 0.0000 0.0000 0.0000
# 3 113.2980 45.1204 183.9657 0.0000 0.0000 0.0000
# 4 0.0000 0.0000 0.0000 -9.8120 0.0000 0.0000
# 5 0.0000 0.0000 0.0000 0.0000 34.0680 0.0000
# 6 0.0000 0.0000 0.0000 0.0000 0.0000 17.7608
#
#
#
# Elastic Compliance Matrix: (Units=1/GPa)
#
#
# Indices 1 2 3 4 5 6 
#
# 1 0.031120 -0.045860 -0.007918 0.000000 0.000000 0.000000
# 2 -0.045860 0.317116 -0.049534 0.000000 0.000000 0.000000
# 3 -0.007918 -0.049534 0.022461 0.000000 0.000000 0.000000
# 4 0.000000 0.000000 0.000000 -0.101916 0.000000 0.000000
# 5 0.000000 0.000000 0.000000 0.000000 0.029353 0.000000
# 6 0.000000 0.000000 0.000000 0.000000 0.000000 0.056304
#
#
# Mechanical properties :
#
#
# Convention : Reuss Voigt Hill
#
# Bulk Modulus (GPa) = 6.09483 77.09743 41.59613
# Shear Modulus (GPa) = 8.12014 16.23940 12.17977
#
# Velocity S-wave (km/s) = 2.19618 3.10578 2.68971
# Velocity P-wave (km/s) = 3.17035 7.65868 5.86117
#
# Compressibility (1/GPa) = 0.16407347
#
# Stress axis : x y z
#
# Youngs Moduli (GPa) = 32.13387 3.15342 44.52176
#
# Poissons Ratio (x) = 0.14462 0.35251
# Poissons Ratio (y) = 1.47367 2.20533
# Poissons Ratio (z) = 0.25443 0.15620
#
# Static dielectric constant tensor:
#      x y z
#    x 1.563200 0.000000 0.000000 
#    y 0.000000 1.541980 0.000000 
#    z 0.000000 0.000000 1.572500 
# 
# From -- ./inp_files/15617.got.cif
#   From: 2010.05.17/outbox.cif.g08.bks.cpg/sg35_8_cif.got.tgz:15617.got - 2010.06.03 17:29:28.
