data_PCOD9348220
_publ_section_title
;
Structure prediction by ZEFSAII (Michael W. Deem and Ramdas Pophale) SiO2 
 PCOD9348220
Probable space group: C M M 2
;
_chemical_formula_sum "Si O2"
_cell_formula_units_Z 64
_cell_length_a 8.688410
_cell_length_b 29.310963
_cell_length_c 16.164693
_cell_angle_alpha 90.000000
_cell_angle_beta 90.000000
_cell_angle_gamma 90.000000
_cell_volume 4116.592277
_symmetry_space_group_name_H-M "C M M 2"
_symmetry_group_IT_number 35
_symmetry_cell_setting 'orthorhombic'
loop_
_space_group_symop_operation_xyz
x,y,z
-x,-y,z
-x,y,z
x,-y,z
1/2+x,1/2+y,z
1/2-x,1/2-y,z
1/2-x,1/2+y,z
1/2+x,1/2-y,z
loop_
_atom_site_type_symbol
_atom_site_label
_atom_site_fract_x
_atom_site_fract_y
_atom_site_fract_z
Si Si1 0.815869 0.448091 0.170090
Si Si2 0.185659 0.800890 0.265929
Si Si3 0.315285 0.198537 0.586931
Si Si4 0.314455 0.448611 0.354578
Si Si5 0.185186 0.301548 0.949955
Si Si6 0.685096 0.801168 0.768293
Si Si7 0.184496 0.142473 0.103054
Si Si8 0.685762 0.644939 0.431798
O O1 0.772700 0.500000 0.146503
O O2 0.757101 0.441151 0.264030
O O3 0.743323 0.408928 0.114104
O O4 0.000000 0.444506 0.168675
O O5 0.250000 0.750000 0.262992
O O6 0.234125 0.829549 0.185311
O O7 0.232637 0.826306 0.350340
O O8 0.000000 0.799114 0.265473
O O9 0.500000 0.201173 0.583449
O O10 0.250000 0.250000 0.578006
O O11 0.268489 0.179908 0.678367
O O12 0.255136 0.167295 0.513218
O O13 0.500000 0.446397 0.345239
O O14 0.273827 0.500000 0.381958
O O15 0.268750 0.407482 0.414651
O O16 0.250000 0.250000 0.958153
O O17 0.230598 0.320133 0.858274
O O18 0.000000 0.299523 0.954834
O O19 0.249415 0.332593 0.022873
O O20 0.500000 0.799547 0.768293
O O21 0.750000 0.750000 0.768288
O O22 0.000000 0.142963 0.100299
O O23 0.500000 0.646941 0.437330
#
# Coordination Sequence:
#
# PCOD9348220 Si02
#       8
#     8   8   8   8   8   8   8   8
#     4  10  20  33  50  72  95 120 155 199 243 284
#     4  10  21  33  43  60  90 127 160 188 222 267
#     4  10  19  31  47  69  94 126 160 195 235 278
#     4   9  17  32  52  69  90 122 157 195 239 283
#     4  10  19  32  49  71  97 127 159 198 239 283
#     4   8  16  30  47  66  92 121 155 195 238 280
#     4  11  21  34  49  68  94 128 164 197 234 280
#     4  10  19  32  46  67  94 123 158 194 232 279
#
# _framework density 15.546839
#
# number of rings (size 3 to 8) (size 9 to 14) (size 15 to 20)
#    0.000    2.250    1.250    2.250    0.000    5.750 
#    0.000    0.000    0.000    0.000    0.000    0.875 
#    0.000    5.000    0.000    0.000    0.000    0.000 
#
# Total GULP energy -178377.641870 kJ/mol
# GULP energy per Si atom -5574.301308 kJ/mol
# Density = 1.551145 g / cm^3
# Si number density = 15.546839 Si / 1000 Ang^3
#
#
#
# Elastic Constant Matrix: (Units=GPa)
#
#
# Indices 1 2 3 4 5 6 
#
# 1 24.7380 33.2414 37.7910 0.0000 0.0000 0.0000
# 2 33.2414 114.5340 79.6584 0.0000 0.0000 0.0000
# 3 37.7910 79.6584 158.9053 0.0000 0.0000 0.0000
# 4 0.0000 0.0000 0.0000 7.7483 0.0000 0.0000
# 5 0.0000 0.0000 0.0000 0.0000 17.1972 0.0000
# 6 0.0000 0.0000 0.0000 0.0000 0.0000 21.4039
#
#
#
# Elastic Compliance Matrix: (Units=1/GPa)
#
#
# Indices 1 2 3 4 5 6 
#
# 1 0.076861 -0.014730 -0.010895 0.000000 0.000000 0.000000
# 2 -0.014730 0.016227 -0.004632 0.000000 0.000000 0.000000
# 3 -0.010895 -0.004632 0.011206 0.000000 0.000000 0.000000
# 4 0.000000 0.000000 0.000000 0.129060 0.000000 0.000000
# 5 0.000000 0.000000 0.000000 0.000000 0.058149 0.000000
# 6 0.000000 0.000000 0.000000 0.000000 0.000000 0.046720
#
#
# Mechanical properties :
#
#
# Convention : Reuss Voigt Hill
#
# Bulk Modulus (GPa) = 22.84107 66.61767 44.72937
# Shear Modulus (GPa) = 12.09687 19.10232 15.59959
#
# Velocity S-wave (km/s) = 2.79246 3.50908 3.17107
# Velocity P-wave (km/s) = 5.01206 7.70460 6.49929
#
# Compressibility (1/GPa) = 0.04378078
#
# Stress axis : x y z
#
# Youngs Moduli (GPa) = 13.01058 61.62406 89.23829
#
# Poissons Ratio (x) = 0.90771 0.97225
# Poissons Ratio (y) = 0.19164 0.41332
# Poissons Ratio (z) = 0.14175 0.28542
#
# Static dielectric constant tensor:
#      x y z
#    x 1.526130 0.000000 0.000000 
#    y 0.000000 1.501930 0.000000 
#    z 0.000000 0.000000 1.530170 
# 
# From -- ./inp_files/16166.got.cif
#   From: 2010.05.17/outbox.cif.g08.bks.cpg/sg35_9_cif.got.tgz:16166.got - 2010.06.03 17:29:28.
