data_PCOD9348831
_publ_section_title
;
Structure prediction by ZEFSAII (Michael W. Deem and Ramdas Pophale) SiO2 
 PCOD9348831
Probable space group: C M M 2
;
_chemical_formula_sum "Si O2"
_cell_formula_units_Z 64
_cell_length_a 8.869588
_cell_length_b 19.266479
_cell_length_c 21.275451
_cell_angle_alpha 90.000000
_cell_angle_beta 90.000000
_cell_angle_gamma 90.000000
_cell_volume 3635.670995
_symmetry_space_group_name_H-M "C M M 2"
_symmetry_group_IT_number 35
_symmetry_cell_setting 'orthorhombic'
loop_
_space_group_symop_operation_xyz
x,y,z
-x,-y,z
-x,y,z
x,-y,z
1/2+x,1/2+y,z
1/2-x,1/2-y,z
1/2-x,1/2+y,z
1/2+x,1/2-y,z
loop_
_atom_site_type_symbol
_atom_site_label
_atom_site_fract_x
_atom_site_fract_y
_atom_site_fract_z
Si Si1 0.681506 0.173185 0.289900
Si Si2 0.680070 0.418272 0.400560
Si Si3 0.316315 0.080058 0.171302
Si Si4 0.181605 0.326120 0.652234
Si Si5 0.178790 0.917960 0.902642
Si Si6 0.319532 0.173535 0.793562
Si Si7 0.674001 0.915646 0.032619
Si Si8 0.819997 0.418301 0.534459
O O1 0.500000 0.176942 0.291264
O O2 0.750000 0.250000 0.290129
O O3 0.739857 0.129301 0.349222
O O4 0.728507 0.130680 0.227343
O O5 0.500000 0.411268 0.395900
O O6 0.718847 0.500000 0.390867
O O7 0.735208 0.398920 0.470469
O O8 0.500000 0.078590 0.169337
O O9 0.267477 0.104532 0.101758
O O10 0.267438 0.000000 0.182082
O O11 0.250000 0.250000 0.643851
O O12 0.222340 0.350667 0.722720
O O13 0.229572 0.375461 0.595388
O O14 0.000000 0.321547 0.650356
O O15 0.258708 0.876461 0.847310
O O16 0.000000 0.909538 0.897786
O O17 0.214639 0.000000 0.897578
O O18 0.233789 0.893922 0.971538
O O19 0.500000 0.177864 0.797179
O O20 0.250000 0.250000 0.801616
O O21 0.500000 0.893435 0.025633
O O22 0.674302 0.000000 0.034162
O O23 0.795081 0.500000 0.545450
O O24 0.000000 0.408020 0.525395
#
# Coordination Sequence:
#
# PCOD9348831 Si02
#       8
#     8   8   8   8   8   8   8   8
#     4  11  22  36  54  77 107 140 174 213 258 305
#     4  10  21  37  56  79 106 136 173 214 255 304
#     4   8  15  30  54  79  99 127 171 216 257 307
#     4   9  19  34  53  76 101 132 169 210 254 305
#     4  10  20  33  50  76 108 138 172 215 259 304
#     4  10  20  35  54  75 102 137 176 215 258 308
#     4   8  14  28  51  76 100 129 169 214 258 306
#     4   9  18  34  55  78 104 134 169 209 253 301
#
# _framework density 17.603352000000001
#
# number of rings (size 3 to 8) (size 9 to 14) (size 15 to 20)
#    0.000    2.625    0.000    2.625    0.000    4.000 
#    0.000    4.375    0.000    6.000    0.000    0.000 
#    0.000    0.000    0.000    0.000    0.000    0.000 
#
# Total GULP energy -178451.489446 kJ/mol
# GULP energy per Si atom -5576.609045 kJ/mol
# Density = 1.756329 g / cm^3
# Si number density = 17.603352 Si / 1000 Ang^3
#
#
#
# Elastic Constant Matrix: (Units=GPa)
#
#
# Indices 1 2 3 4 5 6 
#
# 1 42.9898 43.3698 63.0807 0.0000 0.0000 0.0000
# 2 43.3698 75.6204 95.1189 0.0000 0.0000 0.0000
# 3 63.0807 95.1189 195.7008 0.0000 0.0000 0.0000
# 4 0.0000 0.0000 0.0000 -31.0698 0.0000 0.0000
# 5 0.0000 0.0000 0.0000 0.0000 17.3952 0.0000
# 6 0.0000 0.0000 0.0000 0.0000 0.0000 23.4075
#
#
#
# Elastic Compliance Matrix: (Units=1/GPa)
#
#
# Indices 1 2 3 4 5 6 
#
# 1 0.058275 -0.025202 -0.006534 0.000000 0.000000 0.000000
# 2 -0.025202 0.044926 -0.013713 0.000000 0.000000 0.000000
# 3 -0.006534 -0.013713 0.013881 0.000000 0.000000 0.000000
# 4 0.000000 0.000000 0.000000 -0.032186 0.000000 0.000000
# 5 0.000000 0.000000 0.000000 0.000000 0.057487 0.000000
# 6 0.000000 0.000000 0.000000 0.000000 0.000000 0.042721
#
#
# Mechanical properties :
#
#
# Convention : Reuss Voigt Hill
#
# Bulk Modulus (GPa) = 38.19238 79.71664 58.95451
# Shear Modulus (GPa) = 17.56044 9.46269 13.51157
#
# Velocity S-wave (km/s) = 3.16185 2.32103 2.77349
# Velocity P-wave (km/s) = 5.92224 7.25025 6.61963
#
# Compressibility (1/GPa) = 0.02618323
#
# Stress axis : x y z
#
# Youngs Moduli (GPa) = 17.16016 22.25868 72.04127
#
# Poissons Ratio (x) = 0.56097 0.47074
# Poissons Ratio (y) = 0.43248 0.98787
# Poissons Ratio (z) = 0.11213 0.30522
#
# Static dielectric constant tensor:
#      x y z
#    x 1.589910 0.000000 0.000000 
#    y 0.000000 1.572640 0.000000 
#    z 0.000000 0.000000 1.605790 
# 
# From -- ./inp_files/18331.got.cif
#   From: 2010.05.17/outbox.cif.g08.bks.cpg/sg35_10_cif.got.tgz:18331.got - 2010.06.03 17:29:28.
