data_PCOD9348560
_publ_section_title
;
Structure prediction by ZEFSAII (Michael W. Deem and Ramdas Pophale) SiO2 
 PCOD9348560
Probable space group: C M M 2
;
_chemical_formula_sum "Si O2"
_cell_formula_units_Z 56
_cell_length_a 14.812509
_cell_length_b 15.382919
_cell_length_c 11.392685
_cell_angle_alpha 90.000000
_cell_angle_beta 90.000000
_cell_angle_gamma 90.000000
_cell_volume 2595.932945
_symmetry_space_group_name_H-M "C M M 2"
_symmetry_group_IT_number 35
_symmetry_cell_setting 'orthorhombic'
loop_
_space_group_symop_operation_xyz
x,y,z
-x,-y,z
-x,y,z
x,-y,z
1/2+x,1/2+y,z
1/2-x,1/2-y,z
1/2-x,1/2+y,z
1/2+x,1/2-y,z
loop_
_atom_site_type_symbol
_atom_site_label
_atom_site_fract_x
_atom_site_fract_y
_atom_site_fract_z
Si Si1 0.641945 0.401322 0.892110
Si Si2 0.748011 0.595469 0.330561
Si Si3 0.140473 0.590670 0.890535
Si Si4 0.396078 0.105388 0.524216
Si Si5 0.601722 0.331323 0.156464
Si Si6 0.597699 0.124060 0.152206
Si Si7 0.859177 0.256800 0.730553
O O1 0.608452 0.500000 0.878205
O O2 0.751000 0.404768 0.887509
O O3 0.612714 0.337186 0.785190
O O4 0.622214 0.368910 0.025675
O O5 0.713003 0.500000 0.362952
O O6 0.811529 0.626376 0.437739
O O7 0.667962 0.645359 0.264192
O O8 0.821975 0.589558 0.228669
O O9 0.112352 0.500000 0.831723
O O10 0.109603 0.678376 0.832608
O O11 0.107178 0.590505 0.021845
O O12 0.500000 0.110149 0.478476
O O13 0.389859 0.184247 0.619489
O O14 0.384449 0.000000 0.555304
O O15 0.500000 0.358724 0.186108
O O16 0.605888 0.227799 0.145673
O O17 0.500000 0.101555 0.201171
O O18 0.750000 0.250000 0.720605
#
# Coordination Sequence:
#
# PCOD9348560 Si02
#       7
#     8   8   8   8   8   8   8
#     4  10  20  36  59  92 136 180 220 266 327 394
#     4  11  23  40  63  91 131 172 216 273 330 396
#     4  10  19  33  56  89 129 171 214 266 326 386
#     4  10  23  44  68  95 131 177 225 275 337 402
#     4  11  23  38  60  93 135 179 222 267 324 393
#     4  11  22  35  57  90 129 170 214 266 324 389
#     4  10  21  37  63  93 129 177 219 270 321 395
#
# _framework density 21.572206999999999
#
# number of rings (size 3 to 8) (size 9 to 14) (size 15 to 20)
#    0.000    1.571    2.857    2.143    0.000    5.714 
#    0.000    0.000    0.000    0.000    0.000    0.000 
#    0.000    4.571    0.000    0.000    0.000    0.000 
#
# Total GULP energy -155927.777831 kJ/mol
# GULP energy per Si atom -5568.849208 kJ/mol
# Density = 2.152311 g / cm^3
# Si number density = 21.572207 Si / 1000 Ang^3
#
#
#
# Elastic Constant Matrix: (Units=GPa)
#
#
# Indices 1 2 3 4 5 6 
#
# 1 103.1415 48.0374 32.2466 0.0000 0.0000 0.0000
# 2 48.0374 153.4563 53.3236 0.0000 0.0000 0.0000
# 3 32.2466 53.3236 113.8546 0.0000 0.0000 0.0000
# 4 0.0000 0.0000 0.0000 24.3120 0.0000 0.0000
# 5 0.0000 0.0000 0.0000 0.0000 55.7961 0.0000
# 6 0.0000 0.0000 0.0000 0.0000 0.0000 -42.7326
#
#
#
# Elastic Compliance Matrix: (Units=1/GPa)
#
#
# Indices 1 2 3 4 5 6 
#
# 1 0.011687 -0.002996 -0.001907 0.000000 0.000000 0.000000
# 2 -0.002996 0.008551 -0.003156 0.000000 0.000000 0.000000
# 3 -0.001907 -0.003156 0.010802 0.000000 0.000000 0.000000
# 4 0.000000 0.000000 0.000000 0.041132 0.000000 0.000000
# 5 0.000000 0.000000 0.000000 0.000000 0.017922 0.000000
# 6 0.000000 0.000000 0.000000 0.000000 0.000000 -0.023401
#
#
# Mechanical properties :
#
#
# Convention : Reuss Voigt Hill
#
# Bulk Modulus (GPa) = 67.01869 70.85196 68.93533
# Shear Modulus (GPa) = 56.95759 23.26474 40.11116
#
# Velocity S-wave (km/s) = 5.14398 3.28755 4.31674
# Velocity P-wave (km/s) = 8.14956 6.87939 7.54127
#
# Compressibility (1/GPa) = 0.01492121
#
# Stress axis : x y z
#
# Youngs Moduli (GPa) = 85.56600 116.94389 92.57940
#
# Poissons Ratio (x) = 0.35034 0.17655
# Poissons Ratio (y) = 0.25634 0.29222
# Poissons Ratio (z) = 0.16317 0.36912
#
# Static dielectric constant tensor:
#      x y z
#    x 1.782890 0.000000 0.000000 
#    y 0.000000 1.864830 0.000000 
#    z 0.000000 0.000000 1.808570 
# 
# From -- ./inp_files/12965.got.cif
#   From: 2010.05.17/outbox.cif.g08.bks.cpg/sg35_7_cif.got.tgz:12965.got - 2010.06.03 17:29:28.
