data_PCOD9348277
_publ_section_title
;
Structure prediction by ZEFSAII (Michael W. Deem and Ramdas Pophale) SiO2 
 PCOD9348277
Probable space group: C M M 2
;
_chemical_formula_sum "Si O2"
_cell_formula_units_Z 64
_cell_length_a 8.157529
_cell_length_b 28.483680
_cell_length_c 14.704573
_cell_angle_alpha 90.000000
_cell_angle_beta 90.000000
_cell_angle_gamma 90.000000
_cell_volume 3416.702317
_symmetry_space_group_name_H-M "C M M 2"
_symmetry_group_IT_number 35
_symmetry_cell_setting 'orthorhombic'
loop_
_space_group_symop_operation_xyz
x,y,z
-x,-y,z
-x,y,z
x,-y,z
1/2+x,1/2+y,z
1/2-x,1/2-y,z
1/2-x,1/2+y,z
1/2+x,1/2-y,z
loop_
_atom_site_type_symbol
_atom_site_label
_atom_site_fract_x
_atom_site_fract_y
_atom_site_fract_z
Si Si1 0.696529 0.052281 0.592690
Si Si2 0.312526 0.877377 0.233207
Si Si3 0.303508 0.803990 0.088153
Si Si4 0.688797 0.055768 0.887428
Si Si5 0.310986 0.555745 0.089226
Si Si6 0.685323 0.622174 0.742262
Si Si7 0.196539 0.196007 0.885818
Si Si8 0.200595 0.552917 0.382058
O O1 0.500000 0.049795 0.593548
O O2 0.741443 0.096729 0.654227
O O3 0.748041 0.057839 0.487639
O O4 0.755647 0.000000 0.624302
O O5 0.500000 0.864321 0.256017
O O6 0.239384 0.834526 0.173790
O O7 0.305587 0.919113 0.159968
O O8 0.238326 0.903441 0.321317
O O9 0.500000 0.806885 0.089594
O O10 0.250000 0.750000 0.096546
O O11 0.250064 0.820437 0.987009
O O12 0.500000 0.070992 0.873653
O O13 0.804720 0.081152 0.816971
O O14 0.693771 0.000000 0.874665
O O15 0.748597 0.066046 0.988481
O O16 0.500000 0.571153 0.100960
O O17 0.305610 0.500000 0.101459
O O18 0.500000 0.635342 0.719505
O O19 0.760850 0.665399 0.800395
O O20 0.250000 0.250000 0.877490
O O21 0.000000 0.193131 0.884562
O O22 0.251188 0.500000 0.351601
O O23 0.000000 0.553481 0.377417
#
# Coordination Sequence:
#
# PCOD9348277 Si02
#       8
#     8   8   8   8   8   8   8   8
#     4   9  18  33  53  76 101 133 173 210 244 289
#     4  10  19  31  51  75  96 126 169 209 245 291
#     4  10  20  33  51  75 101 130 165 204 248 297
#     4  10  20  32  46  66  94 130 169 201 231 280
#     4  10  20  31  43  65  99 133 161 193 239 293
#     4  11  22  33  49  74 101 128 159 201 254 304
#     4  10  21  36  53  73  98 129 165 204 248 298
#     4   8  15  30  52  76 101 129 166 212 251 284
#
# _framework density 18.731511000000001
#
# number of rings (size 3 to 8) (size 9 to 14) (size 15 to 20)
#    0.000    2.250    0.000    4.875    0.000    8.750 
#    0.000    0.625    0.000    1.500    0.000    3.500 
#    0.000    0.000    0.000    0.000    0.000    0.000 
#
# Total GULP energy -178321.520026 kJ/mol
# GULP energy per Si atom -5572.547501 kJ/mol
# Density = 1.868888 g / cm^3
# Si number density = 18.731511 Si / 1000 Ang^3
#
#
#
# Elastic Constant Matrix: (Units=GPa)
#
#
# Indices 1 2 3 4 5 6 
#
# 1 25.6318 11.2591 -2.9197 0.0000 0.0000 0.0000
# 2 11.2591 102.0949 57.6909 0.0000 0.0000 0.0000
# 3 -2.9197 57.6909 88.7273 0.0000 0.0000 0.0000
# 4 0.0000 0.0000 0.0000 36.9467 0.0000 0.0000
# 5 0.0000 0.0000 0.0000 0.0000 -11.7308 0.0000
# 6 0.0000 0.0000 0.0000 0.0000 0.0000 7.4162
#
#
#
# Elastic Compliance Matrix: (Units=1/GPa)
#
#
# Indices 1 2 3 4 5 6 
#
# 1 0.043754 -0.008914 0.007236 0.000000 0.000000 0.000000
# 2 -0.008914 0.017300 -0.011542 0.000000 0.000000 0.000000
# 3 0.007236 -0.011542 0.019013 0.000000 0.000000 0.000000
# 4 0.000000 0.000000 0.000000 0.027066 0.000000 0.000000
# 5 0.000000 0.000000 0.000000 0.000000 -0.085246 0.000000
# 6 0.000000 0.000000 0.000000 0.000000 0.000000 0.134841
#
#
# Mechanical properties :
#
#
# Convention : Reuss Voigt Hill
#
# Bulk Modulus (GPa) = 18.64740 38.72384 28.68562
# Shear Modulus (GPa) = 24.87031 16.55466 20.71248
#
# Velocity S-wave (km/s) = 3.64775 2.97608 3.32890
# Velocity P-wave (km/s) = 5.26480 5.70328 5.48842
#
# Compressibility (1/GPa) = 0.05362678
#
# Stress axis : x y z
#
# Youngs Moduli (GPa) = 22.85513 57.80451 52.59556
#
# Poissons Ratio (x) = 0.51526 -0.38056
# Poissons Ratio (y) = 0.20373 0.60704
# Poissons Ratio (z) = -0.16537 0.66716
#
# Static dielectric constant tensor:
#      x y z
#    x 1.690090 0.000000 0.000000 
#    y 0.000000 1.673530 0.000000 
#    z 0.000000 0.000000 1.661420 
# 
# From -- ./inp_files/16250.got.cif
#   From: 2010.05.17/outbox.cif.g08.bks.cpg/sg35_9_cif.got.tgz:16250.got - 2010.06.03 17:29:28.
