data_PCOD9348209
_publ_section_title
;
Structure prediction by ZEFSAII (Michael W. Deem and Ramdas Pophale) SiO2 
 PCOD9348209
Probable space group: C M M 2
;
_chemical_formula_sum "Si O2"
_cell_formula_units_Z 48
_cell_length_a 36.461033
_cell_length_b 7.617287
_cell_length_c 7.925740
_cell_angle_alpha 90.000000
_cell_angle_beta 90.000000
_cell_angle_gamma 90.000000
_cell_volume 2201.248683
_symmetry_space_group_name_H-M "C M M 2"
_symmetry_group_IT_number 35
_symmetry_cell_setting 'orthorhombic'
loop_
_space_group_symop_operation_xyz
x,y,z
-x,-y,z
-x,y,z
x,-y,z
1/2+x,1/2+y,z
1/2-x,1/2-y,z
1/2-x,1/2+y,z
1/2+x,1/2-y,z
loop_
_atom_site_type_symbol
_atom_site_label
_atom_site_fract_x
_atom_site_fract_y
_atom_site_fract_z
Si Si1 0.500000 0.803831 0.218701
Si Si2 0.424931 0.800375 0.721952
Si Si3 0.000000 0.189897 0.572194
Si Si4 0.842138 0.284532 0.107456
Si Si5 0.077781 0.299193 0.126030
Si Si6 0.207175 0.289623 0.415002
Si Si7 0.844430 0.715354 0.717687
O O1 0.500000 0.821019 0.418328
O O2 0.500000 0.000000 0.135063
O O3 0.538840 0.717414 0.173521
O O4 0.462724 0.708992 0.675828
O O5 0.421653 0.806500 0.923700
O O6 0.385582 0.726997 0.665118
O O7 0.427939 0.000000 0.657969
O O8 0.000000 0.000000 0.489885
O O9 0.843278 0.500000 0.105183
O O10 0.811708 0.227083 0.241263
O O11 0.882454 0.224569 0.170972
O O12 0.836614 0.230790 0.911889
O O13 0.076808 0.500000 0.193794
O O14 0.203065 0.500000 0.414834
O O15 0.250000 0.250000 0.422434
O O16 0.185145 0.226247 0.580251
O O17 0.845448 0.500000 0.719353
#
# Coordination Sequence:
#
# PCOD9348209 Si02
#       7
#     4   8   4   8   8   8   8
#     4  10  19  30  50  76 100 130 171 212 252 298
#     4   9  17  34  58  78  95 125 174 224 261 297
#     4  12  25  34  42  70 112 146 171 202 250 308
#     4   8  15  29  50  77 106 129 161 212 261 302
#     4   8  15  29  53  81  99 118 164 225 264 291
#     4  10  20  33  52  77 106 137 167 205 257 310
#     4   8  16  31  54  81 102 128 170 218 261 299
#
# _framework density 21.805803999999998
#
# number of rings (size 3 to 8) (size 9 to 14) (size 15 to 20)
#    0.000    3.000    0.000    3.250    2.333    2.000 
#    0.000    2.500    0.000    4.000    0.000    0.000 
#    0.000    0.000    0.000    0.000    0.000    0.000 
#
# Total GULP energy -133794.659852 kJ/mol
# GULP energy per Si atom -5574.777494 kJ/mol
# Density = 2.175617 g / cm^3
# Si number density = 21.805804 Si / 1000 Ang^3
#
#
#
# Elastic Constant Matrix: (Units=GPa)
#
#
# Indices 1 2 3 4 5 6 
#
# 1 234.4036 10.2806 97.5074 0.0000 0.0000 0.0000
# 2 10.2806 49.1646 6.1786 0.0000 0.0000 0.0000
# 3 97.5074 6.1786 94.9811 0.0000 0.0000 0.0000
# 4 0.0000 0.0000 0.0000 -16.7187 0.0000 0.0000
# 5 0.0000 0.0000 0.0000 0.0000 45.0932 0.0000
# 6 0.0000 0.0000 0.0000 0.0000 0.0000 -169.9710
#
#
#
# Elastic Compliance Matrix: (Units=1/GPa)
#
#
# Indices 1 2 3 4 5 6 
#
# 1 0.007464 -0.000603 -0.007623 0.000000 0.000000 0.000000
# 2 -0.000603 0.020556 -0.000718 0.000000 0.000000 0.000000
# 3 -0.007623 -0.000718 0.018401 0.000000 0.000000 0.000000
# 4 0.000000 0.000000 0.000000 -0.059813 0.000000 0.000000
# 5 0.000000 0.000000 0.000000 0.000000 0.022176 0.000000
# 6 0.000000 0.000000 0.000000 0.000000 0.000000 -0.005883
#
#
# Mechanical properties :
#
#
# Convention : Reuss Voigt Hill
#
# Bulk Modulus (GPa) = 35.04783 67.38694 51.21739
# Shear Modulus (GPa) = 165.02334 -10.68043 77.17146
#
# Velocity S-wave (km/s) = 8.70878 -2.21554 5.95543
# Velocity P-wave (km/s) = 10.82735 4.94222 8.41597
#
# Compressibility (1/GPa) = 0.02853243
#
# Stress axis : x y z
#
# Youngs Moduli (GPa) = 133.98480 48.64723 54.34567
#
# Poissons Ratio (x) = 0.02932 0.41427
# Poissons Ratio (y) = 0.08075 0.03904
# Poissons Ratio (z) = 1.02134 0.03495
#
# Static dielectric constant tensor:
#      x y z
#    x 1.803310 0.000000 0.000000 
#    y 0.000000 1.921390 0.000000 
#    z 0.000000 0.000000 1.759690 
# 
# From -- ./inp_files/10493.got.cif
#   From: 2010.05.17/outbox.cif.g08.bks.cpg/sg35_6_cif.got.tgz:10493.got - 2010.06.03 17:29:28.
