data_PCOD9348809
_publ_section_title
;
Structure prediction by ZEFSAII (Michael W. Deem and Ramdas Pophale) SiO2 
 PCOD9348809
Probable space group: C M M 2
;
_chemical_formula_sum "Si O2"
_cell_formula_units_Z 56
_cell_length_a 7.972716
_cell_length_b 19.159442
_cell_length_c 18.911371
_cell_angle_alpha 90.000000
_cell_angle_beta 90.000000
_cell_angle_gamma 90.000000
_cell_volume 2888.764679
_symmetry_space_group_name_H-M "C M M 2"
_symmetry_group_IT_number 35
_symmetry_cell_setting 'orthorhombic'
loop_
_space_group_symop_operation_xyz
x,y,z
-x,-y,z
-x,y,z
x,-y,z
1/2+x,1/2+y,z
1/2-x,1/2-y,z
1/2-x,1/2+y,z
1/2+x,1/2-y,z
loop_
_atom_site_type_symbol
_atom_site_label
_atom_site_fract_x
_atom_site_fract_y
_atom_site_fract_z
Si Si1 0.794316 0.918944 0.653470
Si Si2 0.199836 0.329943 0.093617
Si Si3 0.799313 0.330499 0.251445
Si Si4 0.298271 0.579216 0.960234
Si Si5 0.702518 0.330828 0.518603
Si Si6 0.305291 0.585032 0.808164
Si Si7 0.798946 0.079325 0.385264
O O1 0.739231 0.869154 0.590179
O O2 0.732603 0.896255 0.731544
O O3 0.000000 0.918358 0.655466
O O4 0.746988 0.000000 0.641047
O O5 0.250000 0.250000 0.081738
O O6 0.263741 0.349249 0.172360
O O7 0.260149 0.376018 0.028728
O O8 0.000000 0.334692 0.095697
O O9 0.750000 0.250000 0.265593
O O10 0.736169 0.381536 0.312057
O O11 0.000000 0.333804 0.251078
O O12 0.500000 0.576117 0.952882
O O13 0.236267 0.500000 0.970045
O O14 0.232362 0.606953 0.884150
O O15 0.500000 0.334451 0.518426
O O16 0.750000 0.250000 0.515531
O O17 0.765062 0.373836 0.450433
O O18 0.500000 0.607746 0.806730
O O19 0.305020 0.500000 0.809761
O O20 0.000000 0.075307 0.393294
O O21 0.733399 0.000000 0.386332
#
# Coordination Sequence:
#
# PCOD9348809 Si02
#       7
#     8   8   8   8   8   8   8
#     4   8  13  25  48  73  95 124 165 208 244 282
#     4  10  21  36  53  73  99 132 169 207 248 297
#     4  10  21  37  56  76  99 130 167 205 248 299
#     4   9  17  30  50  76 104 133 167 207 250 297
#     4  10  20  33  50  73 101 132 165 201 243 292
#     4   7  11  22  43  71  98 125 161 203 244 287
#     4  10  21  36  54  77 103 130 164 206 249 294
#
# _framework density 19.385449000000001
#
# number of rings (size 3 to 8) (size 9 to 14) (size 15 to 20)
#    0.000    2.857    0.000    3.429    0.000    6.286 
#    0.000    3.571    0.000    3.857    0.000    2.000 
#    0.000    0.000    0.000    0.000    0.000    0.000 
#
# Total GULP energy -156070.042110 kJ/mol
# GULP energy per Si atom -5573.930075 kJ/mol
# Density = 1.934133 g / cm^3
# Si number density = 19.385449 Si / 1000 Ang^3
#
#
#
# Elastic Constant Matrix: (Units=GPa)
#
#
# Indices 1 2 3 4 5 6 
#
# 1 16.4326 5.8089 10.8927 0.0000 0.0000 0.0000
# 2 5.8089 117.2229 124.7357 0.0000 0.0000 0.0000
# 3 10.8927 124.7357 227.3389 0.0000 0.0000 0.0000
# 4 0.0000 0.0000 0.0000 39.3670 0.0000 0.0000
# 5 0.0000 0.0000 0.0000 0.0000 -112.3915 0.0000
# 6 0.0000 0.0000 0.0000 0.0000 0.0000 20.6852
#
#
#
# Elastic Compliance Matrix: (Units=1/GPa)
#
#
# Indices 1 2 3 4 5 6 
#
# 1 0.062853 0.000216 -0.003130 0.000000 0.000000 0.000000
# 2 0.000216 0.020500 -0.011258 0.000000 0.000000 0.000000
# 3 -0.003130 -0.011258 0.010726 0.000000 0.000000 0.000000
# 4 0.000000 0.000000 0.000000 0.025402 0.000000 0.000000
# 5 0.000000 0.000000 0.000000 0.000000 -0.008897 0.000000
# 6 0.000000 0.000000 0.000000 0.000000 0.000000 0.048344
#
#
# Mechanical properties :
#
#
# Convention : Reuss Voigt Hill
#
# Bulk Modulus (GPa) = 15.21272 71.54099 43.37685
# Shear Modulus (GPa) = 23.90258 4.16928 14.03593
#
# Velocity S-wave (km/s) = 3.51524 1.46813 2.69373
# Velocity P-wave (km/s) = 4.93360 6.31336 5.66564
#
# Compressibility (1/GPa) = 0.06573447
#
# Stress axis : x y z
#
# Youngs Moduli (GPa) = 15.91007 48.78151 93.23400
#
# Poissons Ratio (x) = -0.01054 0.29183
# Poissons Ratio (y) = -0.00344 1.04963
# Poissons Ratio (z) = 0.04980 0.54918
#
# Static dielectric constant tensor:
#      x y z
#    x 1.718700 0.000000 0.000000 
#    y 0.000000 1.627480 0.000000 
#    z 0.000000 0.000000 1.719960 
# 
# From -- ./inp_files/15638.got.cif
#   From: 2010.05.17/outbox.cif.g08.bks.cpg/sg35_8_cif.got.tgz:15638.got - 2010.06.03 17:29:28.
