data_PCOD9348213
_publ_section_title
;
Structure prediction by ZEFSAII (Michael W. Deem and Ramdas Pophale) SiO2 
 PCOD9348213
Probable space group: C M M 2
;
_chemical_formula_sum "Si O2"
_cell_formula_units_Z 64
_cell_length_a 29.669456
_cell_length_b 8.119568
_cell_length_c 16.276846
_cell_angle_alpha 90.000000
_cell_angle_beta 90.000000
_cell_angle_gamma 90.000000
_cell_volume 3921.143726
_symmetry_space_group_name_H-M "C M M 2"
_symmetry_group_IT_number 35
_symmetry_cell_setting 'orthorhombic'
loop_
_space_group_symop_operation_xyz
x,y,z
-x,-y,z
-x,y,z
x,-y,z
1/2+x,1/2+y,z
1/2-x,1/2-y,z
1/2-x,1/2+y,z
1/2+x,1/2-y,z
loop_
_atom_site_type_symbol
_atom_site_label
_atom_site_fract_x
_atom_site_fract_y
_atom_site_fract_z
Si Si1 0.802273 0.199318 0.539260
Si Si2 0.644328 0.701683 0.699352
Si Si3 0.801835 0.803049 0.861738
Si Si4 0.449812 0.199089 0.954284
Si Si5 0.550081 0.698960 0.764933
Si Si6 0.802014 0.196313 0.181058
Si Si7 0.356728 0.803992 0.022387
Si Si8 0.697652 0.301403 0.359944
O O1 0.750000 0.250000 0.549008
O O2 0.831850 0.258179 0.615873
O O3 0.819490 0.256351 0.449143
O O4 0.803330 0.000000 0.539623
O O5 0.644760 0.500000 0.698746
O O6 0.672623 0.755254 0.779438
O O7 0.592661 0.755203 0.711751
O O8 0.750000 0.750000 0.861191
O O9 0.826948 0.742593 0.943275
O O10 0.803764 0.000000 0.862059
O O11 0.500000 0.257159 0.978538
O O12 0.442583 0.249300 0.859471
O O13 0.407473 0.260725 0.006935
O O14 0.450071 0.000000 0.957542
O O15 0.500000 0.757149 0.740286
O O16 0.549775 0.500000 0.762841
O O17 0.750000 0.250000 0.168930
O O18 0.819074 0.258350 0.270753
O O19 0.801478 0.000000 0.184358
O O20 0.832757 0.247141 0.105252
O O21 0.359214 0.000000 0.025560
O O22 0.694281 0.500000 0.360239
O O23 0.750000 0.250000 0.360121
#
# Coordination Sequence:
#
# PCOD9348213 Si02
#       8
#     8   8   8   8   8   8   8   8
#     4   9  16  28  44  63  88 115 145 178 213 254
#     4   9  17  28  43  64  88 115 145 178 214 252
#     4  11  21  32  43  59  88 122 153 179 209 249
#     4   9  18  32  48  65  85 109 141 183 225 261
#     4   9  16  28  46  65  85 111 145 182 219 257
#     4  10  19  31  46  65  89 116 148 183 220 261
#     4  11  21  32  46  65  87 115 147 179 218 261
#     4   8  15  27  44  63  83 111 143 179 219 254
#
# _framework density 16.321769
#
# number of rings (size 3 to 8) (size 9 to 14) (size 15 to 20)
#    0.000    2.500    1.250    1.875    0.000    1.000 
#    0.000    1.250    0.000    0.000    0.000    0.875 
#    0.000    3.000    0.000    0.000    0.000    0.000 
#
# Total GULP energy -178284.972413 kJ/mol
# GULP energy per Si atom -5571.405388 kJ/mol
# Density = 1.628462 g / cm^3
# Si number density = 16.321769 Si / 1000 Ang^3
#
#
#
# Elastic Constant Matrix: (Units=GPa)
#
#
# Indices 1 2 3 4 5 6 
#
# 1 130.8512 9.6924 89.7243 0.0000 0.0000 0.0000
# 2 9.6924 13.8251 12.6891 0.0000 0.0000 0.0000
# 3 89.7243 12.6891 169.2914 0.0000 0.0000 0.0000
# 4 0.0000 0.0000 0.0000 -12.3037 0.0000 0.0000
# 5 0.0000 0.0000 0.0000 0.0000 7.8583 0.0000
# 6 0.0000 0.0000 0.0000 0.0000 0.0000 3.9687
#
#
#
# Elastic Compliance Matrix: (Units=1/GPa)
#
#
# Indices 1 2 3 4 5 6 
#
# 1 0.012105 -0.002790 -0.006206 0.000000 0.000000 0.000000
# 2 -0.002790 0.078319 -0.004392 0.000000 0.000000 0.000000
# 3 -0.006206 -0.004392 0.009525 0.000000 0.000000 0.000000
# 4 0.000000 0.000000 0.000000 -0.081276 0.000000 0.000000
# 5 0.000000 0.000000 0.000000 0.000000 0.127254 0.000000
# 6 0.000000 0.000000 0.000000 0.000000 0.000000 0.251970
#
#
# Mechanical properties :
#
#
# Convention : Reuss Voigt Hill
#
# Bulk Modulus (GPa) = 13.66621 59.79771 36.73196
# Shear Modulus (GPa) = 11.13429 13.36213 12.24821
#
# Velocity S-wave (km/s) = 2.61468 2.86434 2.74235
# Velocity P-wave (km/s) = 4.18409 6.90330 5.70798
#
# Compressibility (1/GPa) = 0.07317317
#
# Stress axis : x y z
#
# Youngs Moduli (GPa) = 82.61354 12.76832 104.98155
#
# Poissons Ratio (x) = 0.03562 0.65155
# Poissons Ratio (y) = 0.23048 0.46105
# Poissons Ratio (z) = 0.51272 0.05607
#
# Static dielectric constant tensor:
#      x y z
#    x 1.552540 0.000000 0.000000 
#    y 0.000000 1.569590 0.000000 
#    z 0.000000 0.000000 1.576590 
# 
# From -- ./inp_files/16148.got.cif
#   From: 2010.05.17/outbox.cif.g08.bks.cpg/sg35_9_cif.got.tgz:16148.got - 2010.06.03 17:29:28.
