data_PCOD9348346
_publ_section_title
;
Structure prediction by ZEFSAII (Michael W. Deem and Ramdas Pophale) SiO2 
 PCOD9348346
Probable space group: C M M 2
;
_chemical_formula_sum "Si O2"
_cell_formula_units_Z 56
_cell_length_a 9.244172
_cell_length_b 15.035438
_cell_length_c 19.154057
_cell_angle_alpha 90.000000
_cell_angle_beta 90.000000
_cell_angle_gamma 90.000000
_cell_volume 2662.225734
_symmetry_space_group_name_H-M "C M M 2"
_symmetry_group_IT_number 35
_symmetry_cell_setting 'orthorhombic'
loop_
_space_group_symop_operation_xyz
x,y,z
-x,-y,z
-x,y,z
x,-y,z
1/2+x,1/2+y,z
1/2-x,1/2-y,z
1/2-x,1/2+y,z
1/2+x,1/2-y,z
loop_
_atom_site_type_symbol
_atom_site_label
_atom_site_fract_x
_atom_site_fract_y
_atom_site_fract_z
Si Si1 0.173704 0.653567 0.504960
Si Si2 0.338529 0.604568 0.794356
Si Si3 0.325337 0.154544 0.354657
Si Si4 0.664256 0.609012 0.067315
Si Si5 0.673897 0.153930 0.656457
Si Si6 0.165330 0.609095 0.928828
Si Si7 0.662846 0.105053 0.200610
O O1 0.250000 0.750000 0.504757
O O2 0.211094 0.610527 0.429881
O O3 0.207114 0.610923 0.580311
O O4 0.000000 0.666365 0.505083
O O5 0.500000 0.643254 0.785008
O O6 0.354829 0.500000 0.808128
O O7 0.244188 0.611614 0.724543
O O8 0.255478 0.640818 0.861813
O O9 0.500000 0.161157 0.353147
O O10 0.250000 0.250000 0.355938
O O11 0.283470 0.113957 0.280188
O O12 0.500000 0.639525 0.059653
O O13 0.661524 0.500000 0.067609
O O14 0.733179 0.639865 0.140292
O O15 0.759941 0.635606 0.001127
O O16 0.500000 0.159192 0.663649
O O17 0.750000 0.250000 0.653715
O O18 0.163677 0.500000 0.927873
O O19 0.000000 0.638947 0.925062
O O20 0.500000 0.143256 0.195348
O O21 0.650546 0.000000 0.187579
#
# Coordination Sequence:
#
# PCOD9348346 Si02
#       7
#     8   8   8   8   8   8   8
#     4   8  15  28  46  68  91 118 155 195 232 273
#     4  10  20  33  49  71 100 130 160 197 241 286
#     4   9  17  30  48  69  92 120 155 193 233 276
#     4   9  16  26  42  65  92 121 154 191 230 273
#     4  10  19  32  51  73  97 126 162 201 241 287
#     4   9  16  27  45  68  93 122 157 194 232 277
#     4   9  17  29  45  66  93 123 154 189 230 276
#
# _framework density 21.035031
#
# number of rings (size 3 to 8) (size 9 to 14) (size 15 to 20)
#    0.000    2.857    0.000    1.714    0.000    5.429 
#    0.000    0.714    0.000    3.429    0.000    6.000 
#    0.000    0.000    0.000    0.000    0.000    0.000 
#
# Total GULP energy -156013.560221 kJ/mol
# GULP energy per Si atom -5571.912865 kJ/mol
# Density = 2.098715 g / cm^3
# Si number density = 21.035031 Si / 1000 Ang^3
#
#
#
# Elastic Constant Matrix: (Units=GPa)
#
#
# Indices 1 2 3 4 5 6 
#
# 1 115.0686 7.7493 98.8925 0.0000 0.0000 0.0000
# 2 7.7493 28.1196 5.0094 0.0000 0.0000 0.0000
# 3 98.8925 5.0094 221.9678 0.0000 0.0000 0.0000
# 4 0.0000 0.0000 0.0000 31.4100 0.0000 0.0000
# 5 0.0000 0.0000 0.0000 0.0000 101.2348 0.0000
# 6 0.0000 0.0000 0.0000 0.0000 0.0000 9.9503
#
#
#
# Elastic Compliance Matrix: (Units=1/GPa)
#
#
# Indices 1 2 3 4 5 6 
#
# 1 0.014302 -0.002817 -0.006308 0.000000 0.000000 0.000000
# 2 -0.002817 0.036261 0.000437 0.000000 0.000000 0.000000
# 3 -0.006308 0.000437 0.007306 0.000000 0.000000 0.000000
# 4 0.000000 0.000000 0.000000 0.031837 0.000000 0.000000
# 5 0.000000 0.000000 0.000000 0.000000 0.009878 0.000000
# 6 0.000000 0.000000 0.000000 0.000000 0.000000 0.100499
#
#
# Mechanical properties :
#
#
# Convention : Reuss Voigt Hill
#
# Bulk Modulus (GPa) = 24.69688 65.38425 45.04057
# Shear Modulus (GPa) = 21.64904 45.41934 33.53419
#
# Velocity S-wave (km/s) = 3.21158 4.65179 3.99708
# Velocity P-wave (km/s) = 5.05160 7.74617 6.53918
#
# Compressibility (1/GPa) = 0.04049094
#
# Stress axis : x y z
#
# Youngs Moduli (GPa) = 69.92241 27.57780 136.87870
#
# Poissons Ratio (x) = 0.07770 0.86345
# Poissons Ratio (y) = 0.19701 -0.05981
# Poissons Ratio (z) = 0.44108 -0.01205
#
# Static dielectric constant tensor:
#      x y z
#    x 1.703020 0.000000 0.000000 
#    y 0.000000 1.795350 0.000000 
#    z 0.000000 0.000000 1.797760 
# 
# From -- ./inp_files/15609.got.cif
#   From: 2010.05.17/outbox.cif.g08.bks.cpg/sg35_8_cif.got.tgz:15609.got - 2010.06.03 17:29:28.
