data_PCOD9348372
_publ_section_title
;
Structure prediction by ZEFSAII (Michael W. Deem and Ramdas Pophale) SiO2 
 PCOD9348372
Probable space group: C M M 2
;
_chemical_formula_sum "Si O2"
_cell_formula_units_Z 40
_cell_length_a 23.057661
_cell_length_b 12.558144
_cell_length_c 6.349272
_cell_angle_alpha 90.000000
_cell_angle_beta 90.000000
_cell_angle_gamma 90.000000
_cell_volume 1838.504262
_symmetry_space_group_name_H-M "C M M 2"
_symmetry_group_IT_number 35
_symmetry_cell_setting 'orthorhombic'
loop_
_space_group_symop_operation_xyz
x,y,z
-x,-y,z
-x,y,z
x,-y,z
1/2+x,1/2+y,z
1/2-x,1/2-y,z
1/2-x,1/2+y,z
1/2+x,1/2-y,z
loop_
_atom_site_type_symbol
_atom_site_label
_atom_site_fract_x
_atom_site_fract_y
_atom_site_fract_z
Si Si1 0.649599 0.754319 0.900640
Si Si2 0.174763 0.170098 0.488770
Si Si3 0.209958 0.379591 0.261055
Si Si4 0.566204 0.310285 0.267306
Si Si5 0.434729 0.877100 0.587481
O O1 0.680850 0.672584 0.740030
O O2 0.609215 0.829568 0.757464
O O3 0.693922 0.824382 0.039407
O O4 0.604200 0.696569 0.056402
O O5 0.182587 0.295051 0.423475
O O6 0.223522 0.118340 0.341522
O O7 0.110378 0.131950 0.428701
O O8 0.188193 0.500000 0.264299
O O9 0.500000 0.348567 0.245866
O O10 0.563384 0.192845 0.374316
O O11 0.500000 0.868497 0.678084
O O12 0.422742 0.000000 0.544186
#
# Coordination Sequence:
#
# PCOD9348372 Si02
#       5
#     8   8   8   8   8
#     4  10  19  32  52  75 105 143 182 220 266 326
#     4   9  21  36  52  80 113 138 176 228 273 319
#     4  10  21  37  57  80 107 142 182 224 272 324
#     4   9  18  32  50  72 100 137 178 219 265 318
#     4   9  17  28  44  73 111 143 174 215 262 318
#
# _framework density 21.756817000000002
#
# number of rings (size 3 to 8) (size 9 to 14) (size 15 to 20)
#    0.000    2.600    0.000    1.200    0.000   16.000 
#    0.000    2.000    0.000    0.600    0.000    0.000 
#    0.000    0.000    0.000    0.000    0.000    0.000 
#
# Total GULP energy -111365.653430 kJ/mol
# GULP energy per Si atom -5568.282671 kJ/mol
# Density = 2.170730 g / cm^3
# Si number density = 21.756817 Si / 1000 Ang^3
#
#
#
# Elastic Constant Matrix: (Units=GPa)
#
#
# Indices 1 2 3 4 5 6 
#
# 1 152.4464 7.2245 47.9305 0.0000 0.0000 0.0000
# 2 7.2245 41.1345 11.8668 0.0000 0.0000 0.0000
# 3 47.9305 11.8668 131.4439 0.0000 0.0000 0.0000
# 4 0.0000 0.0000 0.0000 1.4841 0.0000 0.0000
# 5 0.0000 0.0000 0.0000 0.0000 40.7362 0.0000
# 6 0.0000 0.0000 0.0000 0.0000 0.0000 2.3307
#
#
#
# Elastic Compliance Matrix: (Units=1/GPa)
#
#
# Indices 1 2 3 4 5 6 
#
# 1 0.007421 -0.000537 -0.002657 0.000000 0.000000 0.000000
# 2 -0.000537 0.024999 -0.002061 0.000000 0.000000 0.000000
# 3 -0.002657 -0.002061 0.008763 0.000000 0.000000 0.000000
# 4 0.000000 0.000000 0.000000 0.673794 0.000000 0.000000
# 5 0.000000 0.000000 0.000000 0.000000 0.024548 0.000000
# 6 0.000000 0.000000 0.000000 0.000000 0.000000 0.429061
#
#
# Mechanical properties :
#
#
# Convention : Reuss Voigt Hill
#
# Bulk Modulus (GPa) = 32.60283 51.00763 41.80523
# Shear Modulus (GPa) = 4.20408 26.11039 15.15724
#
# Velocity S-wave (km/s) = 1.39158 3.46801 2.64231
# Velocity P-wave (km/s) = 4.19519 6.28740 5.34467
#
# Compressibility (1/GPa) = 0.03067218
#
# Stress axis : x y z
#
# Youngs Moduli (GPa) = 134.75919 40.00100 114.11701
#
# Poissons Ratio (x) = 0.02147 0.30326
# Poissons Ratio (y) = 0.07232 0.23523
# Poissons Ratio (z) = 0.35812 0.08245
#
# Static dielectric constant tensor:
#      x y z
#    x 1.925570 0.000000 0.000000 
#    y 0.000000 1.801910 0.000000 
#    z 0.000000 0.000000 1.810510 
# 
# From -- ./inp_files/1825.got.cif
#   From: 2010.05.17/outbox.cif.g08.bks.cpg/sg35_1_cif.got.tgz:1825.got - 2010.06.03 17:29:28.
