data_PCOD9348109
_publ_section_title
;
Structure prediction by ZEFSAII (Michael W. Deem and Ramdas Pophale) SiO2 
 PCOD9348109
Probable space group: C M M 2
;
_chemical_formula_sum "Si O2"
_cell_formula_units_Z 64
_cell_length_a 20.223046
_cell_length_b 16.986016
_cell_length_c 9.936163
_cell_angle_alpha 90.000000
_cell_angle_beta 90.000000
_cell_angle_gamma 90.000000
_cell_volume 3413.161246
_symmetry_space_group_name_H-M "C M M 2"
_symmetry_group_IT_number 35
_symmetry_cell_setting 'orthorhombic'
loop_
_space_group_symop_operation_xyz
x,y,z
-x,-y,z
-x,y,z
x,-y,z
1/2+x,1/2+y,z
1/2-x,1/2-y,z
1/2-x,1/2+y,z
1/2+x,1/2-y,z
loop_
_atom_site_type_symbol
_atom_site_label
_atom_site_fract_x
_atom_site_fract_y
_atom_site_fract_z
Si Si1 0.194812 0.680118 0.083650
Si Si2 0.883568 0.908302 0.968493
Si Si3 0.791712 0.669678 0.559988
Si Si4 0.736510 0.905953 0.847607
Si Si5 0.575570 0.740431 0.513734
Si Si6 0.390122 0.696898 0.220664
Si Si7 0.923691 0.086458 0.667505
Si Si8 0.732563 0.590017 0.304947
O O1 0.250000 0.750000 0.075802
O O2 0.133673 0.722653 0.152158
O O3 0.220545 0.611188 0.180046
O O4 0.185005 0.641797 0.939273
O O5 0.807642 0.890257 0.921688
O O6 0.921305 0.899481 0.827342
O O7 0.885782 0.000000 0.007892
O O8 0.910310 0.856906 0.092518
O O9 0.750000 0.750000 0.542899
O O10 0.770175 0.629921 0.699788
O O11 0.868996 0.693806 0.544629
O O12 0.770502 0.612509 0.439800
O O13 0.727932 0.000000 0.845460
O O14 0.500000 0.757607 0.560417
O O15 0.571336 0.719694 0.355144
O O16 0.602460 0.661504 0.588714
O O17 0.328694 0.648050 0.282576
O O18 0.000000 0.080915 0.625109
O O19 0.891730 0.000000 0.643144
O O20 0.711380 0.500000 0.303032
#
# Coordination Sequence:
#
# PCOD9348109 Si02
#       8
#     8   8   8   8   8   8   8   8
#     4  10  18  33  53  80 116 151 179 233 295 353
#     4  10  20  33  54  85 119 152 191 238 292 352
#     4  12  22  38  59  88 117 153 197 250 302 353
#     4  11  22  34  54  88 118 146 190 242 303 363
#     4  11  24  41  60  85 120 159 206 250 293 355
#     4  11  21  36  55  85 118 156 190 234 297 351
#     4   9  20  38  55  75 110 155 196 235 283 339
#     4  11  20  34  56  85 120 153 190 239 295 352
#
# _framework density 18.750945000000002
#
# number of rings (size 3 to 8) (size 9 to 14) (size 15 to 20)
#    0.000    1.375    5.000    2.625    1.750    1.500 
#    0.000    0.000    0.000    1.500    0.000    0.000 
#    0.000    0.000    0.000    0.000    0.000    0.000 
#
# Total GULP energy -178445.459183 kJ/mol
# GULP energy per Si atom -5576.420599 kJ/mol
# Density = 1.870827 g / cm^3
# Si number density = 18.750945 Si / 1000 Ang^3
#
#
#
# Elastic Constant Matrix: (Units=GPa)
#
#
# Indices 1 2 3 4 5 6 
#
# 1 37.2435 16.8796 -2.9143 0.0000 0.0000 0.0000
# 2 16.8796 52.9223 17.3640 0.0000 0.0000 0.0000
# 3 -2.9143 17.3640 94.2380 0.0000 0.0000 0.0000
# 4 0.0000 0.0000 0.0000 19.5083 0.0000 0.0000
# 5 0.0000 0.0000 0.0000 0.0000 16.6380 0.0000
# 6 0.0000 0.0000 0.0000 0.0000 0.0000 -14.8615
#
#
#
# Elastic Compliance Matrix: (Units=1/GPa)
#
#
# Indices 1 2 3 4 5 6 
#
# 1 0.032203 -0.011280 0.003074 0.000000 0.000000 0.000000
# 2 -0.011280 0.024063 -0.004783 0.000000 0.000000 0.000000
# 3 0.003074 -0.004783 0.011588 0.000000 0.000000 0.000000
# 4 0.000000 0.000000 0.000000 0.051260 0.000000 0.000000
# 5 0.000000 0.000000 0.000000 0.000000 0.060103 0.000000
# 6 0.000000 0.000000 0.000000 0.000000 0.000000 -0.067288
#
#
# Mechanical properties :
#
#
# Convention : Reuss Voigt Hill
#
# Bulk Modulus (GPa) = 23.87938 27.45139 25.66539
# Shear Modulus (GPa) = 32.92408 14.46193 23.69301
#
# Velocity S-wave (km/s) = 4.19485 2.78018 3.55852
# Velocity P-wave (km/s) = 6.01872 4.99776 5.53185
#
# Compressibility (1/GPa) = 0.04187713
#
# Stress axis : x y z
#
# Youngs Moduli (GPa) = 31.05280 41.55836 86.29829
#
# Poissons Ratio (x) = 0.46878 -0.26531
# Poissons Ratio (y) = 0.35027 0.41272
# Poissons Ratio (z) = -0.09547 0.19875
#
# Static dielectric constant tensor:
#      x y z
#    x 1.721910 0.000000 0.000000 
#    y 0.000000 1.647550 0.000000 
#    z 0.000000 0.000000 1.674040 
# 
# From -- ./inp_files/8782.got.cif
#   From: 2010.05.17/outbox.cif.g08.bks.cpg/sg35_5_cif.got.tgz:8782.got - 2010.06.03 17:29:28.
