data_PCOD9348208
_publ_section_title
;
Structure prediction by ZEFSAII (Michael W. Deem and Ramdas Pophale) SiO2 
 PCOD9348208
Probable space group: C M M 2
;
_chemical_formula_sum "Si O2"
_cell_formula_units_Z 48
_cell_length_a 7.745987
_cell_length_b 16.457100
_cell_length_c 17.299988
_cell_angle_alpha 90.000000
_cell_angle_beta 90.000000
_cell_angle_gamma 90.000000
_cell_volume 2205.341620
_symmetry_space_group_name_H-M "C M M 2"
_symmetry_group_IT_number 35
_symmetry_cell_setting 'orthorhombic'
loop_
_space_group_symop_operation_xyz
x,y,z
-x,-y,z
-x,y,z
x,-y,z
1/2+x,1/2+y,z
1/2-x,1/2-y,z
1/2-x,1/2+y,z
1/2+x,1/2-y,z
loop_
_atom_site_type_symbol
_atom_site_label
_atom_site_fract_x
_atom_site_fract_y
_atom_site_fract_z
Si Si1 0.792530 0.339069 0.764920
Si Si2 0.289648 0.907136 0.605856
Si Si3 0.802647 0.000000 0.018644
Si Si4 0.789493 0.593113 0.275581
Si Si5 0.792437 0.344552 0.440901
Si Si6 0.205790 0.340425 0.115715
Si Si7 0.301085 0.000000 0.847058
O O1 0.750000 0.250000 0.795349
O O2 0.730349 0.350978 0.676422
O O3 0.725860 0.415979 0.813832
O O4 0.000000 0.342840 0.763682
O O5 0.500000 0.903164 0.603777
O O6 0.226917 0.883179 0.520705
O O7 0.243384 0.000000 0.623700
O O8 0.769071 0.917952 0.067167
O O9 0.698891 0.000000 0.939170
O O10 0.000000 0.000000 0.994328
O O11 0.742417 0.500000 0.259263
O O12 0.726897 0.618398 0.360375
O O13 0.729532 0.648030 0.204131
O O14 0.000000 0.597083 0.277361
O O15 0.750000 0.250000 0.441752
O O16 0.000000 0.355670 0.440670
O O17 0.250000 0.250000 0.087102
O O18 0.000000 0.346946 0.116697
O O19 0.500000 0.000000 0.819720
#
# Coordination Sequence:
#
# PCOD9348208 Si02
#       7
#     8   8   4   8   8   8   4
#     4  10  20  36  60  87 117 153 195 239 289 348
#     4   9  16  30  53  80 109 149 198 239 278 337
#     4  12  26  44  66  93 122 154 198 249 306 370
#     4   9  17  32  55  82 112 153 200 243 289 343
#     4  10  19  30  49  77 112 150 194 242 285 335
#     4  11  22  40  65  92 125 162 202 249 301 360
#     4  10  22  42  64  85 116 156 192 237 298 362
#
# _framework density 21.765336000000001
#
# number of rings (size 3 to 8) (size 9 to 14) (size 15 to 20)
#    0.000    2.000    1.667    2.750    0.000    3.333 
#    0.000    2.500    0.000    2.500    0.000    0.000 
#    0.000    0.000    0.000    0.000    0.000    0.000 
#
# Total GULP energy -134034.183941 kJ/mol
# GULP energy per Si atom -5584.757664 kJ/mol
# Density = 2.171580 g / cm^3
# Si number density = 21.765336 Si / 1000 Ang^3
#
#
#
# Elastic Constant Matrix: (Units=GPa)
#
#
# Indices 1 2 3 4 5 6 
#
# 1 38.0054 -2.8337 -4.1411 0.0000 0.0000 0.0000
# 2 -2.8337 165.3406 57.3553 0.0000 0.0000 0.0000
# 3 -4.1411 57.3553 104.5010 0.0000 0.0000 0.0000
# 4 0.0000 0.0000 0.0000 13.2917 0.0000 0.0000
# 5 0.0000 0.0000 0.0000 0.0000 -5.7811 0.0000
# 6 0.0000 0.0000 0.0000 0.0000 0.0000 26.3470
#
#
#
# Elastic Compliance Matrix: (Units=1/GPa)
#
#
# Indices 1 2 3 4 5 6 
#
# 1 0.026428 0.000111 0.000986 0.000000 0.000000 0.000000
# 2 0.000111 0.007471 -0.004096 0.000000 0.000000 0.000000
# 3 0.000986 -0.004096 0.011856 0.000000 0.000000 0.000000
# 4 0.000000 0.000000 0.000000 0.075235 0.000000 0.000000
# 5 0.000000 0.000000 0.000000 0.000000 -0.172976 0.000000
# 6 0.000000 0.000000 0.000000 0.000000 0.000000 0.037955
#
#
# Mechanical properties :
#
#
# Convention : Reuss Voigt Hill
#
# Bulk Modulus (GPa) = 25.15241 45.40088 35.27664
# Shear Modulus (GPa) = 958.12469 23.93596 491.03033
#
# Velocity S-wave (km/s) = 21.00387 3.31981 15.03635
# Velocity P-wave (km/s) = 24.49077 5.96652 17.82410
#
# Compressibility (1/GPa) = 0.03975763
#
# Stress axis : x y z
#
# Youngs Moduli (GPa) = 37.83890 133.85285 84.34212
#
# Poissons Ratio (x) = -0.01482 -0.08320
# Poissons Ratio (y) = -0.00419 0.34547
# Poissons Ratio (z) = -0.03733 0.54826
#
# Static dielectric constant tensor:
#      x y z
#    x 1.820890 0.000000 0.000000 
#    y 0.000000 1.795100 0.000000 
#    z 0.000000 0.000000 1.803790 
# 
# From -- ./inp_files/17850.got.cif
#   From: 2010.05.17/outbox.cif.g08.bks.cpg/sg35_9_cif.got.tgz:17850.got - 2010.06.03 17:29:28.
