data_PCOD9348950
_publ_section_title
;
Structure prediction by ZEFSAII (Michael W. Deem and Ramdas Pophale) SiO2 
 PCOD9348950
Probable space group: C M M 2
;
_chemical_formula_sum "Si O2"
_cell_formula_units_Z 64
_cell_length_a 8.646086
_cell_length_b 30.359152
_cell_length_c 12.680421
_cell_angle_alpha 90.000000
_cell_angle_beta 90.000000
_cell_angle_gamma 90.000000
_cell_volume 3328.456307
_symmetry_space_group_name_H-M "C M M 2"
_symmetry_group_IT_number 35
_symmetry_cell_setting 'orthorhombic'
loop_
_space_group_symop_operation_xyz
x,y,z
-x,-y,z
-x,y,z
x,-y,z
1/2+x,1/2+y,z
1/2-x,1/2-y,z
1/2-x,1/2+y,z
1/2+x,1/2-y,z
loop_
_atom_site_type_symbol
_atom_site_label
_atom_site_fract_x
_atom_site_fract_y
_atom_site_fract_z
Si Si1 0.683297 0.578058 0.340240
Si Si2 0.182261 0.205569 0.203882
Si Si3 0.315971 0.451348 0.576507
Si Si4 0.187889 0.048035 0.104711
Si Si5 0.180550 0.669286 0.403816
Si Si6 0.686166 0.299975 0.829222
Si Si7 0.188471 0.859831 0.027006
Si Si8 0.314000 0.856606 0.635212
O O1 0.500000 0.590809 0.334430
O O2 0.702525 0.551301 0.448952
O O3 0.721143 0.555385 0.229290
O O4 0.786575 0.620866 0.357464
O O5 0.250000 0.250000 0.156953
O O6 0.231154 0.200734 0.324507
O O7 0.235790 0.164296 0.134876
O O8 0.000000 0.207326 0.197169
O O9 0.500000 0.448536 0.597044
O O10 0.261203 0.500000 0.611621
O O11 0.239394 0.407761 0.626536
O O12 0.242369 0.089740 0.036386
O O13 0.000000 0.047652 0.097723
O O14 0.245141 0.000000 0.071507
O O15 0.233474 0.666280 0.524498
O O16 0.000000 0.679754 0.401269
O O17 0.500000 0.297453 0.829806
O O18 0.750000 0.250000 0.829792
O O19 0.741828 0.328382 0.729083
O O20 0.737526 0.328973 0.930575
O O21 0.000000 0.860999 0.023785
O O22 0.500000 0.855800 0.641731
#
# Coordination Sequence:
#
# PCOD9348950 Si02
#       8
#     8   8   8   8   8   8   8   8
#     4   9  15  27  49  78 113 152 189 229 271 319
#     4  11  21  35  55  81 113 146 181 223 277 340
#     4   9  17  30  52  85 120 154 195 237 278 328
#     4   9  15  26  50  83 115 147 183 222 268 323
#     4  10  20  34  52  78 112 150 185 224 275 334
#     4  11  23  41  64  85 108 140 189 244 294 347
#     4   9  19  35  55  83 115 145 182 231 280 333
#     4  10  22  39  58  82 114 150 192 237 287 342
#
# _framework density 19.228134000000001
#
# number of rings (size 3 to 8) (size 9 to 14) (size 15 to 20)
#    0.000    2.250    1.250    2.250    0.000    3.750 
#    0.000    2.500    0.000    3.375    0.000    0.000 
#    0.000    0.000    0.000    0.000    0.000    0.000 
#
# Total GULP energy -178415.077445 kJ/mol
# GULP energy per Si atom -5575.471170 kJ/mol
# Density = 1.918437 g / cm^3
# Si number density = 19.228134 Si / 1000 Ang^3
#
#
#
# Elastic Constant Matrix: (Units=GPa)
#
#
# Indices 1 2 3 4 5 6 
#
# 1 24.6652 29.8139 28.6900 0.0000 0.0000 0.0000
# 2 29.8139 160.7611 72.8595 0.0000 0.0000 0.0000
# 3 28.6900 72.8595 108.8736 0.0000 0.0000 0.0000
# 4 0.0000 0.0000 0.0000 19.1937 0.0000 0.0000
# 5 0.0000 0.0000 0.0000 0.0000 10.5649 0.0000
# 6 0.0000 0.0000 0.0000 0.0000 0.0000 24.7263
#
#
#
# Elastic Compliance Matrix: (Units=1/GPa)
#
#
# Indices 1 2 3 4 5 6 
#
# 1 0.062116 -0.005887 -0.012429 0.000000 0.000000 0.000000
# 2 -0.005887 0.009486 -0.004797 0.000000 0.000000 0.000000
# 3 -0.012429 -0.004797 0.015671 0.000000 0.000000 0.000000
# 4 0.000000 0.000000 0.000000 0.052100 0.000000 0.000000
# 5 0.000000 0.000000 0.000000 0.000000 0.094653 0.000000
# 6 0.000000 0.000000 0.000000 0.000000 0.000000 0.040443
#
#
# Mechanical properties :
#
#
# Convention : Reuss Voigt Hill
#
# Bulk Modulus (GPa) = 24.36243 61.89184 43.12713
# Shear Modulus (GPa) = 14.95319 21.75941 18.35630
#
# Velocity S-wave (km/s) = 2.79170 3.36764 3.09311
# Velocity P-wave (km/s) = 4.80512 6.88327 5.93585
#
# Compressibility (1/GPa) = 0.04104682
#
# Stress axis : x y z
#
# Youngs Moduli (GPa) = 16.09899 105.41622 63.81407
#
# Poissons Ratio (x) = 0.62053 0.79316
# Poissons Ratio (y) = 0.09477 0.30612
# Poissons Ratio (z) = 0.20010 0.50569
#
# Static dielectric constant tensor:
#      x y z
#    x 1.650970 0.000000 0.000000 
#    y 0.000000 1.699400 0.000000 
#    z 0.000000 0.000000 1.674940 
# 
# From -- ./inp_files/12002.got.cif
#   From: 2010.05.17/outbox.cif.g08.bks.cpg/sg35_7_cif.got.tgz:12002.got - 2010.06.03 17:29:28.
