data_PCOD9348440
_publ_section_title
;
Structure prediction by ZEFSAII (Michael W. Deem and Ramdas Pophale) SiO2 
 PCOD9348440
Probable space group: C M M 2
;
_chemical_formula_sum "Si O2"
_cell_formula_units_Z 64
_cell_length_a 30.100969
_cell_length_b 8.646531
_cell_length_c 12.779408
_cell_angle_alpha 90.000000
_cell_angle_beta 90.000000
_cell_angle_gamma 90.000000
_cell_volume 3326.083250
_symmetry_space_group_name_H-M "C M M 2"
_symmetry_group_IT_number 35
_symmetry_cell_setting 'orthorhombic'
loop_
_space_group_symop_operation_xyz
x,y,z
-x,-y,z
-x,y,z
x,-y,z
1/2+x,1/2+y,z
1/2-x,1/2-y,z
1/2-x,1/2+y,z
1/2+x,1/2-y,z
loop_
_atom_site_type_symbol
_atom_site_label
_atom_site_fract_x
_atom_site_fract_y
_atom_site_fract_z
Si Si1 0.183586 0.322281 0.057050
Si Si2 0.888534 0.188553 0.738221
Si Si3 0.296843 0.683965 0.282602
Si Si4 0.297004 0.314438 0.827761
Si Si5 0.891758 0.313360 0.344921
Si Si6 0.419585 0.176223 0.117940
Si Si7 0.952628 0.184618 0.915692
Si Si8 0.552182 0.687585 0.539451
O O1 0.199884 0.500000 0.058973
O O2 0.200331 0.233906 0.160189
O O3 0.130542 0.324991 0.072963
O O4 0.195085 0.245973 0.946395
O O5 0.837504 0.236278 0.752525
O O6 0.913318 0.243612 0.843168
O O7 0.918532 0.236679 0.640191
O O8 0.888311 0.000000 0.736416
O O9 0.297290 0.500000 0.290529
O O10 0.250000 0.750000 0.323711
O O11 0.341124 0.751016 0.338301
O O12 0.296214 0.500000 0.831466
O O13 0.250000 0.250000 0.791373
O O14 0.889676 0.500000 0.345372
O O15 0.915276 0.265033 0.235891
O O16 0.921312 0.252018 0.439707
O O17 0.436108 0.000000 0.119923
O O18 0.447148 0.273261 0.035981
O O19 0.000000 0.242211 0.875571
O O20 0.952068 0.000000 0.906278
O O21 0.500000 0.734845 0.544014
O O22 0.552441 0.500000 0.536199
#
# Coordination Sequence:
#
# PCOD9348440 Si02
#       8
#     8   8   8   8   8   8   8   8
#     4  10  19  33  52  79 116 158 199 238 282 337
#     4   9  19  37  59  83 113 148 190 242 296 347
#     4  11  21  35  57  86 120 158 199 241 289 347
#     4  11  21  34  54  81 114 154 195 238 288 346
#     4  10  22  40  59  84 118 155 197 244 297 351
#     4   9  19  34  52  76 113 153 185 227 281 339
#     4  10  19  32  54  83 112 144 185 231 283 347
#     4  10  21  40  66  90 111 145 198 252 301 357
#
# _framework density 19.241852000000002
#
# number of rings (size 3 to 8) (size 9 to 14) (size 15 to 20)
#    0.000    2.000    1.250    3.750    0.000    5.000 
#    0.000    5.000    0.000    3.000    0.000    0.000 
#    0.000    0.000    0.000    0.000    0.000    0.000 
#
# Total GULP energy -178531.499514 kJ/mol
# GULP energy per Si atom -5579.109360 kJ/mol
# Density = 1.919806 g / cm^3
# Si number density = 19.241852 Si / 1000 Ang^3
#
#
#
# Elastic Constant Matrix: (Units=GPa)
#
#
# Indices 1 2 3 4 5 6 
#
# 1 160.7322 36.7289 81.5526 0.0000 0.0000 0.0000
# 2 36.7289 51.8643 23.5697 0.0000 0.0000 0.0000
# 3 81.5526 23.5697 114.0814 0.0000 0.0000 0.0000
# 4 0.0000 0.0000 0.0000 -44.1611 0.0000 0.0000
# 5 0.0000 0.0000 0.0000 0.0000 16.6222 0.0000
# 6 0.0000 0.0000 0.0000 0.0000 0.0000 20.4422
#
#
#
# Elastic Compliance Matrix: (Units=1/GPa)
#
#
# Indices 1 2 3 4 5 6 
#
# 1 0.010636 -0.004499 -0.006673 0.000000 0.000000 0.000000
# 2 -0.004499 0.023182 -0.001573 0.000000 0.000000 0.000000
# 3 -0.006673 -0.001573 0.013861 0.000000 0.000000 0.000000
# 4 0.000000 0.000000 0.000000 -0.022644 0.000000 0.000000
# 5 0.000000 0.000000 0.000000 0.000000 0.060161 0.000000
# 6 0.000000 0.000000 0.000000 0.000000 0.000000 0.048918
#
#
# Mechanical properties :
#
#
# Convention : Reuss Voigt Hill
#
# Bulk Modulus (GPa) = 45.07058 67.82002 56.44530
# Shear Modulus (GPa) = 29.93989 10.90245 20.42117
#
# Velocity S-wave (km/s) = 3.94887 2.38292 3.26128
# Velocity P-wave (km/s) = 6.65323 6.54933 6.60148
#
# Compressibility (1/GPa) = 0.02218742
#
# Stress axis : x y z
#
# Youngs Moduli (GPa) = 94.02375 43.13653 72.14312
#
# Poissons Ratio (x) = 0.19408 0.48145
# Poissons Ratio (y) = 0.42302 0.11350
# Poissons Ratio (z) = 0.62746 0.06787
#
# Static dielectric constant tensor:
#      x y z
#    x 1.703230 0.000000 0.000000 
#    y 0.000000 1.701910 0.000000 
#    z 0.000000 0.000000 1.651000 
# 
# From -- ./inp_files/11859.got.cif
#   From: 2010.05.17/outbox.cif.g08.bks.cpg/sg35_6_cif.got.tgz:11859.got - 2010.06.03 17:29:28.
