data_PCOD9348369
_publ_section_title
;
Structure prediction by ZEFSAII (Michael W. Deem and Ramdas Pophale) SiO2 
 PCOD9348369
Probable space group: C M M 2
;
_chemical_formula_sum "Si O2"
_cell_formula_units_Z 48
_cell_length_a 8.266381
_cell_length_b 19.022504
_cell_length_c 16.065867
_cell_angle_alpha 90.000000
_cell_angle_beta 90.000000
_cell_angle_gamma 90.000000
_cell_volume 2526.313656
_symmetry_space_group_name_H-M "C M M 2"
_symmetry_group_IT_number 35
_symmetry_cell_setting 'orthorhombic'
loop_
_space_group_symop_operation_xyz
x,y,z
-x,-y,z
-x,y,z
x,-y,z
1/2+x,1/2+y,z
1/2-x,1/2-y,z
1/2-x,1/2+y,z
1/2+x,1/2-y,z
loop_
_atom_site_type_symbol
_atom_site_label
_atom_site_fract_x
_atom_site_fract_y
_atom_site_fract_z
Si Si1 0.806384 0.669825 0.376320
Si Si2 0.197873 0.918926 0.717102
Si Si3 0.695635 0.669586 0.878366
Si Si4 0.695347 0.080936 0.218805
Si Si5 0.806582 0.169454 0.557862
Si Si6 0.695076 0.418770 0.037456
O O1 0.750000 0.750000 0.367882
O O2 0.746402 0.625227 0.297717
O O3 0.751033 0.855602 0.466836
O O4 0.000000 0.668309 0.376260
O O5 0.249602 0.874478 0.797620
O O6 0.251388 0.879590 0.633107
O O7 0.000000 0.919208 0.717010
O O8 0.250047 0.000000 0.720841
O O9 0.500000 0.668506 0.878669
O O10 0.750000 0.750000 0.874720
O O11 0.752105 0.630214 0.962173
O O12 0.500000 0.081774 0.219392
O O13 0.751788 0.106850 0.128499
O O14 0.749453 0.000000 0.226419
O O15 0.750000 0.250000 0.569197
O O16 0.000000 0.169926 0.558800
O O17 0.500000 0.419941 0.035222
O O18 0.751007 0.500000 0.027279
#
# Coordination Sequence:
#
# PCOD9348369 Si02
#       6
#     8   8   8   8   8   8
#     4  10  20  34  52  73 100 133 167 204 247 296
#     4   9  18  33  53  76 101 131 167 205 245 291
#     4  10  20  34  53  76 103 133 165 203 246 294
#     4   9  19  35  53  73  99 132 166 203 251 299
#     4  10  19  32  52  75 100 131 166 205 248 293
#     4   9  18  33  53  75  98 129 169 208 245 288
#
# _framework density 19.000015999999999
#
# number of rings (size 3 to 8) (size 9 to 14) (size 15 to 20)
#    0.000    2.500    0.000    3.000    0.000    5.333 
#    0.000    4.167    0.000    5.000    0.000    0.000 
#    0.000    0.000    0.000    0.000    0.000    0.000 
#
# Total GULP energy -133930.136572 kJ/mol
# GULP energy per Si atom -5580.422357 kJ/mol
# Density = 1.895677 g / cm^3
# Si number density = 19.000016 Si / 1000 Ang^3
#
#
#
# Elastic Constant Matrix: (Units=GPa)
#
#
# Indices 1 2 3 4 5 6 
#
# 1 17.5888 11.7421 20.5965 0.0000 0.0000 0.0000
# 2 11.7421 118.8708 124.0990 0.0000 0.0000 0.0000
# 3 20.5965 124.0990 235.6839 0.0000 0.0000 0.0000
# 4 0.0000 0.0000 0.0000 43.1850 0.0000 0.0000
# 5 0.0000 0.0000 0.0000 0.0000 21.3848 0.0000
# 6 0.0000 0.0000 0.0000 0.0000 0.0000 20.4555
#
#
#
# Elastic Compliance Matrix: (Units=1/GPa)
#
#
# Indices 1 2 3 4 5 6 
#
# 1 0.063396 -0.001062 -0.004981 0.000000 0.000000 0.000000
# 2 -0.001062 0.018700 -0.009754 0.000000 0.000000 0.000000
# 3 -0.004981 -0.009754 0.009814 0.000000 0.000000 0.000000
# 4 0.000000 0.000000 0.000000 0.023156 0.000000 0.000000
# 5 0.000000 0.000000 0.000000 0.000000 0.046762 0.000000
# 6 0.000000 0.000000 0.000000 0.000000 0.000000 0.048887
#
#
# Mechanical properties :
#
#
# Convention : Reuss Voigt Hill
#
# Bulk Modulus (GPa) = 16.57921 76.11317 46.34619
# Shear Modulus (GPa) = 19.05383 31.38548 25.21965
#
# Velocity S-wave (km/s) = 3.17019 4.06872 3.64723
# Velocity P-wave (km/s) = 4.70584 7.88791 6.49477
#
# Compressibility (1/GPa) = 0.06031652
#
# Stress axis : x y z
#
# Youngs Moduli (GPa) = 15.77382 53.47571 101.89519
#
# Poissons Ratio (x) = 0.05682 0.50752
# Poissons Ratio (y) = 0.01676 0.99385
# Poissons Ratio (z) = 0.07857 0.52158
#
# Static dielectric constant tensor:
#      x y z
#    x 1.668920 0.000000 0.000000 
#    y 0.000000 1.635370 0.000000 
#    z 0.000000 0.000000 1.660530 
# 
# From -- ./inp_files/12299.got.cif
#   From: 2010.05.17/outbox.cif.g08.bks.cpg/sg35_7_cif.got.tgz:12299.got - 2010.06.03 17:29:28.
