data_PCOD9348196
_publ_section_title
;
Structure prediction by ZEFSAII (Michael W. Deem and Ramdas Pophale) SiO2 
 PCOD9348196
Probable space group: C M M 2
;
_chemical_formula_sum "Si O2"
_cell_formula_units_Z 64
_cell_length_a 9.012683
_cell_length_b 14.927462
_cell_length_c 21.787802
_cell_angle_alpha 90.000000
_cell_angle_beta 90.000000
_cell_angle_gamma 90.000000
_cell_volume 2931.254253
_symmetry_space_group_name_H-M "C M M 2"
_symmetry_group_IT_number 35
_symmetry_cell_setting 'orthorhombic'
loop_
_space_group_symop_operation_xyz
x,y,z
-x,-y,z
-x,y,z
x,-y,z
1/2+x,1/2+y,z
1/2-x,1/2-y,z
1/2-x,1/2+y,z
1/2+x,1/2-y,z
loop_
_atom_site_type_symbol
_atom_site_label
_atom_site_fract_x
_atom_site_fract_y
_atom_site_fract_z
Si Si1 0.177731 0.150428 0.982570
Si Si2 0.832511 0.109781 0.360141
Si Si3 0.668672 0.890154 0.483428
Si Si4 0.178785 0.651548 0.103394
Si Si5 0.665771 0.894248 0.240686
Si Si6 0.823182 0.348196 0.726637
Si Si7 0.164156 0.894350 0.603503
Si Si8 0.677914 0.650423 0.847294
O O1 0.250000 0.250000 0.979849
O O2 0.204605 0.109721 0.914953
O O3 0.000000 0.157295 0.990715
O O4 0.251110 0.107101 0.042687
O O5 0.732676 0.137040 0.417640
O O6 0.769867 0.140637 0.294567
O O7 0.000000 0.140434 0.369221
O O8 0.834702 0.000000 0.360064
O O9 0.500000 0.860825 0.491146
O O10 0.766602 0.858264 0.540708
O O11 0.669142 0.000000 0.484020
O O12 0.250000 0.750000 0.104690
O O13 0.216857 0.613797 0.170421
O O14 0.000000 0.652847 0.097523
O O15 0.500000 0.854403 0.244686
O O16 0.652976 0.000000 0.252528
O O17 0.750000 0.250000 0.725960
O O18 0.771041 0.386283 0.661744
O O19 0.752374 0.392938 0.787480
O O20 0.000000 0.345839 0.731847
O O21 0.000000 0.856033 0.616859
O O22 0.147569 0.000000 0.593193
O O23 0.500000 0.656749 0.838733
O O24 0.750000 0.750000 0.850418
#
# Coordination Sequence:
#
# PCOD9348196 Si02
#       8
#     8   8   8   8   8   8   8   8
#     4   9  16  26  43  66  92 120 153 194 235 277
#     4   9  16  26  43  68  94 120 153 194 237 277
#     4   9  16  27  45  69  96 125 158 196 236 280
#     4  10  19  30  47  69  94 123 154 191 234 280
#     4   9  18  32  48  67  92 123 157 191 230 277
#     4  11  21  33  51  74 101 131 164 201 242 290
#     4  10  20  34  52  74 101 131 163 201 244 289
#     4   9  16  27  44  67  93 121 156 197 240 281
#
# _framework density 21.833655
#
# number of rings (size 3 to 8) (size 9 to 14) (size 15 to 20)
#    0.000    2.500    0.000    4.875    0.000    6.250 
#    0.000    0.000    0.000    1.500    0.000    7.000 
#    0.000    0.000    0.000    0.000    0.000    0.000 
#
# Total GULP energy -178505.813988 kJ/mol
# GULP energy per Si atom -5578.306687 kJ/mol
# Density = 2.178396 g / cm^3
# Si number density = 21.833655 Si / 1000 Ang^3
#
#
#
# Elastic Constant Matrix: (Units=GPa)
#
#
# Indices 1 2 3 4 5 6 
#
# 1 149.4435 8.8873 90.3765 0.0000 0.0000 0.0000
# 2 8.8873 39.1290 3.3669 0.0000 0.0000 0.0000
# 3 90.3765 3.3669 191.4745 0.0000 0.0000 0.0000
# 4 0.0000 0.0000 0.0000 13.8927 0.0000 0.0000
# 5 0.0000 0.0000 0.0000 0.0000 -84.0730 0.0000
# 6 0.0000 0.0000 0.0000 0.0000 0.0000 5.8055
#
#
#
# Elastic Compliance Matrix: (Units=1/GPa)
#
#
# Indices 1 2 3 4 5 6 
#
# 1 0.009486 -0.001772 -0.004446 0.000000 0.000000 0.000000
# 2 -0.001772 0.025926 0.000380 0.000000 0.000000 0.000000
# 3 -0.004446 0.000380 0.007315 0.000000 0.000000 0.000000
# 4 0.000000 0.000000 0.000000 0.071980 0.000000 0.000000
# 5 0.000000 0.000000 0.000000 0.000000 -0.011894 0.000000
# 6 0.000000 0.000000 0.000000 0.000000 0.000000 0.172251
#
#
# Mechanical properties :
#
#
# Convention : Reuss Voigt Hill
#
# Bulk Modulus (GPa) = 32.20476 65.03427 48.61951
# Shear Modulus (GPa) = 16.83000 5.61945 11.22473
#
# Velocity S-wave (km/s) = 2.77939 1.60603 2.26984
# Velocity P-wave (km/s) = 5.00820 5.76975 5.40241
#
# Compressibility (1/GPa) = 0.03105131
#
# Stress axis : x y z
#
# Youngs Moduli (GPa) = 105.42230 38.57097 136.71454
#
# Poissons Ratio (x) = 0.06834 0.60785
# Poissons Ratio (y) = 0.18680 -0.05201
# Poissons Ratio (z) = 0.46872 -0.01467
#
# Static dielectric constant tensor:
#      x y z
#    x 1.767900 0.000000 0.000000 
#    y 0.000000 1.862700 0.000000 
#    z 0.000000 0.000000 1.845350 
# 
# From -- ./inp_files/18499.got.cif
#   From: 2010.05.17/outbox.cif.g08.bks.cpg/sg35_10_cif.got.tgz:18499.got - 2010.06.03 17:29:28.
