data_PCOD9348154
_publ_section_title
;
Structure prediction by ZEFSAII (Michael W. Deem and Ramdas Pophale) SiO2 
 PCOD9348154
Probable space group: C M M 2
;
_chemical_formula_sum "Si O2"
_cell_formula_units_Z 64
_cell_length_a 8.362419
_cell_length_b 31.907399
_cell_length_c 12.251501
_cell_angle_alpha 90.000000
_cell_angle_beta 90.000000
_cell_angle_gamma 90.000000
_cell_volume 3268.982737
_symmetry_space_group_name_H-M "C M M 2"
_symmetry_group_IT_number 35
_symmetry_cell_setting 'orthorhombic'
loop_
_space_group_symop_operation_xyz
x,y,z
-x,-y,z
-x,y,z
x,-y,z
1/2+x,1/2+y,z
1/2-x,1/2-y,z
1/2-x,1/2+y,z
1/2+x,1/2-y,z
loop_
_atom_site_type_symbol
_atom_site_label
_atom_site_fract_x
_atom_site_fract_y
_atom_site_fract_z
Si Si1 0.193130 0.077303 0.953900
Si Si2 0.692482 0.046353 0.185967
Si Si3 0.308683 0.874197 0.576891
Si Si4 0.691166 0.704740 0.715881
Si Si5 0.693551 0.125597 0.326269
Si Si6 0.805383 0.824798 0.951717
Si Si7 0.306580 0.546881 0.715085
Si Si8 0.191444 0.795328 0.188039
O O1 0.240368 0.126255 0.952363
O O2 0.242707 0.056336 0.840077
O O3 0.000000 0.075435 0.959809
O O4 0.261268 0.055721 0.061265
O O5 0.500000 0.046204 0.193517
O O6 0.751680 0.084347 0.261547
O O7 0.750888 0.000000 0.217647
O O8 0.500000 0.872470 0.576839
O O9 0.245751 0.833714 0.641254
O O10 0.252113 0.874314 0.451586
O O11 0.255689 0.916304 0.638437
O O12 0.500000 0.704805 0.718478
O O13 0.750000 0.750000 0.677428
O O14 0.751096 0.696454 0.839906
O O15 0.500000 0.124939 0.325665
O O16 0.748671 0.166917 0.262963
O O17 0.000000 0.823547 0.951053
O O18 0.750128 0.803492 0.063651
O O19 0.500000 0.548271 0.713086
O O20 0.255160 0.500000 0.683339
O O21 0.250000 0.750000 0.225647
O O22 0.000000 0.795977 0.187040
#
# Coordination Sequence:
#
# PCOD9348154 Si02
#       8
#     8   8   8   8   8   8   8   8
#     4  10  18  35  60  87 118 153 189 229 285 347
#     4  10  21  37  58  86 118 151 189 237 291 342
#     4  11  24  41  61  85 114 154 202 247 292 341
#     4  11  22  40  63  89 121 154 191 237 291 349
#     4  10  23  42  60  81 113 154 198 242 289 339
#     4   9  18  34  59  88 118 151 185 229 286 346
#     4  10  21  38  61  88 120 157 193 236 293 349
#     4  11  22  38  61  89 118 150 189 234 286 344
#
# _framework density 19.577956
#
# number of rings (size 3 to 8) (size 9 to 14) (size 15 to 20)
#    0.000    1.750    2.500    1.875    0.000    3.500 
#    0.000    3.125    0.000    0.000    0.000    0.000 
#    0.000    0.000    0.000    0.000    0.000    0.000 
#
# Total GULP energy -178802.286578 kJ/mol
# GULP energy per Si atom -5587.571456 kJ/mol
# Density = 1.953340 g / cm^3
# Si number density = 19.577956 Si / 1000 Ang^3
#
#
#
# Elastic Constant Matrix: (Units=GPa)
#
#
# Indices 1 2 3 4 5 6 
#
# 1 19.3056 25.4974 23.7822 0.0000 0.0000 0.0000
# 2 25.4974 205.6334 95.0118 0.0000 0.0000 0.0000
# 3 23.7822 95.0118 160.9422 0.0000 0.0000 0.0000
# 4 0.0000 0.0000 0.0000 -2.4586 0.0000 0.0000
# 5 0.0000 0.0000 0.0000 0.0000 14.3307 0.0000
# 6 0.0000 0.0000 0.0000 0.0000 0.0000 26.2286
#
#
#
# Elastic Compliance Matrix: (Units=1/GPa)
#
#
# Indices 1 2 3 4 5 6 
#
# 1 0.067054 -0.005137 -0.006876 0.000000 0.000000 0.000000
# 2 -0.005137 0.007081 -0.003421 0.000000 0.000000 0.000000
# 3 -0.006876 -0.003421 0.009249 0.000000 0.000000 0.000000
# 4 0.000000 0.000000 0.000000 -0.406737 0.000000 0.000000
# 5 0.000000 0.000000 0.000000 0.000000 0.069780 0.000000
# 6 0.000000 0.000000 0.000000 0.000000 0.000000 0.038126
#
#
# Mechanical properties :
#
#
# Convention : Reuss Voigt Hill
#
# Bulk Modulus (GPa) = 19.04206 74.94045 46.99126
# Shear Modulus (GPa) = -29.92671 23.72614 -3.10029
#
# Velocity S-wave (km/s) = -3.91396 3.48498 -1.25976
# Velocity P-wave (km/s) = 3.26773 7.38611 4.68383
#
# Compressibility (1/GPa) = 0.05251532
#
# Stress axis : x y z
#
# Youngs Moduli (GPa) = 14.91346 141.23018 108.12093
#
# Poissons Ratio (x) = 0.72557 0.74339
# Poissons Ratio (y) = 0.07662 0.36987
# Poissons Ratio (z) = 0.10254 0.48313
#
# Static dielectric constant tensor:
#      x y z
#    x 1.682470 0.000000 0.000000 
#    y 0.000000 1.660210 0.000000 
#    z 0.000000 0.000000 1.669810 
# 
# From -- ./inp_files/11832.got.cif
#   From: 2010.05.17/outbox.cif.g08.bks.cpg/sg35_6_cif.got.tgz:11832.got - 2010.06.03 17:29:28.
