data_PCOD9348847
_publ_section_title
;
Structure prediction by ZEFSAII (Michael W. Deem and Ramdas Pophale) SiO2 
 PCOD9348847
Probable space group: C M M 2
;
_chemical_formula_sum "Si O2"
_cell_formula_units_Z 56
_cell_length_a 18.621807
_cell_length_b 7.833696
_cell_length_c 18.715713
_cell_angle_alpha 90.000000
_cell_angle_beta 90.000000
_cell_angle_gamma 90.000000
_cell_volume 2730.202827
_symmetry_space_group_name_H-M "C M M 2"
_symmetry_group_IT_number 35
_symmetry_cell_setting 'orthorhombic'
loop_
_space_group_symop_operation_xyz
x,y,z
-x,-y,z
-x,y,z
x,-y,z
1/2+x,1/2+y,z
1/2-x,1/2-y,z
1/2-x,1/2+y,z
1/2+x,1/2-y,z
loop_
_atom_site_type_symbol
_atom_site_label
_atom_site_fract_x
_atom_site_fract_y
_atom_site_fract_z
Si Si1 0.583048 0.290959 0.061300
Si Si2 0.082410 0.794571 0.341297
Si Si3 0.833352 0.205654 0.202658
Si Si4 0.418460 0.704582 0.780441
Si Si5 0.917572 0.705482 0.499877
Si Si6 0.666333 0.294244 0.919596
Si Si7 0.166786 0.703429 0.637924
O O1 0.500000 0.238081 0.059575
O O2 0.583493 0.500000 0.061343
O O3 0.622880 0.233630 0.133313
O O4 0.626050 0.233891 0.991071
O O5 0.130896 0.730676 0.276202
O O6 0.108907 0.750187 0.420594
O O7 0.000000 0.731738 0.334736
O O8 0.080094 0.000000 0.336707
O O9 0.750000 0.250000 0.197759
O O10 0.839011 0.000000 0.203071
O O11 0.500000 0.771565 0.778844
O O12 0.422808 0.500000 0.788482
O O13 0.373552 0.770318 0.848370
O O14 0.377277 0.738609 0.707012
O O15 0.919720 0.500000 0.504220
O O16 0.869172 0.770880 0.564844
O O17 0.000000 0.768289 0.506601
O O18 0.661286 0.500000 0.919412
O O19 0.750000 0.250000 0.919812
O O20 0.161961 0.500000 0.635864
O O21 0.250000 0.750000 0.643402
#
# Coordination Sequence:
#
# PCOD9348847 Si02
#       7
#     8   8   8   8   8   8   8
#     4   9  17  32  55  78 101 135 178 218 255 300
#     4   9  18  33  53  76 101 132 173 216 255 302
#     4  10  20  33  51  76 105 136 171 212 258 307
#     4  10  21  37  57  81 108 139 178 221 264 314
#     4   9  19  36  56  77 102 134 172 214 262 315
#     4  10  20  34  54  80 109 140 174 214 260 310
#     4  11  23  38  56  79 108 141 178 219 265 317
#
# _framework density 20.511295
#
# number of rings (size 3 to 8) (size 9 to 14) (size 15 to 20)
#    0.000    2.286    0.000    2.571    0.000    8.286 
#    0.000    4.286    0.000    3.429    0.000    0.000 
#    0.000    0.000    0.000    0.000    0.000    0.000 
#
# Total GULP energy -156402.114801 kJ/mol
# GULP energy per Si atom -5585.789814 kJ/mol
# Density = 2.046461 g / cm^3
# Si number density = 20.511295 Si / 1000 Ang^3
#
#
#
# Elastic Constant Matrix: (Units=GPa)
#
#
# Indices 1 2 3 4 5 6 
#
# 1 194.0175 3.3870 147.5122 0.0000 0.0000 0.0000
# 2 3.3870 24.2472 8.6550 0.0000 0.0000 0.0000
# 3 147.5122 8.6550 241.6611 0.0000 0.0000 0.0000
# 4 0.0000 0.0000 0.0000 84.3329 0.0000 0.0000
# 5 0.0000 0.0000 0.0000 0.0000 15.9518 0.0000
# 6 0.0000 0.0000 0.0000 0.0000 0.0000 22.9104
#
#
#
# Elastic Compliance Matrix: (Units=1/GPa)
#
#
# Indices 1 2 3 4 5 6 
#
# 1 0.009632 0.000763 -0.005907 0.000000 0.000000 0.000000
# 2 0.000763 0.041836 -0.001964 0.000000 0.000000 0.000000
# 3 -0.005907 -0.001964 0.007814 0.000000 0.000000 0.000000
# 4 0.000000 0.000000 0.000000 0.011858 0.000000 0.000000
# 5 0.000000 0.000000 0.000000 0.000000 0.062689 0.000000
# 6 0.000000 0.000000 0.000000 0.000000 0.000000 0.043648
#
#
# Mechanical properties :
#
#
# Convention : Reuss Voigt Hill
#
# Bulk Modulus (GPa) = 22.18943 86.55933 54.37438
# Shear Modulus (GPa) = 24.18794 44.66377 34.42586
#
# Velocity S-wave (km/s) = 3.43775 4.67145 4.10125
# Velocity P-wave (km/s) = 5.15743 8.44921 6.99958
#
# Compressibility (1/GPa) = 0.04506651
#
# Stress axis : x y z
#
# Youngs Moduli (GPa) = 103.82445 23.90260 127.97880
#
# Poissons Ratio (x) = -0.01824 0.75592
# Poissons Ratio (y) = -0.07921 0.25136
# Poissons Ratio (z) = 0.61325 0.04695
#
# Static dielectric constant tensor:
#      x y z
#    x 1.689610 0.000000 0.000000 
#    y 0.000000 1.758270 0.000000 
#    z 0.000000 0.000000 1.717130 
# 
# From -- ./inp_files/16758.got.cif
#   From: 2010.05.17/outbox.cif.g08.bks.cpg/sg35_9_cif.got.tgz:16758.got - 2010.06.03 17:29:28.
