data_PCOD9348495
_publ_section_title
;
Structure prediction by ZEFSAII (Michael W. Deem and Ramdas Pophale) SiO2 
 PCOD9348495
Probable space group: C M M 2
;
_chemical_formula_sum "Si O2"
_cell_formula_units_Z 64
_cell_length_a 15.314853
_cell_length_b 17.265748
_cell_length_c 14.423877
_cell_angle_alpha 90.000000
_cell_angle_beta 90.000000
_cell_angle_gamma 90.000000
_cell_volume 3813.996066
_symmetry_space_group_name_H-M "C M M 2"
_symmetry_group_IT_number 35
_symmetry_cell_setting 'orthorhombic'
loop_
_space_group_symop_operation_xyz
x,y,z
-x,-y,z
-x,y,z
x,-y,z
1/2+x,1/2+y,z
1/2-x,1/2-y,z
1/2-x,1/2+y,z
1/2+x,1/2-y,z
loop_
_atom_site_type_symbol
_atom_site_label
_atom_site_fract_x
_atom_site_fract_y
_atom_site_fract_z
Si Si1 0.158046 0.290763 0.604560
Si Si2 0.655169 0.791488 0.906381
Si Si3 0.844903 0.290629 0.115541
Si Si4 0.905090 0.826923 0.757302
Si Si5 0.098923 0.319600 0.400693
Si Si6 0.780420 0.408485 0.262315
Si Si7 0.096692 0.175624 0.268556
Si Si8 0.719100 0.091719 0.759563
O O1 0.250000 0.250000 0.580519
O O2 0.107665 0.227923 0.667406
O O3 0.111725 0.314065 0.510248
O O4 0.178986 0.363612 0.670890
O O5 0.750000 0.750000 0.910189
O O6 0.600138 0.732130 0.844162
O O7 0.671557 0.869862 0.848575
O O8 0.623227 0.802796 0.011045
O O9 0.750000 0.250000 0.109960
O O10 0.828204 0.368025 0.174718
O O11 0.899845 0.231681 0.178525
O O12 0.821298 0.882855 0.763032
O O13 0.000000 0.865190 0.754962
O O14 0.169776 0.374010 0.351688
O O15 0.109689 0.234594 0.354554
O O16 0.000000 0.345109 0.378512
O O17 0.785867 0.500000 0.258721
O O18 0.679549 0.380609 0.263711
O O19 0.000000 0.139924 0.275059
O O20 0.709873 0.000000 0.755501
#
# Coordination Sequence:
#
# PCOD9348495 Si02
#       8
#     8   8   8   8   8   8   8   8
#     4   9  17  31  50  69  91 122 160 199 236 279
#     4   8  15  29  48  66  88 123 161 193 225 266
#     4   8  15  30  49  67  89 121 161 198 230 268
#     4   9  17  29  47  71  94 118 155 199 238 280
#     4  10  19  33  54  73  91 122 164 206 241 277
#     4  10  20  32  47  72 104 130 155 192 240 296
#     4   9  18  32  51  74  96 123 162 201 237 283
#     4   9  18  30  45  69  98 126 155 188 234 292
#
# _framework density 16.780301000000001
#
# number of rings (size 3 to 8) (size 9 to 14) (size 15 to 20)
#    0.000    3.000    0.000    3.750    0.000    2.250 
#    0.000    0.000    0.000    9.000    0.000   15.750 
#    0.000    0.000    0.000    0.000    0.000    0.000 
#
# Total GULP energy -178229.732752 kJ/mol
# GULP energy per Si atom -5569.679148 kJ/mol
# Density = 1.674211 g / cm^3
# Si number density = 16.780301 Si / 1000 Ang^3
#
#
#
# Elastic Constant Matrix: (Units=GPa)
#
#
# Indices 1 2 3 4 5 6 
#
# 1 38.5612 -9.0072 7.2173 0.0000 0.0000 0.0000
# 2 -9.0072 67.9933 17.1446 0.0000 0.0000 0.0000
# 3 7.2173 17.1446 106.4772 0.0000 0.0000 0.0000
# 4 0.0000 0.0000 0.0000 6.7875 0.0000 0.0000
# 5 0.0000 0.0000 0.0000 0.0000 -6.9848 0.0000
# 6 0.0000 0.0000 0.0000 0.0000 0.0000 9.0541
#
#
#
# Elastic Compliance Matrix: (Units=1/GPa)
#
#
# Indices 1 2 3 4 5 6 
#
# 1 0.027407 0.004273 -0.002546 0.000000 0.000000 0.000000
# 2 0.004273 0.015996 -0.002865 0.000000 0.000000 0.000000
# 3 -0.002546 -0.002865 0.010026 0.000000 0.000000 0.000000
# 4 0.000000 0.000000 0.000000 0.147330 0.000000 0.000000
# 5 0.000000 0.000000 0.000000 0.000000 -0.143167 0.000000
# 6 0.000000 0.000000 0.000000 0.000000 0.000000 0.110447
#
#
# Mechanical properties :
#
#
# Convention : Reuss Voigt Hill
#
# Bulk Modulus (GPa) = 19.54957 27.08234 23.31596
# Shear Modulus (GPa) = 26.68576 14.94982 20.81779
#
# Velocity S-wave (km/s) = 3.99219 2.98806 3.52605
# Velocity P-wave (km/s) = 5.73809 5.29897 5.52289
#
# Compressibility (1/GPa) = 0.05115203
#
# Stress axis : x y z
#
# Youngs Moduli (GPa) = 36.48671 62.51645 99.74488
#
# Poissons Ratio (x) = -0.26711 0.25392
# Poissons Ratio (y) = -0.15589 0.28579
# Poissons Ratio (z) = 0.09288 0.17912
#
# Static dielectric constant tensor:
#      x y z
#    x 1.592170 0.000000 0.000000 
#    y 0.000000 1.521310 0.000000 
#    z 0.000000 0.000000 1.577610 
# 
# From -- ./inp_files/16892.got.cif
#   From: 2010.05.17/outbox.cif.g08.bks.cpg/sg35_9_cif.got.tgz:16892.got - 2010.06.03 17:29:28.
