data_PCOD9348842
_publ_section_title
;
Structure prediction by ZEFSAII (Michael W. Deem and Ramdas Pophale) SiO2 
 PCOD9348842
Probable space group: C M M 2
;
_chemical_formula_sum "Si O2"
_cell_formula_units_Z 48
_cell_length_a 32.549597
_cell_length_b 9.301258
_cell_length_c 7.553526
_cell_angle_alpha 90.000000
_cell_angle_beta 90.000000
_cell_angle_gamma 90.000000
_cell_volume 2286.846610
_symmetry_space_group_name_H-M "C M M 2"
_symmetry_group_IT_number 35
_symmetry_cell_setting 'orthorhombic'
loop_
_space_group_symop_operation_xyz
x,y,z
-x,-y,z
-x,y,z
x,-y,z
1/2+x,1/2+y,z
1/2-x,1/2-y,z
1/2-x,1/2+y,z
1/2+x,1/2-y,z
loop_
_atom_site_type_symbol
_atom_site_label
_atom_site_fract_x
_atom_site_fract_y
_atom_site_fract_z
Si Si1 0.954175 0.172124 0.120180
Si Si2 0.955753 0.671917 0.740751
Si Si3 0.788234 0.159638 0.637711
Si Si4 0.289578 0.663212 0.214640
Si Si5 0.873098 0.664922 0.141685
Si Si6 0.368208 0.161645 0.714702
O O1 0.914698 0.253466 0.199617
O O2 0.000000 0.201571 0.195989
O O3 0.947884 0.000000 0.120177
O O4 0.956073 0.233128 0.918780
O O5 0.953493 0.500000 0.785910
O O6 0.913182 0.703934 0.642381
O O7 0.000000 0.694521 0.650740
O O8 0.750000 0.250000 0.708660
O O9 0.783585 0.151827 0.425940
O O10 0.831483 0.233936 0.671584
O O11 0.787563 0.000000 0.711477
O O12 0.292121 0.500000 0.145022
O O13 0.250000 0.750000 0.144092
O O14 0.331794 0.749596 0.188326
O O15 0.872199 0.500000 0.205881
O O16 0.873356 0.659681 0.927255
O O17 0.357853 0.000000 0.655446
#
# Coordination Sequence:
#
# PCOD9348842 Si02
#       6
#     8   8   8   8   8   8
#     4   9  16  26  43  69 100 132 164 200 243 289
#     4   8  14  26  44  67  97 131 164 198 237 285
#     4  10  21  36  54  73  95 127 165 202 244 295
#     4  10  21  37  55  74  96 126 165 205 248 299
#     4  10  20  33  51  76 103 132 166 204 246 290
#     4   9  18  31  49  75 103 129 161 201 243 285
#
# _framework density 20.989602999999999
#
# number of rings (size 3 to 8) (size 9 to 14) (size 15 to 20)
#    0.000    2.667    0.000    3.000    0.000    7.000 
#    0.000    0.000    0.000    1.000    0.000    4.667 
#    0.000    0.000    0.000    0.000    0.000    0.000 
#
# Total GULP energy -133833.764596 kJ/mol
# GULP energy per Si atom -5576.406858 kJ/mol
# Density = 2.094183 g / cm^3
# Si number density = 20.989603 Si / 1000 Ang^3
#
#
#
# Elastic Constant Matrix: (Units=GPa)
#
#
# Indices 1 2 3 4 5 6 
#
# 1 244.5554 140.3741 0.6903 0.0000 0.0000 0.0000
# 2 140.3741 168.2054 9.8303 0.0000 0.0000 0.0000
# 3 0.6903 9.8303 41.0533 0.0000 0.0000 0.0000
# 4 0.0000 0.0000 0.0000 13.1981 0.0000 0.0000
# 5 0.0000 0.0000 0.0000 0.0000 34.5890 0.0000
# 6 0.0000 0.0000 0.0000 0.0000 0.0000 37.8942
#
#
#
# Elastic Compliance Matrix: (Units=1/GPa)
#
#
# Indices 1 2 3 4 5 6 
#
# 1 0.007936 -0.006709 0.001473 0.000000 0.000000 0.000000
# 2 -0.006709 0.011701 -0.002689 0.000000 0.000000 0.000000
# 3 0.001473 -0.002689 0.024978 0.000000 0.000000 0.000000
# 4 0.000000 0.000000 0.000000 0.075768 0.000000 0.000000
# 5 0.000000 0.000000 0.000000 0.000000 0.028911 0.000000
# 6 0.000000 0.000000 0.000000 0.000000 0.000000 0.026389
#
#
# Mechanical properties :
#
#
# Convention : Reuss Voigt Hill
#
# Bulk Modulus (GPa) = 34.76470 83.95595 59.36033
# Shear Modulus (GPa) = 24.86071 37.33088 31.09580
#
# Velocity S-wave (km/s) = 3.44529 4.22185 3.85318
# Velocity P-wave (km/s) = 5.69434 7.99068 6.93817
#
# Compressibility (1/GPa) = 0.02876481
#
# Stress axis : x y z
#
# Youngs Moduli (GPa) = 126.01306 85.46306 40.03575
#
# Poissons Ratio (x) = 0.57335 -0.05897
# Poissons Ratio (y) = 0.84539 0.10766
# Poissons Ratio (z) = -0.18561 0.22981
#
# Static dielectric constant tensor:
#      x y z
#    x 1.779340 0.000000 0.000000 
#    y 0.000000 1.732940 0.000000 
#    z 0.000000 0.000000 1.782370 
# 
# From -- ./inp_files/5280.got.cif
#   From: 2010.05.17/outbox.cif.g08.bks.cpg/sg35_3_cif.got.tgz:5280.got - 2010.06.03 17:29:28.
