data_PCOD9348178
_publ_section_title
;
Structure prediction by ZEFSAII (Michael W. Deem and Ramdas Pophale) SiO2 
 PCOD9348178
Probable space group: C M M 2
;
_chemical_formula_sum "Si O2"
_cell_formula_units_Z 64
_cell_length_a 8.451903
_cell_length_b 29.606069
_cell_length_c 16.145165
_cell_angle_alpha 90.000000
_cell_angle_beta 90.000000
_cell_angle_gamma 90.000000
_cell_volume 4039.966267
_symmetry_space_group_name_H-M "C M M 2"
_symmetry_group_IT_number 35
_symmetry_cell_setting 'orthorhombic'
loop_
_space_group_symop_operation_xyz
x,y,z
-x,-y,z
-x,y,z
x,-y,z
1/2+x,1/2+y,z
1/2-x,1/2-y,z
1/2-x,1/2+y,z
1/2+x,1/2-y,z
loop_
_atom_site_type_symbol
_atom_site_label
_atom_site_fract_x
_atom_site_fract_y
_atom_site_fract_z
Si Si1 0.689196 0.298918 0.513400
Si Si2 0.193703 0.947544 0.934835
Si Si3 0.189530 0.608039 0.450609
Si Si4 0.193227 0.893771 0.773369
Si Si5 0.191504 0.947740 0.608593
Si Si6 0.183152 0.945186 0.116466
Si Si7 0.310302 0.051765 0.293037
Si Si8 0.809297 0.798832 0.705823
O O1 0.500000 0.299173 0.512807
O O2 0.750000 0.250000 0.485631
O O3 0.750886 0.341034 0.461427
O O4 0.741698 0.304906 0.609691
O O5 0.245980 0.916701 0.858640
O O6 0.000000 0.947343 0.936852
O O7 0.239966 0.000000 0.922022
O O8 0.246818 0.931441 0.026097
O O9 0.245984 0.579448 0.529861
O O10 0.248091 0.583445 0.367097
O O11 0.000000 0.608300 0.449533
O O12 0.241034 0.923512 0.693835
O O13 0.244262 0.842242 0.757826
O O14 0.000000 0.893972 0.774453
O O15 0.000000 0.946448 0.606265
O O16 0.241443 0.000000 0.606590
O O17 0.267551 0.931628 0.201046
O O18 0.000000 0.931537 0.122405
O O19 0.187928 0.000000 0.114000
O O20 0.500000 0.049891 0.298849
O O21 0.250448 0.000000 0.302814
O O22 0.750000 0.750000 0.734410
O O23 0.000000 0.798366 0.706136
#
# Coordination Sequence:
#
# PCOD9348178 Si02
#       8
#     8   8   8   8   8   8   8   8
#     4  10  19  33  50  69  91 116 152 192 232 274
#     4   8  13  22  40  66  92 115 142 180 225 269
#     4  11  21  32  46  65  91 123 156 190 229 271
#     4   9  15  26  42  64  90 118 149 183 221 267
#     4  10  19  30  44  63  90 124 159 190 221 263
#     4   8  14  25  42  65  88 110 143 188 230 265
#     4   9  18  31  45  62  88 123 157 186 223 273
#     4   9  17  29  45  63  86 113 147 186 222 261
#
# _framework density 15.841716999999999
#
# number of rings (size 3 to 8) (size 9 to 14) (size 15 to 20)
#    0.000    2.750    1.250    2.250    0.000    3.750 
#    0.000    1.250    0.000    1.500    0.000    2.625 
#    0.000    4.000    0.000    0.000    0.000    0.000 
#
# Total GULP energy -178300.462211 kJ/mol
# GULP energy per Si atom -5571.889444 kJ/mol
# Density = 1.580566 g / cm^3
# Si number density = 15.841717 Si / 1000 Ang^3
#
#
#
# Elastic Constant Matrix: (Units=GPa)
#
#
# Indices 1 2 3 4 5 6 
#
# 1 8.1943 18.2688 16.9556 0.0000 0.0000 0.0000
# 2 18.2688 129.3125 82.2407 0.0000 0.0000 0.0000
# 3 16.9556 82.2407 145.1174 0.0000 0.0000 0.0000
# 4 0.0000 0.0000 0.0000 8.7015 0.0000 0.0000
# 5 0.0000 0.0000 0.0000 0.0000 -7.8481 0.0000
# 6 0.0000 0.0000 0.0000 0.0000 0.0000 20.3483
#
#
#
# Elastic Compliance Matrix: (Units=1/GPa)
#
#
# Indices 1 2 3 4 5 6 
#
# 1 0.188448 -0.019732 -0.010836 0.000000 0.000000 0.000000
# 2 -0.019732 0.014157 -0.005718 0.000000 0.000000 0.000000
# 3 -0.010836 -0.005718 0.011397 0.000000 0.000000 0.000000
# 4 0.000000 0.000000 0.000000 0.114923 0.000000 0.000000
# 5 0.000000 0.000000 0.000000 0.000000 -0.127420 0.000000
# 6 0.000000 0.000000 0.000000 0.000000 0.000000 0.049144
#
#
# Mechanical properties :
#
#
# Convention : Reuss Voigt Hill
#
# Bulk Modulus (GPa) = 7.07055 57.50607 32.28831
# Shear Modulus (GPa) = 13.50021 15.25096 14.37559
#
# Velocity S-wave (km/s) = 2.92240 3.10612 3.01566
# Velocity P-wave (km/s) = 3.98248 7.01735 5.70541
#
# Compressibility (1/GPa) = 0.14143173
#
# Stress axis : x y z
#
# Youngs Moduli (GPa) = 5.30650 70.63554 87.73960
#
# Poissons Ratio (x) = 1.39376 0.95075
# Poissons Ratio (y) = 0.10471 0.50167
# Poissons Ratio (z) = 0.05750 0.40387
#
# Static dielectric constant tensor:
#      x y z
#    x 1.551110 0.000000 0.000000 
#    y 0.000000 1.518560 0.000000 
#    z 0.000000 0.000000 1.533770 
# 
# From -- ./inp_files/16214.got.cif
#   From: 2010.05.17/outbox.cif.g08.bks.cpg/sg35_9_cif.got.tgz:16214.got - 2010.06.03 17:29:28.
