data_PCOD9348189
_publ_section_title
;
Structure prediction by ZEFSAII (Michael W. Deem and Ramdas Pophale) SiO2 
 PCOD9348189
Probable space group: C M M 2
;
_chemical_formula_sum "Si O2"
_cell_formula_units_Z 48
_cell_length_a 7.369956
_cell_length_b 18.983430
_cell_length_c 16.235946
_cell_angle_alpha 90.000000
_cell_angle_beta 90.000000
_cell_angle_gamma 90.000000
_cell_volume 2271.523209
_symmetry_space_group_name_H-M "C M M 2"
_symmetry_group_IT_number 35
_symmetry_cell_setting 'orthorhombic'
loop_
_space_group_symop_operation_xyz
x,y,z
-x,-y,z
-x,y,z
x,-y,z
1/2+x,1/2+y,z
1/2-x,1/2-y,z
1/2-x,1/2+y,z
1/2+x,1/2-y,z
loop_
_atom_site_type_symbol
_atom_site_label
_atom_site_fract_x
_atom_site_fract_y
_atom_site_fract_z
Si Si1 0.222059 0.918510 0.506050
Si Si2 0.716677 0.667257 0.164513
Si Si3 0.721162 0.581934 0.824442
Si Si4 0.216884 0.166924 0.347289
Si Si5 0.216635 0.833095 0.666222
Si Si6 0.779171 0.918227 0.007591
O O1 0.283925 0.880279 0.422464
O O2 0.283131 0.874239 0.585470
O O3 0.000000 0.917521 0.505786
O O4 0.276579 0.000000 0.510375
O O5 0.500000 0.655840 0.166588
O O6 0.750000 0.750000 0.153600
O O7 0.786780 0.648279 0.255830
O O8 0.787300 0.625509 0.085634
O O9 0.500000 0.582763 0.824447
O O10 0.773238 0.500000 0.812063
O O11 0.784919 0.631034 0.750262
O O12 0.779082 0.605002 0.916110
O O13 0.250000 0.250000 0.361808
O O14 0.000000 0.157923 0.344897
O O15 0.250000 0.750000 0.662274
O O16 0.000000 0.842639 0.666806
O O17 0.000000 0.914833 0.007629
O O18 0.729905 0.000000 0.016543
#
# Coordination Sequence:
#
# PCOD9348189 Si02
#       6
#     8   8   8   8   8   8
#     4   9  17  29  46  67  87 109 142 181 214 246
#     4   9  17  28  43  64  88 114 142 173 212 254
#     4   8  14  26  44  64  85 111 144 179 212 247
#     4   9  17  29  45  64  87 114 142 174 212 253
#     4  10  19  30  46  67  89 113 141 174 212 254
#     4   8  14  25  42  64  87 110 141 181 216 245
#
# _framework density 21.131195999999999
#
# number of rings (size 3 to 8) (size 9 to 14) (size 15 to 20)
#    0.000    3.167    0.000    2.000    0.000    3.333 
#    0.000    3.333    0.000    4.000    0.000    7.000 
#    0.000    0.000    0.000    0.000    0.000    0.000 
#
# Total GULP energy -133938.140732 kJ/mol
# GULP energy per Si atom -5580.755864 kJ/mol
# Density = 2.108310 g / cm^3
# Si number density = 21.131196 Si / 1000 Ang^3
#
#
#
# Elastic Constant Matrix: (Units=GPa)
#
#
# Indices 1 2 3 4 5 6 
#
# 1 77.1251 -0.8351 12.1928 0.0000 0.0000 0.0000
# 2 -0.8351 138.4880 156.0821 0.0000 0.0000 0.0000
# 3 12.1928 156.0821 278.8649 0.0000 0.0000 0.0000
# 4 0.0000 0.0000 0.0000 50.8074 0.0000 0.0000
# 5 0.0000 0.0000 0.0000 0.0000 5.5572 0.0000
# 6 0.0000 0.0000 0.0000 0.0000 0.0000 16.3888
#
#
#
# Elastic Compliance Matrix: (Units=1/GPa)
#
#
# Indices 1 2 3 4 5 6 
#
# 1 0.013255 0.001986 -0.001691 0.000000 0.000000 0.000000
# 2 0.001986 0.019856 -0.011200 0.000000 0.000000 0.000000
# 3 -0.001691 -0.011200 0.009929 0.000000 0.000000 0.000000
# 4 0.000000 0.000000 0.000000 0.019682 0.000000 0.000000
# 5 0.000000 0.000000 0.000000 0.000000 0.179946 0.000000
# 6 0.000000 0.000000 0.000000 0.000000 0.000000 0.061017
#
#
# Mechanical properties :
#
#
# Convention : Reuss Voigt Hill
#
# Bulk Modulus (GPa) = 47.10661 92.15083 69.62872
# Shear Modulus (GPa) = 15.03430 36.35323 25.69376
#
# Velocity S-wave (km/s) = 2.67024 4.15222 3.49078
# Velocity P-wave (km/s) = 5.64338 8.16649 7.01923
#
# Compressibility (1/GPa) = 0.02122845
#
# Stress axis : x y z
#
# Youngs Moduli (GPa) = 75.44457 50.36209 100.71671
#
# Poissons Ratio (x) = -0.10000 0.17031
# Poissons Ratio (y) = -0.14981 1.12807
# Poissons Ratio (z) = 0.12757 0.56408
#
# Static dielectric constant tensor:
#      x y z
#    x 1.822070 0.000000 0.000000 
#    y 0.000000 1.691970 0.000000 
#    z 0.000000 0.000000 1.767860 
# 
# From -- ./inp_files/13485.got.cif
#   From: 2010.05.17/outbox.cif.g08.bks.cpg/sg35_7_cif.got.tgz:13485.got - 2010.06.03 17:29:28.
