data_PCOD9348384
_publ_section_title
;
Structure prediction by ZEFSAII (Michael W. Deem and Ramdas Pophale) SiO2 
 PCOD9348384
Probable space group: C M M 2
;
_chemical_formula_sum "Si O2"
_cell_formula_units_Z 56
_cell_length_a 7.986727
_cell_length_b 19.343829
_cell_length_c 18.752989
_cell_angle_alpha 90.000000
_cell_angle_beta 90.000000
_cell_angle_gamma 90.000000
_cell_volume 2897.222058
_symmetry_space_group_name_H-M "C M M 2"
_symmetry_group_IT_number 35
_symmetry_cell_setting 'orthorhombic'
loop_
_space_group_symop_operation_xyz
x,y,z
-x,-y,z
-x,y,z
x,-y,z
1/2+x,1/2+y,z
1/2-x,1/2-y,z
1/2-x,1/2+y,z
1/2+x,1/2-y,z
loop_
_atom_site_type_symbol
_atom_site_label
_atom_site_fract_x
_atom_site_fract_y
_atom_site_fract_z
Si Si1 0.702175 0.328397 0.201760
Si Si2 0.200462 0.330518 0.937982
Si Si3 0.701565 0.169256 0.782379
Si Si4 0.299075 0.921680 0.494737
Si Si5 0.297397 0.169458 0.626723
Si Si6 0.799977 0.828378 0.363370
Si Si7 0.701041 0.578207 0.072473
O O1 0.500000 0.332027 0.203075
O O2 0.750000 0.250000 0.182463
O O3 0.762757 0.341675 0.282597
O O4 0.765205 0.381444 0.142364
O O5 0.250000 0.250000 0.946988
O O6 0.262163 0.356228 0.859727
O O7 0.000000 0.333034 0.937658
O O8 0.262453 0.377094 0.002481
O O9 0.500000 0.162941 0.782563
O O10 0.750000 0.250000 0.782123
O O11 0.761119 0.143348 0.705042
O O12 0.500000 0.925051 0.502424
O O13 0.234306 0.876606 0.561386
O O14 0.262981 0.881965 0.421579
O O15 0.233851 0.000000 0.494389
O O16 0.500000 0.166863 0.626755
O O17 0.250000 0.250000 0.618099
O O18 0.750000 0.750000 0.382798
O O19 0.000000 0.831850 0.362155
O O20 0.500000 0.574546 0.079483
O O21 0.766079 0.500000 0.067220
#
# Coordination Sequence:
#
# PCOD9348384 Si02
#       7
#     8   8   8   8   8   8   8
#     4   9  19  35  55  77  99 127 164 205 248 296
#     4  10  19  32  52  77 103 131 167 209 251 296
#     4   8  15  28  47  72  98 125 161 205 249 292
#     4  10  21  35  50  72 104 138 170 205 247 295
#     4   9  17  31  51  73  97 128 166 206 249 295
#     4  10  20  35  56  79 102 129 164 206 250 297
#     4  10  21  36  52  72 102 137 169 203 247 297
#
# _framework density 19.328861
#
# number of rings (size 3 to 8) (size 9 to 14) (size 15 to 20)
#    0.000    2.571    0.000    1.714    0.000    5.714 
#    0.000    2.143    0.000    2.571    0.000    0.000 
#    0.000    0.000    0.000    0.000    0.000    0.000 
#
# Total GULP energy -156119.119754 kJ/mol
# GULP energy per Si atom -5575.682848 kJ/mol
# Density = 1.928487 g / cm^3
# Si number density = 19.328861 Si / 1000 Ang^3
#
#
#
# Elastic Constant Matrix: (Units=GPa)
#
#
# Indices 1 2 3 4 5 6 
#
# 1 16.8850 6.0683 7.6317 0.0000 0.0000 0.0000
# 2 6.0683 130.6113 118.0781 0.0000 0.0000 0.0000
# 3 7.6317 118.0781 173.9017 0.0000 0.0000 0.0000
# 4 0.0000 0.0000 0.0000 -4.4974 0.0000 0.0000
# 5 0.0000 0.0000 0.0000 0.0000 -0.6401 0.0000
# 6 0.0000 0.0000 0.0000 0.0000 0.0000 17.6770
#
#
#
# Elastic Compliance Matrix: (Units=1/GPa)
#
#
# Indices 1 2 3 4 5 6 
#
# 1 0.060480 -0.001063 -0.001932 0.000000 0.000000 0.000000
# 2 -0.001063 0.019845 -0.013428 0.000000 0.000000 0.000000
# 3 -0.001932 -0.013428 0.014953 0.000000 0.000000 0.000000
# 4 0.000000 0.000000 0.000000 -0.222352 0.000000 0.000000
# 5 0.000000 0.000000 0.000000 0.000000 -1.562175 0.000000
# 6 0.000000 0.000000 0.000000 0.000000 0.000000 0.056571
#
#
# Mechanical properties :
#
#
# Convention : Reuss Voigt Hill
#
# Bulk Modulus (GPa) = 16.01777 64.99489 40.50633
# Shear Modulus (GPa) = -3.16652 15.14923 5.99136
#
# Velocity S-wave (km/s) = -1.28132 2.80261 1.76251
# Velocity P-wave (km/s) = 2.47304 6.64618 5.01436
#
# Compressibility (1/GPa) = 0.06243065
#
# Stress axis : x y z
#
# Youngs Moduli (GPa) = 16.53451 50.38961 66.87692
#
# Poissons Ratio (x) = 0.05356 0.12923
# Poissons Ratio (y) = 0.01757 0.89804
# Poissons Ratio (z) = 0.03195 0.67664
#
# Static dielectric constant tensor:
#      x y z
#    x 1.695320 0.000000 0.000000 
#    y 0.000000 1.630230 0.000000 
#    z 0.000000 0.000000 1.717110 
# 
# From -- ./inp_files/18229.got.cif
#   From: 2010.05.17/outbox.cif.g08.bks.cpg/sg35_10_cif.got.tgz:18229.got - 2010.06.03 17:29:28.
