data_PCOD9348779
_publ_section_title
;
Structure prediction by ZEFSAII (Michael W. Deem and Ramdas Pophale) SiO2 
 PCOD9348779
Probable space group: C M M 2
;
_chemical_formula_sum "Si O2"
_cell_formula_units_Z 64
_cell_length_a 9.206236
_cell_length_b 29.460831
_cell_length_c 12.486214
_cell_angle_alpha 90.000000
_cell_angle_beta 90.000000
_cell_angle_gamma 90.000000
_cell_volume 3386.552951
_symmetry_space_group_name_H-M "C M M 2"
_symmetry_group_IT_number 35
_symmetry_cell_setting 'orthorhombic'
loop_
_space_group_symop_operation_xyz
x,y,z
-x,-y,z
-x,y,z
x,-y,z
1/2+x,1/2+y,z
1/2-x,1/2-y,z
1/2-x,1/2+y,z
1/2+x,1/2-y,z
loop_
_atom_site_type_symbol
_atom_site_label
_atom_site_fract_x
_atom_site_fract_y
_atom_site_fract_z
Si Si1 0.329265 0.637858 0.728670
Si Si2 0.832548 0.208268 0.543918
Si Si3 0.673793 0.200774 0.903349
Si Si4 0.826526 0.357894 0.117004
Si Si5 0.673379 0.948355 0.644957
Si Si6 0.833302 0.568353 0.399249
Si Si7 0.165489 0.674317 0.345953
Si Si8 0.173652 0.949380 0.179773
O O1 0.500000 0.635398 0.756197
O O2 0.316020 0.663453 0.614738
O O3 0.243709 0.669184 0.812114
O O4 0.258964 0.588625 0.713302
O O5 0.750000 0.250000 0.598272
O O6 0.766054 0.200683 0.427365
O O7 0.000000 0.219830 0.537225
O O8 0.500000 0.206055 0.887641
O O9 0.750000 0.250000 0.905673
O O10 0.697803 0.172927 0.013630
O O11 0.782685 0.330211 0.223908
O O12 0.746900 0.406606 0.119929
O O13 0.000000 0.366575 0.127786
O O14 0.500000 0.939030 0.650228
O O15 0.713802 0.944702 0.518742
O O16 0.698870 0.000000 0.680079
O O17 0.836833 0.622688 0.388937
O O18 0.733612 0.552187 0.301778
O O19 0.000000 0.552478 0.383752
O O20 0.000000 0.691823 0.348012
O O21 0.000000 0.943864 0.179735
O O22 0.208188 0.000000 0.136637
#
# Coordination Sequence:
#
# PCOD9348779 Si02
#       8
#     8   8   8   8   8   8   8   8
#     4  11  24  41  61  87 120 155 197 247 299 352
#     4  11  23  36  54  82 115 152 191 233 287 350
#     4  11  24  44  69  92 115 147 196 250 303 360
#     4   9  21  40  61  87 116 151 195 243 293 351
#     4  10  20  35  58  87 119 159 203 244 293 352
#     4   9  17  31  53  80 115 160 202 239 283 341
#     4   9  17  33  56  82 116 152 187 232 286 341
#     4  10  20  32  51  84 123 161 200 242 289 342
#
# _framework density 18.898273
#
# number of rings (size 3 to 8) (size 9 to 14) (size 15 to 20)
#    0.000    2.000    1.250    3.000    0.000    8.250 
#    0.000    1.875    0.000    0.750    0.000    0.000 
#    0.000    0.000    0.000    0.000    0.000    0.000 
#
# Total GULP energy -178620.191950 kJ/mol
# GULP energy per Si atom -5581.880998 kJ/mol
# Density = 1.885526 g / cm^3
# Si number density = 18.898273 Si / 1000 Ang^3
#
#
#
# Elastic Constant Matrix: (Units=GPa)
#
#
# Indices 1 2 3 4 5 6 
#
# 1 96.2094 71.0076 57.6289 0.0000 0.0000 0.0000
# 2 71.0076 130.4845 53.3052 0.0000 0.0000 0.0000
# 3 57.6289 53.3052 83.8493 0.0000 0.0000 0.0000
# 4 0.0000 0.0000 0.0000 14.0167 0.0000 0.0000
# 5 0.0000 0.0000 0.0000 0.0000 16.1052 0.0000
# 6 0.0000 0.0000 0.0000 0.0000 0.0000 19.7880
#
#
#
# Elastic Compliance Matrix: (Units=1/GPa)
#
#
# Indices 1 2 3 4 5 6 
#
# 1 0.022537 -0.008019 -0.010392 0.000000 0.000000 0.000000
# 2 -0.008019 0.013206 -0.002884 0.000000 0.000000 0.000000
# 3 -0.010392 -0.002884 0.020901 0.000000 0.000000 0.000000
# 4 0.000000 0.000000 0.000000 0.071343 0.000000 0.000000
# 5 0.000000 0.000000 0.000000 0.000000 0.062092 0.000000
# 6 0.000000 0.000000 0.000000 0.000000 0.000000 0.050536
#
#
# Mechanical properties :
#
#
# Convention : Reuss Voigt Hill
#
# Bulk Modulus (GPa) = 71.14725 74.93629 73.04177
# Shear Modulus (GPa) = 17.36781 18.55541 17.96161
#
# Velocity S-wave (km/s) = 3.03482 3.13686 3.08626
# Velocity P-wave (km/s) = 7.07173 7.27038 7.17174
#
# Compressibility (1/GPa) = 0.01405536
#
# Stress axis : x y z
#
# Youngs Moduli (GPa) = 44.37142 75.72491 47.84369
#
# Poissons Ratio (x) = 0.60725 0.49717
# Poissons Ratio (y) = 0.35582 0.13797
# Poissons Ratio (z) = 0.46109 0.21837
#
# Static dielectric constant tensor:
#      x y z
#    x 1.640310 0.000000 0.000000 
#    y 0.000000 1.671070 0.000000 
#    z 0.000000 0.000000 1.650850 
# 
# From -- ./inp_files/12009.got.cif
#   From: 2010.05.17/outbox.cif.g08.bks.cpg/sg35_7_cif.got.tgz:12009.got - 2010.06.03 17:29:28.
