data_PCOD9348401
_publ_section_title
;
Structure prediction by ZEFSAII (Michael W. Deem and Ramdas Pophale) SiO2 
 PCOD9348401
Probable space group: C M M 2
;
_chemical_formula_sum "Si O2"
_cell_formula_units_Z 48
_cell_length_a 7.947897
_cell_length_b 24.427518
_cell_length_c 10.189545
_cell_angle_alpha 90.000000
_cell_angle_beta 90.000000
_cell_angle_gamma 90.000000
_cell_volume 1978.273639
_symmetry_space_group_name_H-M "C M M 2"
_symmetry_group_IT_number 35
_symmetry_cell_setting 'orthorhombic'
loop_
_space_group_symop_operation_xyz
x,y,z
-x,-y,z
-x,y,z
x,-y,z
1/2+x,1/2+y,z
1/2-x,1/2-y,z
1/2-x,1/2+y,z
1/2+x,1/2-y,z
loop_
_atom_site_type_symbol
_atom_site_label
_atom_site_fract_x
_atom_site_fract_y
_atom_site_fract_z
Si Si1 0.313301 0.188677 0.786180
Si Si2 0.201034 0.440150 0.424083
Si Si3 0.198690 0.305985 0.223366
Si Si4 0.206025 0.561331 0.836670
Si Si5 0.796968 0.580162 0.127724
Si Si6 0.187169 0.828288 0.516433
O O1 0.500000 0.184345 0.843244
O O2 0.250000 0.250000 0.828205
O O3 0.239689 0.125364 0.803220
O O4 0.311485 0.192248 0.627251
O O5 0.226031 0.500000 0.478497
O O6 0.256406 0.440276 0.271385
O O7 0.292712 0.393499 0.502958
O O8 0.000000 0.427772 0.425518
O O9 0.250000 0.250000 0.159236
O O10 0.250205 0.356343 0.134714
O O11 0.279512 0.309245 0.367819
O O12 0.000000 0.309525 0.243780
O O13 0.255658 0.500000 0.781259
O O14 0.000000 0.562540 0.821803
O O15 0.257494 0.557441 0.989860
O O16 0.000000 0.573653 0.128025
O O17 0.000000 0.813108 0.557295
#
# Coordination Sequence:
#
# PCOD9348401 Si02
#       6
#     8   8   8   8   8   8
#     4  11  23  39  59  83 112 148 191 239 289 342
#     4   9  17  31  54  83 114 147 183 225 274 333
#     4  10  19  32  52  80 112 144 179 222 274 334
#     4   9  18  34  58  86 113 145 189 237 281 330
#     4   8  15  29  51  80 111 142 178 221 271 327
#     4  11  22  36  54  77 108 145 186 234 285 337
#
# _framework density 24.263579
#
# number of rings (size 3 to 8) (size 9 to 14) (size 15 to 20)
#    0.000    2.333    0.000    4.500    0.000    3.667 
#    0.000    1.667    0.000   10.500    0.000    0.000 
#    0.000    0.000    0.000    0.000    0.000    0.000 
#
# Total GULP energy -133705.701354 kJ/mol
# GULP energy per Si atom -5571.070890 kJ/mol
# Density = 2.420835 g / cm^3
# Si number density = 24.263579 Si / 1000 Ang^3
#
#
#
# Elastic Constant Matrix: (Units=GPa)
#
#
# Indices 1 2 3 4 5 6 
#
# 1 33.0656 28.9539 -2.3717 0.0000 0.0000 0.0000
# 2 28.9539 228.1813 27.8969 0.0000 0.0000 0.0000
# 3 -2.3717 27.8969 85.4895 0.0000 0.0000 0.0000
# 4 0.0000 0.0000 0.0000 -2.3090 0.0000 0.0000
# 5 0.0000 0.0000 0.0000 0.0000 2.9329 0.0000
# 6 0.0000 0.0000 0.0000 0.0000 0.0000 23.4530
#
#
#
# Elastic Compliance Matrix: (Units=1/GPa)
#
#
# Indices 1 2 3 4 5 6 
#
# 1 0.034523 -0.004685 0.002486 0.000000 0.000000 0.000000
# 2 -0.004685 0.005200 -0.001827 0.000000 0.000000 0.000000
# 3 0.002486 -0.001827 0.012362 0.000000 0.000000 0.000000
# 4 0.000000 0.000000 0.000000 -0.433084 0.000000 0.000000
# 5 0.000000 0.000000 0.000000 0.000000 0.340958 0.000000
# 6 0.000000 0.000000 0.000000 0.000000 0.000000 0.042638
#
#
# Mechanical properties :
#
#
# Convention : Reuss Voigt Hill
#
# Bulk Modulus (GPa) = 22.70870 50.63272 36.67071
# Shear Modulus (GPa) = 197.41858 24.29920 110.85889
#
# Velocity S-wave (km/s) = 9.02999 3.16803 6.76673
# Velocity P-wave (km/s) = 10.86741 5.85619 8.72913
#
# Compressibility (1/GPa) = 0.04403599
#
# Stress axis : x y z
#
# Youngs Moduli (GPa) = 28.96584 192.29766 80.88989
#
# Poissons Ratio (x) = 0.90085 -0.20113
# Poissons Ratio (y) = 0.13570 0.14778
# Poissons Ratio (z) = -0.07202 0.35131
#
# Static dielectric constant tensor:
#      x y z
#    x 1.951690 0.000000 0.000000 
#    y 0.000000 2.052670 0.000000 
#    z 0.000000 0.000000 1.895120 
# 
# From -- ./inp_files/11473.got.cif
#   From: 2010.05.17/outbox.cif.g08.bks.cpg/sg35_6_cif.got.tgz:11473.got - 2010.06.03 17:29:28.
