data_PCOD9348303
_publ_section_title
;
Structure prediction by ZEFSAII (Michael W. Deem and Ramdas Pophale) SiO2 
 PCOD9348303
Probable space group: C M M 2
;
_chemical_formula_sum "Si O2"
_cell_formula_units_Z 64
_cell_length_a 29.269961
_cell_length_b 8.661509
_cell_length_c 16.099667
_cell_angle_alpha 90.000000
_cell_angle_beta 90.000000
_cell_angle_gamma 90.000000
_cell_volume 4081.620270
_symmetry_space_group_name_H-M "C M M 2"
_symmetry_group_IT_number 35
_symmetry_cell_setting 'orthorhombic'
loop_
_space_group_symop_operation_xyz
x,y,z
-x,-y,z
-x,y,z
x,-y,z
1/2+x,1/2+y,z
1/2-x,1/2-y,z
1/2-x,1/2+y,z
1/2+x,1/2-y,z
loop_
_atom_site_type_symbol
_atom_site_label
_atom_site_fract_x
_atom_site_fract_y
_atom_site_fract_z
Si Si1 0.551543 0.814033 0.561050
Si Si2 0.643688 0.684867 0.821309
Si Si3 0.801410 0.813703 0.332294
Si Si4 0.552151 0.813884 0.754863
Si Si5 0.198931 0.813693 0.655841
Si Si6 0.698411 0.685177 0.148984
Si Si7 0.301596 0.816174 0.976733
Si Si8 0.642765 0.313638 0.492871
O O1 0.500000 0.766149 0.537915
O O2 0.558902 0.769354 0.657844
O O3 0.591632 0.745462 0.505946
O O4 0.553318 0.000000 0.557974
O O5 0.646093 0.500000 0.827603
O O6 0.591633 0.737755 0.808790
O O7 0.671170 0.733525 0.738056
O O8 0.667871 0.758788 0.900698
O O9 0.750000 0.750000 0.341361
O O10 0.820244 0.773150 0.240343
O O11 0.832976 0.761126 0.408163
O O12 0.798412 0.000000 0.335230
O O13 0.500000 0.772216 0.777543
O O14 0.555870 0.000000 0.759476
O O15 0.250000 0.750000 0.657654
O O16 0.172495 0.762575 0.572734
O O17 0.200675 0.000000 0.654885
O O18 0.699134 0.500000 0.141189
O O19 0.750000 0.750000 0.151111
O O20 0.678610 0.756532 0.064885
O O21 0.250000 0.750000 0.967474
O O22 0.298665 0.000000 0.977947
O O23 0.642218 0.500000 0.492878
#
# Coordination Sequence:
#
# PCOD9348303 Si02
#       8
#     8   8   8   8   8   8   8   8
#     4   9  18  32  49  69  92 121 159 200 240 280
#     4  11  21  33  48  70  96 127 163 198 235 281
#     4   9  18  30  47  69  97 127 159 196 235 279
#     4   9  18  33  51  70  93 122 158 201 245 285
#     4  10  21  32  43  62  92 128 162 192 223 266
#     4   9  16  29  47  68  92 122 156 197 240 280
#     4  11  21  33  49  70  96 128 161 199 240 284
#     4  10  19  32  46  68  96 125 160 196 234 278
#
# _framework density 15.680047
#
# number of rings (size 3 to 8) (size 9 to 14) (size 15 to 20)
#    0.000    2.250    1.250    4.125    0.000    4.000 
#    0.000    1.250    0.000    0.000    0.000    0.875 
#    0.000    5.000    0.000    0.000    0.000    0.000 
#
# Total GULP energy -178439.679403 kJ/mol
# GULP energy per Si atom -5576.239981 kJ/mol
# Density = 1.564436 g / cm^3
# Si number density = 15.680047 Si / 1000 Ang^3
#
#
#
# Elastic Constant Matrix: (Units=GPa)
#
#
# Indices 1 2 3 4 5 6 
#
# 1 107.4949 29.6952 73.4866 0.0000 0.0000 0.0000
# 2 29.6952 40.8174 43.2893 0.0000 0.0000 0.0000
# 3 73.4866 43.2893 153.6277 0.0000 0.0000 0.0000
# 4 0.0000 0.0000 0.0000 7.7883 0.0000 0.0000
# 5 0.0000 0.0000 0.0000 0.0000 9.0495 0.0000
# 6 0.0000 0.0000 0.0000 0.0000 0.0000 26.2316
#
#
#
# Elastic Compliance Matrix: (Units=1/GPa)
#
#
# Indices 1 2 3 4 5 6 
#
# 1 0.014384 -0.004517 -0.005608 0.000000 0.000000 0.000000
# 2 -0.004517 0.036360 -0.008085 0.000000 0.000000 0.000000
# 3 -0.005608 -0.008085 0.011470 0.000000 0.000000 0.000000
# 4 0.000000 0.000000 0.000000 0.128397 0.000000 0.000000
# 5 0.000000 0.000000 0.000000 0.000000 0.110504 0.000000
# 6 0.000000 0.000000 0.000000 0.000000 0.000000 0.038122
#
#
# Mechanical properties :
#
#
# Convention : Reuss Voigt Hill
#
# Bulk Modulus (GPa) = 38.76792 66.09804 52.43298
# Shear Modulus (GPa) = 13.01220 18.97847 15.99533
#
# Velocity S-wave (km/s) = 2.88385 3.48279 3.19738
# Velocity P-wave (km/s) = 5.98889 7.64322 6.86607
#
# Compressibility (1/GPa) = 0.02579452
#
# Stress axis : x y z
#
# Youngs Moduli (GPa) = 69.52042 27.50259 87.18595
#
# Poissons Ratio (x) = 0.12424 0.48891
# Poissons Ratio (y) = 0.31406 0.70487
# Poissons Ratio (z) = 0.38985 0.22235
#
# Static dielectric constant tensor:
#      x y z
#    x 1.487730 0.000000 0.000000 
#    y 0.000000 1.527630 0.000000 
#    z 0.000000 0.000000 1.543590 
# 
# From -- ./inp_files/16258.got.cif
#   From: 2010.05.17/outbox.cif.g08.bks.cpg/sg35_9_cif.got.tgz:16258.got - 2010.06.03 17:29:28.
