data_PCOD9348038
_publ_section_title
;
Structure prediction by ZEFSAII (Michael W. Deem and Ramdas Pophale) SiO2 
 PCOD9348038
Probable space group: P N N 2
;
_chemical_formula_sum "Si O2"
_cell_formula_units_Z 16
_cell_length_a 8.009826
_cell_length_b 15.745439
_cell_length_c 4.824293
_cell_angle_alpha 90.000000
_cell_angle_beta 90.000000
_cell_angle_gamma 90.000000
_cell_volume 608.431278
_symmetry_space_group_name_H-M "P N N 2"
_symmetry_group_IT_number 34
_symmetry_cell_setting 'orthorhombic'
loop_
_space_group_symop_operation_xyz
x,y,z
-x,-y,z
1/2-x,1/2+y,1/2+z
1/2+x,1/2-y,1/2+z
loop_
_atom_site_type_symbol
_atom_site_label
_atom_site_fract_x
_atom_site_fract_y
_atom_site_fract_z
Si Si1 0.314580 0.513850 0.008850
Si Si2 0.134622 0.575422 0.481397
Si Si3 0.008433 0.751831 0.217788
Si Si4 0.825192 0.174734 0.679538
O O1 0.500000 0.500000 0.896140
O O2 0.301418 0.560415 0.302260
O O3 0.262036 0.418456 0.099063
O O4 0.192725 0.562612 0.798159
O O5 0.057418 0.661675 0.360255
O O6 0.000000 0.500000 0.436400
O O7 0.015575 0.811532 0.484315
O O8 0.826009 0.737053 0.094795
O O9 0.125765 0.796117 0.988382
#
# Coordination Sequence:
#
# PCOD9348038 Si02
#       4
#     4   4   4   4
#     4  12  28  48  77 111 151 196 259 317 374 452
#     4  12  26  50  77 105 147 203 255 310 377 457
#     4  12  28  48  74 110 152 202 249 316 386 457
#     4  12  28  49  74 112 154 200 255 312 385 460
#
# _framework density 26.297132999999999
#
# number of rings (size 3 to 8) (size 9 to 14) (size 15 to 20)
#    0.000    0.000    2.500    6.000   14.000    0.000 
#    0.000    0.000    0.000    0.000    0.000    0.000 
#    0.000    0.000    0.000    0.000    0.000    0.000 
#
# Total GULP energy -89469.162053 kJ/mol
# GULP energy per Si atom -5591.822628 kJ/mol
# Density = 2.623728 g / cm^3
# Si number density = 26.297133 Si / 1000 Ang^3
#
#
#
# Elastic Constant Matrix: (Units=GPa)
#
#
# Indices 1 2 3 4 5 6 
#
# 1 72.9780 5.7160 10.8716 0.0000 0.0000 0.0000
# 2 5.7160 90.4775 37.5378 0.0000 0.0000 0.0000
# 3 10.8716 37.5378 139.2872 0.0000 0.0000 0.0000
# 4 0.0000 0.0000 0.0000 44.3258 0.0000 0.0000
# 5 0.0000 0.0000 0.0000 0.0000 46.7205 0.0000
# 6 0.0000 0.0000 0.0000 0.0000 0.0000 32.6607
#
#
#
# Elastic Compliance Matrix: (Units=1/GPa)
#
#
# Indices 1 2 3 4 5 6 
#
# 1 0.013883 -0.000481 -0.000954 0.000000 0.000000 0.000000
# 2 -0.000481 0.012461 -0.003321 0.000000 0.000000 0.000000
# 3 -0.000954 -0.003321 0.008149 0.000000 0.000000 0.000000
# 4 0.000000 0.000000 0.000000 0.022560 0.000000 0.000000
# 5 0.000000 0.000000 0.000000 0.000000 0.021404 0.000000
# 6 0.000000 0.000000 0.000000 0.000000 0.000000 0.030618
#
#
# Mechanical properties :
#
#
# Convention : Reuss Voigt Hill
#
# Bulk Modulus (GPa) = 40.03132 45.66594 42.84863
# Shear Modulus (GPa) = 39.39742 41.31591 40.35667
#
# Velocity S-wave (km/s) = 3.87481 3.96803 3.92170
# Velocity P-wave (km/s) = 5.93924 6.19651 6.06924
#
# Compressibility (1/GPa) = 0.02498044
#
# Stress axis : x y z
#
# Youngs Moduli (GPa) = 72.03284 80.25347 122.71839
#
# Poissons Ratio (x) = 0.03863 0.11705
# Poissons Ratio (y) = 0.03467 0.40749
# Poissons Ratio (z) = 0.06871 0.26648
#
# Static dielectric constant tensor:
#      x y z
#    x 2.043640 0.000000 0.000000 
#    y 0.000000 2.311970 0.000000 
#    z 0.000000 0.000000 1.923760 
# 
# From -- ./inp_files/326.got.cif
#   From: 2010.05.17/outbox.cif.g08.bks.cpg/sg34_1_cif.got.tgz:326.got - 2010.06.03 17:23:11.
