data_PCOD9348905
_publ_section_title
;
Structure prediction by ZEFSAII (Michael W. Deem and Ramdas Pophale) SiO2 
 PCOD9348905
Probable space group: C M M 2
;
_chemical_formula_sum "Si O2"
_cell_formula_units_Z 52
_cell_length_a 22.136241
_cell_length_b 14.191334
_cell_length_c 8.968796
_cell_angle_alpha 90.000000
_cell_angle_beta 90.000000
_cell_angle_gamma 90.000000
_cell_volume 2817.482594
_symmetry_space_group_name_H-M "C M M 2"
_symmetry_group_IT_number 35
_symmetry_cell_setting 'orthorhombic'
loop_
_space_group_symop_operation_xyz
x,y,z
-x,-y,z
-x,y,z
x,-y,z
1/2+x,1/2+y,z
1/2-x,1/2-y,z
1/2-x,1/2+y,z
1/2+x,1/2-y,z
loop_
_atom_site_type_symbol
_atom_site_label
_atom_site_fract_x
_atom_site_fract_y
_atom_site_fract_z
Si Si1 0.644066 0.756841 0.021850
Si Si2 0.712242 0.887807 0.787984
Si Si3 0.571157 0.608253 0.482357
Si Si4 0.929801 0.294920 0.297418
Si Si5 0.250000 0.250000 0.243148
Si Si6 0.678895 0.888809 0.453912
Si Si7 0.144085 0.889167 0.784034
O O1 0.593291 0.799970 0.128174
O O2 0.695360 0.718979 0.135756
O O3 0.677856 0.832509 0.917408
O O4 0.618845 0.676068 0.914652
O O5 0.686872 0.860643 0.625865
O O6 0.784044 0.868801 0.783239
O O7 0.704606 0.000000 0.808190
O O8 0.500000 0.612238 0.525042
O O9 0.583692 0.500000 0.434372
O O10 0.580457 0.688148 0.358408
O O11 0.612923 0.629462 0.625147
O O12 0.887224 0.361593 0.395531
O O13 0.000000 0.316916 0.311902
O O14 0.274954 0.167695 0.348617
O O15 0.690048 0.000000 0.443012
O O16 0.135919 0.000000 0.814516
#
# Coordination Sequence:
#
# PCOD9348905 Si02
#       7
#     8   8   8   8   4   8   8
#     4  11  21  35  55  82 119 153 183 235 286 347
#     4  10  21  37  58  85 116 150 188 235 289 344
#     4   9  19  37  59  84 115 152 197 245 289 340
#     4  10  23  40  59  84 115 156 200 243 293 343
#     4  10  22  34  56  86 116 150 186 232 288 350
#     4  10  23  40  61  86 114 152 197 244 287 337
#     4  10  20  33  54  84 116 153 190 232 288 347
#
# _framework density 18.456191
#
# number of rings (size 3 to 8) (size 9 to 14) (size 15 to 20)
#    0.000    2.000    1.538    0.923    6.462    4.615 
#    0.000    0.769    0.000    0.923    0.000    0.000 
#    0.000    0.000    0.000    0.000    0.000    0.000 
#
# Total GULP energy -145164.605110 kJ/mol
# GULP energy per Si atom -5583.254043 kJ/mol
# Density = 1.841418 g / cm^3
# Si number density = 18.456191 Si / 1000 Ang^3
#
#
#
# Elastic Constant Matrix: (Units=GPa)
#
#
# Indices 1 2 3 4 5 6 
#
# 1 42.1796 22.3286 36.2140 0.0000 0.0000 0.0000
# 2 22.3286 58.8516 41.1534 0.0000 0.0000 0.0000
# 3 36.2140 41.1534 111.2651 0.0000 0.0000 0.0000
# 4 0.0000 0.0000 0.0000 -6.9304 0.0000 0.0000
# 5 0.0000 0.0000 0.0000 0.0000 24.4441 0.0000
# 6 0.0000 0.0000 0.0000 0.0000 0.0000 23.5798
#
#
#
# Elastic Compliance Matrix: (Units=1/GPa)
#
#
# Indices 1 2 3 4 5 6 
#
# 1 0.035010 -0.007169 -0.008743 0.000000 0.000000 0.000000
# 2 -0.007169 0.024388 -0.006687 0.000000 0.000000 0.000000
# 3 -0.008743 -0.006687 0.014307 0.000000 0.000000 0.000000
# 4 0.000000 0.000000 0.000000 -0.144292 0.000000 0.000000
# 5 0.000000 0.000000 0.000000 0.000000 0.040910 0.000000
# 6 0.000000 0.000000 0.000000 0.000000 0.000000 0.042409
#
#
# Mechanical properties :
#
#
# Convention : Reuss Voigt Hill
#
# Bulk Modulus (GPa) = 35.08048 45.74313 40.41181
# Shear Modulus (GPa) = 74.14947 15.72538 44.93743
#
# Velocity S-wave (km/s) = 6.34533 2.92214 4.93974
# Velocity P-wave (km/s) = 8.52836 6.01861 7.38094
#
# Compressibility (1/GPa) = 0.02850588
#
# Stress axis : x y z
#
# Youngs Moduli (GPa) = 28.56340 41.00398 69.89798
#
# Poissons Ratio (x) = 0.29396 0.61114
# Poissons Ratio (y) = 0.20477 0.46741
# Poissons Ratio (z) = 0.24974 0.27419
#
# Static dielectric constant tensor:
#      x y z
#    x 1.633530 0.000000 0.000000 
#    y 0.000000 1.641500 0.000000 
#    z 0.000000 0.000000 1.620840 
# 
# From -- ./inp_files/9840.got.cif
#   From: 2010.05.17/outbox.cif.g08.bks.cpg/sg35_5_cif.got.tgz:9840.got - 2010.06.03 17:29:28.
