data_PCOD9348698
_publ_section_title
;
Structure prediction by ZEFSAII (Michael W. Deem and Ramdas Pophale) SiO2 
 PCOD9348698
Probable space group: C M M 2
;
_chemical_formula_sum "Si O2"
_cell_formula_units_Z 58
_cell_length_a 8.780579
_cell_length_b 29.554232
_cell_length_c 12.775361
_cell_angle_alpha 90.000000
_cell_angle_beta 90.000000
_cell_angle_gamma 90.000000
_cell_volume 3315.247940
_symmetry_space_group_name_H-M "C M M 2"
_symmetry_group_IT_number 35
_symmetry_cell_setting 'orthorhombic'
loop_
_space_group_symop_operation_xyz
x,y,z
-x,-y,z
-x,y,z
x,-y,z
1/2+x,1/2+y,z
1/2-x,1/2-y,z
1/2-x,1/2+y,z
1/2+x,1/2-y,z
loop_
_atom_site_type_symbol
_atom_site_label
_atom_site_fract_x
_atom_site_fract_y
_atom_site_fract_z
Si Si1 0.818253 0.446919 0.250000
Si Si2 0.000000 0.000000 0.508963
Si Si3 0.317148 0.202027 0.033255
Si Si4 0.818215 0.894768 0.054960
Si Si5 0.316608 0.885635 0.665282
Si Si6 0.815636 0.447279 0.855744
Si Si7 0.182318 0.703501 0.787053
Si Si8 0.332555 0.589367 0.454755
O O1 0.778082 0.500000 0.264862
O O2 0.736177 0.427626 0.147745
O O3 0.763314 0.418534 0.350231
O O4 0.000000 0.443811 0.237168
O O5 0.870718 0.039772 0.500129
O O6 0.500000 0.202135 0.043973
O O7 0.250000 0.250000 0.072679
O O8 0.276764 0.199721 0.909427
O O9 0.248778 0.155350 0.076641
O O10 0.000000 0.892570 0.049490
O O11 0.753305 0.916075 0.947101
O O12 0.500000 0.886287 0.659360
O O13 0.271824 0.927086 0.742223
O O14 0.266082 0.840408 0.725034
O O15 0.250129 0.886151 0.549535
O O16 0.771331 0.500000 0.866755
O O17 0.000000 0.444613 0.864186
O O18 0.250000 0.750000 0.745272
O O19 0.000000 0.705344 0.782121
O O20 0.500000 0.609409 0.429279
#
# Coordination Sequence:
#
# PCOD9348698 Si02
#       8
#     8   2   8   8   8   8   8   8
#     4  11  22  38  60  81 106 145 192 235 277 331
#     4   8  20  36  54  76 114 144 178 236 280 314
#     4  10  19  36  58  82 112 144 185 231 276 330
#     4  12  24  36  54  81 113 148 185 228 282 334
#     4  10  20  35  55  80 110 146 185 226 273 329
#     4  10  21  36  52  74 110 152 188 224 273 331
#     4   9  18  33  55  79 109 142 181 227 272 322
#     4  10  20  36  54  79 110 142 181 230 274 323
#
# _framework density 17.494921000000001
#
# number of rings (size 3 to 8) (size 9 to 14) (size 15 to 20)
#    0.414    1.379    2.069    2.897    0.966    4.414 
#    0.000    0.000    0.000    0.828    0.000    3.862 
#    0.000    0.000    0.000    0.000    0.000    0.000 
#
# Total GULP energy -161436.095047 kJ/mol
# GULP energy per Si atom -5566.761898 kJ/mol
# Density = 1.745510 g / cm^3
# Si number density = 17.494921 Si / 1000 Ang^3
#
#
#
# Elastic Constant Matrix: (Units=GPa)
#
#
# Indices 1 2 3 4 5 6 
#
# 1 47.2856 25.9341 21.2844 0.0000 0.0000 0.0000
# 2 25.9341 76.0553 13.2727 0.0000 0.0000 0.0000
# 3 21.2844 13.2727 66.0578 0.0000 0.0000 0.0000
# 4 0.0000 0.0000 0.0000 14.6872 0.0000 0.0000
# 5 0.0000 0.0000 0.0000 0.0000 -1.7388 0.0000
# 6 0.0000 0.0000 0.0000 0.0000 0.0000 29.5521
#
#
#
# Elastic Compliance Matrix: (Units=1/GPa)
#
#
# Indices 1 2 3 4 5 6 
#
# 1 0.029380 -0.008670 -0.007724 0.000000 0.000000 0.000000
# 2 -0.008670 0.016185 -0.000458 0.000000 0.000000 0.000000
# 3 -0.007724 -0.000458 0.017719 0.000000 0.000000 0.000000
# 4 0.000000 0.000000 0.000000 0.068086 0.000000 0.000000
# 5 0.000000 0.000000 0.000000 0.000000 -0.575095 0.000000
# 6 0.000000 0.000000 0.000000 0.000000 0.000000 0.033839
#
#
# Mechanical properties :
#
#
# Convention : Reuss Voigt Hill
#
# Bulk Modulus (GPa) = 33.80878 34.48679 34.14779
# Shear Modulus (GPa) = -13.64929 17.09393 1.72232
#
# Velocity S-wave (km/s) = -2.79621 3.12922 0.99328
# Velocity P-wave (km/s) = 2.99029 5.72811 4.56908
#
# Compressibility (1/GPa) = 0.02957811
#
# Stress axis : x y z
#
# Youngs Moduli (GPa) = 34.03635 61.78632 56.43587
#
# Poissons Ratio (x) = 0.53571 0.43594
# Poissons Ratio (y) = 0.29511 0.02586
# Poissons Ratio (z) = 0.26291 0.02832
#
# Static dielectric constant tensor:
#      x y z
#    x 1.605950 0.000000 0.000000 
#    y 0.000000 1.601370 0.000000 
#    z 0.000000 0.000000 1.581060 
# 
# From -- ./inp_files/11795.got.cif
#   From: 2010.05.17/outbox.cif.g08.bks.cpg/sg35_6_cif.got.tgz:11795.got - 2010.06.03 17:29:28.
