data_PCOD9348469
_publ_section_title
;
Structure prediction by ZEFSAII (Michael W. Deem and Ramdas Pophale) SiO2 
 PCOD9348469
Probable space group: C M M 2
;
_chemical_formula_sum "Si O2"
_cell_formula_units_Z 58
_cell_length_a 14.454966
_cell_length_b 30.734881
_cell_length_c 5.224420
_cell_angle_alpha 90.000000
_cell_angle_beta 90.000000
_cell_angle_gamma 90.000000
_cell_volume 2321.061745
_symmetry_space_group_name_H-M "C M M 2"
_symmetry_group_IT_number 35
_symmetry_cell_setting 'orthorhombic'
loop_
_space_group_symop_operation_xyz
x,y,z
-x,-y,z
-x,y,z
x,-y,z
1/2+x,1/2+y,z
1/2-x,1/2-y,z
1/2-x,1/2+y,z
1/2+x,1/2-y,z
loop_
_atom_site_type_symbol
_atom_site_label
_atom_site_fract_x
_atom_site_fract_y
_atom_site_fract_z
Si Si1 0.613762 0.813125 0.538120
Si Si2 0.500000 0.500000 0.066426
Si Si3 0.348218 0.952397 0.060835
Si Si4 0.899210 0.087833 0.933614
Si Si5 0.613056 0.669403 0.243971
Si Si6 0.387431 0.281605 0.739356
Si Si7 0.605075 0.144057 0.034005
Si Si8 0.226034 0.047433 0.557142
O O1 0.500000 0.813725 0.516489
O O2 0.640894 0.765958 0.641126
O O3 0.649703 0.828994 0.264046
O O4 0.645079 0.847005 0.755291
O O5 0.421326 0.539838 0.050200
O O6 0.399472 0.906995 0.089622
O O7 0.270764 0.948989 0.281202
O O8 0.393096 0.000000 0.099545
O O9 0.305233 0.952905 0.776631
O O10 0.858305 0.122654 0.129366
O O11 0.844400 0.081599 0.672778
O O12 0.000000 0.105670 0.858704
O O13 0.500000 0.668930 0.258296
O O14 0.640014 0.704328 0.024288
O O15 0.644362 0.684327 0.523181
O O16 0.500000 0.281008 0.742160
O O17 0.500000 0.160602 0.014932
O O18 0.177967 0.000000 0.567108
#
# Coordination Sequence:
#
# PCOD9348469 Si02
#       8
#     8   2   8   8   8   8   8   8
#     4   9  17  29  50  75 106 135 170 214 272 318
#     4   8  16  32  56  78 116 142 190 222 292 310
#     4  10  22  35  55  76 106 142 180 218 268 320
#     4   9  17  32  56  79 110 145 184 228 275 321
#     4   9  17  27  45  70 105 134 173 210 261 312
#     4   9  16  28  44  71 103 137 163 212 265 313
#     4  10  19  33  52  80 107 136 175 222 265 324
#     4  10  19  37  53  75 104 143 184 223 260 319
#
# _framework density 24.988564
#
# number of rings (size 3 to 8) (size 9 to 14) (size 15 to 20)
#    0.414    2.207    0.690    1.655    0.000    4.690 
#    0.000    2.069    0.000   10.759    0.000   14.483 
#    0.000    0.000    0.000    0.000    0.000    0.000 
#
# Total GULP energy -161772.704427 kJ/mol
# GULP energy per Si atom -5578.369118 kJ/mol
# Density = 2.493169 g / cm^3
# Si number density = 24.988564 Si / 1000 Ang^3
#
#
#
# Elastic Constant Matrix: (Units=GPa)
#
#
# Indices 1 2 3 4 5 6 
#
# 1 44.4063 2.1936 15.2495 0.0000 0.0000 0.0000
# 2 2.1936 108.1749 11.9150 0.0000 0.0000 0.0000
# 3 15.2495 11.9150 80.2508 0.0000 0.0000 0.0000
# 4 0.0000 0.0000 0.0000 37.5514 0.0000 0.0000
# 5 0.0000 0.0000 0.0000 0.0000 7.5020 0.0000
# 6 0.0000 0.0000 0.0000 0.0000 0.0000 26.3113
#
#
#
# Elastic Compliance Matrix: (Units=1/GPa)
#
#
# Indices 1 2 3 4 5 6 
#
# 1 0.024091 0.000016 -0.004580 0.000000 0.000000 0.000000
# 2 0.000016 0.009398 -0.001398 0.000000 0.000000 0.000000
# 3 -0.004580 -0.001398 0.013539 0.000000 0.000000 0.000000
# 4 0.000000 0.000000 0.000000 0.026630 0.000000 0.000000
# 5 0.000000 0.000000 0.000000 0.000000 0.133299 0.000000
# 6 0.000000 0.000000 0.000000 0.000000 0.000000 0.038006
#
#
# Mechanical properties :
#
#
# Convention : Reuss Voigt Hill
#
# Bulk Modulus (GPa) = 28.48761 32.39422 30.44092
# Shear Modulus (GPa) = 18.61574 27.83786 23.22680
#
# Velocity S-wave (km/s) = 2.73238 3.34132 3.05207
# Velocity P-wave (km/s) = 4.62380 5.27993 4.96272
#
# Compressibility (1/GPa) = 0.03510298
#
# Stress axis : x y z
#
# Youngs Moduli (GPa) = 41.50848 106.40570 73.86121
#
# Poissons Ratio (x) = -0.00170 0.33831
# Poissons Ratio (y) = -0.00066 0.10329
# Poissons Ratio (z) = 0.19012 0.14879
#
# Static dielectric constant tensor:
#      x y z
#    x 2.061550 0.000000 0.000000 
#    y 0.000000 1.985430 0.000000 
#    z 0.000000 0.000000 1.949580 
# 
# From -- ./inp_files/2702.got.cif
#   From: 2010.05.17/outbox.cif.g08.bks.cpg/sg35_2_cif.got.tgz:2702.got - 2010.06.03 17:29:28.
