data_PCOD9348448
_publ_section_title
;
Structure prediction by ZEFSAII (Michael W. Deem and Ramdas Pophale) SiO2 
 PCOD9348448
Probable space group: C M M 2
;
_chemical_formula_sum "Si O2"
_cell_formula_units_Z 64
_cell_length_a 17.777961
_cell_length_b 27.445989
_cell_length_c 6.404443
_cell_angle_alpha 90.000000
_cell_angle_beta 90.000000
_cell_angle_gamma 90.000000
_cell_volume 3124.943711
_symmetry_space_group_name_H-M "C M M 2"
_symmetry_group_IT_number 35
_symmetry_cell_setting 'orthorhombic'
loop_
_space_group_symop_operation_xyz
x,y,z
-x,-y,z
-x,y,z
x,-y,z
1/2+x,1/2+y,z
1/2-x,1/2-y,z
1/2-x,1/2+y,z
1/2+x,1/2-y,z
loop_
_atom_site_type_symbol
_atom_site_label
_atom_site_fract_x
_atom_site_fract_y
_atom_site_fract_z
Si Si1 0.080000 0.697622 0.512890
Si Si2 0.711512 0.055108 0.624160
Si Si3 0.352535 0.443866 0.936121
Si Si4 0.585557 0.360454 0.676316
Si Si5 0.676839 0.817273 0.130302
Si Si6 0.913121 0.764585 0.891609
Si Si7 0.800510 0.122019 0.308007
Si Si8 0.414947 0.889278 0.847037
O O1 0.148135 0.693847 0.360124
O O2 0.084208 0.744869 0.654923
O O3 0.080298 0.653096 0.673342
O O4 0.000000 0.696501 0.396492
O O5 0.774054 0.057608 0.806942
O O6 0.737387 0.092687 0.444206
O O7 0.633855 0.069302 0.736301
O O8 0.709847 0.000000 0.541248
O O9 0.374532 0.500000 0.963757
O O10 0.406660 0.412791 0.786845
O O11 0.340428 0.416563 0.155114
O O12 0.500000 0.351900 0.608890
O O13 0.603715 0.321099 0.857800
O O14 0.641971 0.357597 0.481077
O O15 0.760826 0.836760 0.165284
O O16 0.648961 0.769502 0.002875
O O17 0.630540 0.862794 0.032343
O O18 0.000000 0.758190 0.973287
O O19 0.500000 0.902978 0.907069
#
# Coordination Sequence:
#
# PCOD9348448 Si02
#       8
#     8   8   8   8   8   8   8   8
#     4   9  17  31  54  83 118 163 209 251 292 352
#     4  10  20  37  59  84 123 167 209 263 325 381
#     4  10  22  42  67  92 119 161 210 262 330 395
#     4  10  24  45  66  93 130 166 204 264 335 393
#     4  11  19  34  61  90 121 167 215 252 299 367
#     4   9  20  38  60  88 127 169 208 253 311 373
#     4  11  22  39  66  92 123 166 212 265 320 385
#     4  10  19  32  54  85 122 166 213 260 302 357
#
# _framework density 20.480367999999999
#
# number of rings (size 3 to 8) (size 9 to 14) (size 15 to 20)
#    0.000    2.000    2.500    2.250    0.000    2.500 
#    0.000    6.250    0.000    0.000    0.000    0.000 
#    0.000    0.000    0.000    0.000    0.000    0.000 
#
# Total GULP energy -178469.635917 kJ/mol
# GULP energy per Si atom -5577.176122 kJ/mol
# Density = 2.043375 g / cm^3
# Si number density = 20.480368 Si / 1000 Ang^3
#
#
#
# Elastic Constant Matrix: (Units=GPa)
#
#
# Indices 1 2 3 4 5 6 
#
# 1 105.6412 50.8643 35.6406 0.0000 0.0000 0.0000
# 2 50.8643 101.5596 22.6839 0.0000 0.0000 0.0000
# 3 35.6406 22.6839 62.5044 0.0000 0.0000 0.0000
# 4 0.0000 0.0000 0.0000 23.8197 0.0000 0.0000
# 5 0.0000 0.0000 0.0000 0.0000 5285.8559 0.0000
# 6 0.0000 0.0000 0.0000 0.0000 0.0000 17.9279
#
#
#
# Elastic Compliance Matrix: (Units=1/GPa)
#
#
# Indices 1 2 3 4 5 6 
#
# 1 0.014305 -0.005814 -0.006047 0.000000 0.000000 0.000000
# 2 -0.005814 0.013078 -0.001431 0.000000 0.000000 0.000000
# 3 -0.006047 -0.001431 0.019966 0.000000 0.000000 0.000000
# 4 0.000000 0.000000 0.000000 0.041982 0.000000 0.000000
# 5 0.000000 0.000000 0.000000 0.000000 0.000189 0.000000
# 6 0.000000 0.000000 0.000000 0.000000 0.000000 0.055779
#
#
# Mechanical properties :
#
#
# Convention : Reuss Voigt Hill
#
# Bulk Modulus (GPa) = 48.15684 54.23142 51.19413
# Shear Modulus (GPa) = 27.96328 1076.22179 552.09253
#
# Velocity S-wave (km/s) = 3.69910 22.94843 16.43645
# Velocity P-wave (km/s) = 6.46600 26.99465 19.62804
#
# Compressibility (1/GPa) = 0.02076548
#
# Stress axis : x y z
#
# Youngs Moduli (GPa) = 69.90341 76.46500 50.08434
#
# Poissons Ratio (x) = 0.44457 0.30287
# Poissons Ratio (y) = 0.40642 0.07167
# Poissons Ratio (z) = 0.42271 0.10942
#
# Static dielectric constant tensor:
#      x y z
#    x -61.584290 0.000000 0.000000 
#    y 0.000000 1.770690 0.000000 
#    z 0.000000 0.000000 1.710430 
# 
# From -- ./inp_files/2723.got.cif
#   From: 2010.05.17/outbox.cif.g08.bks.cpg/sg35_2_cif.got.tgz:2723.got - 2010.06.03 17:29:28.
