data_PCOD9348333
_publ_section_title
;
Structure prediction by ZEFSAII (Michael W. Deem and Ramdas Pophale) SiO2 
 PCOD9348333
Probable space group: C M M 2
;
_chemical_formula_sum "Si O2"
_cell_formula_units_Z 56
_cell_length_a 8.961461
_cell_length_b 15.594293
_cell_length_c 19.357100
_cell_angle_alpha 90.000000
_cell_angle_beta 90.000000
_cell_angle_gamma 90.000000
_cell_volume 2705.109208
_symmetry_space_group_name_H-M "C M M 2"
_symmetry_group_IT_number 35
_symmetry_cell_setting 'orthorhombic'
loop_
_space_group_symop_operation_xyz
x,y,z
-x,-y,z
-x,y,z
x,-y,z
1/2+x,1/2+y,z
1/2-x,1/2-y,z
1/2-x,1/2+y,z
1/2+x,1/2-y,z
loop_
_atom_site_type_symbol
_atom_site_label
_atom_site_fract_x
_atom_site_fract_y
_atom_site_fract_z
Si Si1 0.325209 0.395531 0.759260
Si Si2 0.320130 0.653673 0.332987
Si Si3 0.679434 0.345098 0.183109
Si Si4 0.165309 0.601933 0.896065
Si Si5 0.330472 0.602214 0.607582
Si Si6 0.178339 0.844176 0.033995
Si Si7 0.822774 0.655898 0.469487
O O1 0.500000 0.374903 0.765853
O O2 0.314519 0.500000 0.760281
O O3 0.237120 0.362618 0.825744
O O4 0.275740 0.366141 0.682754
O O5 0.500000 0.658129 0.340418
O O6 0.250000 0.750000 0.330095
O O7 0.283082 0.614282 0.257607
O O8 0.249458 0.612423 0.401453
O O9 0.500000 0.336147 0.183346
O O10 0.750000 0.250000 0.182924
O O11 0.719694 0.385385 0.108774
O O12 0.153028 0.500000 0.886070
O O13 0.261406 0.613865 0.964656
O O14 0.000000 0.638510 0.906997
O O15 0.500000 0.635615 0.594755
O O16 0.343131 0.500000 0.614250
O O17 0.225622 0.618318 0.542797
O O18 0.250000 0.750000 0.034706
O O19 0.000000 0.839623 0.030733
O O20 0.750000 0.750000 0.470781
O O21 0.000000 0.659208 0.462083
#
# Coordination Sequence:
#
# PCOD9348333 Si02
#       7
#     8   8   8   8   8   8   8
#     4   8  15  30  52  74  94 121 159 199 238 284
#     4   9  15  26  44  66  93 123 159 199 239 283
#     4   8  15  26  43  67  92 121 157 197 238 281
#     4  10  20  33  50  73 100 129 162 199 239 284
#     4   9  18  34  55  76  98 125 158 197 242 290
#     4  10  19  32  50  73 101 129 160 199 243 289
#     4  11  21  32  48  72 102 132 163 199 240 285
#
# _framework density 20.701567000000001
#
# number of rings (size 3 to 8) (size 9 to 14) (size 15 to 20)
#    0.000    2.714    0.000    4.286    0.000    2.857 
#    0.000    2.143    0.000    4.286    0.000    2.000 
#    0.000    0.000    0.000    0.000    0.000    0.000 
#
# Total GULP energy -155963.140982 kJ/mol
# GULP energy per Si atom -5570.112178 kJ/mol
# Density = 2.065445 g / cm^3
# Si number density = 20.701567 Si / 1000 Ang^3
#
#
#
# Elastic Constant Matrix: (Units=GPa)
#
#
# Indices 1 2 3 4 5 6 
#
# 1 102.7761 4.6260 92.6129 0.0000 0.0000 0.0000
# 2 4.6260 15.7568 13.7703 0.0000 0.0000 0.0000
# 3 92.6129 13.7703 239.1974 0.0000 0.0000 0.0000
# 4 0.0000 0.0000 0.0000 10.3931 0.0000 0.0000
# 5 0.0000 0.0000 0.0000 0.0000 63.8702 0.0000
# 6 0.0000 0.0000 0.0000 0.0000 0.0000 12.7469
#
#
#
# Elastic Compliance Matrix: (Units=1/GPa)
#
#
# Indices 1 2 3 4 5 6 
#
# 1 0.014951 0.000705 -0.005829 0.000000 0.000000 0.000000
# 2 0.000705 0.066860 -0.004122 0.000000 0.000000 0.000000
# 3 -0.005829 -0.004122 0.006675 0.000000 0.000000 0.000000
# 4 0.000000 0.000000 0.000000 0.096218 0.000000 0.000000
# 5 0.000000 0.000000 0.000000 0.000000 0.015657 0.000000
# 6 0.000000 0.000000 0.000000 0.000000 0.000000 0.078450
#
#
# Mechanical properties :
#
#
# Convention : Reuss Voigt Hill
#
# Bulk Modulus (GPa) = 14.28704 64.41650 39.35177
# Shear Modulus (GPa) = 15.59404 33.85011 24.72208
#
# Velocity S-wave (km/s) = 2.74757 4.04808 3.45949
# Velocity P-wave (km/s) = 4.12091 7.28241 5.91673
#
# Compressibility (1/GPa) = 0.06999351
#
# Stress axis : x y z
#
# Youngs Moduli (GPa) = 66.88475 14.95658 149.81323
#
# Poissons Ratio (x) = -0.01054 0.87332
# Poissons Ratio (y) = -0.04716 0.61753
# Poissons Ratio (z) = 0.38990 0.06165
#
# Static dielectric constant tensor:
#      x y z
#    x 1.699860 0.000000 0.000000 
#    y 0.000000 1.775720 0.000000 
#    z 0.000000 0.000000 1.833220 
# 
# From -- ./inp_files/18276.got.cif
#   From: 2010.05.17/outbox.cif.g08.bks.cpg/sg35_10_cif.got.tgz:18276.got - 2010.06.03 17:29:28.
