data_PCOD9348863
_publ_section_title
;
Structure prediction by ZEFSAII (Michael W. Deem and Ramdas Pophale) SiO2 
 PCOD9348863
Probable space group: C M M 2
;
_chemical_formula_sum "Si O2"
_cell_formula_units_Z 64
_cell_length_a 14.608908
_cell_length_b 25.822394
_cell_length_c 8.269968
_cell_angle_alpha 90.000000
_cell_angle_beta 90.000000
_cell_angle_gamma 90.000000
_cell_volume 3119.737739
_symmetry_space_group_name_H-M "C M M 2"
_symmetry_group_IT_number 35
_symmetry_cell_setting 'orthorhombic'
loop_
_space_group_symop_operation_xyz
x,y,z
-x,-y,z
-x,y,z
x,-y,z
1/2+x,1/2+y,z
1/2-x,1/2-y,z
1/2-x,1/2+y,z
1/2+x,1/2-y,z
loop_
_atom_site_type_symbol
_atom_site_label
_atom_site_fract_x
_atom_site_fract_y
_atom_site_fract_z
Si Si1 0.398303 0.198409 0.166940
Si Si2 0.893700 0.141644 0.485637
Si Si3 0.709897 0.941913 0.936469
Si Si4 0.888968 0.758507 0.670774
Si Si5 0.392553 0.693269 0.017907
Si Si6 0.743231 0.374602 0.212171
Si Si7 0.600279 0.443013 0.763925
Si Si8 0.605608 0.152873 0.799001
O O1 0.500000 0.189693 0.233615
O O2 0.383677 0.259303 0.144220
O O3 0.320271 0.167382 0.257455
O O4 0.396388 0.177261 0.981042
O O5 0.864910 0.200303 0.532933
O O6 0.824686 0.116589 0.359052
O O7 0.892759 0.104933 0.642582
O O8 0.000000 0.143455 0.428154
O O9 0.815654 0.943058 0.884298
O O10 0.660834 0.899933 0.821260
O O11 0.672493 0.000000 0.920293
O O12 0.707570 0.921858 0.121356
O O13 0.856293 0.699049 0.684619
O O14 0.000000 0.755058 0.668358
O O15 0.866086 0.785710 0.841591
O O16 0.500000 0.678430 0.013224
O O17 0.321746 0.651066 0.075887
O O18 0.500000 0.439378 0.843361
O O19 0.603194 0.500000 0.680136
O O20 0.500000 0.142317 0.754353
#
# Coordination Sequence:
#
# PCOD9348863 Si02
#       8
#     8   8   8   8   8   8   8   8
#     4   8  16  31  49  70  99 135 173 209 251 314
#     4  10  20  33  51  79 111 140 176 222 273 332
#     4  10  21  35  53  79 106 137 185 235 272 316
#     4   8  15  30  52  76 105 140 173 207 257 328
#     4   9  16  29  51  75  99 131 169 208 252 310
#     4  11  20  30  49  77 108 138 170 215 273 322
#     4   9  19  37  56  70  94 139 186 222 260 312
#     4   8  15  31  55  80 104 132 169 218 275 325
#
# _framework density 20.514545999999999
#
# number of rings (size 3 to 8) (size 9 to 14) (size 15 to 20)
#    0.000    2.875    0.000    3.000    0.000    2.750 
#    0.000    4.375    0.000    2.250    0.000    0.875 
#    0.000    0.000    0.000    0.000    0.000    0.000 
#
# Total GULP energy -178493.032609 kJ/mol
# GULP energy per Si atom -5577.907269 kJ/mol
# Density = 2.046785 g / cm^3
# Si number density = 20.514546 Si / 1000 Ang^3
#
#
#
# Elastic Constant Matrix: (Units=GPa)
#
#
# Indices 1 2 3 4 5 6 
#
# 1 51.6163 21.1568 1.6032 0.0000 0.0000 0.0000
# 2 21.1568 131.6319 11.3409 0.0000 0.0000 0.0000
# 3 1.6032 11.3409 24.9758 0.0000 0.0000 0.0000
# 4 0.0000 0.0000 0.0000 7.4047 0.0000 0.0000
# 5 0.0000 0.0000 0.0000 0.0000 19.4453 0.0000
# 6 0.0000 0.0000 0.0000 0.0000 0.0000 25.0047
#
#
#
# Elastic Compliance Matrix: (Units=1/GPa)
#
#
# Indices 1 2 3 4 5 6 
#
# 1 0.020741 -0.003350 0.000190 0.000000 0.000000 0.000000
# 2 -0.003350 0.008447 -0.003621 0.000000 0.000000 0.000000
# 3 0.000190 -0.003621 0.041671 0.000000 0.000000 0.000000
# 4 0.000000 0.000000 0.000000 0.135050 0.000000 0.000000
# 5 0.000000 0.000000 0.000000 0.000000 0.051426 0.000000
# 6 0.000000 0.000000 0.000000 0.000000 0.000000 0.039992
#
#
# Mechanical properties :
#
#
# Convention : Reuss Voigt Hill
#
# Bulk Modulus (GPa) = 17.45284 30.71396 24.08340
# Shear Modulus (GPa) = 15.15203 21.97914 18.56558
#
# Velocity S-wave (km/s) = 2.72067 3.27676 3.01158
# Velocity P-wave (km/s) = 4.28898 5.41485 4.88446
#
# Compressibility (1/GPa) = 0.05729726
#
# Stress axis : x y z
#
# Youngs Moduli (GPa) = 48.21376 118.38069 23.99767
#
# Poissons Ratio (x) = 0.39657 -0.00455
# Poissons Ratio (y) = 0.16152 0.08689
# Poissons Ratio (z) = -0.00915 0.42862
#
# Static dielectric constant tensor:
#      x y z
#    x 1.760150 0.000000 0.000000 
#    y 0.000000 1.781730 0.000000 
#    z 0.000000 0.000000 1.744050 
# 
# From -- ./inp_files/7891.got.cif
#   From: 2010.05.17/outbox.cif.g08.bks.cpg/sg35_4_cif.got.tgz:7891.got - 2010.06.03 17:29:28.
