data_PCOD9348654
_publ_section_title
;
Structure prediction by ZEFSAII (Michael W. Deem and Ramdas Pophale) SiO2 
 PCOD9348654
Probable space group: C M M 2
;
_chemical_formula_sum "Si O2"
_cell_formula_units_Z 64
_cell_length_a 7.546239
_cell_length_b 31.645666
_cell_length_c 12.401409
_cell_angle_alpha 90.000000
_cell_angle_beta 90.000000
_cell_angle_gamma 90.000000
_cell_volume 2961.527888
_symmetry_space_group_name_H-M "C M M 2"
_symmetry_group_IT_number 35
_symmetry_cell_setting 'orthorhombic'
loop_
_space_group_symop_operation_xyz
x,y,z
-x,-y,z
-x,y,z
x,-y,z
1/2+x,1/2+y,z
1/2-x,1/2-y,z
1/2-x,1/2+y,z
1/2+x,1/2-y,z
loop_
_atom_site_type_symbol
_atom_site_label
_atom_site_fract_x
_atom_site_fract_y
_atom_site_fract_z
Si Si1 0.217469 0.376544 0.682190
Si Si2 0.213696 0.452492 0.834328
Si Si3 0.712786 0.796784 0.291992
Si Si4 0.286547 0.452454 0.284790
Si Si5 0.211048 0.625778 0.436931
Si Si6 0.296767 0.813792 0.055437
Si Si7 0.290297 0.589386 0.062572
Si Si8 0.287789 0.203656 0.820236
O O1 0.275386 0.417958 0.747810
O O2 0.278963 0.375800 0.558907
O O3 0.275943 0.334903 0.747104
O O4 0.000000 0.376805 0.681918
O O5 0.278914 0.500000 0.815498
O O6 0.000000 0.453249 0.828424
O O7 0.260772 0.436769 0.953926
O O8 0.500000 0.802106 0.284956
O O9 0.750000 0.750000 0.335085
O O10 0.781220 0.835065 0.365683
O O11 0.784360 0.800100 0.169454
O O12 0.500000 0.454312 0.279932
O O13 0.221586 0.500000 0.305768
O O14 0.239785 0.417902 0.374060
O O15 0.225074 0.435306 0.168290
O O16 0.000000 0.632187 0.445193
O O17 0.500000 0.798443 0.055900
O O18 0.296172 0.864673 0.053663
O O19 0.214731 0.799191 0.942460
O O20 0.500000 0.596686 0.075348
O O21 0.500000 0.198419 0.827797
O O22 0.250000 0.250000 0.775284
#
# Coordination Sequence:
#
# PCOD9348654 Si02
#       8
#     8   8   8   8   8   8   8   8
#     4   9  19  37  58  81 111 145 184 233 279 315
#     4  10  20  36  59  83 110 147 186 224 275 335
#     4  10  21  35  55  83 114 145 183 229 277 331
#     4  10  22  39  57  81 115 150 181 223 284 340
#     4  10  21  38  60  84 109 144 194 239 271 318
#     4  10  19  35  57  81 111 146 183 227 278 332
#     4  11  21  34  57  85 115 146 179 225 279 334
#     4  10  20  35  56  80 112 146 179 225 276 329
#
# _framework density 21.610467
#
# number of rings (size 3 to 8) (size 9 to 14) (size 15 to 20)
#    0.000    2.000    2.500    1.125    0.000    4.000 
#    0.000    2.500    0.000    0.000    0.000    0.000 
#    0.000    0.000    0.000    0.000    0.000    0.000 
#
# Total GULP energy -178828.722833 kJ/mol
# GULP energy per Si atom -5588.397589 kJ/mol
# Density = 2.156128 g / cm^3
# Si number density = 21.610467 Si / 1000 Ang^3
#
#
#
# Elastic Constant Matrix: (Units=GPa)
#
#
# Indices 1 2 3 4 5 6 
#
# 1 54.5084 -8.7348 4.1277 0.0000 0.0000 0.0000
# 2 -8.7348 186.5718 91.4535 0.0000 0.0000 0.0000
# 3 4.1277 91.4535 176.0708 0.0000 0.0000 0.0000
# 4 0.0000 0.0000 0.0000 -0.5465 0.0000 0.0000
# 5 0.0000 0.0000 0.0000 0.0000 -2.9054 0.0000
# 6 0.0000 0.0000 0.0000 0.0000 0.0000 18.3202
#
#
#
# Elastic Compliance Matrix: (Units=1/GPa)
#
#
# Indices 1 2 3 4 5 6 
#
# 1 0.018670 0.001461 -0.001196 0.000000 0.000000 0.000000
# 2 0.001461 0.007305 -0.003828 0.000000 0.000000 0.000000
# 3 -0.001196 -0.003828 0.007696 0.000000 0.000000 0.000000
# 4 0.000000 0.000000 0.000000 -1.829930 0.000000 0.000000
# 5 0.000000 0.000000 0.000000 0.000000 -0.344190 0.000000
# 6 0.000000 0.000000 0.000000 0.000000 0.000000 0.054585
#
#
# Mechanical properties :
#
#
# Convention : Reuss Voigt Hill
#
# Bulk Modulus (GPa) = 37.67490 65.64932 51.66211
# Shear Modulus (GPa) = -2.41559 24.99397 11.28919
#
# Velocity S-wave (km/s) = -1.05840 3.40452 2.28807
# Velocity P-wave (km/s) = 3.99723 6.77487 5.56222
#
# Compressibility (1/GPa) = 0.02654287
#
# Stress axis : x y z
#
# Youngs Moduli (GPa) = 53.56064 136.89461 129.93513
#
# Poissons Ratio (x) = -0.19993 0.15544
# Poissons Ratio (y) = -0.07823 0.49746
# Poissons Ratio (z) = 0.06407 0.52410
#
# Static dielectric constant tensor:
#      x y z
#    x 1.815230 0.000000 0.000000 
#    y 0.000000 1.757270 0.000000 
#    z 0.000000 0.000000 1.762120 
# 
# From -- ./inp_files/11845.got.cif
#   From: 2010.05.17/outbox.cif.g08.bks.cpg/sg35_6_cif.got.tgz:11845.got - 2010.06.03 17:29:28.
