data_PCOD9348231
_publ_section_title
;
Structure prediction by ZEFSAII (Michael W. Deem and Ramdas Pophale) SiO2 
 PCOD9348231
Probable space group: C M M 2
;
_chemical_formula_sum "Si O2"
_cell_formula_units_Z 56
_cell_length_a 8.005220
_cell_length_b 19.667319
_cell_length_c 18.647698
_cell_angle_alpha 90.000000
_cell_angle_beta 90.000000
_cell_angle_gamma 90.000000
_cell_volume 2935.916238
_symmetry_space_group_name_H-M "C M M 2"
_symmetry_group_IT_number 35
_symmetry_cell_setting 'orthorhombic'
loop_
_space_group_symop_operation_xyz
x,y,z
-x,-y,z
-x,y,z
x,-y,z
1/2+x,1/2+y,z
1/2-x,1/2-y,z
1/2-x,1/2+y,z
1/2+x,1/2-y,z
loop_
_atom_site_type_symbol
_atom_site_label
_atom_site_fract_x
_atom_site_fract_y
_atom_site_fract_z
Si Si1 0.201223 0.578029 0.726170
Si Si2 0.703870 0.921581 0.988125
Si Si3 0.798162 0.328739 0.856969
Si Si4 0.703991 0.078247 0.150058
Si Si5 0.198905 0.671542 0.278803
Si Si6 0.201811 0.077813 0.566002
Si Si7 0.198850 0.171492 0.437471
O O1 0.261597 0.500000 0.736960
O O2 0.261739 0.629547 0.787153
O O3 0.248287 0.599926 0.645881
O O4 0.000000 0.575929 0.730584
O O5 0.500000 0.921367 0.987491
O O6 0.756717 0.903299 0.069114
O O7 0.753606 0.000000 0.973270
O O8 0.761094 0.869210 0.927691
O O9 0.750000 0.250000 0.856300
O O10 0.000000 0.331817 0.857012
O O11 0.500000 0.080289 0.150224
O O12 0.766002 0.126770 0.213161
O O13 0.751923 0.000000 0.162983
O O14 0.250000 0.750000 0.271499
O O15 0.250353 0.647599 0.358078
O O16 0.000000 0.668662 0.276108
O O17 0.265717 0.125803 0.502466
O O18 0.000000 0.077300 0.563170
O O19 0.260374 0.000000 0.556639
O O20 0.250000 0.250000 0.445135
O O21 0.000000 0.169070 0.440390
#
# Coordination Sequence:
#
# PCOD9348231 Si02
#       7
#     8   8   8   8   8   8   8
#     4   9  18  33  52  72  94 123 161 200 234 274
#     4   8  14  28  50  71  93 125 163 199 234 275
#     4  10  20  32  48  73 101 127 158 196 237 280
#     4   8  15  28  47  72  97 122 158 201 239 276
#     4  10  19  31  48  70  97 127 159 195 236 283
#     4   9  19  35  53  73  96 123 156 194 239 288
#     4  10  20  34  51  70  95 127 161 195 233 282
#
# _framework density 19.074114000000002
#
# number of rings (size 3 to 8) (size 9 to 14) (size 15 to 20)
#    0.000    2.857    0.000    3.000    0.000    5.143 
#    0.000    2.857    0.000    3.429    0.000    4.000 
#    0.000    0.000    0.000    0.000    0.000    0.000 
#
# Total GULP energy -156146.254866 kJ/mol
# GULP energy per Si atom -5576.651960 kJ/mol
# Density = 1.903070 g / cm^3
# Si number density = 19.074114 Si / 1000 Ang^3
#
#
#
# Elastic Constant Matrix: (Units=GPa)
#
#
# Indices 1 2 3 4 5 6 
#
# 1 18.6458 7.1931 11.9962 0.0000 0.0000 0.0000
# 2 7.1931 112.7342 133.8134 0.0000 0.0000 0.0000
# 3 11.9962 133.8134 220.8510 0.0000 0.0000 0.0000
# 4 0.0000 0.0000 0.0000 16.8500 0.0000 0.0000
# 5 0.0000 0.0000 0.0000 0.0000 12.6938 0.0000
# 6 0.0000 0.0000 0.0000 0.0000 0.0000 17.4852
#
#
#
# Elastic Compliance Matrix: (Units=1/GPa)
#
#
# Indices 1 2 3 4 5 6 
#
# 1 0.055574 0.000132 -0.003099 0.000000 0.000000 0.000000
# 2 0.000132 0.031589 -0.019147 0.000000 0.000000 0.000000
# 3 -0.003099 -0.019147 0.016297 0.000000 0.000000 0.000000
# 4 0.000000 0.000000 0.000000 0.059347 0.000000 0.000000
# 5 0.000000 0.000000 0.000000 0.000000 0.078778 0.000000
# 6 0.000000 0.000000 0.000000 0.000000 0.000000 0.057191
#
#
# Mechanical properties :
#
#
# Convention : Reuss Voigt Hill
#
# Bulk Modulus (GPa) = 16.88236 73.13736 45.00986
# Shear Modulus (GPa) = 13.78365 22.68770 18.23568
#
# Velocity S-wave (km/s) = 2.69111 3.45258 3.09535
# Velocity P-wave (km/s) = 4.30421 7.37026 6.03519
#
# Compressibility (1/GPa) = 0.05923343
#
# Stress axis : x y z
#
# Youngs Moduli (GPa) = 17.99405 31.65653 61.35951
#
# Poissons Ratio (x) = -0.00419 0.19014
# Poissons Ratio (y) = -0.00238 1.17485
# Poissons Ratio (z) = 0.05576 0.60613
#
# Static dielectric constant tensor:
#      x y z
#    x 1.689340 0.000000 0.000000 
#    y 0.000000 1.645550 0.000000 
#    z 0.000000 0.000000 1.671150 
# 
# From -- ./inp_files/18278.got.cif
#   From: 2010.05.17/outbox.cif.g08.bks.cpg/sg35_10_cif.got.tgz:18278.got - 2010.06.03 17:29:28.
