data_PCOD9348579
_publ_section_title
;
Structure prediction by ZEFSAII (Michael W. Deem and Ramdas Pophale) SiO2 
 PCOD9348579
Probable space group: C M M 2
;
_chemical_formula_sum "Si O2"
_cell_formula_units_Z 48
_cell_length_a 33.771424
_cell_length_b 8.646116
_cell_length_c 9.462486
_cell_angle_alpha 90.000000
_cell_angle_beta 90.000000
_cell_angle_gamma 90.000000
_cell_volume 2762.966894
_symmetry_space_group_name_H-M "C M M 2"
_symmetry_group_IT_number 35
_symmetry_cell_setting 'orthorhombic'
loop_
_space_group_symop_operation_xyz
x,y,z
-x,-y,z
-x,y,z
x,-y,z
1/2+x,1/2+y,z
1/2-x,1/2-y,z
1/2-x,1/2+y,z
1/2+x,1/2-y,z
loop_
_atom_site_type_symbol
_atom_site_label
_atom_site_fract_x
_atom_site_fract_y
_atom_site_fract_z
Si Si1 0.292469 0.812912 0.356200
Si Si2 0.118757 0.686681 0.827227
Si Si3 0.369086 0.684398 0.515156
Si Si4 0.084961 0.677506 0.262858
Si Si5 0.454974 0.684682 0.999383
Si Si6 0.332973 0.177449 0.083745
O O1 0.250000 0.750000 0.401157
O O2 0.328021 0.753479 0.454490
O O3 0.302001 0.754612 0.195571
O O4 0.293214 0.000000 0.355735
O O5 0.120343 0.500000 0.824642
O O6 0.123492 0.753720 0.671931
O O7 0.077377 0.737135 0.898030
O O8 0.153722 0.744981 0.933527
O O9 0.367063 0.500000 0.513237
O O10 0.403618 0.740902 0.408692
O O11 0.073082 0.500000 0.286426
O O12 0.126102 0.674910 0.173461
O O13 0.054683 0.763100 0.159627
O O14 0.500000 0.727186 0.963091
O O15 0.450636 0.500000 0.989507
O O16 0.320773 0.000000 0.057632
#
# Coordination Sequence:
#
# PCOD9348579 Si02
#       6
#     8   8   8   8   8   8
#     4  10  19  34  54  78 105 135 174 218 265 315
#     4  10  19  34  55  77 104 141 180 216 258 314
#     4  11  21  34  53  78 107 140 176 217 267 318
#     4   9  17  32  53  75  99 132 173 212 252 306
#     4  10  20  34  53  79 109 138 171 216 266 313
#     4   7  14  29  50  72  95 126 165 206 247 297
#
# _framework density 17.372629
#
# number of rings (size 3 to 8) (size 9 to 14) (size 15 to 20)
#    0.000    2.500    0.000    5.500    0.000    1.333 
#    0.000    4.167    0.000    7.000    0.000    0.000 
#    0.000    0.000    0.000    0.000    0.000    0.000 
#
# Total GULP energy -133714.864146 kJ/mol
# GULP energy per Si atom -5571.452673 kJ/mol
# Density = 1.733309 g / cm^3
# Si number density = 17.372629 Si / 1000 Ang^3
#
#
#
# Elastic Constant Matrix: (Units=GPa)
#
#
# Indices 1 2 3 4 5 6 
#
# 1 68.1366 25.1095 41.4231 0.0000 0.0000 0.0000
# 2 25.1095 80.4815 42.3758 0.0000 0.0000 0.0000
# 3 41.4231 42.3758 150.5170 0.0000 0.0000 0.0000
# 4 0.0000 0.0000 0.0000 26.1144 0.0000 0.0000
# 5 0.0000 0.0000 0.0000 0.0000 16.4671 0.0000
# 6 0.0000 0.0000 0.0000 0.0000 0.0000 21.5799
#
#
#
# Elastic Compliance Matrix: (Units=1/GPa)
#
#
# Indices 1 2 3 4 5 6 
#
# 1 0.018485 -0.003626 -0.004066 0.000000 0.000000 0.000000
# 2 -0.003626 0.015299 -0.003309 0.000000 0.000000 0.000000
# 3 -0.004066 -0.003309 0.008694 0.000000 0.000000 0.000000
# 4 0.000000 0.000000 0.000000 0.038293 0.000000 0.000000
# 5 0.000000 0.000000 0.000000 0.000000 0.060727 0.000000
# 6 0.000000 0.000000 0.000000 0.000000 0.000000 0.046339
#
#
# Mechanical properties :
#
#
# Convention : Reuss Voigt Hill
#
# Bulk Modulus (GPa) = 48.84007 57.43910 53.13959
# Shear Modulus (GPa) = 23.07700 25.51406 24.29553
#
# Velocity S-wave (km/s) = 3.64861 3.83644 3.74370
# Velocity P-wave (km/s) = 6.77673 7.26354 7.02436
#
# Compressibility (1/GPa) = 0.02047499
#
# Stress axis : x y z
#
# Youngs Moduli (GPa) = 54.09887 65.36401 115.01537
#
# Poissons Ratio (x) = 0.23701 0.46768
# Poissons Ratio (y) = 0.19617 0.38062
# Poissons Ratio (z) = 0.21998 0.21631
#
# Static dielectric constant tensor:
#      x y z
#    x 1.590390 0.000000 0.000000 
#    y 0.000000 1.585920 0.000000 
#    z 0.000000 0.000000 1.598600 
# 
# From -- ./inp_files/5266.got.cif
#   From: 2010.05.17/outbox.cif.g08.bks.cpg/sg35_3_cif.got.tgz:5266.got - 2010.06.03 17:29:28.
