data_PCOD9348141
_publ_section_title
;
Structure prediction by ZEFSAII (Michael W. Deem and Ramdas Pophale) SiO2 
 PCOD9348141
Probable space group: C M M 2
;
_chemical_formula_sum "Si O2"
_cell_formula_units_Z 56
_cell_length_a 8.128304
_cell_length_b 22.659186
_cell_length_c 15.118015
_cell_angle_alpha 90.000000
_cell_angle_beta 90.000000
_cell_angle_gamma 90.000000
_cell_volume 2784.447374
_symmetry_space_group_name_H-M "C M M 2"
_symmetry_group_IT_number 35
_symmetry_cell_setting 'orthorhombic'
loop_
_space_group_symop_operation_xyz
x,y,z
-x,-y,z
-x,y,z
x,-y,z
1/2+x,1/2+y,z
1/2-x,1/2-y,z
1/2-x,1/2+y,z
1/2+x,1/2-y,z
loop_
_atom_site_type_symbol
_atom_site_label
_atom_site_fract_x
_atom_site_fract_y
_atom_site_fract_z
Si Si1 0.698062 0.932908 0.046240
Si Si2 0.696726 0.500000 0.532560
Si Si3 0.196845 0.383957 0.427164
Si Si4 0.299674 0.932347 0.247876
Si Si5 0.307966 0.315813 0.942505
Si Si6 0.800875 0.500000 0.738107
Si Si7 0.697847 0.184751 0.588686
Si Si8 0.199106 0.627733 0.768430
O O1 0.500000 0.936504 0.046818
O O2 0.755611 0.921845 0.147579
O O3 0.754952 0.000000 0.020092
O O4 0.738902 0.874712 0.990115
O O5 0.500000 0.500000 0.525204
O O6 0.769446 0.556604 0.482377
O O7 0.745552 0.500000 0.635842
O O8 0.261857 0.391418 0.327639
O O9 0.263121 0.333715 0.492433
O O10 0.000000 0.376576 0.419335
O O11 0.500000 0.929136 0.246545
O O12 0.257440 0.000000 0.270933
O O13 0.500000 0.316901 0.957028
O O14 0.250000 0.250000 0.969154
O O15 0.267426 0.326978 0.839470
O O16 0.748227 0.439716 0.785229
O O17 0.000000 0.500000 0.736834
O O18 0.500000 0.180850 0.586039
O O19 0.750000 0.250000 0.611525
O O20 0.752262 0.143003 0.668791
O O21 0.000000 0.630516 0.772938
#
# Coordination Sequence:
#
# PCOD9348141 Si02
#       8
#     8   4   8   8   8   4   8   8
#     4   9  19  38  64  94 122 151 191 244 302 362
#     4  12  22  30  48  83 118 147 180 231 284 318
#     4  10  18  34  57  79 109 153 195 228 269 338
#     4   8  14  28  58  89 110 142 190 234 276 337
#     4  12  26  43  63  87 117 157 200 246 297 354
#     4  10  20  38  60  83 114 151 190 231 284 352
#     4  10  21  35  54  77 107 149 192 233 279 329
#     4  10  21  38  61  87 112 148 192 238 292 347
#
# _framework density 20.111709000000001
#
# number of rings (size 3 to 8) (size 9 to 14) (size 15 to 20)
#    0.000    2.000    2.143    3.214    1.000    3.143 
#    0.000    1.429    0.000    1.714    0.000    0.000 
#    0.000    0.000    0.000    0.000    0.000    0.000 
#
# Total GULP energy -156146.561685 kJ/mol
# GULP energy per Si atom -5576.662917 kJ/mol
# Density = 2.006593 g / cm^3
# Si number density = 20.111709 Si / 1000 Ang^3
#
#
#
# Elastic Constant Matrix: (Units=GPa)
#
#
# Indices 1 2 3 4 5 6 
#
# 1 15.9743 14.5522 11.5982 0.0000 0.0000 0.0000
# 2 14.5522 120.5474 43.9052 0.0000 0.0000 0.0000
# 3 11.5982 43.9052 85.8947 0.0000 0.0000 0.0000
# 4 0.0000 0.0000 0.0000 29.1158 0.0000 0.0000
# 5 0.0000 0.0000 0.0000 0.0000 2.0129 0.0000
# 6 0.0000 0.0000 0.0000 0.0000 0.0000 15.7376
#
#
#
# Elastic Compliance Matrix: (Units=1/GPa)
#
#
# Indices 1 2 3 4 5 6 
#
# 1 0.073259 -0.006440 -0.006600 0.000000 0.000000 0.000000
# 2 -0.006440 0.010759 -0.004630 0.000000 0.000000 0.000000
# 3 -0.006600 -0.004630 0.014900 0.000000 0.000000 0.000000
# 4 0.000000 0.000000 0.000000 0.034346 0.000000 0.000000
# 5 0.000000 0.000000 0.000000 0.000000 0.496794 0.000000
# 6 0.000000 0.000000 0.000000 0.000000 0.000000 0.063542
#
#
# Mechanical properties :
#
#
# Convention : Reuss Voigt Hill
#
# Bulk Modulus (GPa) = 15.72870 40.28087 28.00478
# Shear Modulus (GPa) = 6.66549 19.53063 13.09806
#
# Velocity S-wave (km/s) = 1.82248 3.11964 2.55476
# Velocity P-wave (km/s) = 3.50232 5.74876 4.75996
#
# Compressibility (1/GPa) = 0.06357806
#
# Stress axis : x y z
#
# Youngs Moduli (GPa) = 13.65018 92.94359 67.11381
#
# Poissons Ratio (x) = 0.59853 0.44298
# Poissons Ratio (y) = 0.08790 0.31074
# Poissons Ratio (z) = 0.09010 0.43033
#
# Static dielectric constant tensor:
#      x y z
#    x 1.707810 0.000000 0.000000 
#    y 0.000000 1.736280 0.000000 
#    z 0.000000 0.000000 1.731690 
# 
# From -- ./inp_files/15703.got.cif
#   From: 2010.05.17/outbox.cif.g08.bks.cpg/sg35_8_cif.got.tgz:15703.got - 2010.06.03 17:29:28.
