data_PCOD9348329
_publ_section_title
;
Structure prediction by ZEFSAII (Michael W. Deem and Ramdas Pophale) SiO2 
 PCOD9348329
Probable space group: C M M 2
;
_chemical_formula_sum "Si O2"
_cell_formula_units_Z 64
_cell_length_a 7.622629
_cell_length_b 28.802775
_cell_length_c 14.684148
_cell_angle_alpha 90.000000
_cell_angle_beta 90.000000
_cell_angle_gamma 90.000000
_cell_volume 3223.946807
_symmetry_space_group_name_H-M "C M M 2"
_symmetry_group_IT_number 35
_symmetry_cell_setting 'orthorhombic'
loop_
_space_group_symop_operation_xyz
x,y,z
-x,-y,z
-x,y,z
x,-y,z
1/2+x,1/2+y,z
1/2-x,1/2-y,z
1/2-x,1/2+y,z
1/2+x,1/2-y,z
loop_
_atom_site_type_symbol
_atom_site_label
_atom_site_fract_x
_atom_site_fract_y
_atom_site_fract_z
Si Si1 0.787092 0.448115 0.775600
Si Si2 0.293067 0.695378 0.581679
Si Si3 0.210649 0.948001 0.294164
Si Si4 0.792921 0.304209 0.790061
Si Si5 0.708858 0.945046 0.575785
Si Si6 0.696824 0.625758 0.431472
Si Si7 0.287143 0.122939 0.932689
Si Si8 0.711236 0.051972 0.080233
O O1 0.722981 0.500000 0.790270
O O2 0.731202 0.431463 0.676652
O O3 0.743291 0.415263 0.856944
O O4 0.000000 0.449966 0.771391
O O5 0.500000 0.689810 0.573912
O O6 0.250000 0.750000 0.574431
O O7 0.250875 0.680427 0.685986
O O8 0.218807 0.665843 0.495795
O O9 0.280526 0.902107 0.346271
O O10 0.246899 0.944379 0.186841
O O11 0.000000 0.948106 0.307759
O O12 0.274992 0.000000 0.323790
O O13 0.750000 0.250000 0.795132
O O14 0.721196 0.331057 0.879476
O O15 0.000000 0.310507 0.794530
O O16 0.500000 0.935553 0.566192
O O17 0.811043 0.916660 0.502088
O O18 0.732265 0.000000 0.567398
O O19 0.500000 0.641216 0.404066
O O20 0.500000 0.127689 0.942397
O O21 0.224328 0.097282 0.024705
O O22 0.500000 0.051122 0.069131
O O23 0.773011 0.000000 0.049576
#
# Coordination Sequence:
#
# PCOD9348329 Si02
#       8
#     8   8   8   8   8   8   8   8
#     4   8  13  22  37  60  90 119 145 175 215 266
#     4  10  20  34  51  72  97 125 160 200 242 287
#     4   9  18  33  50  68  94 127 158 189 232 285
#     4  10  19  32  50  71  97 128 160 194 234 280
#     4   9  17  27  41  65  95 124 155 189 224 269
#     4  10  20  32  48  68  91 123 160 195 235 287
#     4   9  16  26  44  68  92 120 152 187 230 276
#     4   9  17  30  49  73  97 120 153 197 237 275
#
# _framework density 19.851443
#
# number of rings (size 3 to 8) (size 9 to 14) (size 15 to 20)
#    0.000    2.750    0.000    3.750    0.000    4.750 
#    0.000    2.500    0.000    1.500    0.000    7.000 
#    0.000    0.000    0.000    0.000    0.000    0.000 
#
# Total GULP energy -178137.065877 kJ/mol
# GULP energy per Si atom -5566.783309 kJ/mol
# Density = 1.980626 g / cm^3
# Si number density = 19.851443 Si / 1000 Ang^3
#
#
#
# Elastic Constant Matrix: (Units=GPa)
#
#
# Indices 1 2 3 4 5 6 
#
# 1 39.2190 6.0160 -2.7501 0.0000 0.0000 0.0000
# 2 6.0160 104.9814 58.5469 0.0000 0.0000 0.0000
# 3 -2.7501 58.5469 92.5207 0.0000 0.0000 0.0000
# 4 0.0000 0.0000 0.0000 42.0617 0.0000 0.0000
# 5 0.0000 0.0000 0.0000 0.0000 25.5846 0.0000
# 6 0.0000 0.0000 0.0000 0.0000 0.0000 -2.4506
#
#
#
# Elastic Compliance Matrix: (Units=1/GPa)
#
#
# Indices 1 2 3 4 5 6 
#
# 1 0.026143 -0.002985 0.002666 0.000000 0.000000 0.000000
# 2 -0.002985 0.015061 -0.009619 0.000000 0.000000 0.000000
# 3 0.002666 -0.009619 0.016975 0.000000 0.000000 0.000000
# 4 0.000000 0.000000 0.000000 0.023775 0.000000 0.000000
# 5 0.000000 0.000000 0.000000 0.000000 0.039086 0.000000
# 6 0.000000 0.000000 0.000000 0.000000 0.000000 -0.408068
#
#
# Mechanical properties :
#
#
# Convention : Reuss Voigt Hill
#
# Bulk Modulus (GPa) = 26.10841 40.03853 33.07347
# Shear Modulus (GPa) = -19.65523 24.69971 2.52224
#
# Velocity S-wave (km/s) = -3.15002 3.53119 1.12841
# Velocity P-wave (km/s) = 0.22306 6.06948 4.28887
#
# Compressibility (1/GPa) = 0.03830183
#
# Stress axis : x y z
#
# Youngs Moduli (GPa) = 38.25171 66.39583 58.91090
#
# Poissons Ratio (x) = 0.19818 -0.15705
# Poissons Ratio (y) = 0.11418 0.56669
# Poissons Ratio (z) = -0.10197 0.63869
#
# Static dielectric constant tensor:
#      x y z
#    x 1.741310 0.000000 0.000000 
#    y 0.000000 1.788040 0.000000 
#    z 0.000000 0.000000 1.728430 
# 
# From -- ./inp_files/16241.got.cif
#   From: 2010.05.17/outbox.cif.g08.bks.cpg/sg35_9_cif.got.tgz:16241.got - 2010.06.03 17:29:28.
