data_PCOD9348780
_publ_section_title
;
Structure prediction by ZEFSAII (Michael W. Deem and Ramdas Pophale) SiO2 
 PCOD9348780
Probable space group: C M M 2
;
_chemical_formula_sum "Si O2"
_cell_formula_units_Z 48
_cell_length_a 18.524810
_cell_length_b 7.459893
_cell_length_c 18.004477
_cell_angle_alpha 90.000000
_cell_angle_beta 90.000000
_cell_angle_gamma 90.000000
_cell_volume 2488.094499
_symmetry_space_group_name_H-M "C M M 2"
_symmetry_group_IT_number 35
_symmetry_cell_setting 'orthorhombic'
loop_
_space_group_symop_operation_xyz
x,y,z
-x,-y,z
-x,y,z
x,-y,z
1/2+x,1/2+y,z
1/2-x,1/2-y,z
1/2-x,1/2+y,z
1/2+x,1/2-y,z
loop_
_atom_site_type_symbol
_atom_site_label
_atom_site_fract_x
_atom_site_fract_y
_atom_site_fract_z
Si Si1 0.087393 0.000000 0.905910
Si Si2 0.083215 0.280473 0.321883
Si Si3 0.665180 0.785994 0.174924
Si Si4 0.164626 0.713332 0.635256
Si Si5 0.913658 0.711618 0.025725
Si Si6 0.913114 0.000000 0.735146
Si Si7 0.165660 0.286159 0.467267
O O1 0.108610 0.827056 0.954387
O O2 0.111628 0.000000 0.821030
O O3 0.000000 0.000000 0.903244
O O4 0.085554 0.500000 0.322539
O O5 0.127986 0.218539 0.250220
O O6 0.118549 0.217701 0.398917
O O7 0.000000 0.228262 0.315961
O O8 0.750000 0.750000 0.174800
O O9 0.654404 0.000000 0.174938
O O10 0.627091 0.722520 0.099506
O O11 0.152165 0.500000 0.641308
O O12 0.250000 0.750000 0.646253
O O13 0.147847 0.775830 0.550613
O O14 0.118577 0.827550 0.692793
O O15 0.899614 0.500000 0.014868
O O16 0.000000 0.732924 0.036837
O O17 0.000000 0.000000 0.732378
O O18 0.156440 0.500000 0.469416
O O19 0.250000 0.250000 0.453161
#
# Coordination Sequence:
#
# PCOD9348780 Si02
#       7
#     4   8   8   8   8   4   8
#     4   9  20  38  60  85 115 148 181 231 293 348
#     4   9  17  31  50  75 108 144 187 231 274 328
#     4  10  20  32  52  77 106 145 181 229 279 329
#     4  10  20  38  64  88 120 163 205 244 300 368
#     4   9  18  35  59  82 106 144 191 229 276 342
#     4  11  24  40  62  95 126 154 197 253 308 362
#     4   9  18  31  54  81 106 147 191 233 282 339
#
# _framework density 19.291872000000001
#
# number of rings (size 3 to 8) (size 9 to 14) (size 15 to 20)
#    0.000    2.500    0.833    1.000    2.333    3.667 
#    0.000    4.167    0.000    1.000    0.000    0.000 
#    0.000    0.000    0.000    0.000    0.000    0.000 
#
# Total GULP energy -133968.904880 kJ/mol
# GULP energy per Si atom -5582.037703 kJ/mol
# Density = 1.924796 g / cm^3
# Si number density = 19.291872 Si / 1000 Ang^3
#
#
#
# Elastic Constant Matrix: (Units=GPa)
#
#
# Indices 1 2 3 4 5 6 
#
# 1 90.4111 31.2160 100.2413 0.0000 0.0000 0.0000
# 2 31.2160 90.3127 60.7332 0.0000 0.0000 0.0000
# 3 100.2413 60.7332 211.5492 0.0000 0.0000 0.0000
# 4 0.0000 0.0000 0.0000 248.5128 0.0000 0.0000
# 5 0.0000 0.0000 0.0000 0.0000 9.8344 0.0000
# 6 0.0000 0.0000 0.0000 0.0000 0.0000 17.9775
#
#
#
# Elastic Compliance Matrix: (Units=1/GPa)
#
#
# Indices 1 2 3 4 5 6 
#
# 1 0.023348 -0.000781 -0.010839 0.000000 0.000000 0.000000
# 2 -0.000781 0.013748 -0.003577 0.000000 0.000000 0.000000
# 3 -0.010839 -0.003577 0.010890 0.000000 0.000000 0.000000
# 4 0.000000 0.000000 0.000000 0.004024 0.000000 0.000000
# 5 0.000000 0.000000 0.000000 0.000000 0.101684 0.000000
# 6 0.000000 0.000000 0.000000 0.000000 0.000000 0.055625
#
#
# Mechanical properties :
#
#
# Convention : Reuss Voigt Hill
#
# Bulk Modulus (GPa) = 56.84420 86.29488 71.56954
# Shear Modulus (GPa) = 20.36035 68.60378 44.48206
#
# Velocity S-wave (km/s) = 3.25219 5.96977 4.80702
# Velocity P-wave (km/s) = 6.60543 9.60968 8.24553
#
# Compressibility (1/GPa) = 0.01759195
#
# Stress axis : x y z
#
# Youngs Moduli (GPa) = 42.83076 72.73843 91.82871
#
# Poissons Ratio (x) = 0.05681 0.99533
# Poissons Ratio (y) = 0.03345 0.32845
# Poissons Ratio (z) = 0.46424 0.26017
#
# Static dielectric constant tensor:
#      x y z
#    x 1.645330 0.000000 0.000000 
#    y 0.000000 1.709720 0.000000 
#    z 0.000000 0.000000 1.663600 
# 
# From -- ./inp_files/15225.got.cif
#   From: 2010.05.17/outbox.cif.g08.bks.cpg/sg35_8_cif.got.tgz:15225.got - 2010.06.03 17:29:28.
