data_PCOD9348632
_publ_section_title
;
Structure prediction by ZEFSAII (Michael W. Deem and Ramdas Pophale) SiO2 
 PCOD9348632
Probable space group: C M M 2
;
_chemical_formula_sum "Si O2"
_cell_formula_units_Z 64
_cell_length_a 14.111052
_cell_length_b 24.086712
_cell_length_c 9.077537
_cell_angle_alpha 90.000000
_cell_angle_beta 90.000000
_cell_angle_gamma 90.000000
_cell_volume 3085.353571
_symmetry_space_group_name_H-M "C M M 2"
_symmetry_group_IT_number 35
_symmetry_cell_setting 'orthorhombic'
loop_
_space_group_symop_operation_xyz
x,y,z
-x,-y,z
-x,y,z
x,-y,z
1/2+x,1/2+y,z
1/2-x,1/2-y,z
1/2-x,1/2+y,z
1/2+x,1/2-y,z
loop_
_atom_site_type_symbol
_atom_site_label
_atom_site_fract_x
_atom_site_fract_y
_atom_site_fract_z
Si Si1 0.391665 0.865868 0.211440
Si Si2 0.859164 0.732384 0.983451
Si Si3 0.888243 0.875089 0.604403
Si Si4 0.248283 0.691876 0.422342
Si Si5 0.238112 0.561696 0.026843
Si Si6 0.893598 0.677409 0.666455
Si Si7 0.205043 0.439095 0.676543
Si Si8 0.897723 0.144651 0.949452
O O1 0.500000 0.873329 0.261814
O O2 0.313333 0.853520 0.335489
O O3 0.352723 0.917028 0.115530
O O4 0.386386 0.811736 0.106866
O O5 0.750000 0.750000 0.977255
O O6 0.884414 0.702029 0.829942
O O7 0.903591 0.792725 0.003962
O O8 0.846663 0.832811 0.482489
O O9 0.808554 0.923704 0.608716
O O10 0.000000 0.888060 0.582346
O O11 0.878796 0.851731 0.772505
O O12 0.250000 0.750000 0.335528
O O13 0.183019 0.705872 0.563151
O O14 0.267936 0.500000 0.075104
O O15 0.318805 0.609019 0.032831
O O16 0.217101 0.558710 0.852994
O O17 0.865630 0.612446 0.656085
O O18 0.000000 0.686944 0.614339
O O19 0.174013 0.500000 0.624539
O O20 0.000000 0.116522 0.965202
#
# Coordination Sequence:
#
# PCOD9348632 Si02
#       8
#     8   8   8   8   8   8   8   8
#     4  12  25  41  59  87 124 165 210 254 307 370
#     4  12  20  36  60  89 126 161 203 257 310 367
#     4   9  19  37  60  89 121 158 205 250 309 373
#     4  11  24  40  58  86 124 167 201 254 309 373
#     4  10  21  39  61  86 121 162 204 255 309 364
#     4  11  21  36  59  91 126 165 207 252 309 373
#     4   9  18  34  58  91 124 155 202 261 311 360
#     4  10  19  34  62  97 125 157 201 253 311 370
#
# _framework density 20.743165000000001
#
# number of rings (size 3 to 8) (size 9 to 14) (size 15 to 20)
#    0.000    1.500    2.500    4.500    0.000    3.000 
#    0.000    6.875    0.000    3.000    0.000    0.000 
#    0.000    0.000    0.000    0.000    0.000    0.000 
#
# Total GULP energy -178495.057619 kJ/mol
# GULP energy per Si atom -5577.970551 kJ/mol
# Density = 2.069595 g / cm^3
# Si number density = 20.743165 Si / 1000 Ang^3
#
#
#
# Elastic Constant Matrix: (Units=GPa)
#
#
# Indices 1 2 3 4 5 6 
#
# 1 111.0898 12.0579 7.5000 0.0000 0.0000 0.0000
# 2 12.0579 112.1706 5.5152 0.0000 0.0000 0.0000
# 3 7.5000 5.5152 37.2996 0.0000 0.0000 0.0000
# 4 0.0000 0.0000 0.0000 4.2808 0.0000 0.0000
# 5 0.0000 0.0000 0.0000 0.0000 -0.4783 0.0000
# 6 0.0000 0.0000 0.0000 0.0000 0.0000 10.1651
#
#
#
# Elastic Compliance Matrix: (Units=1/GPa)
#
#
# Indices 1 2 3 4 5 6 
#
# 1 0.009216 -0.000906 -0.001719 0.000000 0.000000 0.000000
# 2 -0.000906 0.009069 -0.001159 0.000000 0.000000 0.000000
# 3 -0.001719 -0.001159 0.027327 0.000000 0.000000 0.000000
# 4 0.000000 0.000000 0.000000 0.233602 0.000000 0.000000
# 5 0.000000 0.000000 0.000000 0.000000 -2.090832 0.000000
# 6 0.000000 0.000000 0.000000 0.000000 0.000000 0.098375
#
#
# Mechanical properties :
#
#
# Convention : Reuss Voigt Hill
#
# Bulk Modulus (GPa) = 26.28521 34.52292 30.40407
# Shear Modulus (GPa) = -2.95335 18.49265 7.76965
#
# Velocity S-wave (km/s) = -1.19451 2.98905 1.93747
# Velocity P-wave (km/s) = 3.28584 5.34712 4.43782
#
# Compressibility (1/GPa) = 0.03804421
#
# Stress axis : x y z
#
# Youngs Moduli (GPa) = 108.50515 110.26114 36.59392
#
# Poissons Ratio (x) = 0.09992 0.06291
# Poissons Ratio (y) = 0.09832 0.04241
# Poissons Ratio (z) = 0.18654 0.12777
#
# Static dielectric constant tensor:
#      x y z
#    x 1.860330 0.000000 0.000000 
#    y 0.000000 1.766110 0.000000 
#    z 0.000000 0.000000 1.760350 
# 
# From -- ./inp_files/7864.got.cif
#   From: 2010.05.17/outbox.cif.g08.bks.cpg/sg35_4_cif.got.tgz:7864.got - 2010.06.03 17:29:28.
