data_PCOD9348638
_publ_section_title
;
Structure prediction by ZEFSAII (Michael W. Deem and Ramdas Pophale) SiO2 
 PCOD9348638
Probable space group: C M M 2
;
_chemical_formula_sum "Si O2"
_cell_formula_units_Z 64
_cell_length_a 12.756227
_cell_length_b 33.984660
_cell_length_c 8.306688
_cell_angle_alpha 90.000000
_cell_angle_beta 90.000000
_cell_angle_gamma 90.000000
_cell_volume 3601.082466
_symmetry_space_group_name_H-M "C M M 2"
_symmetry_group_IT_number 35
_symmetry_cell_setting 'orthorhombic'
loop_
_space_group_symop_operation_xyz
x,y,z
-x,-y,z
-x,y,z
x,-y,z
1/2+x,1/2+y,z
1/2-x,1/2-y,z
1/2-x,1/2+y,z
1/2+x,1/2-y,z
loop_
_atom_site_type_symbol
_atom_site_label
_atom_site_fract_x
_atom_site_fract_y
_atom_site_fract_z
Si Si1 0.876006 0.831990 0.760840
Si Si2 0.621427 0.045767 0.649673
Si Si3 0.777361 0.910365 0.862347
Si Si4 0.124511 0.833297 0.401867
Si Si5 0.278946 0.092355 0.361933
Si Si6 0.880467 0.046226 0.155760
Si Si7 0.619629 0.863127 0.078745
Si Si8 0.277088 0.295661 0.087361
O O1 0.841068 0.878064 0.760541
O O2 0.852474 0.815665 0.580705
O O3 0.000000 0.830228 0.783562
O O4 0.826036 0.810378 0.916564
O O5 0.500000 0.053025 0.701563
O O6 0.712669 0.054921 0.778271
O O7 0.655288 0.075237 0.508426
O O8 0.626571 0.000000 0.600926
O O9 0.852019 0.928032 0.999378
O O10 0.686859 0.884003 0.941761
O O11 0.197253 0.872061 0.391721
O O12 0.152965 0.807530 0.243661
O O13 0.000000 0.842404 0.397270
O O14 0.205972 0.058382 0.286388
O O15 0.360118 0.109503 0.232706
O O16 0.000000 0.054734 0.207717
O O17 0.873372 0.000000 0.119560
O O18 0.500000 0.860040 0.035744
O O19 0.671433 0.820998 0.109387
O O20 0.250000 0.250000 0.082907
#
# Coordination Sequence:
#
# PCOD9348638 Si02
#       8
#     8   8   8   8   8   8   8   8
#     4  10  20  36  60  86 112 148 192 234 284 344
#     4  11  22  34  51  77 110 149 189 232 284 335
#     4  10  19  35  54  75 108 142 186 237 281 335
#     4  10  20  36  60  86 112 148 192 234 284 344
#     4  10  19  35  54  75 108 142 186 237 281 335
#     4  10  20  33  51  76 106 142 184 236 298 351
#     4   9  19  34  55  77  99 139 186 225 272 327
#     4  10  22  37  58  86 119 151 179 231 281 344
#
# _framework density 17.772432999999999
#
# number of rings (size 3 to 8) (size 9 to 14) (size 15 to 20)
#    0.000    2.000    1.250    3.375    0.000    1.500 
#    0.000    0.000    0.000    9.000    0.000    0.000 
#    0.000    0.000    0.000    0.000    0.000    0.000 
#
# Total GULP energy -178237.530422 kJ/mol
# GULP energy per Si atom -5569.922826 kJ/mol
# Density = 1.773198 g / cm^3
# Si number density = 17.772433 Si / 1000 Ang^3
#
#
#
# Elastic Constant Matrix: (Units=GPa)
#
#
# Indices 1 2 3 4 5 6 
#
# 1 22.6805 48.1552 7.3314 0.0000 0.0000 0.0000
# 2 48.1552 54.8935 4.7894 0.0000 0.0000 0.0000
# 3 7.3314 4.7894 61.7925 0.0000 0.0000 0.0000
# 4 0.0000 0.0000 0.0000 9.5381 0.0000 0.0000
# 5 0.0000 0.0000 0.0000 0.0000 -115.1572 0.0000
# 6 0.0000 0.0000 0.0000 0.0000 0.0000 14.1664
#
#
#
# Elastic Compliance Matrix: (Units=1/GPa)
#
#
# Indices 1 2 3 4 5 6 
#
# 1 -0.050702 0.044253 0.002586 0.000000 0.000000 0.000000
# 2 0.044253 -0.020282 -0.003678 0.000000 0.000000 0.000000
# 3 0.002586 -0.003678 0.016162 0.000000 0.000000 0.000000
# 4 0.000000 0.000000 0.000000 0.104843 0.000000 0.000000
# 5 0.000000 0.000000 0.000000 0.000000 -0.008684 0.000000
# 6 0.000000 0.000000 0.000000 0.000000 0.000000 0.070589
#
#
# Mechanical properties :
#
#
# Convention : Reuss Voigt Hill
#
# Bulk Modulus (GPa) = 31.74918 28.87983 30.31451
# Shear Modulus (GPa) = 138.48452 -13.01784 62.73334
#
# Velocity S-wave (km/s) = 8.83686 -2.70936 5.94767
# Velocity P-wave (km/s) = 11.04641 2.54903 8.01626
#
# Compressibility (1/GPa) = 0.03149688
#
# Stress axis : x y z
#
# Youngs Moduli (GPa) = -19.72309 -49.30372 61.87540
#
# Poissons Ratio (x) = 2.18182 -0.15999
# Poissons Ratio (y) = 0.87280 0.22760
# Poissons Ratio (z) = 0.05100 -0.18135
#
# Static dielectric constant tensor:
#      x y z
#    x 1.626880 0.000000 0.000000 
#    y 0.000000 1.591250 0.000000 
#    z 0.000000 0.000000 1.654630 
# 
# From -- ./inp_files/6550.got.cif
#   From: 2010.05.17/outbox.cif.g08.bks.cpg/sg35_4_cif.got.tgz:6550.got - 2010.06.03 17:29:28.
