data_PCOD9348184
_publ_section_title
;
Structure prediction by ZEFSAII (Michael W. Deem and Ramdas Pophale) SiO2 
 PCOD9348184
Probable space group: C M M 2
;
_chemical_formula_sum "Si O2"
_cell_formula_units_Z 58
_cell_length_a 19.392881
_cell_length_b 7.331843
_cell_length_c 18.734917
_cell_angle_alpha 90.000000
_cell_angle_beta 90.000000
_cell_angle_gamma 90.000000
_cell_volume 2663.834643
_symmetry_space_group_name_H-M "C M M 2"
_symmetry_group_IT_number 35
_symmetry_cell_setting 'orthorhombic'
loop_
_space_group_symop_operation_xyz
x,y,z
-x,-y,z
-x,y,z
x,-y,z
1/2+x,1/2+y,z
1/2-x,1/2-y,z
1/2-x,1/2+y,z
1/2+x,1/2-y,z
loop_
_atom_site_type_symbol
_atom_site_label
_atom_site_fract_x
_atom_site_fract_y
_atom_site_fract_z
Si Si1 0.579661 0.221979 0.247820
Si Si2 0.142461 0.297733 0.534633
Si Si3 0.919986 0.722262 0.088030
Si Si4 0.827442 0.717710 0.688984
Si Si5 0.500000 0.000000 0.540923
Si Si6 0.831643 0.282367 0.954205
Si Si7 0.079612 0.723175 0.818557
Si Si8 0.670947 0.217458 0.378604
O O1 0.500000 0.272265 0.257555
O O2 0.600689 0.279984 0.168039
O O3 0.624206 0.287864 0.314197
O O4 0.582702 0.000000 0.247654
O O5 0.178131 0.500000 0.532208
O O6 0.165429 0.208975 0.608617
O O7 0.157256 0.210034 0.458279
O O8 0.061553 0.344808 0.540060
O O9 0.919717 0.500000 0.087833
O O10 0.000000 0.775340 0.075127
O O11 0.868679 0.785368 0.026247
O O12 0.838650 0.500000 0.683316
O O13 0.750000 0.750000 0.715917
O O14 0.883760 0.783493 0.745456
O O15 0.840356 0.500000 0.954428
O O16 0.750000 0.250000 0.951168
O O17 0.873563 0.216274 0.885037
O O18 0.079706 0.500000 0.818326
O O19 0.000000 0.779216 0.824400
O O20 0.750000 0.250000 0.360453
O O21 0.656524 0.000000 0.382919
#
# Coordination Sequence:
#
# PCOD9348184 Si02
#       8
#     8   8   8   8   2   8   8   8
#     4   8  15  26  45  69  90 115 153 197 229 259
#     4   8  17  27  46  70  93 113 149 194 234 256
#     4   8  14  27  46  68  91 116 151 193 230 263
#     4  10  19  31  48  70  97 124 152 187 231 277
#     4   8  16  28  48  76  90 108 156 216 222 252
#     4  10  19  31  48  70  95 121 149 184 230 277
#     4   9  18  30  49  72  91 116 157 200 226 256
#     4  10  19  30  45  68  96 122 152 187 231 276
#
# _framework density 21.773125
#
# number of rings (size 3 to 8) (size 9 to 14) (size 15 to 20)
#    0.414    2.621    0.000    2.069    1.931    2.207 
#    0.000    0.000    0.000    3.310    0.000    2.897 
#    0.000    0.000    0.000    0.000    0.000    0.000 
#
# Total GULP energy -161505.311884 kJ/mol
# GULP energy per Si atom -5569.148686 kJ/mol
# Density = 2.172357 g / cm^3
# Si number density = 21.773125 Si / 1000 Ang^3
#
#
#
# Elastic Constant Matrix: (Units=GPa)
#
#
# Indices 1 2 3 4 5 6 
#
# 1 156.4318 -2.5232 117.1914 0.0000 0.0000 0.0000
# 2 -2.5232 82.4132 13.6545 0.0000 0.0000 0.0000
# 3 117.1914 13.6545 224.1521 0.0000 0.0000 0.0000
# 4 0.0000 0.0000 0.0000 -12.8807 0.0000 0.0000
# 5 0.0000 0.0000 0.0000 0.0000 41.4099 0.0000
# 6 0.0000 0.0000 0.0000 0.0000 0.0000 14.4107
#
#
#
# Elastic Compliance Matrix: (Units=1/GPa)
#
#
# Indices 1 2 3 4 5 6 
#
# 1 0.010636 0.001260 -0.005638 0.000000 0.000000 0.000000
# 2 0.001260 0.012407 -0.001414 0.000000 0.000000 0.000000
# 3 -0.005638 -0.001414 0.007495 0.000000 0.000000 0.000000
# 4 0.000000 0.000000 0.000000 -0.077636 0.000000 0.000000
# 5 0.000000 0.000000 0.000000 0.000000 0.024149 0.000000
# 6 0.000000 0.000000 0.000000 0.000000 0.000000 0.069393
#
#
# Mechanical properties :
#
#
# Convention : Reuss Voigt Hill
#
# Bulk Modulus (GPa) = 52.76074 79.96030 66.36052
# Shear Modulus (GPa) = 77.70412 30.89961 54.30187
#
# Velocity S-wave (km/s) = 5.98043 3.77126 4.99940
# Velocity P-wave (km/s) = 8.48364 7.46775 7.99185
#
# Compressibility (1/GPa) = 0.01895349
#
# Stress axis : x y z
#
# Youngs Moduli (GPa) = 94.01739 80.60038 133.42429
#
# Poissons Ratio (x) = -0.10153 0.75220
# Poissons Ratio (y) = -0.11843 0.18871
# Poissons Ratio (z) = 0.53004 0.11400
#
# Static dielectric constant tensor:
#      x y z
#    x 1.723740 0.000000 0.000000 
#    y 0.000000 1.827020 0.000000 
#    z 0.000000 0.000000 1.806680 
# 
# From -- ./inp_files/18886.got.cif
#   From: 2010.05.17/outbox.cif.g08.bks.cpg/sg35_10_cif.got.tgz:18886.got - 2010.06.03 17:29:28.
