data_PCOD9348525
_publ_section_title
;
Structure prediction by ZEFSAII (Michael W. Deem and Ramdas Pophale) SiO2 
 PCOD9348525
Probable space group: C M M 2
;
_chemical_formula_sum "Si O2"
_cell_formula_units_Z 64
_cell_length_a 18.489190
_cell_length_b 16.556409
_cell_length_c 11.892035
_cell_angle_alpha 90.000000
_cell_angle_beta 90.000000
_cell_angle_gamma 90.000000
_cell_volume 3640.325439
_symmetry_space_group_name_H-M "C M M 2"
_symmetry_group_IT_number 35
_symmetry_cell_setting 'orthorhombic'
loop_
_space_group_symop_operation_xyz
x,y,z
-x,-y,z
-x,y,z
x,-y,z
1/2+x,1/2+y,z
1/2-x,1/2-y,z
1/2-x,1/2+y,z
1/2+x,1/2-y,z
loop_
_atom_site_type_symbol
_atom_site_label
_atom_site_fract_x
_atom_site_fract_y
_atom_site_fract_z
Si Si1 0.300080 0.174111 0.267820
Si Si2 0.839040 0.407266 0.498342
Si Si3 0.581332 0.824691 0.869768
Si Si4 0.235503 0.595437 0.860927
Si Si5 0.082048 0.740453 0.620855
Si Si6 0.786606 0.837482 0.627440
Si Si7 0.310086 0.404723 0.096561
Si Si8 0.416073 0.737850 0.110287
O O1 0.250000 0.250000 0.306773
O O2 0.331591 0.124756 0.371822
O O3 0.247454 0.119404 0.192117
O O4 0.364488 0.208957 0.190524
O O5 0.863821 0.500000 0.505804
O O6 0.887746 0.342422 0.565909
O O7 0.759169 0.399149 0.553177
O O8 0.500000 0.861997 0.870603
O O9 0.650566 0.882800 0.864621
O O10 0.585566 0.772543 0.755633
O O11 0.588028 0.772774 0.983414
O O12 0.243261 0.500000 0.846138
O O13 0.273945 0.638662 0.756533
O O14 0.272931 0.618833 0.977969
O O15 0.131659 0.817719 0.594239
O O16 0.000000 0.752148 0.585811
O O17 0.750000 0.750000 0.611709
O O18 0.323820 0.500000 0.096929
O O19 0.381345 0.351045 0.111466
O O20 0.500000 0.739353 0.144657
#
# Coordination Sequence:
#
# PCOD9348525 Si02
#       8
#     8   8   8   8   8   8   8   8
#     4  10  20  36  58  79 105 140 184 226 267 321
#     4  11  22  36  56  81 109 140 177 228 277 319
#     4  10  19  33  54  82 115 146 174 215 267 321
#     4  11  20  32  54  83 111 144 181 219 266 317
#     4  10  21  35  55  81 109 144 182 217 264 321
#     4  10  19  33  56  79 107 140 185 221 260 310
#     4  10  21  34  55  83 111 142 178 225 271 313
#     4  10  21  36  57  81 108 144 183 219 265 323
#
# _framework density 17.580846000000001
#
# number of rings (size 3 to 8) (size 9 to 14) (size 15 to 20)
#    0.000    1.750    3.750    2.625    0.000    1.250 
#    0.000    1.250    0.000    3.375    0.000    0.000 
#    0.000    0.000    0.000    0.000    0.000    0.000 
#
# Total GULP energy -178490.480677 kJ/mol
# GULP energy per Si atom -5577.827521 kJ/mol
# Density = 1.754083 g / cm^3
# Si number density = 17.580846 Si / 1000 Ang^3
#
#
#
# Elastic Constant Matrix: (Units=GPa)
#
#
# Indices 1 2 3 4 5 6 
#
# 1 116.1007 29.6377 18.7419 0.0000 0.0000 0.0000
# 2 29.6377 43.8404 17.3466 0.0000 0.0000 0.0000
# 3 18.7419 17.3466 72.0610 0.0000 0.0000 0.0000
# 4 0.0000 0.0000 0.0000 22.9912 0.0000 0.0000
# 5 0.0000 0.0000 0.0000 0.0000 0.8430 0.0000
# 6 0.0000 0.0000 0.0000 0.0000 0.0000 17.7751
#
#
#
# Elastic Compliance Matrix: (Units=1/GPa)
#
#
# Indices 1 2 3 4 5 6 
#
# 1 0.010492 -0.006646 -0.001129 0.000000 0.000000 0.000000
# 2 -0.006646 0.029422 -0.005354 0.000000 0.000000 0.000000
# 3 -0.001129 -0.005354 0.015460 0.000000 0.000000 0.000000
# 4 0.000000 0.000000 0.000000 0.043495 0.000000 0.000000
# 5 0.000000 0.000000 0.000000 0.000000 1.186261 0.000000
# 6 0.000000 0.000000 0.000000 0.000000 0.000000 0.056258
#
#
# Mechanical properties :
#
#
# Convention : Reuss Voigt Hill
#
# Bulk Modulus (GPa) = 34.34647 40.38383 37.36515
# Shear Modulus (GPa) = 3.63016 19.40692 11.51854
#
# Velocity S-wave (km/s) = 1.43851 3.32605 2.56242
# Velocity P-wave (km/s) = 4.72629 6.14576 5.48216
#
# Compressibility (1/GPa) = 0.02911507
#
# Stress axis : x y z
#
# Youngs Moduli (GPa) = 95.30983 33.98868 64.68513
#
# Poissons Ratio (x) = 0.22590 0.07302
# Poissons Ratio (y) = 0.63346 0.34631
# Poissons Ratio (z) = 0.10759 0.18197
#
# Static dielectric constant tensor:
#      x y z
#    x 1.617260 0.000000 0.000000 
#    y 0.000000 1.574750 0.000000 
#    z 0.000000 0.000000 1.604650 
# 
# From -- ./inp_files/13620.got.cif
#   From: 2010.05.17/outbox.cif.g08.bks.cpg/sg35_7_cif.got.tgz:13620.got - 2010.06.03 17:29:28.
