data_PCOD9348916
_publ_section_title
;
Structure prediction by ZEFSAII (Michael W. Deem and Ramdas Pophale) SiO2 
 PCOD9348916
Probable space group: C M M 2
;
_chemical_formula_sum "Si O2"
_cell_formula_units_Z 64
_cell_length_a 26.006079
_cell_length_b 7.615041
_cell_length_c 13.241083
_cell_angle_alpha 90.000000
_cell_angle_beta 90.000000
_cell_angle_gamma 90.000000
_cell_volume 2622.229092
_symmetry_space_group_name_H-M "C M M 2"
_symmetry_group_IT_number 35
_symmetry_cell_setting 'orthorhombic'
loop_
_space_group_symop_operation_xyz
x,y,z
-x,-y,z
-x,y,z
x,-y,z
1/2+x,1/2+y,z
1/2-x,1/2-y,z
1/2-x,1/2+y,z
1/2+x,1/2-y,z
loop_
_atom_site_type_symbol
_atom_site_label
_atom_site_fract_x
_atom_site_fract_y
_atom_site_fract_z
Si Si1 0.304892 0.789916 0.213280
Si Si2 0.193476 0.709683 0.870044
Si Si3 0.554445 0.785780 0.370481
Si Si4 0.169952 0.704624 0.648802
Si Si5 0.556585 0.713776 0.707912
Si Si6 0.166904 0.284877 0.433652
Si Si7 0.418736 0.700634 0.930491
Si Si8 0.085222 0.708782 0.150712
O O1 0.250000 0.750000 0.166602
O O2 0.306933 0.725561 0.329749
O O3 0.355991 0.723304 0.158539
O O4 0.309072 0.000000 0.216682
O O5 0.186883 0.500000 0.869174
O O6 0.250000 0.750000 0.910720
O O7 0.190010 0.780912 0.754367
O O8 0.143286 0.781389 0.925730
O O9 0.500000 0.725428 0.413666
O O10 0.607144 0.730941 0.422453
O O11 0.557967 0.728951 0.252795
O O12 0.554710 0.000000 0.372998
O O13 0.184427 0.500000 0.650076
O O14 0.107680 0.717301 0.653708
O O15 0.187200 0.780072 0.541278
O O16 0.500000 0.764915 0.669596
O O17 0.559745 0.500000 0.706150
O O18 0.561648 0.778390 0.824735
O O19 0.168537 0.500000 0.435114
O O20 0.433872 0.500000 0.924801
O O21 0.436608 0.761872 0.039885
O O22 0.086931 0.500000 0.162206
#
# Coordination Sequence:
#
# PCOD9348916 Si02
#       8
#     8   8   8   8   8   8   8   8
#     4   9  18  32  49  69  96 128 158 192 235 281
#     4  10  20  34  51  72  99 128 160 200 244 288
#     4   8  14  26  46  71  97 126 159 194 236 286
#     4   9  18  32  51  75 100 126 161 204 241 278
#     4   9  19  35  51  69  98 132 162 196 242 293
#     4   8  15  29  47  70 100 127 154 194 239 278
#     4  10  20  34  52  72  95 127 165 201 241 289
#     4   9  18  32  48  69  98 126 155 198 245 283
#
# _framework density 24.406715999999999
#
# number of rings (size 3 to 8) (size 9 to 14) (size 15 to 20)
#    0.000    3.000    0.000    2.250    0.000    3.750 
#    0.000    3.125    0.000    0.750    0.000    0.000 
#    0.000    0.000    0.000    0.000    0.000    0.000 
#
# Total GULP energy -178632.132053 kJ/mol
# GULP energy per Si atom -5582.254127 kJ/mol
# Density = 2.435117 g / cm^3
# Si number density = 24.406716 Si / 1000 Ang^3
#
#
#
# Elastic Constant Matrix: (Units=GPa)
#
#
# Indices 1 2 3 4 5 6 
#
# 1 116.2848 -12.4396 -4.5297 0.0000 0.0000 0.0000
# 2 -12.4396 51.4414 -0.8775 0.0000 0.0000 0.0000
# 3 -4.5297 -0.8775 115.2815 0.0000 0.0000 0.0000
# 4 0.0000 0.0000 0.0000 88.5689 0.0000 0.0000
# 5 0.0000 0.0000 0.0000 0.0000 -17.9517 0.0000
# 6 0.0000 0.0000 0.0000 0.0000 0.0000 -1.8609
#
#
#
# Elastic Compliance Matrix: (Units=1/GPa)
#
#
# Indices 1 2 3 4 5 6 
#
# 1 0.008843 0.002145 0.000364 0.000000 0.000000 0.000000
# 2 0.002145 0.019962 0.000236 0.000000 0.000000 0.000000
# 3 0.000364 0.000236 0.008691 0.000000 0.000000 0.000000
# 4 0.000000 0.000000 0.000000 0.011291 0.000000 0.000000
# 5 0.000000 0.000000 0.000000 0.000000 -0.055705 0.000000
# 6 0.000000 0.000000 0.000000 0.000000 0.000000 -0.537362
#
#
# Mechanical properties :
#
#
# Convention : Reuss Voigt Hill
#
# Bulk Modulus (GPa) = 23.26376 27.47934 25.37155
# Shear Modulus (GPa) = -9.33810 33.80822 12.23506
#
# Velocity S-wave (km/s) = -1.95815 3.72587 2.24140
# Velocity P-wave (km/s) = 2.10712 5.45828 4.13719
#
# Compressibility (1/GPa) = 0.04298531
#
# Stress axis : x y z
#
# Youngs Moduli (GPa) = 113.08157 50.09453 115.06805
#
# Poissons Ratio (x) = -0.10744 -0.04186
# Poissons Ratio (y) = -0.24252 -0.02718
# Poissons Ratio (z) = -0.04114 -0.01183
#
# Static dielectric constant tensor:
#      x y z
#    x 1.937130 0.000000 0.000000 
#    y 0.000000 1.907510 0.000000 
#    z 0.000000 0.000000 1.962360 
# 
# From -- ./inp_files/17754.got.cif
#   From: 2010.05.17/outbox.cif.g08.bks.cpg/sg35_9_cif.got.tgz:17754.got - 2010.06.03 17:29:28.
