data_PCOD9348201
_publ_section_title
;
Structure prediction by ZEFSAII (Michael W. Deem and Ramdas Pophale) SiO2 
 PCOD9348201
Probable space group: C M M 2
;
_chemical_formula_sum "Si O2"
_cell_formula_units_Z 64
_cell_length_a 30.187693
_cell_length_b 8.857922
_cell_length_c 12.755853
_cell_angle_alpha 90.000000
_cell_angle_beta 90.000000
_cell_angle_gamma 90.000000
_cell_volume 3410.918025
_symmetry_space_group_name_H-M "C M M 2"
_symmetry_group_IT_number 35
_symmetry_cell_setting 'orthorhombic'
loop_
_space_group_symop_operation_xyz
x,y,z
-x,-y,z
-x,y,z
x,-y,z
1/2+x,1/2+y,z
1/2-x,1/2-y,z
1/2-x,1/2+y,z
1/2+x,1/2-y,z
loop_
_atom_site_type_symbol
_atom_site_label
_atom_site_fract_x
_atom_site_fract_y
_atom_site_fract_z
Si Si1 0.950634 0.817516 0.781260
Si Si2 0.171617 0.326993 0.492252
Si Si3 0.548211 0.681948 0.333823
Si Si4 0.068847 0.325887 0.555496
Si Si5 0.639323 0.316973 0.873832
Si Si6 0.700554 0.683091 0.067227
Si Si7 0.353688 0.317916 0.275831
Si Si8 0.205841 0.179070 0.694602
O O1 0.943135 0.752002 0.664848
O O2 0.911279 0.766453 0.858599
O O3 0.000000 0.776498 0.816923
O O4 0.948205 0.000000 0.773380
O O5 0.186417 0.500000 0.484133
O O6 0.121668 0.324403 0.537762
O O7 0.168848 0.250878 0.379028
O O8 0.199750 0.238430 0.577510
O O9 0.500000 0.729287 0.289481
O O10 0.548968 0.500000 0.335010
O O11 0.550576 0.740757 0.453266
O O12 0.594189 0.730564 0.277788
O O13 0.054206 0.500000 0.556068
O O14 0.638408 0.500000 0.881316
O O15 0.664614 0.276445 0.766834
O O16 0.669308 0.265505 0.970743
O O17 0.704050 0.500000 0.063202
O O18 0.750000 0.750000 0.063364
O O19 0.674097 0.724275 0.173265
O O20 0.353342 0.500000 0.283498
O O21 0.250000 0.250000 0.741739
O O22 0.209193 0.000000 0.694709
#
# Coordination Sequence:
#
# PCOD9348201 Si02
#       8
#     8   8   8   8   8   8   8   8
#     4  10  19  32  52  77 107 145 183 215 258 320
#     4  10  20  34  52  77 110 145 180 219 266 322
#     4   9  17  30  49  74 105 143 183 216 257 319
#     4  10  19  30  47  74 109 145 181 222 262 307
#     4   9  19  36  56  79 108 140 176 222 269 315
#     4  10  21  39  61  82 104 135 179 227 274 323
#     4   9  19  35  55  78 107 141 177 223 274 319
#     4  11  21  34  54  78 108 142 176 218 269 328
#
# _framework density 18.763278
#
# number of rings (size 3 to 8) (size 9 to 14) (size 15 to 20)
#    0.000    2.250    1.250    1.875    0.000    4.000 
#    0.000    3.125    0.000    3.750    0.000    0.000 
#    0.000    3.000    0.000    0.000    0.000    0.000 
#
# Total GULP energy -178459.992993 kJ/mol
# GULP energy per Si atom -5576.874781 kJ/mol
# Density = 1.872057 g / cm^3
# Si number density = 18.763278 Si / 1000 Ang^3
#
#
#
# Elastic Constant Matrix: (Units=GPa)
#
#
# Indices 1 2 3 4 5 6 
#
# 1 152.2629 29.7820 76.8451 0.0000 0.0000 0.0000
# 2 29.7820 19.4288 25.9833 0.0000 0.0000 0.0000
# 3 76.8451 25.9833 116.1294 0.0000 0.0000 0.0000
# 4 0.0000 0.0000 0.0000 8.5441 0.0000 0.0000
# 5 0.0000 0.0000 0.0000 0.0000 17.1692 0.0000
# 6 0.0000 0.0000 0.0000 0.0000 0.0000 19.7175
#
#
#
# Elastic Compliance Matrix: (Units=1/GPa)
#
#
# Indices 1 2 3 4 5 6 
#
# 1 0.011139 -0.010299 -0.005067 0.000000 0.000000 0.000000
# 2 -0.010299 0.082970 -0.011749 0.000000 0.000000 0.000000
# 3 -0.005067 -0.011749 0.014593 0.000000 0.000000 0.000000
# 4 0.000000 0.000000 0.000000 0.117039 0.000000 0.000000
# 5 0.000000 0.000000 0.000000 0.000000 0.058244 0.000000
# 6 0.000000 0.000000 0.000000 0.000000 0.000000 0.050716
#
#
# Mechanical properties :
#
#
# Convention : Reuss Voigt Hill
#
# Bulk Modulus (GPa) = 18.35802 61.44911 39.90357
# Shear Modulus (GPa) = 12.28238 19.43354 15.85796
#
# Velocity S-wave (km/s) = 2.56128 3.22175 2.91032
# Velocity P-wave (km/s) = 4.30722 6.83084 5.71019
#
# Compressibility (1/GPa) = 0.05447210
#
# Stress axis : x y z
#
# Youngs Moduli (GPa) = 89.77394 12.05261 68.52828
#
# Poissons Ratio (x) = 0.12413 0.34721
# Poissons Ratio (y) = 0.92458 0.80513
# Poissons Ratio (z) = 0.45485 0.14161
#
# Static dielectric constant tensor:
#      x y z
#    x 1.698680 0.000000 0.000000 
#    y 0.000000 1.635380 0.000000 
#    z 0.000000 0.000000 1.615160 
# 
# From -- ./inp_files/11942.got.cif
#   From: 2010.05.17/outbox.cif.g08.bks.cpg/sg35_6_cif.got.tgz:11942.got - 2010.06.03 17:29:28.
