data_PCOD9348943
_publ_section_title
;
Structure prediction by ZEFSAII (Michael W. Deem and Ramdas Pophale) SiO2 
 PCOD9348943
Probable space group: C M M 2
;
_chemical_formula_sum "Si O2"
_cell_formula_units_Z 64
_cell_length_a 30.196142
_cell_length_b 8.655735
_cell_length_c 12.809626
_cell_angle_alpha 90.000000
_cell_angle_beta 90.000000
_cell_angle_gamma 90.000000
_cell_volume 3348.049426
_symmetry_space_group_name_H-M "C M M 2"
_symmetry_group_IT_number 35
_symmetry_cell_setting 'orthorhombic'
loop_
_space_group_symop_operation_xyz
x,y,z
-x,-y,z
-x,y,z
x,-y,z
1/2+x,1/2+y,z
1/2-x,1/2-y,z
1/2-x,1/2+y,z
1/2+x,1/2-y,z
loop_
_atom_site_type_symbol
_atom_site_label
_atom_site_fract_x
_atom_site_fract_y
_atom_site_fract_z
Si Si1 0.079679 0.677310 0.225400
Si Si2 0.952974 0.184423 0.022406
Si Si3 0.703888 0.186981 0.391738
Si Si4 0.551723 0.187039 0.656875
Si Si5 0.817790 0.677974 0.159253
Si Si6 0.111395 0.187426 0.844747
Si Si7 0.297180 0.315880 0.933639
Si Si8 0.394237 0.188495 0.451552
O O1 0.064119 0.500000 0.228940
O O2 0.051928 0.769961 0.141961
O O3 0.129666 0.677391 0.180287
O O4 0.083335 0.738741 0.342802
O O5 0.000000 0.242660 0.980529
O O6 0.952534 0.000000 0.015382
O O7 0.913256 0.240304 0.950581
O O8 0.750000 0.250000 0.436203
O O9 0.700830 0.238300 0.269854
O O10 0.657761 0.235176 0.447450
O O11 0.704594 0.000000 0.391373
O O12 0.500000 0.237347 0.662264
O O13 0.582325 0.248203 0.750434
O O14 0.576666 0.235915 0.550233
O O15 0.551572 0.000000 0.659421
O O16 0.803058 0.500000 0.145664
O O17 0.806118 0.766968 0.054022
O O18 0.162214 0.237288 0.860045
O O19 0.110764 0.000000 0.838954
O O20 0.296091 0.500000 0.930422
O O21 0.250000 0.250000 0.901224
O O22 0.393771 0.000000 0.448625
#
# Coordination Sequence:
#
# PCOD9348943 Si02
#       8
#     8   8   8   8   8   8   8   8
#     4   9  17  31  53  79 110 145 179 219 265 319
#     4  10  20  34  52  76 109 145 177 216 272 332
#     4   9  17  30  49  75 109 147 181 214 260 316
#     4  10  21  38  62  86 104 134 185 237 279 323
#     4   9  17  30  49  76 110 146 182 221 261 308
#     4  10  22  40  58  77 108 147 182 222 276 332
#     4  11  22  35  54  79 108 145 184 221 269 324
#     4   8  17  35  55  78 110 142 174 221 279 324
#
# _framework density 19.115608000000002
#
# number of rings (size 3 to 8) (size 9 to 14) (size 15 to 20)
#    0.000    2.500    1.250    2.625    0.000    4.500 
#    0.000    5.000    0.000    3.000    0.000    0.000 
#    0.000    0.000    0.000    0.000    0.000    0.000 
#
# Total GULP energy -178369.971187 kJ/mol
# GULP energy per Si atom -5574.061600 kJ/mol
# Density = 1.907210 g / cm^3
# Si number density = 19.115608 Si / 1000 Ang^3
#
#
#
# Elastic Constant Matrix: (Units=GPa)
#
#
# Indices 1 2 3 4 5 6 
#
# 1 158.3509 27.5303 78.8498 0.0000 0.0000 0.0000
# 2 27.5303 8.0656 16.2734 0.0000 0.0000 0.0000
# 3 78.8498 16.2734 114.8161 0.0000 0.0000 0.0000
# 4 0.0000 0.0000 0.0000 47.3836 0.0000 0.0000
# 5 0.0000 0.0000 0.0000 0.0000 18.4447 0.0000
# 6 0.0000 0.0000 0.0000 0.0000 0.0000 16.6962
#
#
#
# Elastic Compliance Matrix: (Units=1/GPa)
#
#
# Indices 1 2 3 4 5 6 
#
# 1 0.017314 -0.049168 -0.004921 0.000000 0.000000 0.000000
# 2 -0.049168 0.313269 -0.010635 0.000000 0.000000 0.000000
# 3 -0.004921 -0.010635 0.013597 0.000000 0.000000 0.000000
# 4 0.000000 0.000000 0.000000 0.021104 0.000000 0.000000
# 5 0.000000 0.000000 0.000000 0.000000 0.054216 0.000000
# 6 0.000000 0.000000 0.000000 0.000000 0.000000 0.059894
#
#
# Mechanical properties :
#
#
# Convention : Reuss Voigt Hill
#
# Bulk Modulus (GPa) = 4.65701 58.50440 31.58071
# Shear Modulus (GPa) = 7.34841 27.07682 17.21261
#
# Velocity S-wave (km/s) = 1.96279 3.76769 3.00400
# Velocity P-wave (km/s) = 2.75286 7.04268 5.34685
#
# Compressibility (1/GPa) = 0.21473015
#
# Stress axis : x y z
#
# Youngs Moduli (GPa) = 57.75699 3.19215 73.54720
#
# Poissons Ratio (x) = 0.15695 0.36196
# Poissons Ratio (y) = 2.83981 0.78216
# Poissons Ratio (z) = 0.28425 0.03395
#
# Static dielectric constant tensor:
#      x y z
#    x 1.707010 0.000000 0.000000 
#    y 0.000000 1.657130 0.000000 
#    z 0.000000 0.000000 1.653380 
# 
# From -- ./inp_files/14520.got.cif
#   From: 2010.05.17/outbox.cif.g08.bks.cpg/sg35_8_cif.got.tgz:14520.got - 2010.06.03 17:29:28.
