data_PCOD9348174
_publ_section_title
;
Structure prediction by ZEFSAII (Michael W. Deem and Ramdas Pophale) SiO2 
 PCOD9348174
Probable space group: C M M 2
;
_chemical_formula_sum "Si O2"
_cell_formula_units_Z 52
_cell_length_a 9.185333
_cell_length_b 23.800508
_cell_length_c 14.716865
_cell_angle_alpha 90.000000
_cell_angle_beta 90.000000
_cell_angle_gamma 90.000000
_cell_volume 3217.336148
_symmetry_space_group_name_H-M "C M M 2"
_symmetry_group_IT_number 35
_symmetry_cell_setting 'orthorhombic'
loop_
_space_group_symop_operation_xyz
x,y,z
-x,-y,z
-x,y,z
x,-y,z
1/2+x,1/2+y,z
1/2-x,1/2-y,z
1/2-x,1/2+y,z
1/2+x,1/2-y,z
loop_
_atom_site_type_symbol
_atom_site_label
_atom_site_fract_x
_atom_site_fract_y
_atom_site_fract_z
Si Si1 0.169113 0.066085 0.496860
Si Si2 0.665345 0.152642 0.376239
Si Si3 0.825392 0.811357 0.199224
Si Si4 0.328637 0.189945 0.821758
Si Si5 0.250000 0.750000 0.513105
Si Si6 0.324903 0.811681 0.021920
Si Si7 0.661408 0.346336 0.652487
O O1 0.278988 0.098990 0.431857
O O2 0.180632 0.097906 0.592963
O O3 0.000000 0.074567 0.466954
O O4 0.196587 0.000000 0.502257
O O5 0.500000 0.146898 0.343768
O O6 0.774224 0.160424 0.292258
O O7 0.670911 0.206760 0.444109
O O8 0.500000 0.692688 0.192500
O O9 0.750000 0.750000 0.204362
O O10 0.754525 0.838730 0.108740
O O11 0.500000 0.199550 0.816863
O O12 0.250000 0.250000 0.817244
O O13 0.299126 0.163436 0.921310
O O14 0.275117 0.157446 0.733460
O O15 0.327774 0.706385 0.582128
O O16 0.500000 0.807167 0.036398
O O17 0.250000 0.750000 0.016379
O O18 0.500000 0.345037 0.692782
#
# Coordination Sequence:
#
# PCOD9348174 Si02
#       7
#     8   8   8   8   4   8   8
#     4   9  20  38  54  70  96 129 167 208 248 291
#     4  11  21  32  50  73 100 130 164 203 245 293
#     4  11  20  30  46  69  98 130 164 198 240 290
#     4  10  19  29  44  67  97 130 162 196 237 286
#     4  10  20  30  46  68 100 130 158 196 242 288
#     4   9  17  29  43  62  92 129 163 195 234 283
#     4  10  19  30  48  71  96 127 162 197 241 288
#
# _framework density 16.16244
#
# number of rings (size 3 to 8) (size 9 to 14) (size 15 to 20)
#    0.000    2.000    1.538    4.154    0.000    5.846 
#    0.000    0.000    0.000    0.000    0.000    1.077 
#    0.000    3.692    0.000    0.000    0.000    0.000 
#
# Total GULP energy -144774.132976 kJ/mol
# GULP energy per Si atom -5568.235884 kJ/mol
# Density = 1.612565 g / cm^3
# Si number density = 16.162440 Si / 1000 Ang^3
#
#
#
# Elastic Constant Matrix: (Units=GPa)
#
#
# Indices 1 2 3 4 5 6 
#
# 1 109.8436 22.8626 50.4600 0.0000 0.0000 0.0000
# 2 22.8626 66.2395 20.2488 0.0000 0.0000 0.0000
# 3 50.4600 20.2488 97.8724 0.0000 0.0000 0.0000
# 4 0.0000 0.0000 0.0000 8.3410 0.0000 0.0000
# 5 0.0000 0.0000 0.0000 0.0000 23.2605 0.0000
# 6 0.0000 0.0000 0.0000 0.0000 0.0000 12.3532
#
#
#
# Elastic Compliance Matrix: (Units=1/GPa)
#
#
# Indices 1 2 3 4 5 6 
#
# 1 0.012294 -0.002461 -0.005829 0.000000 0.000000 0.000000
# 2 -0.002461 0.016609 -0.002167 0.000000 0.000000 0.000000
# 3 -0.005829 -0.002167 0.013671 0.000000 0.000000 0.000000
# 4 0.000000 0.000000 0.000000 0.119889 0.000000 0.000000
# 5 0.000000 0.000000 0.000000 0.000000 0.042991 0.000000
# 6 0.000000 0.000000 0.000000 0.000000 0.000000 0.080951
#
#
# Mechanical properties :
#
#
# Convention : Reuss Voigt Hill
#
# Bulk Modulus (GPa) = 46.17143 51.23315 48.70229
# Shear Modulus (GPa) = 15.89621 20.81654 18.35637
#
# Velocity S-wave (km/s) = 3.13953 3.59271 3.37373
# Velocity P-wave (km/s) = 6.46307 6.99841 6.73606
#
# Compressibility (1/GPa) = 0.02165841
#
# Stress axis : x y z
#
# Youngs Moduli (GPa) = 81.34078 60.20925 73.14701
#
# Poissons Ratio (x) = 0.14820 0.42639
# Poissons Ratio (y) = 0.20021 0.15852
# Poissons Ratio (z) = 0.47415 0.13048
#
# Static dielectric constant tensor:
#      x y z
#    x 1.556990 0.000000 0.000000 
#    y 0.000000 1.507090 0.000000 
#    z 0.000000 0.000000 1.598440 
# 
# From -- ./inp_files/15851.got.cif
#   From: 2010.05.17/outbox.cif.g08.bks.cpg/sg35_8_cif.got.tgz:15851.got - 2010.06.03 17:29:28.
