data_PCOD9348742
_publ_section_title
;
Structure prediction by ZEFSAII (Michael W. Deem and Ramdas Pophale) SiO2 
 PCOD9348742
Probable space group: C M M 2
;
_chemical_formula_sum "Si O2"
_cell_formula_units_Z 64
_cell_length_a 29.505291
_cell_length_b 8.491863
_cell_length_c 16.178391
_cell_angle_alpha 90.000000
_cell_angle_beta 90.000000
_cell_angle_gamma 90.000000
_cell_volume 4053.574960
_symmetry_space_group_name_H-M "C M M 2"
_symmetry_group_IT_number 35
_symmetry_cell_setting 'orthorhombic'
loop_
_space_group_symop_operation_xyz
x,y,z
-x,-y,z
-x,y,z
x,-y,z
1/2+x,1/2+y,z
1/2-x,1/2-y,z
1/2-x,1/2+y,z
1/2+x,1/2-y,z
loop_
_atom_site_type_symbol
_atom_site_label
_atom_site_fract_x
_atom_site_fract_y
_atom_site_fract_z
Si Si1 0.449548 0.691765 0.818930
Si Si2 0.301114 0.311290 0.913566
Si Si3 0.698435 0.309577 0.588310
Si Si4 0.801600 0.688500 0.233053
Si Si5 0.855267 0.807584 0.749405
Si Si6 0.198327 0.811419 0.406408
Si Si7 0.051165 0.189921 0.011879
Si Si8 0.643898 0.811776 0.071585
O O1 0.500000 0.744550 0.793856
O O2 0.449805 0.500000 0.817139
O O3 0.406857 0.744951 0.765254
O O4 0.442373 0.735083 0.915229
O O5 0.300722 0.500000 0.913987
O O6 0.250000 0.250000 0.917642
O O7 0.325354 0.259237 0.828583
O O8 0.329583 0.254435 0.992243
O O9 0.700000 0.500000 0.590263
O O10 0.750000 0.250000 0.597665
O O11 0.667673 0.254426 0.664348
O O12 0.680304 0.264034 0.496990
O O13 0.799707 0.500000 0.233309
O O14 0.750000 0.750000 0.224552
O O15 0.821212 0.744241 0.321348
O O16 0.831426 0.742782 0.155409
O O17 0.855499 0.000000 0.748412
O O18 0.250000 0.750000 0.407208
O O19 0.198262 0.000000 0.401150
O O20 0.091852 0.259756 0.064496
O O21 0.000000 0.236732 0.035873
O O22 0.053649 0.000000 0.015086
O O23 0.646498 0.000000 0.069111
#
# Coordination Sequence:
#
# PCOD9348742 Si02
#       8
#     8   8   8   8   8   8   8   8
#     4   8  13  24  44  67  87 111 147 186 222 261
#     4  11  21  32  45  62  90 127 160 189 221 264
#     4   9  17  28  43  64  90 117 148 182 222 266
#     4  10  20  32  46  65  89 119 153 189 227 272
#     4   9  16  27  43  64  90 120 150 184 221 263
#     4   9  16  27  44  64  85 113 146 186 229 268
#     4   9  17  31  51  71  90 117 154 192 231 273
#     4  11  22  33  46  67  93 122 155 190 229 271
#
# _framework density 15.788532999999999
#
# number of rings (size 3 to 8) (size 9 to 14) (size 15 to 20)
#    0.000    2.500    1.250    3.750    0.000    3.750 
#    0.000    0.625    0.000    0.000    0.000    0.875 
#    0.000    3.000    0.000    0.000    0.000    0.000 
#
# Total GULP energy -178328.944065 kJ/mol
# GULP energy per Si atom -5572.779502 kJ/mol
# Density = 1.575260 g / cm^3
# Si number density = 15.788533 Si / 1000 Ang^3
#
#
#
# Elastic Constant Matrix: (Units=GPa)
#
#
# Indices 1 2 3 4 5 6 
#
# 1 114.0305 18.3495 74.7277 0.0000 0.0000 0.0000
# 2 18.3495 20.7403 25.9265 0.0000 0.0000 0.0000
# 3 74.7277 25.9265 152.2183 0.0000 0.0000 0.0000
# 4 0.0000 0.0000 0.0000 15.7613 0.0000 0.0000
# 5 0.0000 0.0000 0.0000 0.0000 5.2524 0.0000
# 6 0.0000 0.0000 0.0000 0.0000 0.0000 17.0345
#
#
#
# Elastic Compliance Matrix: (Units=1/GPa)
#
#
# Indices 1 2 3 4 5 6 
#
# 1 0.013261 -0.004567 -0.005732 0.000000 0.000000 0.000000
# 2 -0.004567 0.062831 -0.008460 0.000000 0.000000 0.000000
# 3 -0.005732 -0.008460 0.010825 0.000000 0.000000 0.000000
# 4 0.000000 0.000000 0.000000 0.063446 0.000000 0.000000
# 5 0.000000 0.000000 0.000000 0.000000 0.190390 0.000000
# 6 0.000000 0.000000 0.000000 0.000000 0.000000 0.058704
#
#
# Mechanical properties :
#
#
# Convention : Reuss Voigt Hill
#
# Bulk Modulus (GPa) = 20.24341 58.33295 39.28818
# Shear Modulus (GPa) = 11.02681 18.80867 14.91774
#
# Velocity S-wave (km/s) = 2.64560 3.45525 3.07717
# Velocity P-wave (km/s) = 4.70975 7.27633 6.12889
#
# Compressibility (1/GPa) = 0.04939878
#
# Stress axis : x y z
#
# Youngs Moduli (GPa) = 75.40898 15.91582 92.38243
#
# Poissons Ratio (x) = 0.07268 0.52957
# Poissons Ratio (y) = 0.34436 0.78153
# Poissons Ratio (z) = 0.43227 0.13464
#
# Static dielectric constant tensor:
#      x y z
#    x 1.514890 0.000000 0.000000 
#    y 0.000000 1.543390 0.000000 
#    z 0.000000 0.000000 1.546600 
# 
# From -- ./inp_files/17742.got.cif
#   From: 2010.05.17/outbox.cif.g08.bks.cpg/sg35_9_cif.got.tgz:17742.got - 2010.06.03 17:29:28.
