data_PCOD9348939
_publ_section_title
;
Structure prediction by ZEFSAII (Michael W. Deem and Ramdas Pophale) SiO2 
 PCOD9348939
Probable space group: C M M 2
;
_chemical_formula_sum "Si O2"
_cell_formula_units_Z 56
_cell_length_a 14.819115
_cell_length_b 9.140845
_cell_length_c 18.768022
_cell_angle_alpha 90.000000
_cell_angle_beta 90.000000
_cell_angle_gamma 90.000000
_cell_volume 2542.301870
_symmetry_space_group_name_H-M "C M M 2"
_symmetry_group_IT_number 35
_symmetry_cell_setting 'orthorhombic'
loop_
_space_group_symop_operation_xyz
x,y,z
-x,-y,z
-x,y,z
x,-y,z
1/2+x,1/2+y,z
1/2-x,1/2-y,z
1/2-x,1/2+y,z
1/2+x,1/2-y,z
loop_
_atom_site_type_symbol
_atom_site_label
_atom_site_fract_x
_atom_site_fract_y
_atom_site_fract_z
Si Si1 0.610707 0.167130 0.798720
Si Si2 0.610290 0.666248 0.656315
Si Si3 0.893843 0.163007 0.937260
Si Si4 0.848236 0.176374 0.218864
Si Si5 0.893885 0.837558 0.379593
Si Si6 0.610616 0.835115 0.515152
Si Si7 0.348581 0.824377 0.079786
O O1 0.500000 0.166166 0.799616
O O2 0.638009 0.237165 0.723745
O O3 0.642544 0.262692 0.865771
O O4 0.640582 0.000000 0.805339
O O5 0.500000 0.664794 0.656441
O O6 0.641168 0.500000 0.664208
O O7 0.638100 0.734011 0.580990
O O8 0.000000 0.145418 0.924517
O O9 0.855256 0.000000 0.951457
O O10 0.886848 0.268531 0.005130
O O11 0.750000 0.250000 0.223179
O O12 0.887766 0.205592 0.296959
O O13 0.893148 0.253375 0.150405
O O14 0.845184 0.000000 0.208221
O O15 0.858662 0.727627 0.439065
O O16 0.000000 0.850283 0.395180
O O17 0.852808 0.000000 0.386590
O O18 0.500000 0.838623 0.515542
O O19 0.642085 0.000000 0.525882
O O20 0.250000 0.750000 0.079395
O O21 0.346382 0.000000 0.084606
#
# Coordination Sequence:
#
# PCOD9348939 Si02
#       7
#     8   8   8   8   8   8   8
#     4   9  16  26  41  64  95 128 163 203 245 288
#     4   9  15  23  37  58  88 127 165 198 237 286
#     4  10  20  34  52  75 104 135 167 205 251 300
#     4  10  20  35  54  74  97 127 163 202 245 294
#     4   9  18  32  49  70  97 128 161 198 242 291
#     4   9  16  25  39  62  92 124 158 198 242 285
#     4  11  22  37  56  76 100 130 167 208 250 298
#
# _framework density 22.027283000000001
#
# number of rings (size 3 to 8) (size 9 to 14) (size 15 to 20)
#    0.000    2.429    0.000    4.286    0.000    7.714 
#    0.000    1.429    0.000    0.000    0.000    1.000 
#    0.000    2.286    0.000    0.000    0.000    0.000 
#
# Total GULP energy -156314.693228 kJ/mol
# GULP energy per Si atom -5582.667615 kJ/mol
# Density = 2.197715 g / cm^3
# Si number density = 22.027283 Si / 1000 Ang^3
#
#
#
# Elastic Constant Matrix: (Units=GPa)
#
#
# Indices 1 2 3 4 5 6 
#
# 1 38.6858 8.5682 -3.3151 0.0000 0.0000 0.0000
# 2 8.5682 177.8292 97.2396 0.0000 0.0000 0.0000
# 3 -3.3151 97.2396 167.2743 0.0000 0.0000 0.0000
# 4 0.0000 0.0000 0.0000 -171.9471 0.0000 0.0000
# 5 0.0000 0.0000 0.0000 0.0000 43.2783 0.0000
# 6 0.0000 0.0000 0.0000 0.0000 0.0000 9.4995
#
#
#
# Elastic Compliance Matrix: (Units=1/GPa)
#
#
# Indices 1 2 3 4 5 6 
#
# 1 0.026517 -0.002294 0.001859 0.000000 0.000000 0.000000
# 2 -0.002294 0.008442 -0.004953 0.000000 0.000000 0.000000
# 3 0.001859 -0.004953 0.008894 0.000000 0.000000 0.000000
# 4 0.000000 0.000000 0.000000 -0.005816 0.000000 0.000000
# 5 0.000000 0.000000 0.000000 0.000000 0.023106 0.000000
# 6 0.000000 0.000000 0.000000 0.000000 0.000000 0.105268
#
#
# Mechanical properties :
#
#
# Convention : Reuss Voigt Hill
#
# Bulk Modulus (GPa) = 30.23243 65.41940 47.82592
# Shear Modulus (GPa) = 26.56543 -5.08074 10.74235
#
# Velocity S-wave (km/s) = 3.47655 -1.52039 2.21075
# Velocity P-wave (km/s) = 5.46535 5.16543 5.31750
#
# Compressibility (1/GPa) = 0.03307706
#
# Stress axis : x y z
#
# Youngs Moduli (GPa) = 37.71206 118.44987 112.42992
#
# Poissons Ratio (x) = 0.27176 -0.20903
# Poissons Ratio (y) = 0.08652 0.55689
# Poissons Ratio (z) = -0.07012 0.58670
#
# Static dielectric constant tensor:
#      x y z
#    x 1.890440 0.000000 0.000000 
#    y 0.000000 1.785850 0.000000 
#    z 0.000000 0.000000 1.814380 
# 
# From -- ./inp_files/17413.got.cif
#   From: 2010.05.17/outbox.cif.g08.bks.cpg/sg35_9_cif.got.tgz:17413.got - 2010.06.03 17:29:28.
