data_PCOD9348593
_publ_section_title
;
Structure prediction by ZEFSAII (Michael W. Deem and Ramdas Pophale) SiO2 
 PCOD9348593
Probable space group: C M M 2
;
_chemical_formula_sum "Si O2"
_cell_formula_units_Z 48
_cell_length_a 8.670132
_cell_length_b 18.885502
_cell_length_c 15.848756
_cell_angle_alpha 90.000000
_cell_angle_beta 90.000000
_cell_angle_gamma 90.000000
_cell_volume 2595.072062
_symmetry_space_group_name_H-M "C M M 2"
_symmetry_group_IT_number 35
_symmetry_cell_setting 'orthorhombic'
loop_
_space_group_symop_operation_xyz
x,y,z
-x,-y,z
-x,y,z
x,-y,z
1/2+x,1/2+y,z
1/2-x,1/2-y,z
1/2-x,1/2+y,z
1/2+x,1/2-y,z
loop_
_atom_site_type_symbol
_atom_site_label
_atom_site_fract_x
_atom_site_fract_y
_atom_site_fract_z
Si Si1 0.681935 0.915470 0.109540
Si Si2 0.185419 0.670797 0.448429
Si Si3 0.187843 0.581183 0.612139
Si Si4 0.314401 0.829309 0.775193
Si Si5 0.316351 0.671062 0.954715
Si Si6 0.184773 0.917002 0.292228
O O1 0.500000 0.899500 0.108416
O O2 0.752116 0.895714 0.200330
O O3 0.701697 0.000000 0.100385
O O4 0.763952 0.876269 0.032839
O O5 0.250000 0.750000 0.452187
O O6 0.236244 0.626185 0.530671
O O7 0.244354 0.630614 0.365465
O O8 0.000000 0.673173 0.447517
O O9 0.241239 0.500000 0.608317
O O10 0.233936 0.620647 0.698052
O O11 0.000000 0.579954 0.611565
O O12 0.500000 0.826154 0.778149
O O13 0.250000 0.750000 0.762071
O O14 0.252060 0.855087 0.865493
O O15 0.500000 0.674275 0.948866
O O16 0.250000 0.750000 0.966768
O O17 0.000000 0.911484 0.292902
O O18 0.226439 0.000000 0.305685
#
# Coordination Sequence:
#
# PCOD9348593 Si02
#       6
#     8   8   8   8   8   8
#     4  10  21  38  60  85 113 147 186 227 276 333
#     4  11  22  37  58  83 113 148 188 231 277 330
#     4   9  19  35  56  82 110 143 184 229 277 331
#     4  10  19  34  56  80 109 145 185 229 278 331
#     4  11  22  37  57  82 114 149 188 232 279 330
#     4  10  21  38  59  84 114 146 183 229 279 330
#
# _framework density 18.496597000000001
#
# number of rings (size 3 to 8) (size 9 to 14) (size 15 to 20)
#    0.000    1.833    0.000    5.500    0.000    4.000 
#    0.000    7.500    0.000    5.500    0.000    0.000 
#    0.000    0.000    0.000    0.000    0.000    0.000 
#
# Total GULP energy -134101.986412 kJ/mol
# GULP energy per Si atom -5587.582767 kJ/mol
# Density = 1.845450 g / cm^3
# Si number density = 18.496597 Si / 1000 Ang^3
#
#
#
# Elastic Constant Matrix: (Units=GPa)
#
#
# Indices 1 2 3 4 5 6 
#
# 1 89.5845 49.5878 67.8666 0.0000 0.0000 0.0000
# 2 49.5878 108.7769 109.5010 0.0000 0.0000 0.0000
# 3 67.8666 109.5010 203.2142 0.0000 0.0000 0.0000
# 4 0.0000 0.0000 0.0000 33.9670 0.0000 0.0000
# 5 0.0000 0.0000 0.0000 0.0000 26.8465 0.0000
# 6 0.0000 0.0000 0.0000 0.0000 0.0000 20.1816
#
#
#
# Elastic Compliance Matrix: (Units=1/GPa)
#
#
# Indices 1 2 3 4 5 6 
#
# 1 0.015744 -0.004118 -0.003039 0.000000 0.000000 0.000000
# 2 -0.004118 0.021168 -0.010031 0.000000 0.000000 0.000000
# 3 -0.003039 -0.010031 0.011341 0.000000 0.000000 0.000000
# 4 0.000000 0.000000 0.000000 0.029440 0.000000 0.000000
# 5 0.000000 0.000000 0.000000 0.000000 0.037249 0.000000
# 6 0.000000 0.000000 0.000000 0.000000 0.000000 0.049550
#
#
# Mechanical properties :
#
#
# Convention : Reuss Voigt Hill
#
# Bulk Modulus (GPa) = 72.06027 95.05404 83.55715
# Shear Modulus (GPa) = 24.57056 27.84038 26.20547
#
# Velocity S-wave (km/s) = 3.64865 3.88385 3.76809
# Velocity P-wave (km/s) = 7.53614 8.46250 8.01272
#
# Compressibility (1/GPa) = 0.01387727
#
# Stress axis : x y z
#
# Youngs Moduli (GPa) = 63.51448 47.24026 88.17445
#
# Poissons Ratio (x) = 0.19454 0.26797
# Poissons Ratio (y) = 0.26155 0.88450
# Poissons Ratio (z) = 0.19303 0.47388
#
# Static dielectric constant tensor:
#      x y z
#    x 1.624090 0.000000 0.000000 
#    y 0.000000 1.613340 0.000000 
#    z 0.000000 0.000000 1.614850 
# 
# From -- ./inp_files/15156.got.cif
#   From: 2010.05.17/outbox.cif.g08.bks.cpg/sg35_8_cif.got.tgz:15156.got - 2010.06.03 17:29:28.
