data_PCOD9348257
_publ_section_title
;
Structure prediction by ZEFSAII (Michael W. Deem and Ramdas Pophale) SiO2 
 PCOD9348257
Probable space group: C M M 2
;
_chemical_formula_sum "Si O2"
_cell_formula_units_Z 64
_cell_length_a 9.223665
_cell_length_b 14.770612
_cell_length_c 21.583456
_cell_angle_alpha 90.000000
_cell_angle_beta 90.000000
_cell_angle_gamma 90.000000
_cell_volume 2940.512281
_symmetry_space_group_name_H-M "C M M 2"
_symmetry_group_IT_number 35
_symmetry_cell_setting 'orthorhombic'
loop_
_space_group_symop_operation_xyz
x,y,z
-x,-y,z
-x,y,z
x,-y,z
1/2+x,1/2+y,z
1/2-x,1/2-y,z
1/2-x,1/2+y,z
1/2+x,1/2-y,z
loop_
_atom_site_type_symbol
_atom_site_label
_atom_site_fract_x
_atom_site_fract_y
_atom_site_fract_z
Si Si1 0.674180 0.650638 0.051360
Si Si2 0.163581 0.110973 0.675172
Si Si3 0.164891 0.389366 0.553061
Si Si4 0.825410 0.347964 0.931879
Si Si5 0.665509 0.388913 0.429815
Si Si6 0.338941 0.893559 0.792023
Si Si7 0.661347 0.105829 0.310471
Si Si8 0.326914 0.347172 0.187877
O O1 0.500000 0.658479 0.042206
O O2 0.750000 0.750000 0.054499
O O3 0.697911 0.609575 0.119785
O O4 0.750326 0.606626 0.991666
O O5 0.262818 0.138362 0.617580
O O6 0.228544 0.141712 0.740865
O O7 0.000000 0.142795 0.666755
O O8 0.159714 0.000000 0.674868
O O9 0.162846 0.500000 0.552993
O O10 0.257058 0.361814 0.493362
O O11 0.000000 0.357907 0.548269
O O12 0.750000 0.250000 0.928871
O O13 0.796323 0.387414 0.863918
O O14 0.000000 0.344149 0.940454
O O15 0.500000 0.358054 0.427556
O O16 0.663027 0.500000 0.429173
O O17 0.753247 0.356970 0.369561
O O18 0.500000 0.852431 0.785687
O O19 0.351594 0.000000 0.778354
O O20 0.500000 0.145952 0.302185
O O21 0.754157 0.109986 0.247866
O O22 0.643676 0.000000 0.324189
O O23 0.500000 0.340115 0.195622
O O24 0.250000 0.250000 0.185245
#
# Coordination Sequence:
#
# PCOD9348257 Si02
#       8
#     8   8   8   8   8   8   8   8
#     4   9  17  30  49  71  94 120 153 194 236 278
#     4   9  16  25  39  61  88 118 152 191 234 276
#     4   9  15  23  37  58  86 120 156 193 232 276
#     4  10  19  31  50  72  94 121 154 193 233 277
#     4   9  16  26  41  62  90 123 158 197 239 281
#     4   9  18  32  47  65  92 125 157 189 230 278
#     4  10  20  33  49  71 100 132 164 199 242 291
#     4  10  20  34  53  75  98 126 161 201 243 288
#
# _framework density 21.764917000000001
#
# number of rings (size 3 to 8) (size 9 to 14) (size 15 to 20)
#    0.000    2.625    0.000    3.375    0.000    7.750 
#    0.000    0.625    0.000    2.250    0.000    0.875 
#    0.000    2.000    0.000    0.000    0.000    0.000 
#
# Total GULP energy -178543.614839 kJ/mol
# GULP energy per Si atom -5579.487964 kJ/mol
# Density = 2.171538 g / cm^3
# Si number density = 21.764917 Si / 1000 Ang^3
#
#
#
# Elastic Constant Matrix: (Units=GPa)
#
#
# Indices 1 2 3 4 5 6 
#
# 1 184.4717 9.9530 122.6841 0.0000 0.0000 0.0000
# 2 9.9530 41.4412 1.2707 0.0000 0.0000 0.0000
# 3 122.6841 1.2707 200.8589 0.0000 0.0000 0.0000
# 4 0.0000 0.0000 0.0000 5.4413 0.0000 0.0000
# 5 0.0000 0.0000 0.0000 0.0000 71.3055 0.0000
# 6 0.0000 0.0000 0.0000 0.0000 0.0000 7.6503
#
#
#
# Elastic Compliance Matrix: (Units=1/GPa)
#
#
# Indices 1 2 3 4 5 6 
#
# 1 0.009302 -0.002060 -0.005669 0.000000 0.000000 0.000000
# 2 -0.002060 0.024592 0.001103 0.000000 0.000000 0.000000
# 3 -0.005669 0.001103 0.008434 0.000000 0.000000 0.000000
# 4 0.000000 0.000000 0.000000 0.183778 0.000000 0.000000
# 5 0.000000 0.000000 0.000000 0.000000 0.014024 0.000000
# 6 0.000000 0.000000 0.000000 0.000000 0.000000 0.130714
#
#
# Mechanical properties :
#
#
# Convention : Reuss Voigt Hill
#
# Bulk Modulus (GPa) = 34.39324 77.17638 55.78481
# Shear Modulus (GPa) = 12.69718 36.40370 24.55044
#
# Velocity S-wave (km/s) = 2.41794 4.09416 3.36219
# Velocity P-wave (km/s) = 4.86125 7.60826 6.38425
#
# Compressibility (1/GPa) = 0.02907548
#
# Stress axis : x y z
#
# Youngs Moduli (GPa) = 107.50408 40.66439 118.56776
#
# Poissons Ratio (x) = 0.08378 0.67211
# Poissons Ratio (y) = 0.22148 -0.13076
# Poissons Ratio (z) = 0.60940 -0.04485
#
# Static dielectric constant tensor:
#      x y z
#    x 1.757280 0.000000 0.000000 
#    y 0.000000 1.887050 0.000000 
#    z 0.000000 0.000000 1.804680 
# 
# From -- ./inp_files/18451.got.cif
#   From: 2010.05.17/outbox.cif.g08.bks.cpg/sg35_10_cif.got.tgz:18451.got - 2010.06.03 17:29:28.
