data_PCOD9348206
_publ_section_title
;
Structure prediction by ZEFSAII (Michael W. Deem and Ramdas Pophale) SiO2 
 PCOD9348206
Probable space group: C M M 2
;
_chemical_formula_sum "Si O2"
_cell_formula_units_Z 64
_cell_length_a 29.736013
_cell_length_b 9.086580
_cell_length_c 12.751711
_cell_angle_alpha 90.000000
_cell_angle_beta 90.000000
_cell_angle_gamma 90.000000
_cell_volume 3445.495238
_symmetry_space_group_name_H-M "C M M 2"
_symmetry_group_IT_number 35
_symmetry_cell_setting 'orthorhombic'
loop_
_space_group_symop_operation_xyz
x,y,z
-x,-y,z
-x,y,z
x,-y,z
1/2+x,1/2+y,z
1/2-x,1/2-y,z
1/2-x,1/2+y,z
1/2+x,1/2-y,z
loop_
_atom_site_type_symbol
_atom_site_label
_atom_site_fract_x
_atom_site_fract_y
_atom_site_fract_z
Si Si1 0.316656 0.668436 0.307590
Si Si2 0.421020 0.667037 0.370656
Si Si3 0.052083 0.320837 0.790648
Si Si4 0.895571 0.677319 0.580567
Si Si5 0.202967 0.823297 0.064978
Si Si6 0.549068 0.827474 0.171644
Si Si7 0.795114 0.324771 0.520729
Si Si8 0.614811 0.178180 0.986363
O O1 0.300271 0.500000 0.324454
O O2 0.370217 0.666812 0.324754
O O3 0.305476 0.712824 0.188812
O O4 0.299039 0.773761 0.399240
O O5 0.434828 0.500000 0.390466
O O6 0.419093 0.756844 0.477947
O O7 0.449281 0.741179 0.279518
O O8 0.050613 0.500000 0.791213
O O9 0.077699 0.275971 0.684258
O O10 0.083522 0.278470 0.888498
O O11 0.000000 0.270741 0.796379
O O12 0.896613 0.500000 0.574972
O O13 0.842553 0.720374 0.574754
O O14 0.250000 0.750000 0.034825
O O15 0.204177 0.000000 0.056558
O O16 0.162589 0.756472 0.996586
O O17 0.500000 0.811222 0.120712
O O18 0.555755 0.000000 0.194584
O O19 0.587181 0.781329 0.090937
O O20 0.791287 0.500000 0.526838
O O21 0.750000 0.250000 0.564458
O O22 0.620323 0.000000 0.984054
#
# Coordination Sequence:
#
# PCOD9348206 Si02
#       8
#     8   8   8   8   8   8   8   8
#     4   9  18  32  50  74 107 146 184 222 266 321
#     4  10  19  33  52  78 113 149 182 224 277 331
#     4   9  18  36  63  88 108 138 186 239 285 331
#     4   9  19  35  55  81 111 144 183 230 280 333
#     4  11  22  36  54  80 113 150 189 228 277 332
#     4  10  20  33  52  80 112 146 184 225 275 337
#     4  10  19  30  48  75 108 145 184 223 268 323
#     4  10  20  36  59  84 111 143 184 235 284 331
#
# _framework density 18.574978999999999
#
# number of rings (size 3 to 8) (size 9 to 14) (size 15 to 20)
#    0.000    2.250    1.250    1.875    0.000    5.250 
#    0.000    2.500    0.000    3.375    0.000    0.000 
#    0.000    0.000    0.000    0.000    0.000    0.000 
#
# Total GULP energy -178513.134889 kJ/mol
# GULP energy per Si atom -5578.535465 kJ/mol
# Density = 1.853270 g / cm^3
# Si number density = 18.574979 Si / 1000 Ang^3
#
#
#
# Elastic Constant Matrix: (Units=GPa)
#
#
# Indices 1 2 3 4 5 6 
#
# 1 141.7838 44.3518 73.6987 0.0000 0.0000 0.0000
# 2 44.3518 30.7314 32.6638 0.0000 0.0000 0.0000
# 3 73.6987 32.6638 108.4511 0.0000 0.0000 0.0000
# 4 0.0000 0.0000 0.0000 9.3128 0.0000 0.0000
# 5 0.0000 0.0000 0.0000 0.0000 18.9399 0.0000
# 6 0.0000 0.0000 0.0000 0.0000 0.0000 21.6568
#
#
#
# Elastic Compliance Matrix: (Units=1/GPa)
#
#
# Indices 1 2 3 4 5 6 
#
# 1 0.014661 -0.015546 -0.005281 0.000000 0.000000 0.000000
# 2 -0.015546 0.064346 -0.008816 0.000000 0.000000 0.000000
# 3 -0.005281 -0.008816 0.015464 0.000000 0.000000 0.000000
# 4 0.000000 0.000000 0.000000 0.107379 0.000000 0.000000
# 5 0.000000 0.000000 0.000000 0.000000 0.052799 0.000000
# 6 0.000000 0.000000 0.000000 0.000000 0.000000 0.046175
#
#
# Mechanical properties :
#
#
# Convention : Reuss Voigt Hill
#
# Bulk Modulus (GPa) = 28.41983 64.71052 46.56518
# Shear Modulus (GPa) = 13.44675 18.66538 16.05607
#
# Velocity S-wave (km/s) = 2.69349 3.17340 2.94324
# Velocity P-wave (km/s) = 5.00065 6.95273 6.05586
#
# Compressibility (1/GPa) = 0.03518670
#
# Stress axis : x y z
#
# Youngs Moduli (GPa) = 68.20900 15.54099 64.66454
#
# Poissons Ratio (x) = 0.24160 0.34147
# Poissons Ratio (y) = 1.06037 0.57006
# Poissons Ratio (z) = 0.36019 0.13700
#
# Static dielectric constant tensor:
#      x y z
#    x 1.674300 0.000000 0.000000 
#    y 0.000000 1.627790 0.000000 
#    z 0.000000 0.000000 1.616830 
# 
# From -- ./inp_files/11842.got.cif
#   From: 2010.05.17/outbox.cif.g08.bks.cpg/sg35_6_cif.got.tgz:11842.got - 2010.06.03 17:29:28.
