data_PCOD9348761
_publ_section_title
;
Structure prediction by ZEFSAII (Michael W. Deem and Ramdas Pophale) SiO2 
 PCOD9348761
Probable space group: C M M 2
;
_chemical_formula_sum "Si O2"
_cell_formula_units_Z 56
_cell_length_a 9.351163
_cell_length_b 15.472219
_cell_length_c 19.080121
_cell_angle_alpha 90.000000
_cell_angle_beta 90.000000
_cell_angle_gamma 90.000000
_cell_volume 2760.573761
_symmetry_space_group_name_H-M "C M M 2"
_symmetry_group_IT_number 35
_symmetry_cell_setting 'orthorhombic'
loop_
_space_group_symop_operation_xyz
x,y,z
-x,-y,z
-x,y,z
x,-y,z
1/2+x,1/2+y,z
1/2-x,1/2-y,z
1/2-x,1/2+y,z
1/2+x,1/2-y,z
loop_
_atom_site_type_symbol
_atom_site_label
_atom_site_fract_x
_atom_site_fract_y
_atom_site_fract_z
Si Si1 0.160054 0.602238 0.735520
Si Si2 0.670045 0.658700 0.447445
Si Si3 0.838136 0.602695 0.313045
Si Si4 0.668622 0.104730 0.159852
Si Si5 0.833599 0.894190 0.868728
Si Si6 0.833184 0.105331 0.023812
Si Si7 0.329001 0.342262 0.601051
O O1 0.146014 0.500000 0.747186
O O2 0.237732 0.637984 0.804661
O O3 0.258099 0.612452 0.667300
O O4 0.000000 0.638494 0.724932
O O5 0.500000 0.668713 0.440460
O O6 0.750000 0.750000 0.450623
O O7 0.736180 0.616477 0.378676
O O8 0.696166 0.616180 0.523984
O O9 0.851634 0.500000 0.304687
O O10 0.784180 0.635732 0.237264
O O11 0.000000 0.636872 0.326221
O O12 0.500000 0.122104 0.154718
O O13 0.749217 0.138249 0.091466
O O14 0.686290 0.000000 0.158637
O O15 0.000000 0.869418 0.859943
O O16 0.831879 0.000000 0.867818
O O17 0.782605 0.867230 0.946354
O O18 0.000000 0.127497 0.029864
O O19 0.824435 0.000000 0.024053
O O20 0.500000 0.333660 0.609532
O O21 0.250000 0.250000 0.599523
#
# Coordination Sequence:
#
# PCOD9348761 Si02
#       7
#     8   8   8   8   8   8   8
#     4  10  20  32  48  73 102 130 162 199 239 284
#     4  10  21  36  54  74  95 123 160 200 241 288
#     4   9  18  32  49  71 101 133 162 197 242 286
#     4   8  14  24  38  59  89 124 158 191 231 278
#     4   8  14  25  40  60  90 126 160 195 237 281
#     4   8  13  21  35  57  86 121 158 194 233 275
#     4  10  21  37  55  73  95 124 159 199 242 289
#
# _framework density 20.285639
#
# number of rings (size 3 to 8) (size 9 to 14) (size 15 to 20)
#    0.000    3.000    0.000    3.000    0.000    4.571 
#    0.000    7.143    0.000    0.000    0.000    1.000 
#    0.000    2.286    0.000    0.000    0.000    0.000 
#
# Total GULP energy -155988.974809 kJ/mol
# GULP energy per Si atom -5571.034815 kJ/mol
# Density = 2.023947 g / cm^3
# Si number density = 20.285639 Si / 1000 Ang^3
#
#
#
# Elastic Constant Matrix: (Units=GPa)
#
#
# Indices 1 2 3 4 5 6 
#
# 1 103.6801 4.8598 110.0796 0.0000 0.0000 0.0000
# 2 4.8598 15.2622 12.2778 0.0000 0.0000 0.0000
# 3 110.0796 12.2778 233.5158 0.0000 0.0000 0.0000
# 4 0.0000 0.0000 0.0000 30.3896 0.0000 0.0000
# 5 0.0000 0.0000 0.0000 0.0000 37.7973 0.0000
# 6 0.0000 0.0000 0.0000 0.0000 0.0000 15.7847
#
#
#
# Elastic Compliance Matrix: (Units=1/GPa)
#
#
# Indices 1 2 3 4 5 6 
#
# 1 0.019331 0.001227 -0.009177 0.000000 0.000000 0.000000
# 2 0.001227 0.068493 -0.004180 0.000000 0.000000 0.000000
# 3 -0.009177 -0.004180 0.008828 0.000000 0.000000 0.000000
# 4 0.000000 0.000000 0.000000 0.032906 0.000000 0.000000
# 5 0.000000 0.000000 0.000000 0.000000 0.026457 0.000000
# 6 0.000000 0.000000 0.000000 0.000000 0.000000 0.063352
#
#
# Mechanical properties :
#
#
# Convention : Reuss Voigt Hill
#
# Bulk Modulus (GPa) = 13.81348 67.43250 40.62299
# Shear Modulus (GPa) = 18.67354 31.81038 25.24196
#
# Velocity S-wave (km/s) = 3.03732 3.96425 3.53133
# Velocity P-wave (km/s) = 4.37317 7.36664 6.05772
#
# Compressibility (1/GPa) = 0.07239306
#
# Stress axis : x y z
#
# Youngs Moduli (GPa) = 51.72952 14.60003 113.27161
#
# Poissons Ratio (x) = -0.01792 1.03953
# Poissons Ratio (y) = -0.06349 0.47345
# Poissons Ratio (z) = 0.47474 0.06103
#
# Static dielectric constant tensor:
#      x y z
#    x 1.702310 0.000000 0.000000 
#    y 0.000000 1.772410 0.000000 
#    z 0.000000 0.000000 1.768660 
# 
# From -- ./inp_files/18233.got.cif
#   From: 2010.05.17/outbox.cif.g08.bks.cpg/sg35_10_cif.got.tgz:18233.got - 2010.06.03 17:29:28.
