data_PCOD9348240
_publ_section_title
;
Structure prediction by ZEFSAII (Michael W. Deem and Ramdas Pophale) SiO2 
 PCOD9348240
Probable space group: C M M 2
;
_chemical_formula_sum "Si O2"
_cell_formula_units_Z 64
_cell_length_a 8.694485
_cell_length_b 29.142438
_cell_length_c 16.170393
_cell_angle_alpha 90.000000
_cell_angle_beta 90.000000
_cell_angle_gamma 90.000000
_cell_volume 4097.229762
_symmetry_space_group_name_H-M "C M M 2"
_symmetry_group_IT_number 35
_symmetry_cell_setting 'orthorhombic'
loop_
_space_group_symop_operation_xyz
x,y,z
-x,-y,z
-x,y,z
x,-y,z
1/2+x,1/2+y,z
1/2-x,1/2-y,z
1/2-x,1/2+y,z
1/2+x,1/2-y,z
loop_
_atom_site_type_symbol
_atom_site_label
_atom_site_fract_x
_atom_site_fract_y
_atom_site_fract_z
Si Si1 0.816031 0.447611 0.172560
Si Si2 0.184771 0.801336 0.266711
Si Si3 0.314069 0.198376 0.585222
Si Si4 0.316015 0.447620 0.357221
Si Si5 0.185091 0.301818 0.947523
Si Si6 0.685111 0.801512 0.765883
Si Si7 0.184195 0.142433 0.101088
Si Si8 0.815340 0.643203 0.423156
O O1 0.778862 0.500000 0.147504
O O2 0.746470 0.440599 0.264138
O O3 0.748655 0.408576 0.114005
O O4 0.000000 0.443241 0.177443
O O5 0.250000 0.750000 0.264722
O O6 0.228089 0.828302 0.182898
O O7 0.249522 0.828229 0.345820
O O8 0.000000 0.799991 0.271756
O O9 0.500000 0.201129 0.583326
O O10 0.250000 0.250000 0.576306
O O11 0.267698 0.179251 0.676124
O O12 0.265079 0.167205 0.508456
O O13 0.500000 0.442763 0.355688
O O14 0.277634 0.500000 0.381316
O O15 0.243690 0.408595 0.413963
O O16 0.250000 0.250000 0.955409
O O17 0.230407 0.320525 0.855885
O O18 0.000000 0.299830 0.952515
O O19 0.249625 0.332786 0.020663
O O20 0.500000 0.799957 0.765959
O O21 0.750000 0.750000 0.765560
O O22 0.000000 0.141315 0.097053
O O23 0.000000 0.643898 0.419076
#
# Coordination Sequence:
#
# PCOD9348240 Si02
#       8
#     8   8   8   8   8   8   8   8
#     4  10  20  34  53  74  95 121 157 201 243 284
#     4  11  23  35  46  63  93 132 167 197 231 275
#     4   9  18  31  47  70  97 127 161 197 238 283
#     4  10  20  34  51  70  94 124 159 200 243 285
#     4  10  19  31  49  71  97 129 163 202 241 285
#     4   8  15  29  47  67  93 123 157 198 242 282
#     4  11  22  34  49  70  97 130 163 198 237 283
#     4  11  21  32  49  71  96 127 162 200 238 284
#
# _framework density 15.62031
#
# number of rings (size 3 to 8) (size 9 to 14) (size 15 to 20)
#    0.000    2.000    1.250    3.000    0.000    6.500 
#    0.000    0.000    0.000    0.000    0.000    0.875 
#    0.000    3.000    0.000    0.000    0.000    0.000 
#
# Total GULP energy -178468.450442 kJ/mol
# GULP energy per Si atom -5577.139076 kJ/mol
# Density = 1.558476 g / cm^3
# Si number density = 15.620310 Si / 1000 Ang^3
#
#
#
# Elastic Constant Matrix: (Units=GPa)
#
#
# Indices 1 2 3 4 5 6 
#
# 1 36.7382 33.4823 40.4803 0.0000 0.0000 0.0000
# 2 33.4823 106.5702 75.7610 0.0000 0.0000 0.0000
# 3 40.4803 75.7610 159.1967 0.0000 0.0000 0.0000
# 4 0.0000 0.0000 0.0000 6.7166 0.0000 0.0000
# 5 0.0000 0.0000 0.0000 0.0000 10.9928 0.0000
# 6 0.0000 0.0000 0.0000 0.0000 0.0000 26.5226
#
#
#
# Elastic Compliance Matrix: (Units=1/GPa)
#
#
# Indices 1 2 3 4 5 6 
#
# 1 0.042412 -0.008551 -0.006715 0.000000 0.000000 0.000000
# 2 -0.008551 0.015905 -0.005395 0.000000 0.000000 0.000000
# 3 -0.006715 -0.005395 0.010556 0.000000 0.000000 0.000000
# 4 0.000000 0.000000 0.000000 0.148884 0.000000 0.000000
# 5 0.000000 0.000000 0.000000 0.000000 0.090969 0.000000
# 6 0.000000 0.000000 0.000000 0.000000 0.000000 0.037704
#
#
# Mechanical properties :
#
#
# Convention : Reuss Voigt Hill
#
# Bulk Modulus (GPa) = 36.29574 66.88360 51.58967
# Shear Modulus (GPa) = 12.59648 19.03184 15.81416
#
# Velocity S-wave (km/s) = 2.84283 3.49435 3.18529
# Velocity P-wave (km/s) = 5.83629 7.69363 6.82840
#
# Compressibility (1/GPa) = 0.02755144
#
# Stress axis : x y z
#
# Youngs Moduli (GPa) = 23.57823 62.87171 94.72944
#
# Poissons Ratio (x) = 0.53764 0.63610
# Poissons Ratio (y) = 0.20163 0.51105
# Poissons Ratio (z) = 0.15832 0.33918
#
# Static dielectric constant tensor:
#      x y z
#    x 1.523980 0.000000 0.000000 
#    y 0.000000 1.500050 0.000000 
#    z 0.000000 0.000000 1.537050 
# 
# From -- ./inp_files/16197.got.cif
#   From: 2010.05.17/outbox.cif.g08.bks.cpg/sg35_9_cif.got.tgz:16197.got - 2010.06.03 17:29:28.
