data_PCOD9348709
_publ_section_title
;
Structure prediction by ZEFSAII (Michael W. Deem and Ramdas Pophale) SiO2 
 PCOD9348709
Probable space group: C M M 2
;
_chemical_formula_sum "Si O2"
_cell_formula_units_Z 48
_cell_length_a 8.722493
_cell_length_b 15.659812
_cell_length_c 17.687726
_cell_angle_alpha 90.000000
_cell_angle_beta 90.000000
_cell_angle_gamma 90.000000
_cell_volume 2416.012492
_symmetry_space_group_name_H-M "C M M 2"
_symmetry_group_IT_number 35
_symmetry_cell_setting 'orthorhombic'
loop_
_space_group_symop_operation_xyz
x,y,z
-x,-y,z
-x,y,z
x,-y,z
1/2+x,1/2+y,z
1/2-x,1/2-y,z
1/2-x,1/2+y,z
1/2+x,1/2-y,z
loop_
_atom_site_type_symbol
_atom_site_label
_atom_site_fract_x
_atom_site_fract_y
_atom_site_fract_z
Si Si1 0.824481 0.400469 0.288420
Si Si2 0.813698 0.500000 0.874930
Si Si3 0.184279 0.653792 0.766910
Si Si4 0.316076 0.346066 0.443583
Si Si5 0.684153 0.000000 0.049388
Si Si6 0.184068 0.153673 0.609547
Si Si7 0.181218 0.839343 0.138055
O O1 0.824429 0.500000 0.267007
O O2 0.756563 0.392092 0.371997
O O3 0.726728 0.351757 0.225888
O O4 0.000000 0.369100 0.287269
O O5 0.766599 0.414085 0.830563
O O6 0.000000 0.500000 0.873932
O O7 0.765365 0.500000 0.961941
O O8 0.250000 0.750000 0.777378
O O9 0.241926 0.618234 0.685753
O O10 0.000000 0.659761 0.765675
O O11 0.500000 0.343787 0.436610
O O12 0.250000 0.250000 0.441685
O O13 0.279697 0.384100 0.526778
O O14 0.745991 0.083130 0.091838
O O15 0.500000 0.000000 0.052547
O O16 0.250000 0.250000 0.606406
O O17 0.000000 0.155676 0.617564
O O18 0.250000 0.750000 0.111310
O O19 0.000000 0.840182 0.130220
#
# Coordination Sequence:
#
# PCOD9348709 Si02
#       7
#     8   4   8   8   4   8   8
#     4  11  23  39  59  84 119 160 204 253 305 359
#     4   9  22  41  63  90 123 160 193 239 302 365
#     4  10  19  36  60  87 119 158 201 245 297 356
#     4  10  20  34  54  80 115 154 201 251 301 355
#     4  11  23  45  69  94 129 160 199 255 308 369
#     4   9  17  31  52  80 112 153 197 247 299 348
#     4  12  25  43  68  96 126 164 206 250 306 368
#
# _framework density 19.867448
#
# number of rings (size 3 to 8) (size 9 to 14) (size 15 to 20)
#    0.000    1.667    0.833    5.250    0.000    3.667 
#    1.500    6.667    0.000    0.000    0.000    0.000 
#    0.000    0.000    0.000    0.000    0.000    0.000 
#
# Total GULP energy -134060.185806 kJ/mol
# GULP energy per Si atom -5585.841075 kJ/mol
# Density = 1.982223 g / cm^3
# Si number density = 19.867448 Si / 1000 Ang^3
#
#
#
# Elastic Constant Matrix: (Units=GPa)
#
#
# Indices 1 2 3 4 5 6 
#
# 1 113.2172 40.9371 51.8278 0.0000 0.0000 0.0000
# 2 40.9371 108.0097 63.8969 0.0000 0.0000 0.0000
# 3 51.8278 63.8969 153.3403 0.0000 0.0000 0.0000
# 4 0.0000 0.0000 0.0000 43.3466 0.0000 0.0000
# 5 0.0000 0.0000 0.0000 0.0000 24.5402 0.0000
# 6 0.0000 0.0000 0.0000 0.0000 0.0000 25.0958
#
#
#
# Elastic Compliance Matrix: (Units=1/GPa)
#
#
# Indices 1 2 3 4 5 6 
#
# 1 0.010977 -0.002609 -0.002623 0.000000 0.000000 0.000000
# 2 -0.002609 0.012907 -0.004497 0.000000 0.000000 0.000000
# 3 -0.002623 -0.004497 0.009282 0.000000 0.000000 0.000000
# 4 0.000000 0.000000 0.000000 0.023070 0.000000 0.000000
# 5 0.000000 0.000000 0.000000 0.000000 0.040750 0.000000
# 6 0.000000 0.000000 0.000000 0.000000 0.000000 0.039847
#
#
# Mechanical properties :
#
#
# Convention : Reuss Voigt Hill
#
# Bulk Modulus (GPa) = 72.94489 76.43232 74.68861
# Shear Modulus (GPa) = 31.08319 33.12356 32.10338
#
# Velocity S-wave (km/s) = 3.95970 4.08760 4.02416
# Velocity P-wave (km/s) = 7.59613 7.79953 7.69850
#
# Compressibility (1/GPa) = 0.01370898
#
# Stress axis : x y z
#
# Youngs Moduli (GPa) = 91.10367 77.47534 107.73746
#
# Poissons Ratio (x) = 0.20209 0.28260
# Poissons Ratio (y) = 0.23764 0.48448
# Poissons Ratio (z) = 0.23897 0.34839
#
# Static dielectric constant tensor:
#      x y z
#    x 1.667510 0.000000 0.000000 
#    y 0.000000 1.706860 0.000000 
#    z 0.000000 0.000000 1.714930 
# 
# From -- ./inp_files/17888.got.cif
#   From: 2010.05.17/outbox.cif.g08.bks.cpg/sg35_9_cif.got.tgz:17888.got - 2010.06.03 17:29:28.
