data_PCOD9348025
_publ_section_title
;
Structure prediction by ZEFSAII (Michael W. Deem and Ramdas Pophale) SiO2 
 PCOD9348025
Probable space group: P N N 2
;
_chemical_formula_sum "Si O2"
_cell_formula_units_Z 20
_cell_length_a 10.964335
_cell_length_b 13.186592
_cell_length_c 5.025728
_cell_angle_alpha 90.000000
_cell_angle_beta 90.000000
_cell_angle_gamma 90.000000
_cell_volume 726.630872
_symmetry_space_group_name_H-M "P N N 2"
_symmetry_group_IT_number 34
_symmetry_cell_setting 'orthorhombic'
loop_
_space_group_symop_operation_xyz
x,y,z
-x,-y,z
1/2-x,1/2+y,1/2+z
1/2+x,1/2-y,1/2+z
loop_
_atom_site_type_symbol
_atom_site_label
_atom_site_fract_x
_atom_site_fract_y
_atom_site_fract_z
Si Si1 0.021741 0.212051 0.482120
Si Si2 0.705055 0.763301 0.300659
Si Si3 0.060035 0.098486 0.001601
Si Si4 0.252714 0.944566 0.961978
Si Si5 0.866121 0.486342 0.945267
O O1 0.144820 0.249309 0.317229
O O2 0.068059 0.184127 0.777297
O O3 0.888195 0.260377 0.545442
O O4 0.001787 0.117348 0.288902
O O5 0.677019 0.659364 0.460721
O O6 0.664648 0.867122 0.439232
O O7 0.191773 0.049736 0.058101
O O8 0.000000 0.000000 0.866341
O O9 0.277811 0.960855 0.653373
O O10 0.363330 0.947790 0.171358
O O11 0.000000 0.500000 0.060739
#
# Coordination Sequence:
#
# PCOD9348025 Si02
#       5
#     4   4   4   4   4
#     4  12  28  46  80 116 164 215 283 353 425 525
#     4  12  28  51  82 123 165 227 290 349 449 526
#     4  12  24  49  77 110 158 212 276 355 417 498
#     4  12  26  49  79 112 161 218 279 353 429 514
#     4  12  28  52  79 117 171 218 284 360 438 517
#
# _framework density 27.524290000000001
#
# number of rings (size 3 to 8) (size 9 to 14) (size 15 to 20)
#    0.000    0.000    6.000    2.400    2.800    8.000 
#    0.000    0.000    0.000    0.000    0.000    0.000 
#    0.000    0.000    0.000    0.000    0.000    0.000 
#
# Total GULP energy -111429.227273 kJ/mol
# GULP energy per Si atom -5571.461364 kJ/mol
# Density = 2.746164 g / cm^3
# Si number density = 27.524290 Si / 1000 Ang^3
#
#
#
# Elastic Constant Matrix: (Units=GPa)
#
#
# Indices 1 2 3 4 5 6 
#
# 1 132.7004 28.2218 34.5970 0.0000 0.0000 0.0000
# 2 28.2218 124.9050 57.5219 0.0000 0.0000 0.0000
# 3 34.5970 57.5219 136.2355 0.0000 0.0000 0.0000
# 4 0.0000 0.0000 0.0000 17.6484 0.0000 0.0000
# 5 0.0000 0.0000 0.0000 0.0000 49.7846 0.0000
# 6 0.0000 0.0000 0.0000 0.0000 0.0000 16.4890
#
#
#
# Elastic Compliance Matrix: (Units=1/GPa)
#
#
# Indices 1 2 3 4 5 6 
#
# 1 0.008192 -0.001108 -0.001612 0.000000 0.000000 0.000000
# 2 -0.001108 0.010089 -0.003978 0.000000 0.000000 0.000000
# 3 -0.001612 -0.003978 0.009429 0.000000 0.000000 0.000000
# 4 0.000000 0.000000 0.000000 0.056662 0.000000 0.000000
# 5 0.000000 0.000000 0.000000 0.000000 0.020087 0.000000
# 6 0.000000 0.000000 0.000000 0.000000 0.000000 0.060646
#
#
# Mechanical properties :
#
#
# Convention : Reuss Voigt Hill
#
# Bulk Modulus (GPa) = 69.87143 70.50250 70.18696
# Shear Modulus (GPa) = 27.28164 35.01775 31.14970
#
# Velocity S-wave (km/s) = 3.15172 3.57073 3.36775
# Velocity P-wave (km/s) = 6.21972 6.53226 6.37791
#
# Compressibility (1/GPa) = 0.01431200
#
# Stress axis : x y z
#
# Youngs Moduli (GPa) = 122.07245 99.12211 106.05173
#
# Poissons Ratio (x) = 0.10987 0.17099
# Poissons Ratio (y) = 0.13531 0.42189
# Poissons Ratio (z) = 0.19682 0.39432
#
# Static dielectric constant tensor:
#      x y z
#    x 2.853930 0.000000 0.000000 
#    y 0.000000 2.360230 0.000000 
#    z 0.000000 0.000000 2.078940 
# 
# From -- ./inp_files/808.got.cif
#   From: 2010.05.17/outbox.cif.g08.bks.cpg/sg34_1_cif.got.tgz:808.got - 2010.06.03 17:23:11.
