data_PCOD9348309
_publ_section_title
;
Structure prediction by ZEFSAII (Michael W. Deem and Ramdas Pophale) SiO2 
 PCOD9348309
Probable space group: C M M 2
;
_chemical_formula_sum "Si O2"
_cell_formula_units_Z 64
_cell_length_a 29.623977
_cell_length_b 8.461649
_cell_length_c 16.150888
_cell_angle_alpha 90.000000
_cell_angle_beta 90.000000
_cell_angle_gamma 90.000000
_cell_volume 4048.505873
_symmetry_space_group_name_H-M "C M M 2"
_symmetry_group_IT_number 35
_symmetry_cell_setting 'orthorhombic'
loop_
_space_group_symop_operation_xyz
x,y,z
-x,-y,z
-x,y,z
x,-y,z
1/2+x,1/2+y,z
1/2-x,1/2-y,z
1/2-x,1/2+y,z
1/2+x,1/2-y,z
loop_
_atom_site_type_symbol
_atom_site_label
_atom_site_fract_x
_atom_site_fract_y
_atom_site_fract_z
Si Si1 0.854845 0.689819 0.695500
Si Si2 0.801591 0.810124 0.853831
Si Si3 0.550091 0.192303 0.631690
Si Si4 0.198855 0.188571 0.535146
Si Si5 0.301591 0.689876 0.216460
Si Si6 0.854845 0.310181 0.374791
Si Si7 0.550091 0.192303 0.438601
Si Si8 0.198589 0.809646 0.035146
O O1 0.854202 0.500000 0.693836
O O2 0.831837 0.747594 0.779415
O O3 0.906670 0.744770 0.683641
O O4 0.826687 0.750197 0.616680
O O5 0.750000 0.750000 0.844832
O O6 0.800559 0.000000 0.850838
O O7 0.819521 0.759083 0.945173
O O8 0.500000 0.245512 0.658014
O O9 0.556479 0.237131 0.535146
O O10 0.549768 0.000000 0.633352
O O11 0.250000 0.250000 0.535146
O O12 0.173313 0.249803 0.453611
O O13 0.198964 0.000000 0.535145
O O14 0.300559 0.500000 0.219453
O O15 0.250000 0.750000 0.225459
O O16 0.331837 0.752406 0.290876
O O17 0.319521 0.740917 0.125118
O O18 0.854202 0.500000 0.376455
O O19 0.906670 0.255230 0.386651
O O20 0.500000 0.245512 0.412277
O O21 0.549768 0.000000 0.436940
O O22 0.250000 0.750000 0.035146
O O23 0.198259 0.000000 0.035146
#
# Coordination Sequence:
#
# PCOD9348309 Si02
#       8
#     8   8   8   8   8   8   8   8
#     4  11  20  32  49  71  95 122 155 192 232 277
#     4  10  19  32  48  69  95 125 158 193 231 275
#     4   8  14  27  48  70  90 116 152 192 231 273
#     4  12  24  36  47  62  91 129 164 193 223 266
#     4  10  19  32  48  69  95 125 158 193 231 275
#     4  11  20  32  49  71  95 122 155 192 232 277
#     4   8  14  27  48  70  90 116 152 192 231 273
#     4   8  16  30  48  66  89 120 155 193 232 271
#
# _framework density 15.808301
#
# number of rings (size 3 to 8) (size 9 to 14) (size 15 to 20)
#    0.000    2.250    1.250    4.125    0.000    1.000 
#    0.000    0.000    0.000    3.750    0.000    0.875 
#    0.000    7.000    0.000    0.000    0.000    0.000 
#
# Total GULP energy -178352.443140 kJ/mol
# GULP energy per Si atom -5573.513848 kJ/mol
# Density = 1.577232 g / cm^3
# Si number density = 15.808301 Si / 1000 Ang^3
#
#
#
# Elastic Constant Matrix: (Units=GPa)
#
#
# Indices 1 2 3 4 5 6 
#
# 1 133.3627 26.8469 85.5864 0.0000 0.0000 0.0000
# 2 26.8469 45.8393 32.8293 0.0000 0.0000 0.0000
# 3 85.5864 32.8293 161.1512 0.0000 0.0000 0.0000
# 4 0.0000 0.0000 0.0000 2.8093 0.0000 0.0000
# 5 0.0000 0.0000 0.0000 0.0000 4.8084 0.0000
# 6 0.0000 0.0000 0.0000 0.0000 0.0000 13.8534
#
#
#
# Elastic Compliance Matrix: (Units=1/GPa)
#
#
# Indices 1 2 3 4 5 6 
#
# 1 0.011676 -0.002807 -0.005629 0.000000 0.000000 0.000000
# 2 -0.002807 0.026217 -0.003850 0.000000 0.000000 0.000000
# 3 -0.005629 -0.003850 0.009979 0.000000 0.000000 0.000000
# 4 0.000000 0.000000 0.000000 0.355966 0.000000 0.000000
# 5 0.000000 0.000000 0.000000 0.000000 0.207969 0.000000
# 6 0.000000 0.000000 0.000000 0.000000 0.000000 0.072184
#
#
# Mechanical properties :
#
#
# Convention : Reuss Voigt Hill
#
# Bulk Modulus (GPa) = 42.91913 70.09762 56.50837
# Shear Modulus (GPa) = 6.98002 17.30026 12.14014
#
# Velocity S-wave (km/s) = 2.10357 3.31173 2.77422
# Velocity P-wave (km/s) = 5.75401 7.68518 6.78862
#
# Compressibility (1/GPa) = 0.02329963
#
# Stress axis : x y z
#
# Youngs Moduli (GPa) = 85.64593 38.14383 100.20687
#
# Poissons Ratio (x) = 0.10706 0.56409
# Poissons Ratio (y) = 0.24039 0.38581
# Poissons Ratio (z) = 0.48212 0.14686
#
# Static dielectric constant tensor:
#      x y z
#    x 1.521270 0.000000 0.000000 
#    y 0.000000 1.545840 0.000000 
#    z 0.000000 0.000000 1.538160 
# 
# From -- ./inp_files/17774.got.cif
#   From: 2010.05.17/outbox.cif.g08.bks.cpg/sg35_9_cif.got.tgz:17774.got - 2010.06.03 17:29:28.
