data_PCOD9348198
_publ_section_title
;
Structure prediction by ZEFSAII (Michael W. Deem and Ramdas Pophale) SiO2 
 PCOD9348198
Probable space group: C M M 2
;
_chemical_formula_sum "Si O2"
_cell_formula_units_Z 40
_cell_length_a 13.855253
_cell_length_b 35.688881
_cell_length_c 5.208034
_cell_angle_alpha 90.000000
_cell_angle_beta 90.000000
_cell_angle_gamma 90.000000
_cell_volume 2575.260713
_symmetry_space_group_name_H-M "C M M 2"
_symmetry_group_IT_number 35
_symmetry_cell_setting 'orthorhombic'
loop_
_space_group_symop_operation_xyz
x,y,z
-x,-y,z
-x,y,z
x,-y,z
1/2+x,1/2+y,z
1/2-x,1/2-y,z
1/2-x,1/2+y,z
1/2+x,1/2-y,z
loop_
_atom_site_type_symbol
_atom_site_label
_atom_site_fract_x
_atom_site_fract_y
_atom_site_fract_z
Si Si1 0.616924 0.457209 0.662350
Si Si2 0.693200 0.325859 0.148626
Si Si3 0.000000 0.779327 0.260996
Si Si4 0.617093 0.409640 0.163156
Si Si5 0.000000 0.730154 0.760827
Si Si6 0.211747 0.292940 0.640274
O O1 0.500000 0.459230 0.659210
O O2 0.652573 0.500000 0.656541
O O3 0.644235 0.432911 0.415814
O O4 0.642890 0.434880 0.918351
O O5 0.594788 0.303678 0.211410
O O6 0.668292 0.369625 0.153769
O O7 0.766502 0.313341 0.372334
O O8 0.731550 0.312764 0.872370
O O9 0.000000 0.763675 0.549954
O O10 0.000000 0.746349 0.049124
O O11 0.500000 0.403984 0.163296
O O12 0.098834 0.708350 0.707588
O O13 0.250000 0.250000 0.621450
#
# Coordination Sequence:
#
# PCOD9348198 Si02
#       6
#     8   8   4   8   4   8
#     4   9  17  29  45  67  97 133 167 193 228 288
#     4  12  22  35  51  75 100 130 169 218 250 288
#     4  12  20  34  54  72  95 128 170 214 253 290
#     4  10  19  30  47  70  97 131 166 201 241 282
#     4  12  24  36  54  70  94 128 174 216 256 304
#     4  12  23  37  52  72  96 131 170 214 262 294
#
# _framework density 15.532406999999999
#
# number of rings (size 3 to 8) (size 9 to 14) (size 15 to 20)
#    0.000    1.000    5.000    3.600    0.000    2.400 
#    0.000    0.000    0.000    0.000    0.000    0.000 
#    0.000    0.000    0.000   63.000    0.000    0.000 
#
# Total GULP energy -111714.758707 kJ/mol
# GULP energy per Si atom -5585.737935 kJ/mol
# Density = 1.549705 g / cm^3
# Si number density = 15.532407 Si / 1000 Ang^3
#
#
#
# Elastic Constant Matrix: (Units=GPa)
#
#
# Indices 1 2 3 4 5 6 
#
# 1 41.7364 12.2216 -16.5266 0.0000 0.0000 0.0000
# 2 12.2216 90.3415 18.7581 0.0000 0.0000 0.0000
# 3 -16.5266 18.7581 70.2279 0.0000 0.0000 0.0000
# 4 0.0000 0.0000 0.0000 20.3164 0.0000 0.0000
# 5 0.0000 0.0000 0.0000 0.0000 9.8127 0.0000
# 6 0.0000 0.0000 0.0000 0.0000 0.0000 11.2105
#
#
#
# Elastic Compliance Matrix: (Units=1/GPa)
#
#
# Indices 1 2 3 4 5 6 
#
# 1 0.028898 -0.005634 0.008305 0.000000 0.000000 0.000000
# 2 -0.005634 0.012817 -0.004749 0.000000 0.000000 0.000000
# 3 0.008305 -0.004749 0.017462 0.000000 0.000000 0.000000
# 4 0.000000 0.000000 0.000000 0.049221 0.000000 0.000000
# 5 0.000000 0.000000 0.000000 0.000000 0.101909 0.000000
# 6 0.000000 0.000000 0.000000 0.000000 0.000000 0.089202
#
#
# Mechanical properties :
#
#
# Convention : Reuss Voigt Hill
#
# Bulk Modulus (GPa) = 18.17438 25.69021 21.93229
# Shear Modulus (GPa) = 15.52761 20.79143 18.15952
#
# Velocity S-wave (km/s) = 3.16522 3.66264 3.42298
# Velocity P-wave (km/s) = 5.00844 5.87045 5.45650
#
# Compressibility (1/GPa) = 0.05502251
#
# Stress axis : x y z
#
# Youngs Moduli (GPa) = 34.60395 78.01879 57.26582
#
# Poissons Ratio (x) = 0.43955 -0.47562
# Poissons Ratio (y) = 0.19496 0.27198
# Poissons Ratio (z) = -0.28740 0.37054
#
# Static dielectric constant tensor:
#      x y z
#    x 1.501460 0.000000 0.000000 
#    y 0.000000 1.498230 0.000000 
#    z 0.000000 0.000000 1.527630 
# 
# From -- ./inp_files/1320.got.cif
#   From: 2010.05.17/outbox.cif.g08.bks.cpg/sg35_1_cif.got.tgz:1320.got - 2010.06.03 17:29:28.
