data_PCOD9348128
_publ_section_title
;
Structure prediction by ZEFSAII (Michael W. Deem and Ramdas Pophale) SiO2 
 PCOD9348128
Probable space group: C M M 2
;
_chemical_formula_sum "Si O2"
_cell_formula_units_Z 64
_cell_length_a 8.748057
_cell_length_b 29.343377
_cell_length_c 12.588987
_cell_angle_alpha 90.000000
_cell_angle_beta 90.000000
_cell_angle_gamma 90.000000
_cell_volume 3231.561926
_symmetry_space_group_name_H-M "C M M 2"
_symmetry_group_IT_number 35
_symmetry_cell_setting 'orthorhombic'
loop_
_space_group_symop_operation_xyz
x,y,z
-x,-y,z
-x,y,z
x,-y,z
1/2+x,1/2+y,z
1/2-x,1/2-y,z
1/2-x,1/2+y,z
1/2+x,1/2-y,z
loop_
_atom_site_type_symbol
_atom_site_label
_atom_site_fract_x
_atom_site_fract_y
_atom_site_fract_z
Si Si1 0.173811 0.555377 0.137330
Si Si2 0.817133 0.301525 0.137330
Si Si3 0.679583 0.445521 0.912697
Si Si4 0.818375 0.372724 0.512978
Si Si5 0.679583 0.445521 0.361963
Si Si6 0.181942 0.800713 0.356141
Si Si7 0.681625 0.872724 0.761683
Si Si8 0.318058 0.300713 0.918519
O O1 0.167551 0.500000 0.137330
O O2 0.259439 0.567847 0.245403
O O3 0.000000 0.572982 0.137330
O O4 0.259439 0.567847 0.029257
O O5 0.500000 0.199233 0.137330
O O6 0.750000 0.250000 0.137330
O O7 0.753828 0.321101 0.247472
O O8 0.753827 0.321101 0.027189
O O9 0.500000 0.434804 0.905051
O O10 0.698660 0.500000 0.901611
O O11 0.770153 0.418415 0.823094
O O12 0.770153 0.418415 0.451566
O O13 0.730708 0.332085 0.453725
O O14 0.780566 0.375084 0.637330
O O15 0.000000 0.365510 0.502183
O O16 0.500000 0.434805 0.369609
O O17 0.698661 0.500000 0.373049
O O18 0.250000 0.750000 0.369871
O O19 0.000000 0.797992 0.344884
O O20 0.500000 0.865510 0.772477
O O21 0.769291 0.832085 0.820936
O O22 0.500000 0.297992 0.929776
O O23 0.250000 0.250000 0.904789
#
# Coordination Sequence:
#
# PCOD9348128 Si02
#       8
#     8   8   8   8   8   8   8   8
#     4   9  17  32  57  88 120 153 191 235 287 348
#     4  10  18  33  58  89 123 154 190 234 286 347
#     4  10  21  38  61  89 121 155 192 238 293 350
#     4  11  25  43  61  84 115 153 201 249 291 342
#     4  10  21  38  61  89 121 155 192 238 293 350
#     4  11  22  39  63  90 121 155 193 238 292 349
#     4  11  25  43  61  84 115 153 201 249 291 342
#     4  11  22  39  63  90 121 155 193 238 292 349
#
# _framework density 19.804663999999999
#
# number of rings (size 3 to 8) (size 9 to 14) (size 15 to 20)
#    0.000    1.625    0.000    6.750    0.000    7.000 
#    0.000    7.500    0.000    0.000    0.000    0.000 
#    0.000    0.000    0.000    0.000    0.000    0.000 
#
# Total GULP energy -178940.821911 kJ/mol
# GULP energy per Si atom -5591.900685 kJ/mol
# Density = 1.975959 g / cm^3
# Si number density = 19.804664 Si / 1000 Ang^3
#
#
#
# Elastic Constant Matrix: (Units=GPa)
#
#
# Indices 1 2 3 4 5 6 
#
# 1 154.1362 37.7281 77.7748 0.0000 0.0000 0.0000
# 2 37.7281 62.6654 42.5562 0.0000 0.0000 0.0000
# 3 77.7748 42.5562 166.7561 0.0000 0.0000 0.0000
# 4 0.0000 0.0000 0.0000 28.3658 0.0000 0.0000
# 5 0.0000 0.0000 0.0000 0.0000 34.1926 0.0000
# 6 0.0000 0.0000 0.0000 0.0000 0.0000 27.8249
#
#
#
# Elastic Compliance Matrix: (Units=1/GPa)
#
#
# Indices 1 2 3 4 5 6 
#
# 1 0.008953 -0.003090 -0.003387 0.000000 0.000000 0.000000
# 2 -0.003090 0.020370 -0.003757 0.000000 0.000000 0.000000
# 3 -0.003387 -0.003757 0.008535 0.000000 0.000000 0.000000
# 4 0.000000 0.000000 0.000000 0.035254 0.000000 0.000000
# 5 0.000000 0.000000 0.000000 0.000000 0.029246 0.000000
# 6 0.000000 0.000000 0.000000 0.000000 0.000000 0.035939
#
#
# Mechanical properties :
#
#
# Convention : Reuss Voigt Hill
#
# Bulk Modulus (GPa) = 57.50616 77.74178 67.62397
# Shear Modulus (GPa) = 30.38358 33.10988 31.74673
#
# Velocity S-wave (km/s) = 3.92109 4.09323 4.00808
# Velocity P-wave (km/s) = 7.04270 7.85359 7.45917
#
# Compressibility (1/GPa) = 0.01738944
#
# Stress axis : x y z
#
# Youngs Moduli (GPa) = 111.69112 49.09264 117.15943
#
# Poissons Ratio (x) = 0.15170 0.39684
# Poissons Ratio (y) = 0.34514 0.44018
# Poissons Ratio (z) = 0.37832 0.18445
#
# Static dielectric constant tensor:
#      x y z
#    x 1.669050 0.000000 0.000000 
#    y 0.000000 1.734510 0.000000 
#    z 0.000000 0.000000 1.674690 
# 
# From -- ./inp_files/11855.got.cif
#   From: 2010.05.17/outbox.cif.g08.bks.cpg/sg35_6_cif.got.tgz:11855.got - 2010.06.03 17:29:28.
