data_PCOD9348347
_publ_section_title
;
Structure prediction by ZEFSAII (Michael W. Deem and Ramdas Pophale) SiO2 
 PCOD9348347
Probable space group: C M M 2
;
_chemical_formula_sum "Si O2"
_cell_formula_units_Z 64
_cell_length_a 7.802382
_cell_length_b 19.453473
_cell_length_c 21.680201
_cell_angle_alpha 90.000000
_cell_angle_beta 90.000000
_cell_angle_gamma 90.000000
_cell_volume 3290.695218
_symmetry_space_group_name_H-M "C M M 2"
_symmetry_group_IT_number 35
_symmetry_cell_setting 'orthorhombic'
loop_
_space_group_symop_operation_xyz
x,y,z
-x,-y,z
-x,y,z
x,-y,z
1/2+x,1/2+y,z
1/2-x,1/2-y,z
1/2-x,1/2+y,z
1/2+x,1/2-y,z
loop_
_atom_site_type_symbol
_atom_site_label
_atom_site_fract_x
_atom_site_fract_y
_atom_site_fract_z
Si Si1 0.209206 0.920553 0.238080
Si Si2 0.793288 0.169990 0.352699
Si Si3 0.293151 0.669548 0.985506
Si Si4 0.793778 0.168970 0.851360
Si Si5 0.796038 0.078294 0.465449
Si Si6 0.797075 0.422455 0.601610
Si Si7 0.295989 0.330277 0.717586
Si Si8 0.290832 0.579394 0.099446
O O1 0.268782 0.869603 0.291457
O O2 0.263955 0.900860 0.168740
O O3 0.000000 0.920032 0.238338
O O4 0.259637 0.000000 0.249739
O O5 0.750000 0.250000 0.353279
O O6 0.728519 0.129331 0.413148
O O7 0.000000 0.165256 0.352490
O O8 0.500000 0.663925 0.985033
O O9 0.250000 0.750000 0.991212
O O10 0.230724 0.643419 0.918112
O O11 0.228499 0.627201 0.044113
O O12 0.750000 0.250000 0.851372
O O13 0.728655 0.143858 0.784651
O O14 0.000000 0.161093 0.851497
O O15 0.768710 0.103041 0.535384
O O16 0.000000 0.073530 0.456025
O O17 0.726619 0.000000 0.460567
O O18 0.727091 0.500000 0.611261
O O19 0.760309 0.374396 0.659418
O O20 0.000000 0.427078 0.595524
O O21 0.500000 0.334307 0.720234
O O22 0.250000 0.250000 0.710445
O O23 0.500000 0.581725 0.099320
O O24 0.242448 0.500000 0.089403
#
# Coordination Sequence:
#
# PCOD9348347 Si02
#       8
#     8   8   8   8   8   8   8   8
#     4   8  14  27  47  68  90 121 161 196 225 266
#     4  10  20  32  48  72  99 123 150 191 237 277
#     4   9  16  27  44  67  93 121 155 193 234 278
#     4   8  15  27  43  65  92 122 156 192 231 277
#     4   9  18  34  54  71  89 121 163 198 229 273
#     4  10  21  36  53  74 100 128 158 195 239 287
#     4  10  19  32  51  73  97 127 163 202 243 287
#     4   8  14  25  43  67  93 121 155 195 233 269
#
# _framework density 19.448778000000001
#
# number of rings (size 3 to 8) (size 9 to 14) (size 15 to 20)
#    0.000    3.000    0.000    1.875    0.000    4.250 
#    0.000    1.875    0.000    3.750    0.000    1.750 
#    0.000    0.000    0.000    0.000    0.000    0.000 
#
# Total GULP energy -178304.794990 kJ/mol
# GULP energy per Si atom -5572.024843 kJ/mol
# Density = 1.940451 g / cm^3
# Si number density = 19.448778 Si / 1000 Ang^3
#
#
#
# Elastic Constant Matrix: (Units=GPa)
#
#
# Indices 1 2 3 4 5 6 
#
# 1 26.3178 2.5082 7.4547 0.0000 0.0000 0.0000
# 2 2.5082 85.1535 114.9014 0.0000 0.0000 0.0000
# 3 7.4547 114.9014 235.3373 0.0000 0.0000 0.0000
# 4 0.0000 0.0000 0.0000 45.0674 0.0000 0.0000
# 5 0.0000 0.0000 0.0000 0.0000 3.7364 0.0000
# 6 0.0000 0.0000 0.0000 0.0000 0.0000 17.5330
#
#
#
# Elastic Compliance Matrix: (Units=1/GPa)
#
#
# Indices 1 2 3 4 5 6 
#
# 1 0.038406 0.001496 -0.001947 0.000000 0.000000 0.000000
# 2 0.001496 0.034477 -0.016880 0.000000 0.000000 0.000000
# 3 -0.001947 -0.016880 0.012553 0.000000 0.000000 0.000000
# 4 0.000000 0.000000 0.000000 0.022189 0.000000 0.000000
# 5 0.000000 0.000000 0.000000 0.000000 0.267636 0.000000
# 6 0.000000 0.000000 0.000000 0.000000 0.000000 0.057035
#
#
# Mechanical properties :
#
#
# Convention : Reuss Voigt Hill
#
# Bulk Modulus (GPa) = 19.69572 66.28190 42.98881
# Shear Modulus (GPa) = 10.33307 28.06364 19.19835
#
# Velocity S-wave (km/s) = 2.30749 3.80274 3.14526
# Velocity P-wave (km/s) = 4.15311 7.30995 5.94490
#
# Compressibility (1/GPa) = 0.05077246
#
# Stress axis : x y z
#
# Youngs Moduli (GPa) = 26.03756 29.00482 79.66453
#
# Poissons Ratio (x) = -0.04338 0.15509
# Poissons Ratio (y) = -0.03894 1.34478
# Poissons Ratio (z) = 0.05069 0.48962
#
# Static dielectric constant tensor:
#      x y z
#    x 1.712140 0.000000 0.000000 
#    y 0.000000 1.643720 0.000000 
#    z 0.000000 0.000000 1.723810 
# 
# From -- ./inp_files/18368.got.cif
#   From: 2010.05.17/outbox.cif.g08.bks.cpg/sg35_10_cif.got.tgz:18368.got - 2010.06.03 17:29:28.
