data_PCOD9348161
_publ_section_title
;
Structure prediction by ZEFSAII (Michael W. Deem and Ramdas Pophale) SiO2 
 PCOD9348161
Probable space group: C M M 2
;
_chemical_formula_sum "Si O2"
_cell_formula_units_Z 36
_cell_length_a 18.495999
_cell_length_b 14.363195
_cell_length_c 7.880563
_cell_angle_alpha 90.000000
_cell_angle_beta 90.000000
_cell_angle_gamma 90.000000
_cell_volume 2093.563294
_symmetry_space_group_name_H-M "C M M 2"
_symmetry_group_IT_number 35
_symmetry_cell_setting 'orthorhombic'
loop_
_space_group_symop_operation_xyz
x,y,z
-x,-y,z
-x,y,z
x,-y,z
1/2+x,1/2+y,z
1/2-x,1/2-y,z
1/2-x,1/2+y,z
1/2+x,1/2-y,z
loop_
_atom_site_type_symbol
_atom_site_label
_atom_site_fract_x
_atom_site_fract_y
_atom_site_fract_z
Si Si1 0.227764 0.500000 0.611541
Si Si2 0.414160 0.703024 0.919228
Si Si3 0.870920 0.000000 0.418484
Si Si4 0.585840 0.703024 0.303853
Si Si5 0.370920 0.500000 0.804597
Si Si6 0.670644 0.203866 0.611540
O O1 0.284450 0.500000 0.453377
O O2 0.284450 0.500000 0.769704
O O3 0.181819 0.593472 0.611541
O O4 0.500000 0.714530 0.895809
O O5 0.395237 0.594066 0.894034
O O6 0.371357 0.759677 0.776845
O O7 0.395235 0.730736 0.111540
O O8 0.895237 0.094066 0.329047
O O9 0.901771 0.000000 0.611541
O O10 0.500000 0.714530 0.327272
O O11 0.628643 0.759677 0.446236
O O12 0.750000 0.250000 0.611540
#
# Coordination Sequence:
#
# PCOD9348161 Si02
#       6
#     4   8   4   8   4   8
#     4  10  22  38  58  92 116 150 202 234 292 352
#     4  11  23  38  61  91 120 155 196 241 296 350
#     4  10  18  36  61  88 124 150 186 244 301 348
#     4  11  23  38  61  91 120 155 196 241 296 350
#     4  10  18  36  61  88 124 150 186 244 301 348
#     4  12  21  42  61  84 121 157 195 241 291 346
#
# _framework density 17.195563
#
# number of rings (size 3 to 8) (size 9 to 14) (size 15 to 20)
#    0.667    0.444    6.667    2.000    0.000    3.556 
#    0.000    3.333    0.000    2.667    0.000    0.000 
#    0.000    0.000    0.000    0.000    0.000    0.000 
#
# Total GULP energy -100466.199766 kJ/mol
# GULP energy per Si atom -5581.455543 kJ/mol
# Density = 1.715642 g / cm^3
# Si number density = 17.195563 Si / 1000 Ang^3
#
#
#
# Elastic Constant Matrix: (Units=GPa)
#
#
# Indices 1 2 3 4 5 6 
#
# 1 98.7408 59.6860 87.9684 0.0000 0.0000 0.0000
# 2 59.6860 131.5659 62.9694 0.0000 0.0000 0.0000
# 3 87.9684 62.9694 159.2051 0.0000 0.0000 0.0000
# 4 0.0000 0.0000 0.0000 5.9059 0.0000 0.0000
# 5 0.0000 0.0000 0.0000 0.0000 -147.0404 0.0000
# 6 0.0000 0.0000 0.0000 0.0000 0.0000 12.5911
#
#
#
# Elastic Compliance Matrix: (Units=1/GPa)
#
#
# Indices 1 2 3 4 5 6 
#
# 1 0.022561 -0.005265 -0.010383 0.000000 0.000000 0.000000
# 2 -0.005265 0.010604 -0.001285 0.000000 0.000000 0.000000
# 3 -0.010383 -0.001285 0.012527 0.000000 0.000000 0.000000
# 4 0.000000 0.000000 0.000000 0.169323 0.000000 0.000000
# 5 0.000000 0.000000 0.000000 0.000000 -0.006801 0.000000
# 6 0.000000 0.000000 0.000000 0.000000 0.000000 0.079421
#
#
# Mechanical properties :
#
#
# Convention : Reuss Voigt Hill
#
# Bulk Modulus (GPa) = 84.56868 90.08437 87.32653
# Shear Modulus (GPa) = 15.36361 -13.78283 0.79039
#
# Velocity S-wave (km/s) = 2.99233 -2.83421 0.67871
# Velocity P-wave (km/s) = 7.82470 6.46464 7.17696
#
# Compressibility (1/GPa) = 0.01182471
#
# Stress axis : x y z
#
# Youngs Moduli (GPa) = 44.32457 94.30042 79.82904
#
# Poissons Ratio (x) = 0.49652 0.82890
# Poissons Ratio (y) = 0.23338 0.10258
# Poissons Ratio (z) = 0.46024 0.12117
#
# Static dielectric constant tensor:
#      x y z
#    x 1.573080 0.000000 0.000000 
#    y 0.000000 1.554340 0.000000 
#    z 0.000000 0.000000 1.595690 
# 
# From -- ./inp_files/6950.got.cif
#   From: 2010.05.17/outbox.cif.g08.bks.cpg/sg35_4_cif.got.tgz:6950.got - 2010.06.03 17:29:28.
