data_PCOD9348398
_publ_section_title
;
Structure prediction by ZEFSAII (Michael W. Deem and Ramdas Pophale) SiO2 
 PCOD9348398
Probable space group: C M M 2
;
_chemical_formula_sum "Si O2"
_cell_formula_units_Z 64
_cell_length_a 8.127164
_cell_length_b 30.359174
_cell_length_c 12.666770
_cell_angle_alpha 90.000000
_cell_angle_beta 90.000000
_cell_angle_gamma 90.000000
_cell_volume 3125.322652
_symmetry_space_group_name_H-M "C M M 2"
_symmetry_group_IT_number 35
_symmetry_cell_setting 'orthorhombic'
loop_
_space_group_symop_operation_xyz
x,y,z
-x,-y,z
-x,y,z
x,-y,z
1/2+x,1/2+y,z
1/2-x,1/2-y,z
1/2-x,1/2+y,z
1/2+x,1/2-y,z
loop_
_atom_site_type_symbol
_atom_site_label
_atom_site_fract_x
_atom_site_fract_y
_atom_site_fract_z
Si Si1 0.304586 0.202627 0.328970
Si Si2 0.301893 0.605231 0.279112
Si Si3 0.691263 0.386794 0.885398
Si Si4 0.308245 0.951776 0.719138
Si Si5 0.798110 0.948971 0.073105
Si Si6 0.196665 0.324443 0.561076
Si Si7 0.302518 0.297299 0.791330
Si Si8 0.309106 0.419881 0.508783
O O1 0.500000 0.201284 0.325413
O O2 0.250000 0.250000 0.285146
O O3 0.243288 0.157062 0.276710
O O4 0.253664 0.200103 0.453040
O O5 0.500000 0.603586 0.282936
O O6 0.247877 0.576109 0.180157
O O7 0.242221 0.584311 0.389878
O O8 0.500000 0.380140 0.912659
O O9 0.706584 0.414546 0.778035
O O10 0.761544 0.338591 0.860129
O O11 0.761108 0.418395 0.976337
O O12 0.500000 0.945093 0.743431
O O13 0.284261 0.948970 0.593796
O O14 0.256047 0.000000 0.757134
O O15 0.000000 0.949935 0.070641
O O16 0.744416 0.000000 0.067480
O O17 0.237151 0.301821 0.671504
O O18 0.290956 0.370550 0.554177
O O19 0.000000 0.332521 0.556919
O O20 0.500000 0.299879 0.786493
O O21 0.250000 0.250000 0.834100
O O22 0.500000 0.433240 0.505810
#
# Coordination Sequence:
#
# PCOD9348398 Si02
#       8
#     8   8   8   8   8   8   8   8
#     4  10  20  33  52  80 114 153 193 231 278 333
#     4   9  19  35  57  84 114 146 186 236 285 336
#     4  10  21  38  60  84 111 145 188 236 283 339
#     4  11  23  36  53  80 114 151 188 229 284 344
#     4   9  18  36  63  89 110 140 187 240 290 338
#     4  10  19  32  52  78 112 152 188 230 278 331
#     4  11  22  34  52  80 112 149 191 231 279 336
#     4  10  19  32  52  80 114 151 187 228 278 338
#
# _framework density 20.477885000000001
#
# number of rings (size 3 to 8) (size 9 to 14) (size 15 to 20)
#    0.000    2.000    1.250    2.625    0.000    5.500 
#    0.000    2.500    0.000    2.625    0.000    0.000 
#    0.000    0.000    0.000    0.000    0.000    0.000 
#
# Total GULP energy -178559.499898 kJ/mol
# GULP energy per Si atom -5579.984372 kJ/mol
# Density = 2.043128 g / cm^3
# Si number density = 20.477885 Si / 1000 Ang^3
#
#
#
# Elastic Constant Matrix: (Units=GPa)
#
#
# Indices 1 2 3 4 5 6 
#
# 1 19.1506 3.8474 0.8818 0.0000 0.0000 0.0000
# 2 3.8474 154.4749 67.1712 0.0000 0.0000 0.0000
# 3 0.8818 67.1712 105.2288 0.0000 0.0000 0.0000
# 4 0.0000 0.0000 0.0000 15.3282 0.0000 0.0000
# 5 0.0000 0.0000 0.0000 0.0000 7.8920 0.0000
# 6 0.0000 0.0000 0.0000 0.0000 0.0000 12.8761
#
#
#
# Elastic Compliance Matrix: (Units=1/GPa)
#
#
# Indices 1 2 3 4 5 6 
#
# 1 0.052503 -0.001545 0.000546 0.000000 0.000000 0.000000
# 2 -0.001545 0.009006 -0.005736 0.000000 0.000000 0.000000
# 3 0.000546 -0.005736 0.013160 0.000000 0.000000 0.000000
# 4 0.000000 0.000000 0.000000 0.065239 0.000000 0.000000
# 5 0.000000 0.000000 0.000000 0.000000 0.126711 0.000000
# 6 0.000000 0.000000 0.000000 0.000000 0.000000 0.077663
#
#
# Mechanical properties :
#
#
# Convention : Reuss Voigt Hill
#
# Bulk Modulus (GPa) = 16.34000 46.96166 31.65083
# Shear Modulus (GPa) = 13.22218 21.01617 17.11918
#
# Velocity S-wave (km/s) = 2.54378 3.20705 2.89447
# Velocity P-wave (km/s) = 4.07731 6.05774 5.16336
#
# Compressibility (1/GPa) = 0.06119952
#
# Stress axis : x y z
#
# Youngs Moduli (GPa) = 19.04654 111.03360 75.98746
#
# Poissons Ratio (x) = 0.17157 -0.04152
# Poissons Ratio (y) = 0.02943 0.43587
# Poissons Ratio (z) = -0.01041 0.63690
#
# Static dielectric constant tensor:
#      x y z
#    x 1.728950 0.000000 0.000000 
#    y 0.000000 1.745850 0.000000 
#    z 0.000000 0.000000 1.741840 
# 
# From -- ./inp_files/12025.got.cif
#   From: 2010.05.17/outbox.cif.g08.bks.cpg/sg35_7_cif.got.tgz:12025.got - 2010.06.03 17:29:28.
