data_PCOD9348159
_publ_section_title
;
Structure prediction by ZEFSAII (Michael W. Deem and Ramdas Pophale) SiO2 
 PCOD9348159
Probable space group: C M M 2
;
_chemical_formula_sum "Si O2"
_cell_formula_units_Z 56
_cell_length_a 23.040154
_cell_length_b 8.234002
_cell_length_c 15.308303
_cell_angle_alpha 90.000000
_cell_angle_beta 90.000000
_cell_angle_gamma 90.000000
_cell_volume 2904.179098
_symmetry_space_group_name_H-M "C M M 2"
_symmetry_group_IT_number 35
_symmetry_cell_setting 'orthorhombic'
loop_
_space_group_symop_operation_xyz
x,y,z
-x,-y,z
-x,y,z
x,-y,z
1/2+x,1/2+y,z
1/2-x,1/2-y,z
1/2-x,1/2+y,z
1/2+x,1/2-y,z
loop_
_atom_site_type_symbol
_atom_site_label
_atom_site_fract_x
_atom_site_fract_y
_atom_site_fract_z
Si Si1 0.569096 0.194589 0.429580
Si Si2 0.390458 0.302498 0.620669
Si Si3 0.000000 0.187991 0.725362
Si Si4 0.817772 0.695729 0.315615
Si Si5 0.685112 0.304516 0.776530
Si Si6 0.184500 0.305629 0.114457
Si Si7 0.000000 0.322280 0.908653
Si Si8 0.884629 0.809181 0.949527
O O1 0.500000 0.251744 0.419405
O O2 0.592878 0.235362 0.526386
O O3 0.624330 0.252113 0.369249
O O4 0.566042 0.000000 0.418475
O O5 0.388487 0.500000 0.613373
O O6 0.442507 0.244390 0.683232
O O7 0.335418 0.251238 0.679556
O O8 0.000000 0.200488 0.828051
O O9 0.000000 0.000000 0.700424
O O10 0.815944 0.500000 0.323340
O O11 0.750000 0.750000 0.336909
O O12 0.830235 0.739202 0.214437
O O13 0.681710 0.500000 0.776737
O O14 0.750000 0.250000 0.793228
O O15 0.645953 0.251610 0.859295
O O16 0.178551 0.500000 0.105709
O O17 0.250000 0.250000 0.103742
O O18 0.151665 0.219114 0.036178
O O19 0.942908 0.290887 0.962222
O O20 0.000000 0.500000 0.868916
O O21 0.897009 0.000000 0.939024
#
# Coordination Sequence:
#
# PCOD9348159 Si02
#       8
#     8   8   4   8   8   8   4   8
#     4  10  21  37  58  86 116 149 190 241 298 350
#     4  10  20  36  57  79 107 148 189 228 278 336
#     4  10  18  36  58  75 106 147 188 229 276 332
#     4   9  20  39  61  85 116 152 191 239 296 354
#     4  10  22  37  54  78 111 150 187 229 281 331
#     4  10  20  37  60  87 113 148 194 237 287 348
#     4  12  24  36  56  85 114 149 194 239 282 340
#     4  11  22  39  59  81 115 155 190 236 288 339
#
# _framework density 19.282554999999999
#
# number of rings (size 3 to 8) (size 9 to 14) (size 15 to 20)
#    0.000    1.857    2.143    1.929    0.000    5.143 
#    1.286    2.857    0.000    0.000    0.000    0.000 
#    0.000    0.000    0.000    0.000    0.000    0.000 
#
# Total GULP energy -155872.099206 kJ/mol
# GULP energy per Si atom -5566.860686 kJ/mol
# Density = 1.923867 g / cm^3
# Si number density = 19.282555 Si / 1000 Ang^3
#
#
#
# Elastic Constant Matrix: (Units=GPa)
#
#
# Indices 1 2 3 4 5 6 
#
# 1 123.0342 17.2055 71.5895 0.0000 0.0000 0.0000
# 2 17.2055 15.7396 7.3155 0.0000 0.0000 0.0000
# 3 71.5895 7.3155 102.4268 0.0000 0.0000 0.0000
# 4 0.0000 0.0000 0.0000 23.8030 0.0000 0.0000
# 5 0.0000 0.0000 0.0000 0.0000 53.2552 0.0000
# 6 0.0000 0.0000 0.0000 0.0000 0.0000 24.0335
#
#
#
# Elastic Compliance Matrix: (Units=1/GPa)
#
#
# Indices 1 2 3 4 5 6 
#
# 1 0.015776 -0.012536 -0.010131 0.000000 0.000000 0.000000
# 2 -0.012536 0.075678 0.003357 0.000000 0.000000 0.000000
# 3 -0.010131 0.003357 0.016604 0.000000 0.000000 0.000000
# 4 0.000000 0.000000 0.000000 0.042012 0.000000 0.000000
# 5 0.000000 0.000000 0.000000 0.000000 0.018777 0.000000
# 6 0.000000 0.000000 0.000000 0.000000 0.000000 0.041609
#
#
# Mechanical properties :
#
#
# Convention : Reuss Voigt Hill
#
# Bulk Modulus (GPa) = 14.40150 48.15798 31.27974
# Shear Modulus (GPa) = 18.36741 29.89101 24.12921
#
# Velocity S-wave (km/s) = 3.08967 3.94148 3.54128
# Velocity P-wave (km/s) = 4.49589 6.76334 5.74264
#
# Compressibility (1/GPa) = 0.06943721
#
# Stress axis : x y z
#
# Youngs Moduli (GPa) = 63.38843 13.21393 60.22613
#
# Poissons Ratio (x) = 0.16565 0.61014
# Poissons Ratio (y) = 0.79466 -0.20218
# Poissons Ratio (z) = 0.64218 -0.04436
#
# Static dielectric constant tensor:
#      x y z
#    x 1.665320 0.000000 0.000000 
#    y 0.000000 1.699880 0.000000 
#    z 0.000000 0.000000 1.668010 
# 
# From -- ./inp_files/17452.got.cif
#   From: 2010.05.17/outbox.cif.g08.bks.cpg/sg35_9_cif.got.tgz:17452.got - 2010.06.03 17:29:28.
