data_PCOD9348512
_publ_section_title
;
Structure prediction by ZEFSAII (Michael W. Deem and Ramdas Pophale) SiO2 
 PCOD9348512
Probable space group: C M M 2
;
_chemical_formula_sum "Si O2"
_cell_formula_units_Z 64
_cell_length_a 9.002106
_cell_length_b 32.555567
_cell_length_c 11.807616
_cell_angle_alpha 90.000000
_cell_angle_beta 90.000000
_cell_angle_gamma 90.000000
_cell_volume 3460.442258
_symmetry_space_group_name_H-M "C M M 2"
_symmetry_group_IT_number 35
_symmetry_cell_setting 'orthorhombic'
loop_
_space_group_symop_operation_xyz
x,y,z
-x,-y,z
-x,y,z
x,-y,z
1/2+x,1/2+y,z
1/2-x,1/2-y,z
1/2-x,1/2+y,z
1/2+x,1/2-y,z
loop_
_atom_site_type_symbol
_atom_site_label
_atom_site_fract_x
_atom_site_fract_y
_atom_site_fract_z
Si Si1 0.822609 0.873655 0.127160
Si Si2 0.820641 0.795121 0.283605
Si Si3 0.328811 0.129330 0.888349
Si Si4 0.678172 0.904425 0.653087
Si Si5 0.677711 0.048453 0.245772
Si Si6 0.822164 0.174895 0.537814
Si Si7 0.169934 0.286758 0.748479
Si Si8 0.665507 0.548281 0.477446
O O1 0.776685 0.832875 0.199606
O O2 0.749714 0.916415 0.168420
O O3 0.000000 0.876963 0.138729
O O4 0.773225 0.869075 0.997329
O O5 0.750000 0.750000 0.261065
O O6 0.782912 0.809708 0.412033
O O7 0.000000 0.791006 0.277032
O O8 0.500000 0.119679 0.920712
O O9 0.280534 0.099856 0.784973
O O10 0.328746 0.173060 0.825246
O O11 0.500000 0.903113 0.647149
O O12 0.743943 0.867343 0.576656
O O13 0.750510 0.943016 0.593396
O O14 0.500000 0.050496 0.239972
O O15 0.734843 0.060673 0.370904
O O16 0.719097 0.000000 0.223444
O O17 0.763087 0.205201 0.634878
O O18 0.000000 0.170804 0.543941
O O19 0.250000 0.250000 0.812317
O O20 0.000000 0.277481 0.719756
O O21 0.500000 0.567268 0.473553
O O22 0.649149 0.500000 0.465437
#
# Coordination Sequence:
#
# PCOD9348512 Si02
#       8
#     8   8   8   8   8   8   8   8
#     4  11  23  39  59  83 112 148 192 239 287 336
#     4  10  23  38  53  79 112 147 186 228 276 332
#     4   9  21  39  55  75 105 143 187 230 273 327
#     4  10  20  35  56  81 109 143 183 225 275 335
#     4  10  21  38  62  90 117 148 187 229 279 339
#     4  10  19  33  54  79 109 141 177 226 282 339
#     4  10  20  34  53  78 107 139 180 229 280 335
#     4  10  20  34  55  85 118 146 175 217 270 329
#
# _framework density 18.494747
#
# number of rings (size 3 to 8) (size 9 to 14) (size 15 to 20)
#    0.000    2.000    0.000    4.125    0.000    9.000 
#    0.000    3.125    0.000    0.750    0.000    0.000 
#    0.000    0.000    0.000    0.000    0.000    0.000 
#
# Total GULP energy -178403.525192 kJ/mol
# GULP energy per Si atom -5575.110162 kJ/mol
# Density = 1.845265 g / cm^3
# Si number density = 18.494747 Si / 1000 Ang^3
#
#
#
# Elastic Constant Matrix: (Units=GPa)
#
#
# Indices 1 2 3 4 5 6 
#
# 1 80.7577 39.5354 51.6230 0.0000 0.0000 0.0000
# 2 39.5354 61.7444 45.9161 0.0000 0.0000 0.0000
# 3 51.6230 45.9161 110.0179 0.0000 0.0000 0.0000
# 4 0.0000 0.0000 0.0000 1.8124 0.0000 0.0000
# 5 0.0000 0.0000 0.0000 0.0000 32.8624 0.0000
# 6 0.0000 0.0000 0.0000 0.0000 0.0000 31.7079
#
#
#
# Elastic Compliance Matrix: (Units=1/GPa)
#
#
# Indices 1 2 3 4 5 6 
#
# 1 0.020436 -0.008634 -0.005985 0.000000 0.000000 0.000000
# 2 -0.008634 0.027132 -0.007272 0.000000 0.000000 0.000000
# 3 -0.005985 -0.007272 0.014933 0.000000 0.000000 0.000000
# 4 0.000000 0.000000 0.000000 0.551762 0.000000 0.000000
# 5 0.000000 0.000000 0.000000 0.000000 0.030430 0.000000
# 6 0.000000 0.000000 0.000000 0.000000 0.000000 0.031538
#
#
# Mechanical properties :
#
#
# Convention : Reuss Voigt Hill
#
# Bulk Modulus (GPa) = 53.42659 58.51878 55.97269
# Shear Modulus (GPa) = 6.88464 20.97291 13.92877
#
# Velocity S-wave (km/s) = 1.93147 3.37113 2.74728
# Velocity P-wave (km/s) = 5.82445 6.84560 6.35557
#
# Compressibility (1/GPa) = 0.01871727
#
# Stress axis : x y z
#
# Youngs Moduli (GPa) = 48.93402 36.85632 66.96530
#
# Poissons Ratio (x) = 0.31822 0.40082
# Poissons Ratio (y) = 0.42250 0.48700
# Poissons Ratio (z) = 0.29289 0.26803
#
# Static dielectric constant tensor:
#      x y z
#    x 1.611800 0.000000 0.000000 
#    y 0.000000 1.773570 0.000000 
#    z 0.000000 0.000000 1.624700 
# 
# From -- ./inp_files/11981.got.cif
#   From: 2010.05.17/outbox.cif.g08.bks.cpg/sg35_6_cif.got.tgz:11981.got - 2010.06.03 17:29:28.
