data_PCOD9348954
_publ_section_title
;
Structure prediction by ZEFSAII (Michael W. Deem and Ramdas Pophale) SiO2 
 PCOD9348954
Probable space group: C M M 2
;
_chemical_formula_sum "Si O2"
_cell_formula_units_Z 48
_cell_length_a 8.103770
_cell_length_b 18.670618
_cell_length_c 17.835889
_cell_angle_alpha 90.000000
_cell_angle_beta 90.000000
_cell_angle_gamma 90.000000
_cell_volume 2698.612705
_symmetry_space_group_name_H-M "C M M 2"
_symmetry_group_IT_number 35
_symmetry_cell_setting 'orthorhombic'
loop_
_space_group_symop_operation_xyz
x,y,z
-x,-y,z
-x,y,z
x,-y,z
1/2+x,1/2+y,z
1/2-x,1/2-y,z
1/2-x,1/2+y,z
1/2+x,1/2-y,z
loop_
_atom_site_type_symbol
_atom_site_label
_atom_site_fract_x
_atom_site_fract_y
_atom_site_fract_z
Si Si1 0.500000 0.412615 0.598410
Si Si2 0.303929 0.832438 0.026557
Si Si3 0.306724 0.332197 0.188808
Si Si4 0.196708 0.580210 0.331488
Si Si5 0.192609 0.413668 0.874141
Si Si6 0.191575 0.412532 0.496688
Si Si7 0.000000 0.912918 0.770826
O O1 0.500000 0.500000 0.597790
O O2 0.331934 0.390404 0.555639
O O3 0.500000 0.388958 0.684707
O O4 0.500000 0.832966 0.033888
O O5 0.250000 0.750000 0.016223
O O6 0.235095 0.860363 0.105670
O O7 0.261001 0.878730 0.953843
O O8 0.500000 0.334302 0.198583
O O9 0.250000 0.250000 0.189942
O O10 0.231230 0.374140 0.258286
O O11 0.266624 0.500000 0.322288
O O12 0.247832 0.610079 0.412837
O O13 0.000000 0.574326 0.338654
O O14 0.197191 0.500000 0.880018
O O15 0.332221 0.391401 0.814263
O O16 0.000000 0.394253 0.856596
O O17 0.189011 0.500000 0.495226
O O18 0.000000 0.390447 0.511478
O O19 0.000000 0.000000 0.770387
#
# Coordination Sequence:
#
# PCOD9348954 Si02
#       7
#     4   8   8   8   8   8   4
#     4   9  16  26  44  71 101 131 163 201 250 301
#     4  10  20  34  53  73  97 130 168 211 250 293
#     4  11  22  34  50  72 101 134 170 213 252 297
#     4   9  18  33  51  72 102 135 168 211 256 298
#     4   9  19  34  51  73 103 135 167 205 253 306
#     4   8  15  27  44  68 100 134 165 203 246 293
#     4   9  18  30  48  73 103 135 162 205 254 299
#
# _framework density 17.786916999999999
#
# number of rings (size 3 to 8) (size 9 to 14) (size 15 to 20)
#    0.000    2.667    0.000    4.000    3.500    1.667 
#    0.000    5.000    0.000    0.000    0.000    1.167 
#    0.000    0.000    0.000    0.000    0.000    0.000 
#
# Total GULP energy -133687.082294 kJ/mol
# GULP energy per Si atom -5570.295096 kJ/mol
# Density = 1.774643 g / cm^3
# Si number density = 17.786917 Si / 1000 Ang^3
#
#
#
# Elastic Constant Matrix: (Units=GPa)
#
#
# Indices 1 2 3 4 5 6 
#
# 1 77.3910 14.6373 73.7781 0.0000 0.0000 0.0000
# 2 14.6373 11.9713 32.2658 0.0000 0.0000 0.0000
# 3 73.7781 32.2658 167.8728 0.0000 0.0000 0.0000
# 4 0.0000 0.0000 0.0000 -13.2411 0.0000 0.0000
# 5 0.0000 0.0000 0.0000 0.0000 32.4759 0.0000
# 6 0.0000 0.0000 0.0000 0.0000 0.0000 17.5102
#
#
#
# Elastic Compliance Matrix: (Units=1/GPa)
#
#
# Indices 1 2 3 4 5 6 
#
# 1 0.022257 -0.001762 -0.009443 0.000000 0.000000 0.000000
# 2 -0.001762 0.173458 -0.032565 0.000000 0.000000 0.000000
# 3 -0.009443 -0.032565 0.016366 0.000000 0.000000 0.000000
# 4 0.000000 0.000000 0.000000 -0.075523 0.000000 0.000000
# 5 0.000000 0.000000 0.000000 0.000000 0.030792 0.000000
# 6 0.000000 0.000000 0.000000 0.000000 0.000000 0.057110
#
#
# Mechanical properties :
#
#
# Convention : Reuss Voigt Hill
#
# Bulk Modulus (GPa) = 8.02948 55.39972 31.71460
# Shear Modulus (GPa) = 14.14373 16.45260 15.29816
#
# Velocity S-wave (km/s) = 2.82295 3.04465 2.93589
# Velocity P-wave (km/s) = 3.89223 6.60105 5.41864
#
# Compressibility (1/GPa) = 0.12454110
#
# Stress axis : x y z
#
# Youngs Moduli (GPa) = 44.93017 5.76508 61.10218
#
# Poissons Ratio (x) = 0.01016 0.57698
# Poissons Ratio (y) = 0.07918 1.98979
# Poissons Ratio (z) = 0.42427 0.18774
#
# Static dielectric constant tensor:
#      x y z
#    x 1.620520 0.000000 0.000000 
#    y 0.000000 1.579940 0.000000 
#    z 0.000000 0.000000 1.630630 
# 
# From -- ./inp_files/15269.got.cif
#   From: 2010.05.17/outbox.cif.g08.bks.cpg/sg35_8_cif.got.tgz:15269.got - 2010.06.03 17:29:28.
