data_PCOD9348258
_publ_section_title
;
Structure prediction by ZEFSAII (Michael W. Deem and Ramdas Pophale) SiO2 
 PCOD9348258
Probable space group: C M M 2
;
_chemical_formula_sum "Si O2"
_cell_formula_units_Z 56
_cell_length_a 28.337628
_cell_length_b 21.776545
_cell_length_c 5.313323
_cell_angle_alpha 90.000000
_cell_angle_beta 90.000000
_cell_angle_gamma 90.000000
_cell_volume 3278.828411
_symmetry_space_group_name_H-M "C M M 2"
_symmetry_group_IT_number 35
_symmetry_cell_setting 'orthorhombic'
loop_
_space_group_symop_operation_xyz
x,y,z
-x,-y,z
-x,y,z
x,-y,z
1/2+x,1/2+y,z
1/2-x,1/2-y,z
1/2-x,1/2+y,z
1/2+x,1/2-y,z
loop_
_atom_site_type_symbol
_atom_site_label
_atom_site_fract_x
_atom_site_fract_y
_atom_site_fract_z
Si Si1 0.260943 0.676362 0.998400
Si Si2 0.692994 0.066206 0.132016
Si Si3 0.387374 0.771468 0.628148
Si Si4 0.055379 0.432629 0.286582
Si Si5 0.206454 0.799435 0.499192
Si Si6 0.056526 0.296745 0.123044
Si Si7 0.863269 0.589037 0.639921
O O1 0.250000 0.750000 0.970490
O O2 0.276012 0.656261 0.720415
O O3 0.220915 0.629768 0.090846
O O4 0.298998 0.673832 0.220972
O O5 0.669185 0.068863 0.405384
O O6 0.718920 0.000000 0.113953
O O7 0.655192 0.066055 0.905372
O O8 0.343074 0.727021 0.592541
O O9 0.420885 0.772039 0.382542
O O10 0.362754 0.837726 0.644220
O O11 0.417965 0.766977 0.882398
O O12 0.064535 0.500000 0.171537
O O13 0.066559 0.370764 0.130271
O O14 0.084800 0.428987 0.544745
O O15 0.000000 0.428842 0.342063
O O16 0.250000 0.750000 0.470333
O O17 0.000000 0.288682 0.115025
#
# Coordination Sequence:
#
# PCOD9348258 Si02
#       7
#     8   8   8   8   8   8   8
#     4  10  19  33  50  69  95 123 156 196 239 285
#     4  12  23  35  51  72  96 125 163 206 254 295
#     4  11  20  34  53  73  95 125 166 208 253 294
#     4   9  18  32  46  61  84 119 163 211 260 302
#     4  10  19  31  50  72  95 121 157 201 241 285
#     4  10  21  35  51  69  93 124 162 206 254 306
#     4  11  21  34  49  66  90 121 160 211 259 298
#
# _framework density 17.079270000000001
#
# number of rings (size 3 to 8) (size 9 to 14) (size 15 to 20)
#    0.000    1.571    0.000    8.571    0.000    0.571 
#    0.000    4.286    0.000   19.714    0.000    0.000 
#    0.000    0.000    0.000    0.000    0.000   50.000 
#
# Total GULP energy -156054.996298 kJ/mol
# GULP energy per Si atom -5573.392725 kJ/mol
# Density = 1.704040 g / cm^3
# Si number density = 17.079270 Si / 1000 Ang^3
#
#
#
# Elastic Constant Matrix: (Units=GPa)
#
#
# Indices 1 2 3 4 5 6 
#
# 1 62.8088 16.8442 13.9303 0.0000 0.0000 0.0000
# 2 16.8442 35.6296 -3.3382 0.0000 0.0000 0.0000
# 3 13.9303 -3.3382 78.6687 0.0000 0.0000 0.0000
# 4 0.0000 0.0000 0.0000 -17.8813 0.0000 0.0000
# 5 0.0000 0.0000 0.0000 0.0000 25.1584 0.0000
# 6 0.0000 0.0000 0.0000 0.0000 0.0000 15.4870
#
#
#
# Elastic Compliance Matrix: (Units=1/GPa)
#
#
# Indices 1 2 3 4 5 6 
#
# 1 0.019314 -0.009489 -0.003823 0.000000 0.000000 0.000000
# 2 -0.009489 0.032841 0.003074 0.000000 0.000000 0.000000
# 3 -0.003823 0.003074 0.013519 0.000000 0.000000 0.000000
# 4 0.000000 0.000000 0.000000 -0.055924 0.000000 0.000000
# 5 0.000000 0.000000 0.000000 0.000000 0.039748 0.000000
# 6 0.000000 0.000000 0.000000 0.000000 0.000000 0.064570
#
#
# Mechanical properties :
#
#
# Convention : Reuss Voigt Hill
#
# Bulk Modulus (GPa) = 22.12504 25.77552 23.95028
# Shear Modulus (GPa) = 33.42042 14.53088 23.97565
#
# Velocity S-wave (km/s) = 4.42835 2.92000 3.75078
# Velocity P-wave (km/s) = 6.25536 5.14713 5.72811
#
# Compressibility (1/GPa) = 0.04519765
#
# Stress axis : x y z
#
# Youngs Moduli (GPa) = 51.77610 30.45019 73.97071
#
# Poissons Ratio (x) = 0.28894 0.28277
# Poissons Ratio (y) = 0.49130 -0.22737
# Poissons Ratio (z) = 0.19792 -0.09360
#
# Static dielectric constant tensor:
#      x y z
#    x 1.576950 0.000000 0.000000 
#    y 0.000000 1.568650 0.000000 
#    z 0.000000 0.000000 1.643050 
# 
# From -- ./inp_files/3804.got.cif
#   From: 2010.05.17/outbox.cif.g08.bks.cpg/sg35_2_cif.got.tgz:3804.got - 2010.06.03 17:29:28.
