data_PCOD9348926
_publ_section_title
;
Structure prediction by ZEFSAII (Michael W. Deem and Ramdas Pophale) SiO2 
 PCOD9348926
Probable space group: C M M 2
;
_chemical_formula_sum "Si O2"
_cell_formula_units_Z 56
_cell_length_a 9.194009
_cell_length_b 15.463178
_cell_length_c 19.069209
_cell_angle_alpha 90.000000
_cell_angle_beta 90.000000
_cell_angle_gamma 90.000000
_cell_volume 2711.042703
_symmetry_space_group_name_H-M "C M M 2"
_symmetry_group_IT_number 35
_symmetry_cell_setting 'orthorhombic'
loop_
_space_group_symop_operation_xyz
x,y,z
-x,-y,z
-x,y,z
x,-y,z
1/2+x,1/2+y,z
1/2-x,1/2-y,z
1/2-x,1/2+y,z
1/2+x,1/2-y,z
loop_
_atom_site_type_symbol
_atom_site_label
_atom_site_fract_x
_atom_site_fract_y
_atom_site_fract_z
Si Si1 0.174890 0.838953 0.742370
Si Si2 0.833380 0.394179 0.146608
Si Si3 0.666555 0.393765 0.006227
Si Si4 0.325383 0.395854 0.438469
Si Si5 0.676354 0.398573 0.589046
Si Si6 0.330178 0.605842 0.286308
Si Si7 0.662027 0.100165 0.871556
O O1 0.250000 0.750000 0.762299
O O2 0.223017 0.858599 0.662553
O O3 0.241379 0.899570 0.801615
O O4 0.000000 0.838639 0.744603
O O5 0.832129 0.500000 0.147434
O O6 0.760258 0.365373 0.219231
O O7 0.000000 0.366239 0.141943
O O8 0.743837 0.367316 0.078260
O O9 0.500000 0.365234 0.003884
O O10 0.664839 0.500000 0.005854
O O11 0.753381 0.361698 0.938024
O O12 0.500000 0.382677 0.436722
O O13 0.304043 0.500000 0.440820
O O14 0.269609 0.362665 0.513904
O O15 0.270924 0.365051 0.362681
O O16 0.500000 0.392905 0.587348
O O17 0.713166 0.500000 0.592353
O O18 0.500000 0.629992 0.279225
O O19 0.327245 0.500000 0.287486
O O20 0.500000 0.137543 0.860249
O O21 0.643294 0.000000 0.890185
#
# Coordination Sequence:
#
# PCOD9348926 Si02
#       7
#     8   8   8   8   8   8   8
#     4  11  22  35  51  71  97 127 160 198 241 289
#     4   9  15  21  30  48  79 117 151 182 220 267
#     4   9  16  26  41  61  85 115 153 192 228 271
#     4   7  10  18  34  57  82 107 141 186 229 268
#     4   8  14  26  46  70  92 117 154 198 239 280
#     4   8  12  18  30  49  75 108 143 178 219 268
#     4  10  20  34  52  73  97 124 156 196 242 290
#
# _framework density 20.656258999999999
#
# number of rings (size 3 to 8) (size 9 to 14) (size 15 to 20)
#    0.000    3.143    0.000    3.857    0.000    4.857 
#    0.000    0.000    0.000    1.714    0.000    6.000 
#    0.000    1.143    0.000    8.000    0.000   12.286 
#
# Total GULP energy -155965.877302 kJ/mol
# GULP energy per Si atom -5570.209904 kJ/mol
# Density = 2.060924 g / cm^3
# Si number density = 20.656259 Si / 1000 Ang^3
#
#
#
# Elastic Constant Matrix: (Units=GPa)
#
#
# Indices 1 2 3 4 5 6 
#
# 1 104.0243 5.5569 81.6027 0.0000 0.0000 0.0000
# 2 5.5569 20.3033 4.4304 0.0000 0.0000 0.0000
# 3 81.6027 4.4304 188.2087 0.0000 0.0000 0.0000
# 4 0.0000 0.0000 0.0000 -39.2974 0.0000 0.0000
# 5 0.0000 0.0000 0.0000 0.0000 -30.7119 0.0000
# 6 0.0000 0.0000 0.0000 0.0000 0.0000 5.5622
#
#
#
# Elastic Compliance Matrix: (Units=1/GPa)
#
#
# Indices 1 2 3 4 5 6 
#
# 1 0.014708 -0.002648 -0.006315 0.000000 0.000000 0.000000
# 2 -0.002648 0.049984 -0.000029 0.000000 0.000000 0.000000
# 3 -0.006315 -0.000029 0.008052 0.000000 0.000000 0.000000
# 4 0.000000 0.000000 0.000000 -0.025447 0.000000 0.000000
# 5 0.000000 0.000000 0.000000 0.000000 -0.032561 0.000000
# 6 0.000000 0.000000 0.000000 0.000000 0.000000 0.179784
#
#
# Mechanical properties :
#
#
# Convention : Reuss Voigt Hill
#
# Bulk Modulus (GPa) = 18.26085 55.07957 36.67021
# Shear Modulus (GPa) = 21.66785 1.84034 11.75410
#
# Velocity S-wave (km/s) = 3.24230 0.94492 2.38803
# Velocity P-wave (km/s) = 4.78291 5.28330 5.03932
#
# Compressibility (1/GPa) = 0.05476198
#
# Stress axis : x y z
#
# Youngs Moduli (GPa) = 67.98884 20.00638 124.19454
#
# Poissons Ratio (x) = 0.05297 0.78427
# Poissons Ratio (y) = 0.18001 0.00356
# Poissons Ratio (z) = 0.42934 0.00057
#
# Static dielectric constant tensor:
#      x y z
#    x 1.715500 0.000000 0.000000 
#    y 0.000000 1.938560 0.000000 
#    z 0.000000 0.000000 1.766070 
# 
# From -- ./inp_files/18263.got.cif
#   From: 2010.05.17/outbox.cif.g08.bks.cpg/sg35_10_cif.got.tgz:18263.got - 2010.06.03 17:29:28.
