data_PCOD9348165
_publ_section_title
;
Structure prediction by ZEFSAII (Michael W. Deem and Ramdas Pophale) SiO2 
 PCOD9348165
Probable space group: C M M 2
;
_chemical_formula_sum "Si O2"
_cell_formula_units_Z 40
_cell_length_a 14.598049
_cell_length_b 17.092069
_cell_length_c 7.601660
_cell_angle_alpha 90.000000
_cell_angle_beta 90.000000
_cell_angle_gamma 90.000000
_cell_volume 1896.696730
_symmetry_space_group_name_H-M "C M M 2"
_symmetry_group_IT_number 35
_symmetry_cell_setting 'orthorhombic'
loop_
_space_group_symop_operation_xyz
x,y,z
-x,-y,z
-x,y,z
x,-y,z
1/2+x,1/2+y,z
1/2-x,1/2-y,z
1/2-x,1/2+y,z
1/2+x,1/2-y,z
loop_
_atom_site_type_symbol
_atom_site_label
_atom_site_fract_x
_atom_site_fract_y
_atom_site_fract_z
Si Si1 0.345342 0.293712 0.077480
Si Si2 0.897988 0.366645 0.174385
Si Si3 0.898056 0.909538 0.386409
Si Si4 0.717095 0.840047 0.529830
Si Si5 0.264220 0.088741 0.875412
O O1 0.250000 0.250000 0.130253
O O2 0.405903 0.217003 0.074027
O O3 0.384476 0.351673 0.222861
O O4 0.317139 0.349092 0.916142
O O5 0.852001 0.353685 0.366990
O O6 0.000000 0.400081 0.190442
O O7 0.826465 0.412135 0.051259
O O8 0.810521 0.889596 0.503420
O O9 0.000000 0.896684 0.463467
O O10 0.892897 0.000000 0.331017
O O11 0.750000 0.750000 0.540458
O O12 0.680072 0.873385 0.713800
O O13 0.234626 0.000000 0.839943
#
# Coordination Sequence:
#
# PCOD9348165 Si02
#       5
#     8   8   8   8   8
#     4  10  18  39  63  89 122 163 206 258 314 374
#     4  11  23  42  68  96 126 169 220 268 317 376
#     4  11  21  35  61  94 126 162 205 258 321 383
#     4  12  22  41  67  93 131 172 213 264 322 380
#     4  11  24  41  64  94 130 170 215 264 321 384
#
# _framework density 21.089296999999998
#
# number of rings (size 3 to 8) (size 9 to 14) (size 15 to 20)
#    0.000    1.000    6.000    3.600    0.000    2.000 
#    0.000    4.000    0.000    4.800    0.000    0.000 
#    0.000    0.000    0.000    0.000    0.000    0.000 
#
# Total GULP energy -111431.985403 kJ/mol
# GULP energy per Si atom -5571.599270 kJ/mol
# Density = 2.104130 g / cm^3
# Si number density = 21.089297 Si / 1000 Ang^3
#
#
#
# Elastic Constant Matrix: (Units=GPa)
#
#
# Indices 1 2 3 4 5 6 
#
# 1 93.7445 10.6452 -2.3481 0.0000 0.0000 0.0000
# 2 10.6452 135.8066 21.6720 0.0000 0.0000 0.0000
# 3 -2.3481 21.6720 94.9011 0.0000 0.0000 0.0000
# 4 0.0000 0.0000 0.0000 31.5100 0.0000 0.0000
# 5 0.0000 0.0000 0.0000 0.0000 3.9833 0.0000
# 6 0.0000 0.0000 0.0000 0.0000 0.0000 12.3177
#
#
#
# Elastic Compliance Matrix: (Units=1/GPa)
#
#
# Indices 1 2 3 4 5 6 
#
# 1 0.010784 -0.000921 0.000477 0.000000 0.000000 0.000000
# 2 -0.000921 0.007721 -0.001786 0.000000 0.000000 0.000000
# 3 0.000477 -0.001786 0.010957 0.000000 0.000000 0.000000
# 4 0.000000 0.000000 0.000000 0.031736 0.000000 0.000000
# 5 0.000000 0.000000 0.000000 0.000000 0.251047 0.000000
# 6 0.000000 0.000000 0.000000 0.000000 0.000000 0.081184
#
#
# Mechanical properties :
#
#
# Convention : Reuss Voigt Hill
#
# Bulk Modulus (GPa) = 39.99808 42.71005 41.35407
# Shear Modulus (GPa) = 12.30854 29.19440 20.75147
#
# Velocity S-wave (km/s) = 2.41848 3.72469 3.14025
# Velocity P-wave (km/s) = 5.17745 6.22846 5.72711
#
# Compressibility (1/GPa) = 0.02500120
#
# Stress axis : x y z
#
# Youngs Moduli (GPa) = 92.73096 129.52299 91.26647
#
# Poissons Ratio (x) = 0.11935 -0.04356
# Poissons Ratio (y) = 0.08545 0.16299
# Poissons Ratio (z) = -0.04426 0.23132
#
# Static dielectric constant tensor:
#      x y z
#    x 1.807360 0.000000 0.000000 
#    y 0.000000 1.782560 0.000000 
#    z 0.000000 0.000000 1.821380 
# 
# From -- ./inp_files/7139.got.cif
#   From: 2010.05.17/outbox.cif.g08.bks.cpg/sg35_4_cif.got.tgz:7139.got - 2010.06.03 17:29:28.
