data_PCOD9348488
_publ_section_title
;
Structure prediction by ZEFSAII (Michael W. Deem and Ramdas Pophale) SiO2 
 PCOD9348488
Probable space group: C M M 2
;
_chemical_formula_sum "Si O2"
_cell_formula_units_Z 56
_cell_length_a 8.662055
_cell_length_b 23.824791
_cell_length_c 15.984585
_cell_angle_alpha 90.000000
_cell_angle_beta 90.000000
_cell_angle_gamma 90.000000
_cell_volume 3298.765181
_symmetry_space_group_name_H-M "C M M 2"
_symmetry_group_IT_number 35
_symmetry_cell_setting 'orthorhombic'
loop_
_space_group_symop_operation_xyz
x,y,z
-x,-y,z
-x,y,z
x,-y,z
1/2+x,1/2+y,z
1/2-x,1/2-y,z
1/2-x,1/2+y,z
1/2+x,1/2-y,z
loop_
_atom_site_type_symbol
_atom_site_label
_atom_site_fract_x
_atom_site_fract_y
_atom_site_fract_z
Si Si1 0.184857 0.886119 0.613490
Si Si2 0.316094 0.312254 0.778391
Si Si3 0.816076 0.382851 0.932352
Si Si4 0.185652 0.186982 0.271549
Si Si5 0.186885 0.186571 0.455003
Si Si6 0.684284 0.500000 0.871375
Si Si7 0.817404 0.500000 0.682957
Si Si8 0.813930 0.813706 0.087265
O O1 0.212218 0.845458 0.692448
O O2 0.236900 0.854147 0.529687
O O3 0.000000 0.895682 0.607928
O O4 0.265919 0.944666 0.633179
O O5 0.500000 0.310701 0.793056
O O6 0.250000 0.250000 0.772658
O O7 0.236331 0.345022 0.853988
O O8 0.747357 0.444356 0.915987
O O9 0.000000 0.385801 0.935705
O O10 0.751864 0.353162 0.015328
O O11 0.250000 0.250000 0.271801
O O12 0.232876 0.163918 0.362542
O O13 0.231201 0.164091 0.180381
O O14 0.000000 0.188481 0.271570
O O15 0.250000 0.250000 0.465249
O O16 0.000000 0.189997 0.458155
O O17 0.500000 0.500000 0.872666
O O18 0.738302 0.500000 0.774498
O O19 0.000000 0.500000 0.695957
O O20 0.750000 0.750000 0.078067
O O21 0.000000 0.811470 0.081559
#
# Coordination Sequence:
#
# PCOD9348488 Si02
#       8
#     8   8   8   8   8   4   4   8
#     4  10  21  36  55  76 106 143 179 220 267 315
#     4  11  22  35  52  76 108 144 176 215 264 318
#     4  12  24  38  56  79 106 139 179 223 265 317
#     4   8  15  28  49  76 108 141 178 217 261 316
#     4   9  17  31  52  81 111 143 178 217 265 318
#     4  12  24  42  62  79 102 135 178 223 270 320
#     4  12  24  38  58  79 102 137 184 227 264 310
#     4  10  19  33  53  80 112 146 180 222 270 321
#
# _framework density 16.976049
#
# number of rings (size 3 to 8) (size 9 to 14) (size 15 to 20)
#    0.000    1.714    1.429    4.286    0.000    1.714 
#    0.000    0.000    0.000    0.857    0.000    3.000 
#    0.000    0.000    0.000    0.000    0.000    0.000 
#
# Total GULP energy -156252.110138 kJ/mol
# GULP energy per Si atom -5580.432505 kJ/mol
# Density = 1.693741 g / cm^3
# Si number density = 16.976049 Si / 1000 Ang^3
#
#
#
# Elastic Constant Matrix: (Units=GPa)
#
#
# Indices 1 2 3 4 5 6 
#
# 1 81.0938 58.3206 69.0471 0.0000 0.0000 0.0000
# 2 58.3206 124.8180 74.2637 0.0000 0.0000 0.0000
# 3 69.0471 74.2637 174.3235 0.0000 0.0000 0.0000
# 4 0.0000 0.0000 0.0000 -6.1404 0.0000 0.0000
# 5 0.0000 0.0000 0.0000 0.0000 -0.5162 0.0000
# 6 0.0000 0.0000 0.0000 0.0000 0.0000 51.3615
#
#
#
# Elastic Compliance Matrix: (Units=1/GPa)
#
#
# Indices 1 2 3 4 5 6 
#
# 1 0.022332 -0.006928 -0.005894 0.000000 0.000000 0.000000
# 2 -0.006928 0.012881 -0.002743 0.000000 0.000000 0.000000
# 3 -0.005894 -0.002743 0.009240 0.000000 0.000000 0.000000
# 4 0.000000 0.000000 0.000000 -0.162857 0.000000 0.000000
# 5 0.000000 0.000000 0.000000 0.000000 -1.937397 0.000000
# 6 0.000000 0.000000 0.000000 0.000000 0.000000 0.019470
#
#
# Mechanical properties :
#
#
# Convention : Reuss Voigt Hill
#
# Bulk Modulus (GPa) = 75.06250 87.05534 81.05892
# Shear Modulus (GPa) = -2.49905 20.84791 9.17443
#
# Velocity S-wave (km/s) = -1.21462 3.50820 2.32725
# Velocity P-wave (km/s) = 6.50735 8.23423 7.42119
#
# Compressibility (1/GPa) = 0.01332223
#
# Stress axis : x y z
#
# Youngs Moduli (GPa) = 44.77828 77.63441 108.22738
#
# Poissons Ratio (x) = 0.53783 0.63792
# Poissons Ratio (y) = 0.31021 0.29691
# Poissons Ratio (z) = 0.26393 0.21298
#
# Static dielectric constant tensor:
#      x y z
#    x 1.568460 0.000000 0.000000 
#    y 0.000000 1.531170 0.000000 
#    z 0.000000 0.000000 1.603370 
# 
# From -- ./inp_files/15804.got.cif
#   From: 2010.05.17/outbox.cif.g08.bks.cpg/sg35_8_cif.got.tgz:15804.got - 2010.06.03 17:29:28.
