data_PCOD9348760
_publ_section_title
;
Structure prediction by ZEFSAII (Michael W. Deem and Ramdas Pophale) SiO2 
 PCOD9348760
Probable space group: C M M 2
;
_chemical_formula_sum "Si O2"
_cell_formula_units_Z 56
_cell_length_a 7.953242
_cell_length_b 19.786861
_cell_length_c 18.586712
_cell_angle_alpha 90.000000
_cell_angle_beta 90.000000
_cell_angle_gamma 90.000000
_cell_volume 2924.985179
_symmetry_space_group_name_H-M "C M M 2"
_symmetry_group_IT_number 35
_symmetry_cell_setting 'orthorhombic'
loop_
_space_group_symop_operation_xyz
x,y,z
-x,-y,z
-x,y,z
x,-y,z
1/2+x,1/2+y,z
1/2-x,1/2-y,z
1/2-x,1/2+y,z
1/2+x,1/2-y,z
loop_
_atom_site_type_symbol
_atom_site_label
_atom_site_fract_x
_atom_site_fract_y
_atom_site_fract_z
Si Si1 0.794795 0.922092 0.519590
Si Si2 0.796853 0.171529 0.650207
Si Si3 0.703003 0.672190 0.228640
Si Si4 0.200436 0.827705 0.068219
Si Si5 0.199650 0.576357 0.938323
Si Si6 0.205199 0.077678 0.357024
Si Si7 0.700686 0.577112 0.778958
O O1 0.737561 0.869271 0.579542
O O2 0.741454 0.904271 0.438251
O O3 0.000000 0.922028 0.520201
O O4 0.744561 0.000000 0.534991
O O5 0.750000 0.250000 0.650671
O O6 0.734784 0.129866 0.719977
O O7 0.000000 0.168663 0.650197
O O8 0.500000 0.667206 0.227987
O O9 0.750000 0.750000 0.240513
O O10 0.764149 0.653063 0.148335
O O11 0.766248 0.625882 0.293556
O O12 0.250000 0.750000 0.055373
O O13 0.000000 0.831274 0.070144
O O14 0.259744 0.875427 0.004422
O O15 0.265254 0.500000 0.951055
O O16 0.267392 0.599343 0.860828
O O17 0.000000 0.573074 0.931358
O O18 0.000000 0.079866 0.356982
O O19 0.253382 0.000000 0.343821
O O20 0.500000 0.573022 0.768931
O O21 0.767386 0.500000 0.770450
#
# Coordination Sequence:
#
# PCOD9348760 Si02
#       7
#     8   8   8   8   8   8   8
#     4   8  14  27  48  71  95 126 164 202 237 277
#     4  10  20  32  48  73 101 127 159 199 242 287
#     4   9  18  31  48  71  98 129 163 199 241 289
#     4  10  20  34  52  73 100 134 170 207 248 296
#     4  10  21  36  54  77 103 129 161 203 250 300
#     4   8  14  26  46  72  98 124 160 204 242 277
#     4   9  18  34  54  72  93 126 167 205 240 284
#
# _framework density 19.145395000000001
#
# number of rings (size 3 to 8) (size 9 to 14) (size 15 to 20)
#    0.000    2.857    0.000    2.143    0.000    5.429 
#    0.000    2.857    0.000    1.714    0.000    2.000 
#    0.000    0.000    0.000    0.000    0.000    0.000 
#
# Total GULP energy -156137.563534 kJ/mol
# GULP energy per Si atom -5576.341555 kJ/mol
# Density = 1.910182 g / cm^3
# Si number density = 19.145395 Si / 1000 Ang^3
#
#
#
# Elastic Constant Matrix: (Units=GPa)
#
#
# Indices 1 2 3 4 5 6 
#
# 1 17.0666 5.0121 7.8794 0.0000 0.0000 0.0000
# 2 5.0121 123.7216 138.6313 0.0000 0.0000 0.0000
# 3 7.8794 138.6313 207.6500 0.0000 0.0000 0.0000
# 4 0.0000 0.0000 0.0000 124.6775 0.0000 0.0000
# 5 0.0000 0.0000 0.0000 0.0000 5.0325 0.0000
# 6 0.0000 0.0000 0.0000 0.0000 0.0000 22.6347
#
#
#
# Elastic Compliance Matrix: (Units=1/GPa)
#
#
# Indices 1 2 3 4 5 6 
#
# 1 0.059646 0.000475 -0.002581 0.000000 0.000000 0.000000
# 2 0.000475 0.032087 -0.021440 0.000000 0.000000 0.000000
# 3 -0.002581 -0.021440 0.019228 0.000000 0.000000 0.000000
# 4 0.000000 0.000000 0.000000 0.008021 0.000000 0.000000
# 5 0.000000 0.000000 0.000000 0.000000 0.198707 0.000000
# 6 0.000000 0.000000 0.000000 0.000000 0.000000 0.044180
#
#
# Mechanical properties :
#
#
# Convention : Reuss Voigt Hill
#
# Bulk Modulus (GPa) = 15.65685 72.38710 44.02198
# Shear Modulus (GPa) = 11.62117 43.59664 27.60891
#
# Velocity S-wave (km/s) = 2.46640 4.77711 3.80157
# Velocity P-wave (km/s) = 4.03813 8.26553 6.50482
#
# Compressibility (1/GPa) = 0.06386981
#
# Stress axis : x y z
#
# Youngs Moduli (GPa) = 16.76562 31.16486 52.00843
#
# Poissons Ratio (x) = -0.01481 0.13422
# Poissons Ratio (y) = -0.00797 1.11507
# Poissons Ratio (z) = 0.04327 0.66818
#
# Static dielectric constant tensor:
#      x y z
#    x 1.693930 0.000000 0.000000 
#    y 0.000000 1.630280 0.000000 
#    z 0.000000 0.000000 1.674710 
# 
# From -- ./inp_files/15653.got.cif
#   From: 2010.05.17/outbox.cif.g08.bks.cpg/sg35_8_cif.got.tgz:15653.got - 2010.06.03 17:29:28.
