data_PCOD9348876
_publ_section_title
;
Structure prediction by ZEFSAII (Michael W. Deem and Ramdas Pophale) SiO2 
 PCOD9348876
Probable space group: C M M 2
;
_chemical_formula_sum "Si O2"
_cell_formula_units_Z 64
_cell_length_a 9.134098
_cell_length_b 19.659105
_cell_length_c 20.628299
_cell_angle_alpha 90.000000
_cell_angle_beta 90.000000
_cell_angle_gamma 90.000000
_cell_volume 3704.186348
_symmetry_space_group_name_H-M "C M M 2"
_symmetry_group_IT_number 35
_symmetry_cell_setting 'orthorhombic'
loop_
_space_group_symop_operation_xyz
x,y,z
-x,-y,z
-x,y,z
x,-y,z
1/2+x,1/2+y,z
1/2-x,1/2-y,z
1/2-x,1/2+y,z
1/2+x,1/2-y,z
loop_
_atom_site_type_symbol
_atom_site_label
_atom_site_fract_x
_atom_site_fract_y
_atom_site_fract_z
Si Si1 0.825090 0.178310 0.612250
Si Si2 0.824628 0.822514 0.762195
Si Si3 0.674019 0.177918 0.395084
Si Si4 0.326428 0.821694 0.242060
Si Si5 0.668484 0.082632 0.010616
Si Si6 0.324115 0.919523 0.865135
Si Si7 0.176390 0.079449 0.495951
Si Si8 0.327613 0.418663 0.141347
O O1 0.750000 0.250000 0.595708
O O2 0.789334 0.160898 0.686896
O O3 0.784399 0.119506 0.561914
O O4 0.000000 0.187746 0.608545
O O5 0.750000 0.750000 0.776082
O O6 0.759703 0.877520 0.811030
O O7 0.000000 0.817763 0.768354
O O8 0.500000 0.182835 0.406297
O O9 0.750000 0.250000 0.411272
O O10 0.698652 0.164957 0.318545
O O11 0.744746 0.118963 0.437941
O O12 0.500000 0.816707 0.231681
O O13 0.250000 0.750000 0.226574
O O14 0.258176 0.879498 0.197213
O O15 0.500000 0.104013 0.021218
O O16 0.767606 0.103500 0.070861
O O17 0.668283 0.000000 0.009152
O O18 0.715822 0.103575 0.938386
O O19 0.500000 0.911125 0.858930
O O20 0.292942 0.000000 0.859425
O O21 0.000000 0.084167 0.487908
O O22 0.215283 0.000000 0.498664
O O23 0.500000 0.405294 0.146355
O O24 0.304491 0.500000 0.146773
#
# Coordination Sequence:
#
# PCOD9348876 Si02
#       8
#     8   8   8   8   8   8   8   8
#     4   9  19  35  54  75 100 135 176 213 254 307
#     4  10  20  34  53  76 104 137 173 215 259 306
#     4  10  21  37  57  79 103 135 175 214 254 306
#     4  10  21  37  56  77 104 137 172 213 259 307
#     4   8  15  30  51  73 100 136 174 211 255 307
#     4   9  18  33  53  77 105 136 171 213 260 309
#     4  10  21  36  54  78 109 140 169 209 259 305
#     4  10  20  33  52  79 108 137 172 214 256 303
#
# _framework density 17.277747000000002
#
# number of rings (size 3 to 8) (size 9 to 14) (size 15 to 20)
#    0.000    2.500    0.000    2.625    0.000    6.250 
#    0.000    5.625    0.000    3.000    0.000    0.000 
#    0.000    0.000    0.000    0.000    0.000    0.000 
#
# Total GULP energy -178521.005198 kJ/mol
# GULP energy per Si atom -5578.781412 kJ/mol
# Density = 1.723842 g / cm^3
# Si number density = 17.277747 Si / 1000 Ang^3
#
#
#
# Elastic Constant Matrix: (Units=GPa)
#
#
# Indices 1 2 3 4 5 6 
#
# 1 70.5677 66.2046 74.3852 0.0000 0.0000 0.0000
# 2 66.2046 103.3698 88.6234 0.0000 0.0000 0.0000
# 3 74.3852 88.6234 115.2649 0.0000 0.0000 0.0000
# 4 0.0000 0.0000 0.0000 40.0067 0.0000 0.0000
# 5 0.0000 0.0000 0.0000 0.0000 23.0597 0.0000
# 6 0.0000 0.0000 0.0000 0.0000 0.0000 30.8604
#
#
#
# Elastic Compliance Matrix: (Units=1/GPa)
#
#
# Indices 1 2 3 4 5 6 
#
# 1 0.049362 -0.012627 -0.022147 0.000000 0.000000 0.000000
# 2 -0.012627 0.031615 -0.016159 0.000000 0.000000 0.000000
# 3 -0.022147 -0.016159 0.035392 0.000000 0.000000 0.000000
# 4 0.000000 0.000000 0.000000 0.024996 0.000000 0.000000
# 5 0.000000 0.000000 0.000000 0.000000 0.043366 0.000000
# 6 0.000000 0.000000 0.000000 0.000000 0.000000 0.032404
#
#
# Mechanical properties :
#
#
# Convention : Reuss Voigt Hill
#
# Bulk Modulus (GPa) = 68.94977 83.06986 76.00982
# Shear Modulus (GPa) = 15.43998 22.78464 19.11231
#
# Velocity S-wave (km/s) = 2.99261 3.63537 3.32954
# Velocity P-wave (km/s) = 7.20655 8.11201 7.67265
#
# Compressibility (1/GPa) = 0.01450331
#
# Stress axis : x y z
#
# Youngs Moduli (GPa) = 20.25839 31.63050 28.25519
#
# Poissons Ratio (x) = 0.39941 0.62576
# Poissons Ratio (y) = 0.25581 0.45657
# Poissons Ratio (z) = 0.44866 0.51111
#
# Static dielectric constant tensor:
#      x y z
#    x 1.573870 0.000000 0.000000 
#    y 0.000000 1.555990 0.000000 
#    z 0.000000 0.000000 1.587340 
# 
# From -- ./inp_files/18359.got.cif
#   From: 2010.05.17/outbox.cif.g08.bks.cpg/sg35_10_cif.got.tgz:18359.got - 2010.06.03 17:29:28.
