data_PCOD9348017
_publ_section_title
;
Structure prediction by ZEFSAII (Michael W. Deem and Ramdas Pophale) SiO2 
 PCOD9348017
Probable space group: P N N 2
;
_chemical_formula_sum "Si O2"
_cell_formula_units_Z 24
_cell_length_a 8.961413
_cell_length_b 23.120670
_cell_length_c 4.923261
_cell_angle_alpha 90.000000
_cell_angle_beta 90.000000
_cell_angle_gamma 90.000000
_cell_volume 1020.069513
_symmetry_space_group_name_H-M "P N N 2"
_symmetry_group_IT_number 34
_symmetry_cell_setting 'orthorhombic'
loop_
_space_group_symop_operation_xyz
x,y,z
-x,-y,z
1/2-x,1/2+y,1/2+z
1/2+x,1/2-y,1/2+z
loop_
_atom_site_type_symbol
_atom_site_label
_atom_site_fract_x
_atom_site_fract_y
_atom_site_fract_z
Si Si1 0.714606 0.741076 0.135450
Si Si2 0.204378 0.598685 0.911212
Si Si3 0.833850 0.481341 0.390497
Si Si4 0.408744 0.440978 0.571286
Si Si5 0.561638 0.795357 0.644043
Si Si6 0.019881 0.870281 0.564967
O O1 0.651719 0.756082 0.430866
O O2 0.623323 0.685034 0.036526
O O3 0.890677 0.727049 0.149233
O O4 0.653396 0.790194 0.927023
O O5 0.232955 0.546474 0.120437
O O6 0.073054 0.639496 0.024479
O O7 0.353960 0.637272 0.943719
O O8 0.178514 0.567730 0.624818
O O9 0.753575 0.539803 0.482014
O O10 0.000000 0.500000 0.331957
O O11 0.500000 0.500000 0.540647
O O12 0.475640 0.392135 0.374415
O O13 0.413447 0.420556 0.878142
#
# Coordination Sequence:
#
# PCOD9348017 Si02
#       6
#     4   4   4   4   4   4
#     4  12  27  48  74 105 136 183 227 294 343 420
#     4  12  24  45  68  99 134 180 222 282 335 402
#     4  12  27  41  66  97 141 177 225 274 336 394
#     4  12  23  43  66  99 135 179 223 270 329 409
#     4  12  27  48  74 102 142 176 235 284 355 407
#     4  12  24  42  72  98 134 176 228 274 342 399
#
# _framework density 23.527811
#
# number of rings (size 3 to 8) (size 9 to 14) (size 15 to 20)
#    0.000    0.000    3.333    7.000    4.667    0.000 
#    0.000    0.000    0.000    0.000    0.000    0.000 
#    0.000    0.000    0.000    0.000    0.000    0.000 
#
# Total GULP energy -134392.553231 kJ/mol
# GULP energy per Si atom -5599.689718 kJ/mol
# Density = 2.347426 g / cm^3
# Si number density = 23.527811 Si / 1000 Ang^3
#
#
#
# Elastic Constant Matrix: (Units=GPa)
#
#
# Indices 1 2 3 4 5 6 
#
# 1 94.3837 3.8556 -16.3657 0.0000 0.0000 0.0000
# 2 3.8556 56.2295 -0.9903 0.0000 0.0000 0.0000
# 3 -16.3657 -0.9903 78.3532 0.0000 0.0000 0.0000
# 4 0.0000 0.0000 0.0000 32.1525 0.0000 0.0000
# 5 0.0000 0.0000 0.0000 0.0000 23.2663 0.0000
# 6 0.0000 0.0000 0.0000 0.0000 0.0000 37.0054
#
#
#
# Elastic Compliance Matrix: (Units=1/GPa)
#
#
# Indices 1 2 3 4 5 6 
#
# 1 0.011022 -0.000715 0.002293 0.000000 0.000000 0.000000
# 2 -0.000715 0.017835 0.000076 0.000000 0.000000 0.000000
# 3 0.002293 0.000076 0.013243 0.000000 0.000000 0.000000
# 4 0.000000 0.000000 0.000000 0.031102 0.000000 0.000000
# 5 0.000000 0.000000 0.000000 0.000000 0.042981 0.000000
# 6 0.000000 0.000000 0.000000 0.000000 0.000000 0.027023
#
#
# Mechanical properties :
#
#
# Convention : Reuss Voigt Hill
#
# Bulk Modulus (GPa) = 22.02321 22.44062 22.23192
# Shear Modulus (GPa) = 32.25128 34.64932 33.45030
#
# Velocity S-wave (km/s) = 3.70641 3.84174 3.77468
# Velocity P-wave (km/s) = 5.26284 5.40714 5.33548
#
# Compressibility (1/GPa) = 0.04540664
#
# Stress axis : x y z
#
# Youngs Moduli (GPa) = 90.72861 56.07064 75.51361
#
# Poissons Ratio (x) = 0.04011 -0.17316
# Poissons Ratio (y) = 0.06490 -0.00574
# Poissons Ratio (z) = -0.20805 -0.00426
#
# Static dielectric constant tensor:
#      x y z
#    x 1.980680 0.000000 0.000000 
#    y 0.000000 1.918800 0.000000 
#    z 0.000000 0.000000 1.843020 
# 
# From -- ./inp_files/472.got.cif
#   From: 2010.05.17/outbox.cif.g08.bks.cpg/sg34_1_cif.got.tgz:472.got - 2010.06.03 17:23:11.
