data_PCOD9348338
_publ_section_title
;
Structure prediction by ZEFSAII (Michael W. Deem and Ramdas Pophale) SiO2 
 PCOD9348338
Probable space group: C M M 2
;
_chemical_formula_sum "Si O2"
_cell_formula_units_Z 48
_cell_length_a 8.782148
_cell_length_b 32.497469
_cell_length_c 9.544152
_cell_angle_alpha 90.000000
_cell_angle_beta 90.000000
_cell_angle_gamma 90.000000
_cell_volume 2723.877907
_symmetry_space_group_name_H-M "C M M 2"
_symmetry_group_IT_number 35
_symmetry_cell_setting 'orthorhombic'
loop_
_space_group_symop_operation_xyz
x,y,z
-x,-y,z
-x,y,z
x,-y,z
1/2+x,1/2+y,z
1/2-x,1/2-y,z
1/2-x,1/2+y,z
1/2+x,1/2-y,z
loop_
_atom_site_type_symbol
_atom_site_label
_atom_site_fract_x
_atom_site_fract_y
_atom_site_fract_z
Si Si1 0.316206 0.293099 0.738800
Si Si2 0.820354 0.455447 0.918559
Si Si3 0.682258 0.368484 0.253173
Si Si4 0.317761 0.206607 0.426800
Si Si5 0.817645 0.129610 0.925923
Si Si6 0.680188 0.045441 0.257525
O O1 0.500000 0.291009 0.731928
O O2 0.250000 0.250000 0.793963
O O3 0.249153 0.298387 0.583280
O O4 0.269556 0.331346 0.835109
O O5 0.761393 0.500000 0.868212
O O6 0.743342 0.413736 0.868402
O O7 0.000000 0.453660 0.888983
O O8 0.803406 0.455493 0.088007
O O9 0.500000 0.364447 0.263600
O O10 0.762654 0.331948 0.336222
O O11 0.732484 0.413833 0.305631
O O12 0.727734 0.365779 0.088860
O O13 0.500000 0.209068 0.431542
O O14 0.250000 0.250000 0.372399
O O15 0.000000 0.127918 0.923885
O O16 0.500000 0.049608 0.287193
O O17 0.730518 0.000000 0.308381
#
# Coordination Sequence:
#
# PCOD9348338 Si02
#       6
#     8   8   8   8   8   8
#     4  10  20  36  54  73  97 127 164 203 244 294
#     4   8  14  25  43  68  98 131 165 199 237 284
#     4  10  19  32  50  76 106 133 164 203 246 291
#     4  11  22  37  55  74  96 128 167 204 247 297
#     4   9  19  32  49  75 104 131 162 201 244 289
#     4   8  14  26  44  68  99 133 167 202 241 287
#
# _framework density 17.621935000000001
#
# number of rings (size 3 to 8) (size 9 to 14) (size 15 to 20)
#    0.000    2.667    0.000    4.500    0.000    3.333 
#    0.000    5.000    0.000    1.000    0.000    4.667 
#    0.000    0.000    0.000    0.000    0.000    0.000 
#
# Total GULP energy -133739.386682 kJ/mol
# GULP energy per Si atom -5572.474445 kJ/mol
# Density = 1.758183 g / cm^3
# Si number density = 17.621935 Si / 1000 Ang^3
#
#
#
# Elastic Constant Matrix: (Units=GPa)
#
#
# Indices 1 2 3 4 5 6 
#
# 1 61.7161 62.3705 22.1391 0.0000 0.0000 0.0000
# 2 62.3705 212.3896 58.6179 0.0000 0.0000 0.0000
# 3 22.1391 58.6179 27.9049 0.0000 0.0000 0.0000
# 4 0.0000 0.0000 0.0000 -21.9254 0.0000 0.0000
# 5 0.0000 0.0000 0.0000 0.0000 17.1065 0.0000
# 6 0.0000 0.0000 0.0000 0.0000 0.0000 37.1061
#
#
#
# Elastic Compliance Matrix: (Units=1/GPa)
#
#
# Indices 1 2 3 4 5 6 
#
# 1 0.024195 -0.004300 -0.010162 0.000000 0.000000 0.000000
# 2 -0.004300 0.011968 -0.021729 0.000000 0.000000 0.000000
# 3 -0.010162 -0.021729 0.089543 0.000000 0.000000 0.000000
# 4 0.000000 0.000000 0.000000 -0.045609 0.000000 0.000000
# 5 0.000000 0.000000 0.000000 0.000000 0.058457 0.000000
# 6 0.000000 0.000000 0.000000 0.000000 0.000000 0.026950
#
#
# Mechanical properties :
#
#
# Convention : Reuss Voigt Hill
#
# Bulk Modulus (GPa) = 18.75355 65.36285 42.05820
# Shear Modulus (GPa) = 19.55716 17.04963 18.30340
#
# Velocity S-wave (km/s) = 3.33501 3.11388 3.22634
# Velocity P-wave (km/s) = 5.04926 7.07818 6.14799
#
# Compressibility (1/GPa) = 0.05332323
#
# Stress axis : x y z
#
# Youngs Moduli (GPa) = 41.33166 83.55443 11.16781
#
# Poissons Ratio (x) = 0.35932 0.11349
# Poissons Ratio (y) = 0.17774 0.24267
# Poissons Ratio (z) = 0.42001 1.81556
#
# Static dielectric constant tensor:
#      x y z
#    x 1.589690 0.000000 0.000000 
#    y 0.000000 1.627890 0.000000 
#    z 0.000000 0.000000 1.588300 
# 
# From -- ./inp_files/11483.got.cif
#   From: 2010.05.17/outbox.cif.g08.bks.cpg/sg35_6_cif.got.tgz:11483.got - 2010.06.03 17:29:28.
