data_PCOD9348096
_publ_section_title
;
Structure prediction by ZEFSAII (Michael W. Deem and Ramdas Pophale) SiO2 
 PCOD9348096
Probable space group: C M M 2
;
_chemical_formula_sum "Si O2"
_cell_formula_units_Z 64
_cell_length_a 16.030677
_cell_length_b 15.413393
_cell_length_c 12.142490
_cell_angle_alpha 90.000000
_cell_angle_beta 90.000000
_cell_angle_gamma 90.000000
_cell_volume 3000.252940
_symmetry_space_group_name_H-M "C M M 2"
_symmetry_group_IT_number 35
_symmetry_cell_setting 'orthorhombic'
loop_
_space_group_symop_operation_xyz
x,y,z
-x,-y,z
-x,y,z
x,-y,z
1/2+x,1/2+y,z
1/2-x,1/2-y,z
1/2-x,1/2+y,z
1/2+x,1/2-y,z
loop_
_atom_site_type_symbol
_atom_site_label
_atom_site_fract_x
_atom_site_fract_y
_atom_site_fract_z
Si Si1 0.725725 0.103842 0.944100
Si Si2 0.902417 0.600728 0.142788
Si Si3 0.848485 0.904684 0.436857
Si Si4 0.594903 0.399622 0.920314
Si Si5 0.174344 0.683842 0.712735
Si Si6 0.342783 0.906909 0.491262
Si Si7 0.592799 0.351764 0.674937
Si Si8 0.350583 0.764773 0.329581
O O1 0.819795 0.137509 0.972978
O O2 0.691364 0.148233 0.833650
O O3 0.732767 0.000000 0.924842
O O4 0.659939 0.115264 0.041473
O O5 0.888612 0.500000 0.182492
O O6 0.882168 0.675307 0.231050
O O7 0.000000 0.606282 0.111574
O O8 0.747847 0.910524 0.432806
O O9 0.861350 0.875991 0.563308
O O10 0.881852 0.832442 0.353251
O O11 0.883571 0.000000 0.418068
O O12 0.500000 0.362483 0.933610
O O13 0.588765 0.500000 0.954100
O O14 0.618112 0.395484 0.790062
O O15 0.250000 0.750000 0.684825
O O16 0.168057 0.610474 0.620673
O O17 0.097726 0.749604 0.701422
O O18 0.378508 0.820514 0.436771
O O19 0.384720 0.000000 0.472655
O O20 0.500000 0.381607 0.654586
O O21 0.250000 0.750000 0.321804
#
# Coordination Sequence:
#
# PCOD9348096 Si02
#       8
#     8   8   8   8   8   8   8   8
#     4  10  21  37  61  88 119 165 215 264 320 378
#     4  10  23  44  68  91 120 166 223 277 327 383
#     4  10  19  33  56  89 127 164 203 249 309 381
#     4   9  17  31  53  86 126 164 202 246 302 375
#     4  12  19  33  54  83 124 162 207 251 302 369
#     4  10  18  32  58  89 121 161 207 256 308 371
#     4  11  21  32  49  82 128 169 201 238 298 378
#     4  10  20  38  62  92 124 159 211 268 323 382
#
# _framework density 21.331534999999999
#
# number of rings (size 3 to 8) (size 9 to 14) (size 15 to 20)
#    0.000    1.750    3.750    1.500    0.000    4.750 
#    0.000    0.000    0.000    1.125    0.000    0.000 
#    0.000    4.000    0.000    0.250    0.000    0.000 
#
# Total GULP energy -178316.099116 kJ/mol
# GULP energy per Si atom -5572.378097 kJ/mol
# Density = 2.128298 g / cm^3
# Si number density = 21.331535 Si / 1000 Ang^3
#
#
#
# Elastic Constant Matrix: (Units=GPa)
#
#
# Indices 1 2 3 4 5 6 
#
# 1 76.4939 38.8808 44.4134 0.0000 0.0000 0.0000
# 2 38.8808 132.6091 52.1048 0.0000 0.0000 0.0000
# 3 44.4134 52.1048 67.5304 0.0000 0.0000 0.0000
# 4 0.0000 0.0000 0.0000 32.2680 0.0000 0.0000
# 5 0.0000 0.0000 0.0000 0.0000 2.8736 0.0000
# 6 0.0000 0.0000 0.0000 0.0000 0.0000 11.2860
#
#
#
# Elastic Compliance Matrix: (Units=1/GPa)
#
#
# Indices 1 2 3 4 5 6 
#
# 1 0.021252 -0.001061 -0.013159 0.000000 0.000000 0.000000
# 2 -0.001061 0.010875 -0.007693 0.000000 0.000000 0.000000
# 3 -0.013159 -0.007693 0.029398 0.000000 0.000000 0.000000
# 4 0.000000 0.000000 0.000000 0.030990 0.000000 0.000000
# 5 0.000000 0.000000 0.000000 0.000000 0.347998 0.000000
# 6 0.000000 0.000000 0.000000 0.000000 0.000000 0.088605
#
#
# Mechanical properties :
#
#
# Convention : Reuss Voigt Hill
#
# Bulk Modulus (GPa) = 56.49697 60.82571 58.66134
# Shear Modulus (GPa) = 8.63791 18.70114 13.66953
#
# Velocity S-wave (km/s) = 2.01449 2.96411 2.53417
# Velocity P-wave (km/s) = 5.65275 6.34751 6.01018
#
# Compressibility (1/GPa) = 0.01770006
#
# Stress axis : x y z
#
# Youngs Moduli (GPa) = 47.05391 91.95633 34.01586
#
# Poissons Ratio (x) = 0.09755 0.44760
# Poissons Ratio (y) = 0.04992 0.26168
# Poissons Ratio (z) = 0.61917 0.70742
#
# Static dielectric constant tensor:
#      x y z
#    x 1.876000 0.000000 0.000000 
#    y 0.000000 1.828000 0.000000 
#    z 0.000000 0.000000 1.759400 
# 
# From -- ./inp_files/13615.got.cif
#   From: 2010.05.17/outbox.cif.g08.bks.cpg/sg35_7_cif.got.tgz:13615.got - 2010.06.03 17:29:28.
