data_PCOD9348212
_publ_section_title
;
Structure prediction by ZEFSAII (Michael W. Deem and Ramdas Pophale) SiO2 
 PCOD9348212
Probable space group: C M M 2
;
_chemical_formula_sum "Si O2"
_cell_formula_units_Z 48
_cell_length_a 16.699756
_cell_length_b 35.551941
_cell_length_c 5.140866
_cell_angle_alpha 90.000000
_cell_angle_beta 90.000000
_cell_angle_gamma 90.000000
_cell_volume 3052.177076
_symmetry_space_group_name_H-M "C M M 2"
_symmetry_group_IT_number 35
_symmetry_cell_setting 'orthorhombic'
loop_
_space_group_symop_operation_xyz
x,y,z
-x,-y,z
-x,y,z
x,-y,z
1/2+x,1/2+y,z
1/2-x,1/2-y,z
1/2-x,1/2+y,z
1/2+x,1/2-y,z
loop_
_atom_site_type_symbol
_atom_site_label
_atom_site_fract_x
_atom_site_fract_y
_atom_site_fract_z
Si Si1 0.902491 0.042766 0.346370
Si Si2 0.300113 0.789080 0.031173
Si Si3 0.407663 0.339758 0.159805
Si Si4 0.403187 0.587308 0.841169
Si Si5 0.910077 0.235153 0.804141
Si Si6 0.715979 0.310781 0.534640
O O1 0.874217 0.072086 0.565017
O O2 0.000000 0.042748 0.352697
O O3 0.876863 0.000000 0.397312
O O4 0.879714 0.057328 0.062371
O O5 0.250000 0.750000 0.027095
O O6 0.386441 0.773816 0.945847
O O7 0.261464 0.815295 0.807634
O O8 0.282784 0.805117 0.313821
O O9 0.500000 0.346662 0.243193
O O10 0.382960 0.371950 0.956596
O O11 0.405616 0.299764 0.008754
O O12 0.348107 0.338804 0.403660
O O13 0.500000 0.587729 0.825317
O O14 0.843031 0.225201 0.588427
O O15 0.000000 0.235511 0.697363
#
# Coordination Sequence:
#
# PCOD9348212 Si02
#       6
#     8   8   8   8   8   8
#     4   9  16  27  40  52  69  96 125 153 190 235
#     4  10  19  31  46  57  77 102 134 161 200 256
#     4  10  20  30  42  61  82 102 128 167 215 255
#     4   9  18  27  38  55  75  94 121 159 198 239
#     4  10  21  32  46  63  81 104 135 172 214 258
#     4  11  19  33  44  59  78 106 130 162 207 261
#
# _framework density 15.726478
#
# number of rings (size 3 to 8) (size 9 to 14) (size 15 to 20)
#    0.000    2.167    3.333    2.500    2.333    2.000 
#    0.000    0.000    0.000    0.000    0.000    0.000 
#    0.000    0.000    0.000    0.000    0.000    0.000 
#
# Total GULP energy -133692.503953 kJ/mol
# GULP energy per Si atom -5570.520998 kJ/mol
# Density = 1.569068 g / cm^3
# Si number density = 15.726478 Si / 1000 Ang^3
#
#
#
# Elastic Constant Matrix: (Units=GPa)
#
#
# Indices 1 2 3 4 5 6 
#
# 1 29.5061 14.5526 5.9032 0.0000 0.0000 0.0000
# 2 14.5526 42.2120 6.9714 0.0000 0.0000 0.0000
# 3 5.9032 6.9714 71.4652 0.0000 0.0000 0.0000
# 4 0.0000 0.0000 0.0000 20.2937 0.0000 0.0000
# 5 0.0000 0.0000 0.0000 0.0000 12.9532 0.0000
# 6 0.0000 0.0000 0.0000 0.0000 0.0000 5.8989
#
#
#
# Elastic Compliance Matrix: (Units=1/GPa)
#
#
# Indices 1 2 3 4 5 6 
#
# 1 0.041127 -0.013840 -0.002047 0.000000 0.000000 0.000000
# 2 -0.013840 0.028736 -0.001660 0.000000 0.000000 0.000000
# 3 -0.002047 -0.001660 0.014324 0.000000 0.000000 0.000000
# 4 0.000000 0.000000 0.000000 0.049276 0.000000 0.000000
# 5 0.000000 0.000000 0.000000 0.000000 0.077201 0.000000
# 6 0.000000 0.000000 0.000000 0.000000 0.000000 0.169522
#
#
# Mechanical properties :
#
#
# Convention : Reuss Voigt Hill
#
# Bulk Modulus (GPa) = 20.37009 22.00420 21.18714
# Shear Modulus (GPa) = 11.58359 15.54623 13.56491
#
# Velocity S-wave (km/s) = 2.71692 3.14751 2.94011
# Velocity P-wave (km/s) = 4.77735 5.21836 5.00272
#
# Compressibility (1/GPa) = 0.04909159
#
# Stress axis : x y z
#
# Youngs Moduli (GPa) = 24.31491 34.80004 69.81368
#
# Poissons Ratio (x) = 0.48165 0.14291
# Poissons Ratio (y) = 0.33653 0.11588
# Poissons Ratio (z) = 0.04977 0.05776
#
# Static dielectric constant tensor:
#      x y z
#    x 1.551560 0.000000 0.000000 
#    y 0.000000 1.568020 0.000000 
#    z 0.000000 0.000000 1.604510 
# 
# From -- ./inp_files/2678.got.cif
#   From: 2010.05.17/outbox.cif.g08.bks.cpg/sg35_2_cif.got.tgz:2678.got - 2010.06.03 17:29:28.
