data_PCOD9348411
_publ_section_title
;
Structure prediction by ZEFSAII (Michael W. Deem and Ramdas Pophale) SiO2 
 PCOD9348411
Probable space group: C M M 2
;
_chemical_formula_sum "Si O2"
_cell_formula_units_Z 64
_cell_length_a 7.851698
_cell_length_b 34.822277
_cell_length_c 11.562867
_cell_angle_alpha 90.000000
_cell_angle_beta 90.000000
_cell_angle_gamma 90.000000
_cell_volume 3161.449749
_symmetry_space_group_name_H-M "C M M 2"
_symmetry_group_IT_number 35
_symmetry_cell_setting 'orthorhombic'
loop_
_space_group_symop_operation_xyz
x,y,z
-x,-y,z
-x,y,z
x,-y,z
1/2+x,1/2+y,z
1/2-x,1/2-y,z
1/2-x,1/2+y,z
1/2+x,1/2-y,z
loop_
_atom_site_type_symbol
_atom_site_label
_atom_site_fract_x
_atom_site_fract_y
_atom_site_fract_z
Si Si1 0.297790 0.957372 0.837740
Si Si2 0.710147 0.626397 0.480216
Si Si3 0.302438 0.385129 0.971255
Si Si4 0.296577 0.209022 0.114960
Si Si5 0.195837 0.206026 0.600722
Si Si6 0.195393 0.868059 0.219445
Si Si7 0.803494 0.690280 0.858920
Si Si8 0.798829 0.957208 0.570807
O O1 0.500000 0.950027 0.832754
O O2 0.226660 0.956032 0.708373
O O3 0.270620 0.000000 0.883993
O O4 0.209833 0.926270 0.916075
O O5 0.500000 0.626727 0.486192
O O6 0.769403 0.666222 0.543572
O O7 0.767476 0.626655 0.346533
O O8 0.766419 0.584534 0.528198
O O9 0.500000 0.372599 0.978408
O O10 0.228059 0.385366 0.101207
O O11 0.210689 0.354983 0.886981
O O12 0.500000 0.202347 0.114767
O O13 0.250000 0.250000 0.163202
O O14 0.205678 0.176730 0.188798
O O15 0.236957 0.207207 0.980613
O O16 0.250000 0.250000 0.571095
O O17 0.214945 0.201252 0.739766
O O18 0.000000 0.204866 0.568077
O O19 0.000000 0.881668 0.225706
O O20 0.000000 0.701770 0.845713
O O21 0.000000 0.957753 0.543321
O O22 0.730540 0.000000 0.533318
#
# Coordination Sequence:
#
# PCOD9348411 Si02
#       8
#     8   8   8   8   8   8   8   8
#     4  10  20  33  51  77 109 140 169 207 257 313
#     4   9  19  36  55  76 104 139 176 218 266 311
#     4  10  19  32  53  78 104 136 172 212 260 312
#     4  10  20  33  51  75 101 131 169 214 262 309
#     4  11  22  35  52  75 107 143 180 221 265 316
#     4   9  19  36  54  72  99 135 174 213 254 305
#     4  10  20  34  53  77 105 135 170 213 263 320
#     4   9  17  32  57  85 109 135 172 217 265 319
#
# _framework density 20.243874999999999
#
# number of rings (size 3 to 8) (size 9 to 14) (size 15 to 20)
#    0.000    2.250    0.000    3.000    0.000    5.250 
#    0.000    4.375    0.000    2.250    0.000    1.750 
#    0.000    0.000    0.000    0.000    0.000    0.000 
#
# Total GULP energy -178270.367034 kJ/mol
# GULP energy per Si atom -5570.948970 kJ/mol
# Density = 2.019780 g / cm^3
# Si number density = 20.243875 Si / 1000 Ang^3
#
#
#
# Elastic Constant Matrix: (Units=GPa)
#
#
# Indices 1 2 3 4 5 6 
#
# 1 21.4429 14.1625 -1.9313 0.0000 0.0000 0.0000
# 2 14.1625 154.8405 64.6179 0.0000 0.0000 0.0000
# 3 -1.9313 64.6179 66.7895 0.0000 0.0000 0.0000
# 4 0.0000 0.0000 0.0000 -73.4046 0.0000 0.0000
# 5 0.0000 0.0000 0.0000 0.0000 29.8812 0.0000
# 6 0.0000 0.0000 0.0000 0.0000 0.0000 20.0122
#
#
#
# Elastic Compliance Matrix: (Units=1/GPa)
#
#
# Indices 1 2 3 4 5 6 
#
# 1 0.053753 -0.009334 0.010585 0.000000 0.000000 0.000000
# 2 -0.009334 0.012452 -0.012317 0.000000 0.000000 0.000000
# 3 0.010585 -0.012317 0.027195 0.000000 0.000000 0.000000
# 4 0.000000 0.000000 0.000000 -0.013623 0.000000 0.000000
# 5 0.000000 0.000000 0.000000 0.000000 0.033466 0.000000
# 6 0.000000 0.000000 0.000000 0.000000 0.000000 0.049970
#
#
# Mechanical properties :
#
#
# Convention : Reuss Voigt Hill
#
# Bulk Modulus (GPa) = 14.03150 44.08567 29.05859
# Shear Modulus (GPa) = 23.91179 6.37935 15.14557
#
# Velocity S-wave (km/s) = 3.44057 1.77710 2.73821
# Velocity P-wave (km/s) = 4.76756 5.10248 4.93786
#
# Compressibility (1/GPa) = 0.07126822
#
# Stress axis : x y z
#
# Youngs Moduli (GPa) = 18.60344 80.30727 36.77120
#
# Poissons Ratio (x) = 0.74957 -0.38921
# Poissons Ratio (y) = 0.17364 0.45292
# Poissons Ratio (z) = -0.19691 0.98916
#
# Static dielectric constant tensor:
#      x y z
#    x 1.769430 0.000000 0.000000 
#    y 0.000000 1.761090 0.000000 
#    z 0.000000 0.000000 1.699770 
# 
# From -- ./inp_files/11839.got.cif
#   From: 2010.05.17/outbox.cif.g08.bks.cpg/sg35_6_cif.got.tgz:11839.got - 2010.06.03 17:29:28.
