data_PCOD9348955
_publ_section_title
;
Structure prediction by ZEFSAII (Michael W. Deem and Ramdas Pophale) SiO2 
 PCOD9348955
Probable space group: C M M 2
;
_chemical_formula_sum "Si O2"
_cell_formula_units_Z 64
_cell_length_a 16.930092
_cell_length_b 15.798396
_cell_length_c 12.576532
_cell_angle_alpha 90.000000
_cell_angle_beta 90.000000
_cell_angle_gamma 90.000000
_cell_volume 3363.823605
_symmetry_space_group_name_H-M "C M M 2"
_symmetry_group_IT_number 35
_symmetry_cell_setting 'orthorhombic'
loop_
_space_group_symop_operation_xyz
x,y,z
-x,-y,z
-x,y,z
x,-y,z
1/2+x,1/2+y,z
1/2-x,1/2-y,z
1/2-x,1/2+y,z
1/2+x,1/2-y,z
loop_
_atom_site_type_symbol
_atom_site_label
_atom_site_fract_x
_atom_site_fract_y
_atom_site_fract_z
Si Si1 0.403753 0.403290 0.747080
Si Si2 0.352513 0.094833 0.212090
Si Si3 0.596557 0.750144 0.597874
Si Si4 0.906714 0.746961 0.354237
Si Si5 0.804824 0.833072 0.182511
Si Si6 0.403213 0.902277 0.748687
Si Si7 0.589909 0.897156 0.981225
Si Si8 0.592105 0.397860 0.989681
O O1 0.500000 0.404965 0.745234
O O2 0.377223 0.500000 0.726046
O O3 0.377610 0.332934 0.663081
O O4 0.383009 0.378970 0.868329
O O5 0.388330 0.156855 0.299303
O O6 0.258084 0.096528 0.216405
O O7 0.384095 0.000000 0.222805
O O8 0.371496 0.126692 0.092305
O O9 0.500000 0.750119 0.598092
O O10 0.622146 0.750028 0.475553
O O11 0.621109 0.834992 0.660330
O O12 0.863788 0.813706 0.278583
O O13 0.000000 0.761288 0.353549
O O14 0.750000 0.750000 0.168976
O O15 0.852553 0.855959 0.077142
O O16 0.500000 0.902646 0.753311
O O17 0.375613 0.873169 0.866509
O O18 0.379405 0.000000 0.729458
O O19 0.500000 0.866245 0.985496
O O20 0.589036 0.000000 0.978253
O O21 0.500000 0.372753 0.003417
O O22 0.595723 0.500000 0.000747
#
# Coordination Sequence:
#
# PCOD9348955 Si02
#       8
#     8   8   8   8   8   8   8   8
#     4   8  15  29  50  77 104 126 156 207 268 318
#     4  10  20  34  53  74 101 139 174 209 256 307
#     4   9  17  29  47  72 101 133 168 210 259 304
#     4  10  21  35  51  74 103 134 175 221 256 298
#     4  10  21  35  50  71 104 142 173 206 254 309
#     4   8  14  25  43  71 106 137 164 201 252 308
#     4   8  14  26  46  74 105 133 163 200 246 305
#     4   9  17  32  57  84 105 127 163 214 264 310
#
# _framework density 19.025967999999999
#
# number of rings (size 3 to 8) (size 9 to 14) (size 15 to 20)
#    0.000    3.000    0.000    2.625    0.000    3.250 
#    0.000    6.250    0.000    9.750    0.000    0.000 
#    0.000    0.000    0.000    0.000    0.000    0.000 
#
# Total GULP energy -178368.169326 kJ/mol
# GULP energy per Si atom -5574.005291 kJ/mol
# Density = 1.898266 g / cm^3
# Si number density = 19.025968 Si / 1000 Ang^3
#
#
#
# Elastic Constant Matrix: (Units=GPa)
#
#
# Indices 1 2 3 4 5 6 
#
# 1 36.6647 14.9969 39.6962 0.0000 0.0000 0.0000
# 2 14.9969 64.7012 69.1066 0.0000 0.0000 0.0000
# 3 39.6962 69.1066 185.6911 0.0000 0.0000 0.0000
# 4 0.0000 0.0000 0.0000 3.7121 0.0000 0.0000
# 5 0.0000 0.0000 0.0000 0.0000 -14.4786 0.0000
# 6 0.0000 0.0000 0.0000 0.0000 0.0000 6.2032
#
#
#
# Elastic Compliance Matrix: (Units=1/GPa)
#
#
# Indices 1 2 3 4 5 6 
#
# 1 0.035490 -0.000204 -0.007511 0.000000 0.000000 0.000000
# 2 -0.000204 0.025654 -0.009504 0.000000 0.000000 0.000000
# 3 -0.007511 -0.009504 0.010528 0.000000 0.000000 0.000000
# 4 0.000000 0.000000 0.000000 0.269390 0.000000 0.000000
# 5 0.000000 0.000000 0.000000 0.000000 -0.069067 0.000000
# 6 0.000000 0.000000 0.000000 0.000000 0.000000 0.161207
#
#
# Mechanical properties :
#
#
# Convention : Reuss Voigt Hill
#
# Bulk Modulus (GPa) = 26.85686 59.40627 43.13157
# Shear Modulus (GPa) = 10.41562 9.97115 10.19338
#
# Velocity S-wave (km/s) = 2.34229 2.29176 2.31716
# Velocity P-wave (km/s) = 4.63267 6.18825 5.46608
#
# Compressibility (1/GPa) = 0.03723443
#
# Stress axis : x y z
#
# Youngs Moduli (GPa) = 28.17734 38.98071 94.98590
#
# Poissons Ratio (x) = 0.00793 0.71344
# Poissons Ratio (y) = 0.00574 0.90272
# Poissons Ratio (z) = 0.21164 0.37046
#
# Static dielectric constant tensor:
#      x y z
#    x 1.666900 0.000000 0.000000 
#    y 0.000000 1.688200 0.000000 
#    z 0.000000 0.000000 1.646960 
# 
# From -- ./inp_files/13705.got.cif
#   From: 2010.05.17/outbox.cif.g08.bks.cpg/sg35_7_cif.got.tgz:13705.got - 2010.06.03 17:29:28.
