data_PCOD9348866
_publ_section_title
;
Structure prediction by ZEFSAII (Michael W. Deem and Ramdas Pophale) SiO2 
 PCOD9348866
Probable space group: C M M 2
;
_chemical_formula_sum "Si O2"
_cell_formula_units_Z 48
_cell_length_a 8.652832
_cell_length_b 15.880154
_cell_length_c 17.918876
_cell_angle_alpha 90.000000
_cell_angle_beta 90.000000
_cell_angle_gamma 90.000000
_cell_volume 2462.202373
_symmetry_space_group_name_H-M "C M M 2"
_symmetry_group_IT_number 35
_symmetry_cell_setting 'orthorhombic'
loop_
_space_group_symop_operation_xyz
x,y,z
-x,-y,z
-x,y,z
x,-y,z
1/2+x,1/2+y,z
1/2-x,1/2-y,z
1/2-x,1/2+y,z
1/2+x,1/2-y,z
loop_
_atom_site_type_symbol
_atom_site_label
_atom_site_fract_x
_atom_site_fract_y
_atom_site_fract_z
Si Si1 0.311532 0.402003 0.896500
Si Si2 0.314275 0.660952 0.056635
Si Si3 0.326645 0.599915 0.736976
Si Si4 0.811709 0.500000 0.317193
Si Si5 0.813990 0.500000 0.144072
Si Si6 0.183647 0.656543 0.585324
Si Si7 0.687083 0.155122 0.419150
O O1 0.500000 0.400912 0.892840
O O2 0.265275 0.500000 0.906703
O O3 0.257009 0.368521 0.815638
O O4 0.264211 0.352599 0.970249
O O5 0.500000 0.660299 0.059095
O O6 0.250000 0.750000 0.083934
O O7 0.250673 0.582710 0.103476
O O8 0.500000 0.635284 0.727535
O O9 0.339088 0.500000 0.749469
O O10 0.239140 0.611832 0.660008
O O11 0.766582 0.500000 0.230888
O O12 0.761110 0.415209 0.360138
O O13 0.000000 0.500000 0.320002
O O14 0.000000 0.500000 0.139960
O O15 0.250000 0.750000 0.590121
O O16 0.232072 0.624987 0.503072
O O17 0.000000 0.657860 0.585704
O O18 0.500000 0.159964 0.416585
O O19 0.750000 0.250000 0.407480
#
# Coordination Sequence:
#
# PCOD9348866 Si02
#       7
#     8   8   8   4   4   8   8
#     4   8  15  32  56  78 107 150 191 233 284 334
#     4  11  22  39  63  89 119 156 196 238 289 347
#     4   9  18  32  52  78 110 146 185 229 278 326
#     4   9  20  39  63  86 111 148 184 225 287 347
#     4  11  23  41  63  90 121 150 188 239 293 353
#     4  10  20  33  52  75 107 145 186 230 277 328
#     4   9  19  37  59  82 112 149 187 231 280 334
#
# _framework density 19.494743
#
# number of rings (size 3 to 8) (size 9 to 14) (size 15 to 20)
#    0.000    2.500    0.833    2.250    1.167    2.333 
#    0.000    7.083    0.000    0.000    0.000    0.000 
#    0.000    0.000    0.000    0.000    0.000    0.000 
#
# Total GULP energy -133805.263180 kJ/mol
# GULP energy per Si atom -5575.219299 kJ/mol
# Density = 1.945037 g / cm^3
# Si number density = 19.494743 Si / 1000 Ang^3
#
#
#
# Elastic Constant Matrix: (Units=GPa)
#
#
# Indices 1 2 3 4 5 6 
#
# 1 32.6732 24.7510 39.4253 0.0000 0.0000 0.0000
# 2 24.7510 109.1338 82.5854 0.0000 0.0000 0.0000
# 3 39.4253 82.5854 178.9740 0.0000 0.0000 0.0000
# 4 0.0000 0.0000 0.0000 -18.2970 0.0000 0.0000
# 5 0.0000 0.0000 0.0000 0.0000 24.7472 0.0000
# 6 0.0000 0.0000 0.0000 0.0000 0.0000 24.3729
#
#
#
# Elastic Compliance Matrix: (Units=1/GPa)
#
#
# Indices 1 2 3 4 5 6 
#
# 1 0.042767 -0.003949 -0.007599 0.000000 0.000000 0.000000
# 2 -0.003949 0.014444 -0.005795 0.000000 0.000000 0.000000
# 3 -0.007599 -0.005795 0.009935 0.000000 0.000000 0.000000
# 4 0.000000 0.000000 0.000000 -0.054654 0.000000 0.000000
# 5 0.000000 0.000000 0.000000 0.000000 0.040409 0.000000
# 6 0.000000 0.000000 0.000000 0.000000 0.000000 0.041029
#
#
# Mechanical properties :
#
#
# Convention : Reuss Voigt Hill
#
# Bulk Modulus (GPa) = 30.80682 68.25606 49.53144
# Shear Modulus (GPa) = 35.85880 17.76590 26.81235
#
# Velocity S-wave (km/s) = 4.29349 3.02208 3.71261
# Velocity P-wave (km/s) = 6.35733 6.87502 6.62123
#
# Compressibility (1/GPa) = 0.03246035
#
# Stress axis : x y z
#
# Youngs Moduli (GPa) = 23.38274 69.23252 100.65095
#
# Poissons Ratio (x) = 0.27341 0.76480
# Poissons Ratio (y) = 0.09234 0.58328
# Poissons Ratio (z) = 0.17767 0.40121
#
# Static dielectric constant tensor:
#      x y z
#    x 1.657280 0.000000 0.000000 
#    y 0.000000 1.670360 0.000000 
#    z 0.000000 0.000000 1.727590 
# 
# From -- ./inp_files/15260.got.cif
#   From: 2010.05.17/outbox.cif.g08.bks.cpg/sg35_8_cif.got.tgz:15260.got - 2010.06.03 17:29:28.
