data_PCOD9348529
_publ_section_title
;
Structure prediction by ZEFSAII (Michael W. Deem and Ramdas Pophale) SiO2 
 PCOD9348529
Probable space group: C M M 2
;
_chemical_formula_sum "Si O2"
_cell_formula_units_Z 64
_cell_length_a 11.496649
_cell_length_b 18.776963
_cell_length_c 15.088342
_cell_angle_alpha 90.000000
_cell_angle_beta 90.000000
_cell_angle_gamma 90.000000
_cell_volume 3257.152871
_symmetry_space_group_name_H-M "C M M 2"
_symmetry_group_IT_number 35
_symmetry_cell_setting 'orthorhombic'
loop_
_space_group_symop_operation_xyz
x,y,z
-x,-y,z
-x,y,z
x,-y,z
1/2+x,1/2+y,z
1/2-x,1/2-y,z
1/2-x,1/2+y,z
1/2+x,1/2-y,z
loop_
_atom_site_type_symbol
_atom_site_label
_atom_site_fract_x
_atom_site_fract_y
_atom_site_fract_z
Si Si1 0.123940 0.279753 0.388590
Si Si2 0.784183 0.582405 0.328991
Si Si3 0.876060 0.720247 0.603986
Si Si4 0.374220 0.584833 0.496288
Si Si5 0.133961 0.081133 0.839482
Si Si6 0.361074 0.695085 0.996288
Si Si7 0.633961 0.581133 0.153094
Si Si8 0.715817 0.917595 0.663585
O O1 0.250000 0.250000 0.359194
O O2 0.121245 0.358163 0.346086
O O3 0.127454 0.283180 0.496288
O O4 0.000000 0.244246 0.363662
O O5 0.820810 0.500000 0.340500
O O6 0.693508 0.600976 0.407365
O O7 0.720654 0.588946 0.235194
O O8 0.750000 0.750000 0.633382
O O9 0.878755 0.641837 0.646490
O O10 0.000000 0.755754 0.628914
O O11 0.500000 0.618485 0.496288
O O12 0.385020 0.500000 0.496288
O O13 0.306492 0.600976 0.585211
O O14 0.220654 0.088946 0.757382
O O15 0.000000 0.085050 0.807514
O O16 0.148842 0.000000 0.875750
O O17 0.150285 0.142541 0.911710
O O18 0.500000 0.721252 0.996288
O O19 0.250000 0.750000 0.996288
O O20 0.349715 0.642541 0.080866
O O21 0.500000 0.585050 0.185062
O O22 0.648842 0.500000 0.116826
O O23 0.679190 0.000000 0.652076
#
# Coordination Sequence:
#
# PCOD9348529 Si02
#       8
#     8   8   8   8   8   8   8   8
#     4  10  22  39  55  76 109 153 199 241 287 337
#     4  10  19  33  54  84 115 148 189 236 287 336
#     4  10  22  39  55  76 109 153 199 241 287 337
#     4   9  16  26  44  75 114 149 181 221 270 323
#     4   9  18  34  58  87 118 151 191 237 286 344
#     4  10  21  39  63  89 115 148 190 238 294 348
#     4   9  18  34  58  87 118 151 191 237 286 344
#     4  10  19  33  54  84 115 148 189 236 287 336
#
# _framework density 19.649062000000001
#
# number of rings (size 3 to 8) (size 9 to 14) (size 15 to 20)
#    0.000    2.375    1.250    1.125    0.000    8.000 
#    0.000    5.000    0.000    3.000    0.000    0.000 
#    0.000    0.000    0.000    0.000    0.000    0.000 
#
# Total GULP energy -178229.572226 kJ/mol
# GULP energy per Si atom -5569.674132 kJ/mol
# Density = 1.960434 g / cm^3
# Si number density = 19.649062 Si / 1000 Ang^3
#
#
#
# Elastic Constant Matrix: (Units=GPa)
#
#
# Indices 1 2 3 4 5 6 
#
# 1 158.3406 67.6712 28.4002 0.0000 0.0000 0.0000
# 2 67.6712 93.3126 18.6584 0.0000 0.0000 0.0000
# 3 28.4002 18.6584 53.2732 0.0000 0.0000 0.0000
# 4 0.0000 0.0000 0.0000 22.4195 0.0000 0.0000
# 5 0.0000 0.0000 0.0000 0.0000 -58.6863 0.0000
# 6 0.0000 0.0000 0.0000 0.0000 0.0000 27.8822
#
#
#
# Elastic Compliance Matrix: (Units=1/GPa)
#
#
# Indices 1 2 3 4 5 6 
#
# 1 0.009542 -0.006347 -0.002864 0.000000 0.000000 0.000000
# 2 -0.006347 0.015746 -0.002131 0.000000 0.000000 0.000000
# 3 -0.002864 -0.002131 0.021044 0.000000 0.000000 0.000000
# 4 0.000000 0.000000 0.000000 0.044604 0.000000 0.000000
# 5 0.000000 0.000000 0.000000 0.000000 -0.017040 0.000000
# 6 0.000000 0.000000 0.000000 0.000000 0.000000 0.035865
#
#
# Mechanical properties :
#
#
# Convention : Reuss Voigt Hill
#
# Bulk Modulus (GPa) = 42.28721 59.37622 50.83171
# Shear Modulus (GPa) = 35.63081 11.00285 23.31683
#
# Velocity S-wave (km/s) = 4.26298 2.36893 3.44854
# Velocity P-wave (km/s) = 6.76746 6.14544 6.46394
#
# Compressibility (1/GPa) = 0.02364781
#
# Stress axis : x y z
#
# Youngs Moduli (GPa) = 104.80219 63.50886 47.51890
#
# Poissons Ratio (x) = 0.40310 0.13608
# Poissons Ratio (y) = 0.66520 0.10127
# Poissons Ratio (z) = 0.30013 0.13534
#
# Static dielectric constant tensor:
#      x y z
#    x 1.736290 0.000000 0.000000 
#    y 0.000000 1.760790 0.000000 
#    z 0.000000 0.000000 1.669080 
# 
# From -- ./inp_files/16510.got.cif
#   From: 2010.05.17/outbox.cif.g08.bks.cpg/sg35_9_cif.got.tgz:16510.got - 2010.06.03 17:29:28.
