data_PCOD9348079
_publ_section_title
;
Structure prediction by ZEFSAII (Michael W. Deem and Ramdas Pophale) SiO2 
 PCOD9348079
Probable space group: C M M 2
;
_chemical_formula_sum "Si O2"
_cell_formula_units_Z 48
_cell_length_a 15.743799
_cell_length_b 8.639156
_cell_length_c 17.757625
_cell_angle_alpha 90.000000
_cell_angle_beta 90.000000
_cell_angle_gamma 90.000000
_cell_volume 2415.270257
_symmetry_space_group_name_H-M "C M M 2"
_symmetry_group_IT_number 35
_symmetry_cell_setting 'orthorhombic'
loop_
_space_group_symop_operation_xyz
x,y,z
-x,-y,z
-x,y,z
x,-y,z
1/2+x,1/2+y,z
1/2-x,1/2-y,z
1/2-x,1/2+y,z
1/2+x,1/2-y,z
loop_
_atom_site_type_symbol
_atom_site_label
_atom_site_fract_x
_atom_site_fract_y
_atom_site_fract_z
Si Si1 0.654375 0.683883 0.672040
Si Si2 0.000000 0.188399 0.092777
Si Si3 0.000000 0.811059 0.265293
Si Si4 0.099221 0.677627 0.516732
Si Si5 0.346097 0.686313 0.985221
Si Si6 0.338455 0.685131 0.362875
Si Si7 0.846585 0.685009 0.826310
O O1 0.657061 0.500000 0.679868
O O2 0.750000 0.750000 0.665876
O O3 0.610152 0.733696 0.595054
O O4 0.614448 0.756036 0.747930
O O5 0.914330 0.234014 0.048403
O O6 0.000000 0.241718 0.179040
O O7 0.000000 0.000000 0.093196
O O8 0.916713 0.762363 0.311143
O O9 0.000000 0.000000 0.264652
O O10 0.127721 0.500000 0.526844
O O11 0.147874 0.754577 0.447636
O O12 0.000000 0.678215 0.496602
O O13 0.341048 0.500000 0.982345
O O14 0.250000 0.750000 0.996953
O O15 0.380219 0.747929 0.904699
O O16 0.336863 0.500000 0.364098
O O17 0.250000 0.750000 0.333321
O O18 0.750000 0.750000 0.824516
O O19 0.653990 0.000000 0.828095
#
# Coordination Sequence:
#
# PCOD9348079 Si02
#       7
#     8   4   4   8   8   8   8
#     4  11  21  35  56  82 114 152 199 245 292 347
#     4   9  20  38  61  88 119 156 195 237 294 359
#     4   9  20  40  63  88 121 156 193 241 294 359
#     4  11  23  39  58  82 117 155 197 248 298 346
#     4  10  19  35  59  86 117 155 198 244 294 352
#     4  11  22  39  64  91 120 157 201 242 296 355
#     4  10  18  32  54  80 113 152 195 243 294 343
#
# _framework density 19.873553000000001
#
# number of rings (size 3 to 8) (size 9 to 14) (size 15 to 20)
#    0.000    1.667    0.833    7.000    0.000    1.667 
#    1.500    1.667    0.000    7.000    0.000    0.000 
#    0.000    0.000    0.000    0.000    0.000    0.000 
#
# Total GULP energy -134073.898036 kJ/mol
# GULP energy per Si atom -5586.412418 kJ/mol
# Density = 1.982832 g / cm^3
# Si number density = 19.873553 Si / 1000 Ang^3
#
#
#
# Elastic Constant Matrix: (Units=GPa)
#
#
# Indices 1 2 3 4 5 6 
#
# 1 107.9605 33.1382 68.0142 0.0000 0.0000 0.0000
# 2 33.1382 118.5734 42.1402 0.0000 0.0000 0.0000
# 3 68.0142 42.1402 163.9104 0.0000 0.0000 0.0000
# 4 0.0000 0.0000 0.0000 -25.1951 0.0000 0.0000
# 5 0.0000 0.0000 0.0000 0.0000 47.1406 0.0000
# 6 0.0000 0.0000 0.0000 0.0000 0.0000 19.3849
#
#
#
# Elastic Compliance Matrix: (Units=1/GPa)
#
#
# Indices 1 2 3 4 5 6 
#
# 1 0.012909 -0.001875 -0.004874 0.000000 0.000000 0.000000
# 2 -0.001875 0.009554 -0.001678 0.000000 0.000000 0.000000
# 3 -0.004874 -0.001678 0.008555 0.000000 0.000000 0.000000
# 4 0.000000 0.000000 0.000000 -0.039690 0.000000 0.000000
# 5 0.000000 0.000000 0.000000 0.000000 0.021213 0.000000
# 6 0.000000 0.000000 0.000000 0.000000 0.000000 0.051586
#
#
# Mechanical properties :
#
#
# Convention : Reuss Voigt Hill
#
# Bulk Modulus (GPa) = 70.61010 75.22550 72.91780
# Shear Modulus (GPa) = 58.34000 24.74284 41.54142
#
# Velocity S-wave (km/s) = 5.42396 3.53230 4.57693
# Velocity P-wave (km/s) = 8.65058 7.38718 8.04373
#
# Compressibility (1/GPa) = 0.01416228
#
# Stress axis : x y z
#
# Youngs Moduli (GPa) = 77.46419 104.66692 116.89105
#
# Poissons Ratio (x) = 0.19630 0.56978
# Poissons Ratio (y) = 0.14528 0.19615
# Poissons Ratio (z) = 0.37760 0.17564
#
# Static dielectric constant tensor:
#      x y z
#    x 1.742930 0.000000 0.000000 
#    y 0.000000 1.678860 0.000000 
#    z 0.000000 0.000000 1.706390 
# 
# From -- ./inp_files/15239.got.cif
#   From: 2010.05.17/outbox.cif.g08.bks.cpg/sg35_8_cif.got.tgz:15239.got - 2010.06.03 17:29:28.
