data_PCOD9348210
_publ_section_title
;
Structure prediction by ZEFSAII (Michael W. Deem and Ramdas Pophale) SiO2 
 PCOD9348210
Probable space group: C M M 2
;
_chemical_formula_sum "Si O2"
_cell_formula_units_Z 64
_cell_length_a 8.184959
_cell_length_b 29.653640
_cell_length_c 16.209535
_cell_angle_alpha 90.000000
_cell_angle_beta 90.000000
_cell_angle_gamma 90.000000
_cell_volume 3934.278283
_symmetry_space_group_name_H-M "C M M 2"
_symmetry_group_IT_number 35
_symmetry_cell_setting 'orthorhombic'
loop_
_space_group_symop_operation_xyz
x,y,z
-x,-y,z
-x,y,z
x,-y,z
1/2+x,1/2+y,z
1/2-x,1/2-y,z
1/2-x,1/2+y,z
1/2+x,1/2-y,z
loop_
_atom_site_type_symbol
_atom_site_label
_atom_site_fract_x
_atom_site_fract_y
_atom_site_fract_z
Si Si1 0.696766 0.200696 0.936340
Si Si2 0.303219 0.051357 0.029486
Si Si3 0.700331 0.052358 0.707578
Si Si4 0.688930 0.054799 0.527414
Si Si5 0.197511 0.551810 0.347811
Si Si6 0.692863 0.393446 0.189535
Si Si7 0.804680 0.299471 0.126910
Si Si8 0.700010 0.893605 0.868077
O O1 0.500000 0.199791 0.938145
O O2 0.750000 0.250000 0.907014
O O3 0.752639 0.157835 0.883589
O O4 0.753978 0.195296 0.031558
O O5 0.500000 0.049541 0.024633
O O6 0.246758 0.076822 0.946896
O O7 0.241877 0.000000 0.034147
O O8 0.261066 0.079501 0.110671
O O9 0.500000 0.052849 0.705174
O O10 0.759954 0.067318 0.616638
O O11 0.753430 0.083594 0.782951
O O12 0.746423 0.000000 0.721607
O O13 0.500000 0.070248 0.527667
O O14 0.760728 0.067139 0.438239
O O15 0.686166 0.000000 0.527452
O O16 0.251976 0.500000 0.332372
O O17 0.244275 0.583828 0.273151
O O18 0.000000 0.550462 0.353165
O O19 0.500000 0.397335 0.187774
O O20 0.741627 0.341347 0.179288
O O21 0.750000 0.250000 0.155368
O O22 0.000000 0.301249 0.125831
O O23 0.500000 0.894023 0.867758
#
# Coordination Sequence:
#
# PCOD9348210 Si02
#       8
#     8   8   8   8   8   8   8   8
#     4   9  17  29  45  63  86 113 147 186 222 261
#     4  10  19  31  45  61  88 126 160 187 222 269
#     4   8  12  19  36  64  94 117 141 180 226 269
#     4   7  11  21  38  62  89 114 143 184 231 272
#     4   9  17  30  47  65  89 122 156 191 234 280
#     4  12  23  32  44  65  92 122 156 192 230 269
#     4  10  19  34  52  69  90 116 151 191 232 275
#     4   9  15  25  40  63  90 118 148 182 223 270
#
# _framework density 16.267278999999998
#
# number of rings (size 3 to 8) (size 9 to 14) (size 15 to 20)
#    0.000    2.750    1.250    3.750    0.000    4.000 
#    0.000    0.000    0.000    0.000    0.000    2.625 
#    0.000    6.000    0.000    0.000    0.000    0.000 
#
# Total GULP energy -178288.411204 kJ/mol
# GULP energy per Si atom -5571.512850 kJ/mol
# Density = 1.623025 g / cm^3
# Si number density = 16.267279 Si / 1000 Ang^3
#
#
#
# Elastic Constant Matrix: (Units=GPa)
#
#
# Indices 1 2 3 4 5 6 
#
# 1 9.4042 7.8753 7.6602 0.0000 0.0000 0.0000
# 2 7.8753 126.2580 83.0161 0.0000 0.0000 0.0000
# 3 7.6602 83.0161 153.2157 0.0000 0.0000 0.0000
# 4 0.0000 0.0000 0.0000 6.5697 0.0000 0.0000
# 5 0.0000 0.0000 0.0000 0.0000 -5.6826 0.0000
# 6 0.0000 0.0000 0.0000 0.0000 0.0000 17.5064
#
#
#
# Elastic Compliance Matrix: (Units=1/GPa)
#
#
# Indices 1 2 3 4 5 6 
#
# 1 0.112988 -0.005178 -0.002843 0.000000 0.000000 0.000000
# 2 -0.005178 0.012541 -0.006536 0.000000 0.000000 0.000000
# 3 -0.002843 -0.006536 0.010210 0.000000 0.000000 0.000000
# 4 0.000000 0.000000 0.000000 0.152213 0.000000 0.000000
# 5 0.000000 0.000000 0.000000 0.000000 -0.175977 0.000000
# 6 0.000000 0.000000 0.000000 0.000000 0.000000 0.057122
#
#
# Mechanical properties :
#
#
# Convention : Reuss Voigt Hill
#
# Bulk Modulus (GPa) = 9.37876 53.99789 31.68833
# Shear Modulus (GPa) = 21.39008 16.36714 18.87861
#
# Velocity S-wave (km/s) = 3.63011 3.17541 3.41035
# Velocity P-wave (km/s) = 4.83200 6.83451 5.91856
#
# Compressibility (1/GPa) = 0.10662390
#
# Stress axis : x y z
#
# Youngs Moduli (GPa) = 8.85053 79.73983 97.94038
#
# Poissons Ratio (x) = 0.41289 0.27848
# Poissons Ratio (y) = 0.04583 0.64014
# Poissons Ratio (z) = 0.02517 0.52118
#
# Static dielectric constant tensor:
#      x y z
#    x 1.575630 0.000000 0.000000 
#    y 0.000000 1.526580 0.000000 
#    z 0.000000 0.000000 1.568570 
# 
# From -- ./inp_files/16184.got.cif
#   From: 2010.05.17/outbox.cif.g08.bks.cpg/sg35_9_cif.got.tgz:16184.got - 2010.06.03 17:29:28.
