data_PCOD9348194
_publ_section_title
;
Structure prediction by ZEFSAII (Michael W. Deem and Ramdas Pophale) SiO2 
 PCOD9348194
Probable space group: C M M 2
;
_chemical_formula_sum "Si O2"
_cell_formula_units_Z 40
_cell_length_a 17.163097
_cell_length_b 15.493542
_cell_length_c 9.570036
_cell_angle_alpha 90.000000
_cell_angle_beta 90.000000
_cell_angle_gamma 90.000000
_cell_volume 2544.836835
_symmetry_space_group_name_H-M "C M M 2"
_symmetry_group_IT_number 35
_symmetry_cell_setting 'orthorhombic'
loop_
_space_group_symop_operation_xyz
x,y,z
-x,-y,z
-x,y,z
x,-y,z
1/2+x,1/2+y,z
1/2-x,1/2-y,z
1/2-x,1/2+y,z
1/2+x,1/2-y,z
loop_
_atom_site_type_symbol
_atom_site_label
_atom_site_fract_x
_atom_site_fract_y
_atom_site_fract_z
Si Si1 0.911446 0.102994 0.865770
Si Si2 0.868561 0.899792 0.184887
Si Si3 0.912207 0.256677 0.380513
Si Si4 0.283494 0.902147 0.360951
Si Si5 0.687815 0.677861 0.616965
O O1 0.851163 0.133997 0.749337
O O2 0.000000 0.136975 0.846603
O O3 0.915619 0.000000 0.853840
O O4 0.882734 0.120904 0.023153
O O5 0.908423 0.825794 0.277480
O O6 0.778862 0.896656 0.235246
O O7 0.894868 0.000000 0.210076
O O8 0.881555 0.221645 0.528658
O O9 0.850025 0.330709 0.341565
O O10 0.000000 0.289542 0.386133
O O11 0.234138 0.880511 0.502490
O O12 0.313298 0.000000 0.369378
O O13 0.750000 0.750000 0.660867
#
# Coordination Sequence:
#
# PCOD9348194 Si02
#       5
#     8   8   8   8   8
#     4  10  19  30  46  70  96 119 147 185 228 272
#     4   9  18  32  48  67  94 124 152 184 226 277
#     4  10  19  31  48  70  94 120 153 192 231 269
#     4   9  18  33  50  67  90 122 158 191 225 269
#     4   9  18  31  47  67  92 122 153 185 224 272
#
# _framework density 15.718101000000001
#
# number of rings (size 3 to 8) (size 9 to 14) (size 15 to 20)
#    0.000    2.600    0.000    3.600    0.000    4.000 
#    0.000    0.000    0.000    0.000    0.000    0.000 
#    0.000    9.600    0.000    0.000    0.000    0.000 
#
# Total GULP energy -111369.110081 kJ/mol
# GULP energy per Si atom -5568.455504 kJ/mol
# Density = 1.568233 g / cm^3
# Si number density = 15.718101 Si / 1000 Ang^3
#
#
#
# Elastic Constant Matrix: (Units=GPa)
#
#
# Indices 1 2 3 4 5 6 
#
# 1 103.5499 43.4706 58.7025 0.0000 0.0000 0.0000
# 2 43.4706 65.6976 34.9630 0.0000 0.0000 0.0000
# 3 58.7025 34.9630 93.0783 0.0000 0.0000 0.0000
# 4 0.0000 0.0000 0.0000 25.8227 0.0000 0.0000
# 5 0.0000 0.0000 0.0000 0.0000 5.5782 0.0000
# 6 0.0000 0.0000 0.0000 0.0000 0.0000 13.4333
#
#
#
# Elastic Compliance Matrix: (Units=1/GPa)
#
#
# Indices 1 2 3 4 5 6 
#
# 1 0.017301 -0.007050 -0.008263 0.000000 0.000000 0.000000
# 2 -0.007050 0.021897 -0.003779 0.000000 0.000000 0.000000
# 3 -0.008263 -0.003779 0.017375 0.000000 0.000000 0.000000
# 4 0.000000 0.000000 0.000000 0.038726 0.000000 0.000000
# 5 0.000000 0.000000 0.000000 0.000000 0.179269 0.000000
# 6 0.000000 0.000000 0.000000 0.000000 0.000000 0.074442
#
#
# Mechanical properties :
#
#
# Convention : Reuss Voigt Hill
#
# Bulk Modulus (GPa) = 54.38213 59.62200 57.00206
# Shear Modulus (GPa) = 12.71216 17.31281 15.01249
#
# Velocity S-wave (km/s) = 2.84695 3.32242 3.09384
# Velocity P-wave (km/s) = 6.74391 7.26171 7.00759
#
# Compressibility (1/GPa) = 0.01838839
#
# Stress axis : x y z
#
# Youngs Moduli (GPa) = 57.79867 45.66766 57.55545
#
# Poissons Ratio (x) = 0.32197 0.47560
# Poissons Ratio (y) = 0.40750 0.21749
# Poissons Ratio (z) = 0.47761 0.17257
#
# Static dielectric constant tensor:
#      x y z
#    x 1.525170 0.000000 0.000000 
#    y 0.000000 1.533760 0.000000 
#    z 0.000000 0.000000 1.506080 
# 
# From -- ./inp_files/8272.got.cif
#   From: 2010.05.17/outbox.cif.g08.bks.cpg/sg35_5_cif.got.tgz:8272.got - 2010.06.03 17:29:28.
