data_PCOD9348883
_publ_section_title
;
Structure prediction by ZEFSAII (Michael W. Deem and Ramdas Pophale) SiO2 
 PCOD9348883
Probable space group: C M M 2
;
_chemical_formula_sum "Si O2"
_cell_formula_units_Z 48
_cell_length_a 24.858505
_cell_length_b 11.147817
_cell_length_c 8.289486
_cell_angle_alpha 90.000000
_cell_angle_beta 90.000000
_cell_angle_gamma 90.000000
_cell_volume 2297.166317
_symmetry_space_group_name_H-M "C M M 2"
_symmetry_group_IT_number 35
_symmetry_cell_setting 'orthorhombic'
loop_
_space_group_symop_operation_xyz
x,y,z
-x,-y,z
-x,y,z
x,-y,z
1/2+x,1/2+y,z
1/2-x,1/2-y,z
1/2-x,1/2+y,z
1/2+x,1/2-y,z
loop_
_atom_site_type_symbol
_atom_site_label
_atom_site_fract_x
_atom_site_fract_y
_atom_site_fract_z
Si Si1 0.602834 0.630948 0.370640
Si Si2 0.240430 0.372906 0.847441
Si Si3 0.779635 0.869285 0.211432
Si Si4 0.435356 0.133409 0.549109
Si Si5 0.060846 0.868081 0.030976
Si Si6 0.886862 0.628698 0.907053
O O1 0.599653 0.500000 0.456102
O O2 0.660358 0.635123 0.279922
O O3 0.592187 0.750926 0.469717
O O4 0.560786 0.629537 0.224247
O O5 0.252990 0.500000 0.766084
O O6 0.250000 0.250000 0.753088
O O7 0.177546 0.372495 0.892681
O O8 0.274128 0.367405 0.015387
O O9 0.750000 0.750000 0.269282
O O10 0.756241 0.000000 0.258934
O O11 0.500000 0.147838 0.546039
O O12 0.413846 0.129551 0.731457
O O13 0.423071 0.000000 0.477977
O O14 0.000000 0.855887 0.968629
O O15 0.082134 0.000000 0.978557
O O16 0.094288 0.751188 0.986696
O O17 0.902437 0.500000 0.985949
#
# Coordination Sequence:
#
# PCOD9348883 Si02
#       6
#     8   8   8   8   8   8
#     4  10  21  37  57  82 113 150 192 237 285 338
#     4   9  17  31  53  79 106 138 176 220 273 330
#     4   9  17  30  51  79 107 137 176 222 273 328
#     4  10  22  40  59  81 114 155 196 238 284 336
#     4  10  20  33  52  81 113 144 184 236 290 343
#     4  10  21  37  58  84 113 148 190 235 285 341
#
# _framework density 20.895309000000001
#
# number of rings (size 3 to 8) (size 9 to 14) (size 15 to 20)
#    0.000    2.333    0.000    3.000    0.000    6.000 
#    0.000    0.833    0.000    4.000    0.000    0.000 
#    0.000    0.000    0.000    0.000    0.000    0.000 
#
# Total GULP energy -133688.937250 kJ/mol
# GULP energy per Si atom -5570.372385 kJ/mol
# Density = 2.084775 g / cm^3
# Si number density = 20.895309 Si / 1000 Ang^3
#
#
#
# Elastic Constant Matrix: (Units=GPa)
#
#
# Indices 1 2 3 4 5 6 
#
# 1 51.5387 30.5888 -7.5317 0.0000 0.0000 0.0000
# 2 30.5888 241.0581 19.4779 0.0000 0.0000 0.0000
# 3 -7.5317 19.4779 10.8030 0.0000 0.0000 0.0000
# 4 0.0000 0.0000 0.0000 21.5347 0.0000 0.0000
# 5 0.0000 0.0000 0.0000 0.0000 132.0344 0.0000
# 6 0.0000 0.0000 0.0000 0.0000 0.0000 33.1824
#
#
#
# Elastic Compliance Matrix: (Units=1/GPa)
#
#
# Indices 1 2 3 4 5 6 
#
# 1 0.027163 -0.005826 0.029442 0.000000 0.000000 0.000000
# 2 -0.005826 0.006105 -0.015069 0.000000 0.000000 0.000000
# 3 0.029442 -0.015069 0.140264 0.000000 0.000000 0.000000
# 4 0.000000 0.000000 0.000000 0.046437 0.000000 0.000000
# 5 0.000000 0.000000 0.000000 0.000000 0.007574 0.000000
# 6 0.000000 0.000000 0.000000 0.000000 0.000000 0.030136
#
#
# Mechanical properties :
#
#
# Convention : Reuss Voigt Hill
#
# Bulk Modulus (GPa) = 5.24592 43.16331 24.20462
# Shear Modulus (GPa) = 16.44047 54.74129 35.59088
#
# Velocity S-wave (km/s) = 2.80804 5.12394 4.13158
# Velocity P-wave (km/s) = 3.60964 7.46379 5.86249
#
# Compressibility (1/GPa) = 0.19062442
#
# Stress axis : x y z
#
# Youngs Moduli (GPa) = 36.81477 163.79285 7.12943
#
# Poissons Ratio (x) = 0.95422 -0.20990
# Poissons Ratio (y) = 0.21447 0.10744
# Poissons Ratio (z) = -1.08388 2.46828
#
# Static dielectric constant tensor:
#      x y z
#    x 1.750230 0.000000 0.000000 
#    y 0.000000 1.855350 0.000000 
#    z 0.000000 0.000000 1.715110 
# 
# From -- ./inp_files/6243.got.cif
#   From: 2010.05.17/outbox.cif.g08.bks.cpg/sg35_4_cif.got.tgz:6243.got - 2010.06.03 17:29:28.
