data_PCOD9348618
_publ_section_title
;
Structure prediction by ZEFSAII (Michael W. Deem and Ramdas Pophale) SiO2 
 PCOD9348618
Probable space group: C M M 2
;
_chemical_formula_sum "Si O2"
_cell_formula_units_Z 48
_cell_length_a 8.898489
_cell_length_b 15.584081
_cell_length_c 17.565555
_cell_angle_alpha 90.000000
_cell_angle_beta 90.000000
_cell_angle_gamma 90.000000
_cell_volume 2435.899358
_symmetry_space_group_name_H-M "C M M 2"
_symmetry_group_IT_number 35
_symmetry_cell_setting 'orthorhombic'
loop_
_space_group_symop_operation_xyz
x,y,z
-x,-y,z
-x,y,z
x,-y,z
1/2+x,1/2+y,z
1/2-x,1/2-y,z
1/2-x,1/2+y,z
1/2+x,1/2-y,z
loop_
_atom_site_type_symbol
_atom_site_label
_atom_site_fract_x
_atom_site_fract_y
_atom_site_fract_z
Si Si1 0.173340 0.895805 0.008750
Si Si2 0.176892 0.103524 0.697165
Si Si3 0.681303 0.500000 0.251966
Si Si4 0.321375 0.159551 0.162349
Si Si5 0.818293 0.839312 0.529711
Si Si6 0.317437 0.500000 0.428719
Si Si7 0.671760 0.104819 0.853174
O O1 0.276743 0.857719 0.074531
O O2 0.000000 0.871553 0.021924
O O3 0.182606 0.000000 0.012888
O O4 0.227822 0.869118 0.924993
O O5 0.228212 0.142195 0.617014
O O6 0.265576 0.133250 0.771617
O O7 0.000000 0.121844 0.707535
O O8 0.191331 0.000000 0.690966
O O9 0.500000 0.500000 0.245586
O O10 0.747405 0.583166 0.210432
O O11 0.725634 0.500000 0.340690
O O12 0.500000 0.159894 0.171103
O O13 0.250000 0.250000 0.185548
O O14 0.750000 0.750000 0.504165
O O15 0.000000 0.836605 0.529074
O O16 0.768497 0.916285 0.475108
O O17 0.500000 0.500000 0.430466
O O18 0.500000 0.131675 0.864116
O O19 0.674958 0.000000 0.851876
#
# Coordination Sequence:
#
# PCOD9348618 Si02
#       7
#     8   8   4   8   8   4   8
#     4  10  19  34  58  86 120 160 206 252 303 362
#     4   9  16  30  53  77 108 153 202 245 293 354
#     4  11  23  43  69  96 125 160 201 249 308 373
#     4  12  25  42  65  93 127 164 205 253 306 366
#     4  10  20  37  60  88 119 156 198 244 296 355
#     4   9  20  41  67  90 119 158 195 237 296 365
#     4   9  17  28  47  79 117 154 199 251 303 350
#
# _framework density 19.705248000000001
#
# number of rings (size 3 to 8) (size 9 to 14) (size 15 to 20)
#    0.000    2.000    1.667    2.750    0.000    4.000 
#    0.000    4.583    0.000    2.000    0.000    0.000 
#    0.000    0.000    0.000    0.000    0.000    0.000 
#
# Total GULP energy -134126.261636 kJ/mol
# GULP energy per Si atom -5588.594235 kJ/mol
# Density = 1.966040 g / cm^3
# Si number density = 19.705248 Si / 1000 Ang^3
#
#
#
# Elastic Constant Matrix: (Units=GPa)
#
#
# Indices 1 2 3 4 5 6 
#
# 1 91.4448 44.0482 44.1171 0.0000 0.0000 0.0000
# 2 44.0482 107.9116 64.7665 0.0000 0.0000 0.0000
# 3 44.1171 64.7665 138.6032 0.0000 0.0000 0.0000
# 4 0.0000 0.0000 0.0000 -11.7346 0.0000 0.0000
# 5 0.0000 0.0000 0.0000 0.0000 12.8092 0.0000
# 6 0.0000 0.0000 0.0000 0.0000 0.0000 24.3394
#
#
#
# Elastic Compliance Matrix: (Units=1/GPa)
#
#
# Indices 1 2 3 4 5 6 
#
# 1 0.014219 -0.004291 -0.002521 0.000000 0.000000 0.000000
# 2 -0.004291 0.014174 -0.005257 0.000000 0.000000 0.000000
# 3 -0.002521 -0.005257 0.010474 0.000000 0.000000 0.000000
# 4 0.000000 0.000000 0.000000 -0.085218 0.000000 0.000000
# 5 0.000000 0.000000 0.000000 0.000000 0.078069 0.000000
# 6 0.000000 0.000000 0.000000 0.000000 0.000000 0.041086
#
#
# Mechanical properties :
#
#
# Convention : Reuss Voigt Hill
#
# Bulk Modulus (GPa) = 67.89690 71.53591 69.71641
# Shear Modulus (GPa) = 49.09219 17.41800 33.25510
#
# Velocity S-wave (km/s) = 4.99673 2.97632 4.11253
# Velocity P-wave (km/s) = 8.23534 6.94212 7.61623
#
# Compressibility (1/GPa) = 0.01472821
#
# Stress axis : x y z
#
# Youngs Moduli (GPa) = 70.33058 70.55332 95.47660
#
# Poissons Ratio (x) = 0.30274 0.24066
# Poissons Ratio (y) = 0.30179 0.50195
# Poissons Ratio (z) = 0.17728 0.37092
#
# Static dielectric constant tensor:
#      x y z
#    x 1.661020 0.000000 0.000000 
#    y 0.000000 1.703130 0.000000 
#    z 0.000000 0.000000 1.669150 
# 
# From -- ./inp_files/17874.got.cif
#   From: 2010.05.17/outbox.cif.g08.bks.cpg/sg35_9_cif.got.tgz:17874.got - 2010.06.03 17:29:28.
