data_PCOD9348205
_publ_section_title
;
Structure prediction by ZEFSAII (Michael W. Deem and Ramdas Pophale) SiO2 
 PCOD9348205
Probable space group: C M M 2
;
_chemical_formula_sum "Si O2"
_cell_formula_units_Z 64
_cell_length_a 7.926274
_cell_length_b 18.830892
_cell_length_c 21.417236
_cell_angle_alpha 90.000000
_cell_angle_beta 90.000000
_cell_angle_gamma 90.000000
_cell_volume 3196.711151
_symmetry_space_group_name_H-M "C M M 2"
_symmetry_group_IT_number 35
_symmetry_cell_setting 'orthorhombic'
loop_
_space_group_symop_operation_xyz
x,y,z
-x,-y,z
-x,y,z
x,-y,z
1/2+x,1/2+y,z
1/2-x,1/2-y,z
1/2-x,1/2+y,z
1/2+x,1/2-y,z
loop_
_atom_site_type_symbol
_atom_site_label
_atom_site_fract_x
_atom_site_fract_y
_atom_site_fract_z
Si Si1 0.701738 0.667806 0.350070
Si Si2 0.197238 0.667330 0.211847
Si Si3 0.705988 0.417317 0.608579
Si Si4 0.203645 0.167521 0.974336
Si Si5 0.203455 0.832280 0.729299
Si Si6 0.705611 0.417484 0.469914
Si Si7 0.793500 0.082166 0.851654
Si Si8 0.800087 0.080068 0.093163
O O1 0.500000 0.662120 0.348814
O O2 0.750000 0.750000 0.355943
O O3 0.764645 0.642788 0.282420
O O4 0.767331 0.626156 0.410465
O O5 0.250000 0.750000 0.207007
O O6 0.279594 0.619393 0.158922
O O7 0.000000 0.664186 0.201108
O O8 0.500000 0.416354 0.608752
O O9 0.754364 0.500000 0.617528
O O10 0.765288 0.368371 0.665155
O O11 0.760585 0.393739 0.539151
O O12 0.250000 0.250000 0.972646
O O13 0.261831 0.125015 0.912993
O O14 0.000000 0.164308 0.974491
O O15 0.268255 0.128526 0.036815
O O16 0.250000 0.750000 0.733808
O O17 0.262423 0.876937 0.789311
O O18 0.000000 0.836889 0.728767
O O19 0.500000 0.413884 0.469575
O O20 0.751264 0.500000 0.463441
O O21 0.000000 0.082024 0.851552
O O22 0.740215 0.000000 0.852572
O O23 0.000000 0.074029 0.081804
O O24 0.729646 0.000000 0.093730
#
# Coordination Sequence:
#
# PCOD9348205 Si02
#       8
#     8   8   8   8   8   8   8   8
#     4  10  19  32  51  74 100 131 166 205 252 304
#     4  11  22  37  56  77 103 135 171 211 256 305
#     4   8  14  27  47  70  95 126 168 211 246 287
#     4  10  20  34  54  78 104 135 169 208 252 298
#     4  10  19  30  48  74 102 132 165 205 251 296
#     4   8  15  28  47  71  97 126 164 209 251 292
#     4   9  17  31  52  76 100 130 172 214 247 287
#     4  10  21  37  56  78 104 135 171 210 254 304
#
# _framework density 20.020578
#
# number of rings (size 3 to 8) (size 9 to 14) (size 15 to 20)
#    0.000    2.500    0.000    4.500    0.000    5.750 
#    0.000    1.250    0.000    5.250    0.000    3.500 
#    0.000    0.000    0.000    0.000    0.000    0.000 
#
# Total GULP energy -178604.957190 kJ/mol
# GULP energy per Si atom -5581.404912 kJ/mol
# Density = 1.997501 g / cm^3
# Si number density = 20.020578 Si / 1000 Ang^3
#
#
#
# Elastic Constant Matrix: (Units=GPa)
#
#
# Indices 1 2 3 4 5 6 
#
# 1 19.4105 -0.9907 -5.1884 0.0000 0.0000 0.0000
# 2 -0.9907 151.3853 124.7207 0.0000 0.0000 0.0000
# 3 -5.1884 124.7207 211.1462 0.0000 0.0000 0.0000
# 4 0.0000 0.0000 0.0000 48.7419 0.0000 0.0000
# 5 0.0000 0.0000 0.0000 0.0000 -9.4442 0.0000
# 6 0.0000 0.0000 0.0000 0.0000 0.0000 22.9956
#
#
#
# Elastic Compliance Matrix: (Units=1/GPa)
#
#
# Indices 1 2 3 4 5 6 
#
# 1 0.052008 -0.001388 0.002098 0.000000 0.000000 0.000000
# 2 -0.001388 0.012905 -0.007657 0.000000 0.000000 0.000000
# 3 0.002098 -0.007657 0.009310 0.000000 0.000000 0.000000
# 4 0.000000 0.000000 0.000000 0.020516 0.000000 0.000000
# 5 0.000000 0.000000 0.000000 0.000000 -0.105885 0.000000
# 6 0.000000 0.000000 0.000000 0.000000 0.000000 0.043487
#
#
# Mechanical properties :
#
#
# Convention : Reuss Voigt Hill
#
# Bulk Modulus (GPa) = 16.57561 68.78058 42.67809
# Shear Modulus (GPa) = 75.36440 30.01868 52.69154
#
# Velocity S-wave (km/s) = 6.14208 3.87640 5.13574
# Velocity P-wave (km/s) = 7.65490 7.38003 7.51872
#
# Compressibility (1/GPa) = 0.06032962
#
# Stress axis : x y z
#
# Youngs Moduli (GPa) = 19.22769 77.49165 107.40827
#
# Poissons Ratio (x) = 0.10756 -0.22532
# Poissons Ratio (y) = 0.02669 0.82239
# Poissons Ratio (z) = -0.04034 0.59333
#
# Static dielectric constant tensor:
#      x y z
#    x 1.762440 0.000000 0.000000 
#    y 0.000000 1.662460 0.000000 
#    z 0.000000 0.000000 1.710070 
# 
# From -- ./inp_files/18410.got.cif
#   From: 2010.05.17/outbox.cif.g08.bks.cpg/sg35_10_cif.got.tgz:18410.got - 2010.06.03 17:29:28.
