data_PCOD9348795
_publ_section_title
;
Structure prediction by ZEFSAII (Michael W. Deem and Ramdas Pophale) SiO2 
 PCOD9348795
Probable space group: C M M 2
;
_chemical_formula_sum "Si O2"
_cell_formula_units_Z 64
_cell_length_a 9.319668
_cell_length_b 14.649399
_cell_length_c 21.505529
_cell_angle_alpha 90.000000
_cell_angle_beta 90.000000
_cell_angle_gamma 90.000000
_cell_volume 2936.096865
_symmetry_space_group_name_H-M "C M M 2"
_symmetry_group_IT_number 35
_symmetry_cell_setting 'orthorhombic'
loop_
_space_group_symop_operation_xyz
x,y,z
-x,-y,z
-x,y,z
x,-y,z
1/2+x,1/2+y,z
1/2-x,1/2-y,z
1/2-x,1/2+y,z
1/2+x,1/2-y,z
loop_
_atom_site_type_symbol
_atom_site_label
_atom_site_fract_x
_atom_site_fract_y
_atom_site_fract_z
Si Si1 0.671971 0.846458 0.979140
Si Si2 0.660669 0.606522 0.237296
Si Si3 0.839305 0.393102 0.840958
Si Si4 0.335605 0.111926 0.356362
Si Si5 0.327137 0.151920 0.114186
Si Si6 0.837576 0.111845 0.724364
Si Si7 0.664167 0.611549 0.479745
Si Si8 0.163765 0.388433 0.602380
O O1 0.500000 0.835331 0.978745
O O2 0.750000 0.750000 0.979426
O O3 0.710089 0.888582 0.912592
O O4 0.703379 0.891874 0.046158
O O5 0.500000 0.646698 0.229591
O O6 0.642460 0.500000 0.251513
O O7 0.749423 0.643852 0.295566
O O8 0.753319 0.610192 0.174540
O O9 0.853293 0.500000 0.826507
O O10 0.730238 0.357133 0.789648
O O11 0.000000 0.352390 0.836083
O O12 0.500000 0.143349 0.355818
O O13 0.252908 0.138682 0.418890
O O14 0.339488 0.000000 0.355611
O O15 0.500000 0.156999 0.121618
O O16 0.250000 0.250000 0.110997
O O17 0.738777 0.138919 0.666555
O O18 0.000000 0.144139 0.716747
O O19 0.842290 0.000000 0.724131
O O20 0.500000 0.643302 0.477507
O O21 0.660929 0.500000 0.479897
O O22 0.743939 0.639622 0.542720
O O23 0.160870 0.500000 0.601981
O O24 0.000000 0.356695 0.598435
#
# Coordination Sequence:
#
# PCOD9348795 Si02
#       8
#     8   8   8   8   8   8   8   8
#     4   9  19  34  52  72  94 122 154 191 234 280
#     4  10  20  33  49  71  99 129 161 199 243 289
#     4   9  17  30  47  67  92 122 155 190 230 277
#     4   9  16  26  40  59  85 118 155 193 234 281
#     4  10  20  35  54  74  97 126 160 198 241 289
#     4   9  16  25  37  56  83 114 148 187 231 275
#     4   9  15  22  33  51  78 113 151 190 231 275
#     4   9  15  22  33  50  75 111 152 189 226 272
#
# _framework density 21.797646
#
# number of rings (size 3 to 8) (size 9 to 14) (size 15 to 20)
#    0.000    2.750    0.000    2.250    0.000    8.250 
#    0.000    1.250    0.000    1.500    0.000    0.000 
#    0.000    1.000    0.000    8.500    0.000   15.500 
#
# Total GULP energy -178577.397658 kJ/mol
# GULP energy per Si atom -5580.543677 kJ/mol
# Density = 2.174803 g / cm^3
# Si number density = 21.797646 Si / 1000 Ang^3
#
#
#
# Elastic Constant Matrix: (Units=GPa)
#
#
# Indices 1 2 3 4 5 6 
#
# 1 182.4619 9.3326 125.9660 0.0000 0.0000 0.0000
# 2 9.3326 43.3541 0.8302 0.0000 0.0000 0.0000
# 3 125.9660 0.8302 212.2623 0.0000 0.0000 0.0000
# 4 0.0000 0.0000 0.0000 46.7714 0.0000 0.0000
# 5 0.0000 0.0000 0.0000 0.0000 40.9382 0.0000
# 6 0.0000 0.0000 0.0000 0.0000 0.0000 7.6401
#
#
#
# Elastic Compliance Matrix: (Units=1/GPa)
#
#
# Indices 1 2 3 4 5 6 
#
# 1 0.009442 -0.001925 -0.005596 0.000000 0.000000 0.000000
# 2 -0.001925 0.023460 0.001051 0.000000 0.000000 0.000000
# 3 -0.005596 0.001051 0.008028 0.000000 0.000000 0.000000
# 4 0.000000 0.000000 0.000000 0.021381 0.000000 0.000000
# 5 0.000000 0.000000 0.000000 0.000000 0.024427 0.000000
# 6 0.000000 0.000000 0.000000 0.000000 0.000000 0.130888
#
#
# Mechanical properties :
#
#
# Convention : Reuss Voigt Hill
#
# Bulk Modulus (GPa) = 35.72776 78.92621 57.32698
# Shear Modulus (GPa) = 20.84226 39.19990 30.02108
#
# Velocity S-wave (km/s) = 3.09555 4.24530 3.71517
# Velocity P-wave (km/s) = 5.40397 7.76642 6.69030
#
# Compressibility (1/GPa) = 0.02798944
#
# Stress axis : x y z
#
# Youngs Moduli (GPa) = 105.90537 42.62535 124.56454
#
# Poissons Ratio (x) = 0.08207 0.69706
# Poissons Ratio (y) = 0.20391 -0.13090
# Poissons Ratio (z) = 0.59265 -0.04479
#
# Static dielectric constant tensor:
#      x y z
#    x 1.752270 0.000000 0.000000 
#    y 0.000000 1.857330 0.000000 
#    z 0.000000 0.000000 1.786810 
# 
# From -- ./inp_files/18298.got.cif
#   From: 2010.05.17/outbox.cif.g08.bks.cpg/sg35_10_cif.got.tgz:18298.got - 2010.06.03 17:29:28.
