data_PCOD9348707
_publ_section_title
;
Structure prediction by ZEFSAII (Michael W. Deem and Ramdas Pophale) SiO2 
 PCOD9348707
Probable space group: C M M 2
;
_chemical_formula_sum "Si O2"
_cell_formula_units_Z 40
_cell_length_a 7.733924
_cell_length_b 26.562064
_cell_length_c 9.414564
_cell_angle_alpha 90.000000
_cell_angle_beta 90.000000
_cell_angle_gamma 90.000000
_cell_volume 1934.024320
_symmetry_space_group_name_H-M "C M M 2"
_symmetry_group_IT_number 35
_symmetry_cell_setting 'orthorhombic'
loop_
_space_group_symop_operation_xyz
x,y,z
-x,-y,z
-x,y,z
x,-y,z
1/2+x,1/2+y,z
1/2-x,1/2-y,z
1/2-x,1/2+y,z
1/2+x,1/2-y,z
loop_
_atom_site_type_symbol
_atom_site_label
_atom_site_fract_x
_atom_site_fract_y
_atom_site_fract_z
Si Si1 0.291728 0.306395 0.647190
Si Si2 0.790815 0.000000 0.963557
Si Si3 0.204701 0.899834 0.465393
Si Si4 0.707498 0.306158 0.972017
Si Si5 0.212267 0.903300 0.143538
Si Si6 0.702700 0.000000 0.632129
O O1 0.500000 0.310662 0.653148
O O2 0.250000 0.250000 0.596953
O O3 0.224163 0.351110 0.547995
O O4 0.226765 0.311379 0.809762
O O5 0.737067 0.000000 0.799978
O O6 0.732207 0.950365 0.047659
O O7 0.000000 0.000000 0.964802
O O8 0.272690 0.907172 0.305988
O O9 0.225314 0.949762 0.558943
O O10 0.000000 0.890832 0.449075
O O11 0.500000 0.310119 0.966108
O O12 0.750000 0.250000 0.022786
O O13 0.769105 0.351139 0.071682
O O14 0.000000 0.904203 0.143611
O O15 0.500000 0.000000 0.606879
#
# Coordination Sequence:
#
# PCOD9348707 Si02
#       6
#     8   4   8   8   8   4
#     4   9  18  32  53  78 107 142 180 219 260 307
#     4  10  19  36  60  80 100 134 177 222 266 316
#     4  10  20  37  59  81 106 142 182 220 264 320
#     4   9  17  31  49  74 105 138 176 216 255 303
#     4   9  18  33  57  83 104 131 177 225 262 308
#     4  12  25  38  54  80 110 140 175 222 272 320
#
# _framework density 20.682262000000001
#
# number of rings (size 3 to 8) (size 9 to 14) (size 15 to 20)
#    0.000    2.400    0.000    2.700    0.000    6.400 
#    0.000    8.000    0.000    0.000    0.000    0.000 
#    0.000    0.000    0.000    0.000    0.000    0.000 
#
# Total GULP energy -111684.886720 kJ/mol
# GULP energy per Si atom -5584.244336 kJ/mol
# Density = 2.063519 g / cm^3
# Si number density = 20.682262 Si / 1000 Ang^3
#
#
#
# Elastic Constant Matrix: (Units=GPa)
#
#
# Indices 1 2 3 4 5 6 
#
# 1 24.3379 -14.1675 -7.1579 0.0000 0.0000 0.0000
# 2 -14.1675 192.4221 116.9586 0.0000 0.0000 0.0000
# 3 -7.1579 116.9586 158.7136 0.0000 0.0000 0.0000
# 4 0.0000 0.0000 0.0000 -382.7159 0.0000 0.0000
# 5 0.0000 0.0000 0.0000 0.0000 0.6959 0.0000
# 6 0.0000 0.0000 0.0000 0.0000 0.0000 22.2502
#
#
#
# Elastic Compliance Matrix: (Units=1/GPa)
#
#
# Indices 1 2 3 4 5 6 
#
# 1 0.042972 0.003597 -0.000713 0.000000 0.000000 0.000000
# 2 0.003597 0.009714 -0.006996 0.000000 0.000000 0.000000
# 3 -0.000713 -0.006996 0.011424 0.000000 0.000000 0.000000
# 4 0.000000 0.000000 0.000000 -0.002613 0.000000 0.000000
# 5 0.000000 0.000000 0.000000 0.000000 1.436917 0.000000
# 6 0.000000 0.000000 0.000000 0.000000 0.000000 0.044943
#
#
# Mechanical properties :
#
#
# Convention : Reuss Voigt Hill
#
# Bulk Modulus (GPa) = 17.89322 62.97111 40.43217
# Shear Modulus (GPa) = 3.18428 -53.29792 -25.05682
#
# Velocity S-wave (km/s) = 1.24216 -5.08191 -3.48445
# Velocity P-wave (km/s) = 3.27529 1.98025 1.84474
#
# Compressibility (1/GPa) = 0.05588708
#
# Stress axis : x y z
#
# Youngs Moduli (GPa) = 23.27070 102.94042 87.53273
#
# Poissons Ratio (x) = -0.37030 0.06239
# Poissons Ratio (y) = -0.08371 0.61242
# Poissons Ratio (z) = 0.01659 0.72022
#
# Static dielectric constant tensor:
#      x y z
#    x 1.766560 0.000000 0.000000 
#    y 0.000000 2.515190 0.000000 
#    z 0.000000 0.000000 1.720110 
# 
# From -- ./inp_files/5017.got.cif
#   From: 2010.05.17/outbox.cif.g08.bks.cpg/sg35_3_cif.got.tgz:5017.got - 2010.06.03 17:29:28.
