data_PCOD9348371
_publ_section_title
;
Structure prediction by ZEFSAII (Michael W. Deem and Ramdas Pophale) SiO2 
 PCOD9348371
Probable space group: C M M 2
;
_chemical_formula_sum "Si O2"
_cell_formula_units_Z 48
_cell_length_a 15.799693
_cell_length_b 18.730635
_cell_length_c 8.962415
_cell_angle_alpha 90.000000
_cell_angle_beta 90.000000
_cell_angle_gamma 90.000000
_cell_volume 2652.321704
_symmetry_space_group_name_H-M "C M M 2"
_symmetry_group_IT_number 35
_symmetry_cell_setting 'orthorhombic'
loop_
_space_group_symop_operation_xyz
x,y,z
-x,-y,z
-x,y,z
x,-y,z
1/2+x,1/2+y,z
1/2-x,1/2-y,z
1/2-x,1/2+y,z
1/2+x,1/2-y,z
loop_
_atom_site_type_symbol
_atom_site_label
_atom_site_fract_x
_atom_site_fract_y
_atom_site_fract_z
Si Si1 0.093325 0.149621 0.072820
Si Si2 0.158356 0.285602 0.244152
Si Si3 0.094800 0.845260 0.714225
Si Si4 0.096601 0.310960 0.573281
Si Si5 0.769642 0.581117 0.073226
Si Si6 0.268750 0.918122 0.713536
O O1 0.109536 0.226085 0.148555
O O2 0.171645 0.098587 0.112410
O O3 0.000000 0.122592 0.113938
O O4 0.095789 0.159163 0.894017
O O5 0.250000 0.250000 0.277661
O O6 0.111863 0.302259 0.397525
O O7 0.175380 0.357700 0.151494
O O8 0.108742 0.766775 0.647462
O O9 0.173340 0.894877 0.670941
O O10 0.000000 0.869611 0.669602
O O11 0.164291 0.365603 0.639099
O O12 0.000000 0.333533 0.603444
O O13 0.791300 0.500000 0.115487
O O14 0.776454 0.587609 0.893631
O O15 0.283692 0.000000 0.671427
#
# Coordination Sequence:
#
# PCOD9348371 Si02
#       6
#     8   8   8   8   8   8
#     4   9  17  31  53  79 104 129 161 203 250 303
#     4  10  19  32  52  75 101 133 169 210 253 299
#     4   9  18  33  55  81 105 132 167 207 253 304
#     4  11  22  35  53  75 101 135 176 218 255 296
#     4   9  19  34  52  75 102 134 167 202 251 303
#     4  10  20  35  54  76 106 138 168 207 253 304
#
# _framework density 18.097352000000001
#
# number of rings (size 3 to 8) (size 9 to 14) (size 15 to 20)
#    0.000    2.333    0.000    3.000    0.000    4.333 
#    0.000    4.167    0.000    3.500    0.000    4.667 
#    0.000    0.000    0.000    0.000    0.000    0.000 
#
# Total GULP energy -133903.038535 kJ/mol
# GULP energy per Si atom -5579.293272 kJ/mol
# Density = 1.805616 g / cm^3
# Si number density = 18.097352 Si / 1000 Ang^3
#
#
#
# Elastic Constant Matrix: (Units=GPa)
#
#
# Indices 1 2 3 4 5 6 
#
# 1 29.6399 -2.5874 1.8907 0.0000 0.0000 0.0000
# 2 -2.5874 58.4700 8.8403 0.0000 0.0000 0.0000
# 3 1.8907 8.8403 7.2409 0.0000 0.0000 0.0000
# 4 0.0000 0.0000 0.0000 -8.9458 0.0000 0.0000
# 5 0.0000 0.0000 0.0000 0.0000 25.3616 0.0000
# 6 0.0000 0.0000 0.0000 0.0000 0.0000 13.6393
#
#
#
# Elastic Compliance Matrix: (Units=1/GPa)
#
#
# Indices 1 2 3 4 5 6 
#
# 1 0.034912 0.003585 -0.013493 0.000000 0.000000 0.000000
# 2 0.003585 0.021343 -0.026993 0.000000 0.000000 0.000000
# 3 -0.013493 -0.026993 0.174583 0.000000 0.000000 0.000000
# 4 0.000000 0.000000 0.000000 -0.111784 0.000000 0.000000
# 5 0.000000 0.000000 0.000000 0.000000 0.039430 0.000000
# 6 0.000000 0.000000 0.000000 0.000000 0.000000 0.073317
#
#
# Mechanical properties :
#
#
# Convention : Reuss Voigt Hill
#
# Bulk Modulus (GPa) = 6.36795 12.40421 9.38608
# Shear Modulus (GPa) = 13.96853 11.82483 12.89668
#
# Velocity S-wave (km/s) = 2.78124 2.55894 2.67241
# Velocity P-wave (km/s) = 3.72023 3.94968 3.83667
#
# Compressibility (1/GPa) = 0.15703653
#
# Stress axis : x y z
#
# Youngs Moduli (GPa) = 28.64349 46.85465 5.72793
#
# Poissons Ratio (x) = -0.16797 0.07728
# Poissons Ratio (y) = -0.10268 0.15461
# Poissons Ratio (z) = 0.38647 1.26474
#
# Static dielectric constant tensor:
#      x y z
#    x 1.635210 0.000000 0.000000 
#    y 0.000000 1.580810 0.000000 
#    z 0.000000 0.000000 1.606090 
# 
# From -- ./inp_files/7296.got.cif
#   From: 2010.05.17/outbox.cif.g08.bks.cpg/sg35_4_cif.got.tgz:7296.got - 2010.06.03 17:29:28.
