data_PCOD9348846
_publ_section_title
;
Structure prediction by ZEFSAII (Michael W. Deem and Ramdas Pophale) SiO2 
 PCOD9348846
Probable space group: C M M 2
;
_chemical_formula_sum "Si O2"
_cell_formula_units_Z 48
_cell_length_a 9.018651
_cell_length_b 17.508680
_cell_length_c 16.264802
_cell_angle_alpha 90.000000
_cell_angle_beta 90.000000
_cell_angle_gamma 90.000000
_cell_volume 2568.288264
_symmetry_space_group_name_H-M "C M M 2"
_symmetry_group_IT_number 35
_symmetry_cell_setting 'orthorhombic'
loop_
_space_group_symop_operation_xyz
x,y,z
-x,-y,z
-x,y,z
x,-y,z
1/2+x,1/2+y,z
1/2-x,1/2-y,z
1/2-x,1/2+y,z
1/2+x,1/2-y,z
loop_
_atom_site_type_symbol
_atom_site_label
_atom_site_fract_x
_atom_site_fract_y
_atom_site_fract_z
Si Si1 0.827509 0.092915 0.946750
Si Si2 0.168611 0.407943 0.111508
Si Si3 0.176305 0.833376 0.264727
Si Si4 0.177992 0.165253 0.446141
Si Si5 0.172804 0.091944 0.763287
Si Si6 0.176739 0.666055 0.608964
O O1 0.780734 0.117662 0.855168
O O2 0.000000 0.113355 0.957781
O O3 0.820689 0.000000 0.946557
O O4 0.733893 0.120001 0.024474
O O5 0.169474 0.500000 0.109035
O O6 0.263645 0.381259 0.188775
O O7 0.000000 0.381469 0.121596
O O8 0.250000 0.750000 0.260708
O O9 0.208720 0.868146 0.355499
O O10 0.000000 0.824987 0.259341
O O11 0.250000 0.250000 0.442584
O O12 0.253000 0.128870 0.526403
O O13 0.000000 0.170101 0.457187
O O14 0.274030 0.122789 0.690854
O O15 0.000000 0.114875 0.750655
O O16 0.176135 0.000000 0.762597
O O17 0.250000 0.750000 0.614926
O O18 0.000000 0.671418 0.601362
#
# Coordination Sequence:
#
# PCOD9348846 Si02
#       6
#     8   8   8   8   8   8
#     4   8  15  30  52  74  97 130 169 205 245 297
#     4  10  20  33  51  76 105 135 167 206 249 294
#     4  10  20  34  54  77 101 131 167 208 251 298
#     4   9  17  31  51  73  97 129 168 206 247 297
#     4   9  18  34  55  77 102 132 166 206 251 298
#     4  11  21  33  52  76 103 134 168 207 249 296
#
# _framework density 18.689489999999999
#
# number of rings (size 3 to 8) (size 9 to 14) (size 15 to 20)
#    0.000    2.500    0.000    5.000    0.000    4.000 
#    0.000    3.333    0.000    5.000    0.000    0.000 
#    0.000    0.000    0.000    0.000    0.000    0.000 
#
# Total GULP energy -133781.137639 kJ/mol
# GULP energy per Si atom -5574.214068 kJ/mol
# Density = 1.864695 g / cm^3
# Si number density = 18.689490 Si / 1000 Ang^3
#
#
#
# Elastic Constant Matrix: (Units=GPa)
#
#
# Indices 1 2 3 4 5 6 
#
# 1 119.9853 14.4267 91.7055 0.0000 0.0000 0.0000
# 2 14.4267 4.2360 21.2766 0.0000 0.0000 0.0000
# 3 91.7055 21.2766 187.0501 0.0000 0.0000 0.0000
# 4 0.0000 0.0000 0.0000 25.2036 0.0000 0.0000
# 5 0.0000 0.0000 0.0000 0.0000 30.8978 0.0000
# 6 0.0000 0.0000 0.0000 0.0000 0.0000 20.6672
#
#
#
# Elastic Compliance Matrix: (Units=1/GPa)
#
#
# Indices 1 2 3 4 5 6 
#
# 1 0.015098 -0.033221 -0.003623 0.000000 0.000000 0.000000
# 2 -0.033221 0.623813 -0.054670 0.000000 0.000000 0.000000
# 3 -0.003623 -0.054670 0.013341 0.000000 0.000000 0.000000
# 4 0.000000 0.000000 0.000000 0.039677 0.000000 0.000000
# 5 0.000000 0.000000 0.000000 0.000000 0.032365 0.000000
# 6 0.000000 0.000000 0.000000 0.000000 0.000000 0.048386
#
#
# Mechanical properties :
#
#
# Convention : Reuss Voigt Hill
#
# Bulk Modulus (GPa) = 2.13118 62.89875 32.51497
# Shear Modulus (GPa) = 4.49593 27.61124 16.05359
#
# Velocity S-wave (km/s) = 1.55268 3.84782 2.93399
# Velocity P-wave (km/s) = 2.08739 7.31223 5.37708
#
# Compressibility (1/GPa) = 0.46922362
#
# Stress axis : x y z
#
# Youngs Moduli (GPa) = 66.23357 1.60304 74.95556
#
# Poissons Ratio (x) = 0.05325 0.27159
# Poissons Ratio (y) = 2.20032 4.09784
# Poissons Ratio (z) = 0.23999 0.08764
#
# Static dielectric constant tensor:
#      x y z
#    x 1.627000 0.000000 0.000000 
#    y 0.000000 1.640520 0.000000 
#    z 0.000000 0.000000 1.689090 
# 
# From -- ./inp_files/15383.got.cif
#   From: 2010.05.17/outbox.cif.g08.bks.cpg/sg35_8_cif.got.tgz:15383.got - 2010.06.03 17:29:28.
