data_PCOD9348642
_publ_section_title
;
Structure prediction by ZEFSAII (Michael W. Deem and Ramdas Pophale) SiO2 
 PCOD9348642
Probable space group: C M M 2
;
_chemical_formula_sum "Si O2"
_cell_formula_units_Z 48
_cell_length_a 9.027591
_cell_length_b 30.843205
_cell_length_c 9.673002
_cell_angle_alpha 90.000000
_cell_angle_beta 90.000000
_cell_angle_gamma 90.000000
_cell_volume 2693.349128
_symmetry_space_group_name_H-M "C M M 2"
_symmetry_group_IT_number 35
_symmetry_cell_setting 'orthorhombic'
loop_
_space_group_symop_operation_xyz
x,y,z
-x,-y,z
-x,y,z
x,-y,z
1/2+x,1/2+y,z
1/2-x,1/2-y,z
1/2-x,1/2+y,z
1/2+x,1/2-y,z
loop_
_atom_site_type_symbol
_atom_site_label
_atom_site_fract_x
_atom_site_fract_y
_atom_site_fract_z
Si Si1 0.677412 0.871254 0.627560
Si Si2 0.833374 0.071960 0.842973
Si Si3 0.179524 0.099204 0.354892
Si Si4 0.333617 0.647360 0.069601
Si Si5 0.324132 0.796276 0.850825
Si Si6 0.171694 0.500000 0.007295
Si Si7 0.322071 0.500000 0.303340
O O1 0.500000 0.877341 0.628395
O O2 0.763934 0.910135 0.703315
O O3 0.741224 0.872984 0.473530
O O4 0.709823 0.829009 0.722686
O O5 0.000000 0.054137 0.823962
O O6 0.844916 0.111190 0.950778
O O7 0.719204 0.040056 0.914129
O O8 0.215812 0.121801 0.207390
O O9 0.000000 0.100419 0.369480
O O10 0.224687 0.047800 0.360320
O O11 0.500000 0.664701 0.095624
O O12 0.233061 0.683277 0.995720
O O13 0.500000 0.791932 0.857014
O O14 0.250000 0.750000 0.828005
O O15 0.269157 0.500000 0.145077
O O16 0.000000 0.500000 0.043446
O O17 0.500000 0.500000 0.308603
#
# Coordination Sequence:
#
# PCOD9348642 Si02
#       7
#     8   8   8   8   8   4   4
#     4  10  22  38  55  82 117 149 185 234 290 340
#     4  10  19  35  56  76 104 146 191 232 276 330
#     4  10  20  36  58  83 114 155 197 233 275 335
#     4   9  18  34  58  83 108 142 186 230 275 332
#     4  10  21  38  61  86 112 143 183 233 288 347
#     4  12  22  31  50  81 112 144 188 242 290 329
#     4  10  20  37  56  79 112 152 200 238 272 327
#
# _framework density 17.821677999999999
#
# number of rings (size 3 to 8) (size 9 to 14) (size 15 to 20)
#    0.000    2.000    1.667    2.250    0.000    4.667 
#    0.000    3.333    0.000    2.000    0.000    0.000 
#    0.000    0.000    0.000    0.000    0.000    0.000 
#
# Total GULP energy -133704.665736 kJ/mol
# GULP energy per Si atom -5571.027739 kJ/mol
# Density = 1.778111 g / cm^3
# Si number density = 17.821678 Si / 1000 Ang^3
#
#
#
# Elastic Constant Matrix: (Units=GPa)
#
#
# Indices 1 2 3 4 5 6 
#
# 1 28.9332 35.7494 33.7401 0.0000 0.0000 0.0000
# 2 35.7494 81.4820 30.5092 0.0000 0.0000 0.0000
# 3 33.7401 30.5092 105.0000 0.0000 0.0000 0.0000
# 4 0.0000 0.0000 0.0000 27.5893 0.0000 0.0000
# 5 0.0000 0.0000 0.0000 0.0000 24.8143 0.0000
# 6 0.0000 0.0000 0.0000 0.0000 0.0000 33.8608
#
#
#
# Elastic Compliance Matrix: (Units=1/GPa)
#
#
# Indices 1 2 3 4 5 6 
#
# 1 0.113365 -0.040505 -0.024659 0.000000 0.000000 0.000000
# 2 -0.040505 0.028243 0.004809 0.000000 0.000000 0.000000
# 3 -0.024659 0.004809 0.016050 0.000000 0.000000 0.000000
# 4 0.000000 0.000000 0.000000 0.036246 0.000000 0.000000
# 5 0.000000 0.000000 0.000000 0.000000 0.040299 0.000000
# 6 0.000000 0.000000 0.000000 0.000000 0.000000 0.029533
#
#
# Mechanical properties :
#
#
# Convention : Reuss Voigt Hill
#
# Bulk Modulus (GPa) = 27.06414 46.15695 36.61055
# Shear Modulus (GPa) = 12.60204 24.94730 18.77467
#
# Velocity S-wave (km/s) = 2.66206 3.74549 3.24925
# Velocity P-wave (km/s) = 4.96667 6.68285 5.88762
#
# Compressibility (1/GPa) = 0.03694926
#
# Stress axis : x y z
#
# Youngs Moduli (GPa) = 8.82108 35.40703 62.30461
#
# Poissons Ratio (x) = 1.43415 1.53636
# Poissons Ratio (y) = 0.35730 -0.29963
# Poissons Ratio (z) = 0.21752 -0.17028
#
# Static dielectric constant tensor:
#      x y z
#    x 1.608370 0.000000 0.000000 
#    y 0.000000 1.573220 0.000000 
#    z 0.000000 0.000000 1.583200 
# 
# From -- ./inp_files/5358.got.cif
#   From: 2010.05.17/outbox.cif.g08.bks.cpg/sg35_3_cif.got.tgz:5358.got - 2010.06.03 17:29:28.
