data_PCOD9348036
_publ_section_title
;
Structure prediction by ZEFSAII (Michael W. Deem and Ramdas Pophale) SiO2 
 PCOD9348036
Probable space group: P N N 2
;
_chemical_formula_sum "Si O2"
_cell_formula_units_Z 20
_cell_length_a 11.521430
_cell_length_b 11.521474
_cell_length_c 6.340784
_cell_angle_alpha 90.000000
_cell_angle_beta 90.000000
_cell_angle_gamma 90.000000
_cell_volume 841.700119
_symmetry_space_group_name_H-M "P N N 2"
_symmetry_group_IT_number 34
_symmetry_cell_setting 'orthorhombic'
loop_
_space_group_symop_operation_xyz
x,y,z
-x,-y,z
1/2-x,1/2+y,1/2+z
1/2+x,1/2-y,1/2+z
loop_
_atom_site_type_symbol
_atom_site_label
_atom_site_fract_x
_atom_site_fract_y
_atom_site_fract_z
Si Si1 0.346817 0.160561 0.616100
Si Si2 0.000000 0.500000 0.399927
Si Si3 0.040447 0.804613 0.802218
Si Si4 0.804613 0.040446 0.497635
Si Si5 0.839440 0.653182 0.683756
Si Si6 0.500000 0.500000 0.649926
O O1 0.444918 0.106834 0.766558
O O2 0.402140 0.186118 0.389041
O O3 0.285135 0.285135 0.649930
O O4 0.243622 0.069097 0.620469
O O5 0.106834 0.444918 0.533297
O O6 0.124825 0.875175 0.649927
O O7 0.930903 0.756377 0.679384
O O8 0.001657 0.888488 0.994461
O O9 0.686116 0.097860 0.410815
O O10 0.888488 0.001658 0.305392
#
# Coordination Sequence:
#
# PCOD9348036 Si02
#       6
#     4   2   4   4   4   2
#     4  12  26  46  78 105 153 201 245 321 380 445
#     4  12  28  50  72 124 150 200 276 306 376 480
#     4  12  27  48  75 114 149 201 258 313 381 458
#     4  12  27  48  75 114 149 201 258 313 381 458
#     4  12  26  46  78 105 153 201 245 321 380 445
#     4  12  26  48  76 114 150 198 266 312 368 474
#
# _framework density 23.761434999999999
#
# number of rings (size 3 to 8) (size 9 to 14) (size 15 to 20)
#    0.000    0.000    2.000    7.800    8.400    0.000 
#    0.000    0.000    0.000    0.000    0.000    0.000 
#    0.000    0.000    0.000    0.000    0.000    0.000 
#
# Total GULP energy -111754.469169 kJ/mol
# GULP energy per Si atom -5587.723458 kJ/mol
# Density = 2.370735 g / cm^3
# Si number density = 23.761435 Si / 1000 Ang^3
#
#
#
# Elastic Constant Matrix: (Units=GPa)
#
#
# Indices 1 2 3 4 5 6 
#
# 1 114.2858 34.7818 41.8975 0.0000 0.0000 0.0000
# 2 34.7818 114.2850 41.8980 0.0000 0.0000 0.0000
# 3 41.8975 41.8980 97.5093 0.0000 0.0000 0.0000
# 4 0.0000 0.0000 0.0000 43.4863 0.0000 0.0000
# 5 0.0000 0.0000 0.0000 0.0000 43.4861 0.0000
# 6 0.0000 0.0000 0.0000 0.0000 0.0000 49.0426
#
#
#
# Elastic Compliance Matrix: (Units=1/GPa)
#
#
# Indices 1 2 3 4 5 6 
#
# 1 0.010711 -0.001867 -0.003800 0.000000 0.000000 0.000000
# 2 -0.001867 0.010711 -0.003800 0.000000 0.000000 0.000000
# 3 -0.003800 -0.003800 0.013521 0.000000 0.000000 0.000000
# 4 0.000000 0.000000 0.000000 0.022996 0.000000 0.000000
# 5 0.000000 0.000000 0.000000 0.000000 0.022996 0.000000
# 6 0.000000 0.000000 0.000000 0.000000 0.000000 0.020390
#
#
# Mechanical properties :
#
#
# Convention : Reuss Voigt Hill
#
# Bulk Modulus (GPa) = 62.46413 62.58163 62.52288
# Shear Modulus (GPa) = 39.80973 41.03652 40.42313
#
# Velocity S-wave (km/s) = 4.09760 4.16025 4.12904
# Velocity P-wave (km/s) = 6.98084 7.03361 7.00727
#
# Compressibility (1/GPa) = 0.01600919
#
# Stress axis : x y z
#
# Youngs Moduli (GPa) = 93.35926 93.35805 73.95716
#
# Poissons Ratio (x) = 0.17427 0.28106
# Poissons Ratio (y) = 0.17427 0.28107
# Poissons Ratio (z) = 0.35480 0.35480
#
# Static dielectric constant tensor:
#      x y z
#    x 2.037310 0.000000 0.000000 
#    y 0.000000 2.037300 0.000000 
#    z 0.000000 0.000000 1.682770 
# 
# From -- ./inp_files/773.got.cif
#   From: 2010.05.17/outbox.cif.g08.bks.cpg/sg34_1_cif.got.tgz:773.got - 2010.06.03 17:23:11.
