data_PCOD9348808
_publ_section_title
;
Structure prediction by ZEFSAII (Michael W. Deem and Ramdas Pophale) SiO2 
 PCOD9348808
Probable space group: C M M 2
;
_chemical_formula_sum "Si O2"
_cell_formula_units_Z 64
_cell_length_a 7.764759
_cell_length_b 19.023241
_cell_length_c 21.279050
_cell_angle_alpha 90.000000
_cell_angle_beta 90.000000
_cell_angle_gamma 90.000000
_cell_volume 3143.147239
_symmetry_space_group_name_H-M "C M M 2"
_symmetry_group_IT_number 35
_symmetry_cell_setting 'orthorhombic'
loop_
_space_group_symop_operation_xyz
x,y,z
-x,-y,z
-x,y,z
x,-y,z
1/2+x,1/2+y,z
1/2-x,1/2-y,z
1/2-x,1/2+y,z
1/2+x,1/2-y,z
loop_
_atom_site_type_symbol
_atom_site_label
_atom_site_fract_x
_atom_site_fract_y
_atom_site_fract_z
Si Si1 0.795086 0.831749 0.161320
Si Si2 0.706262 0.920703 0.284060
Si Si3 0.707241 0.419506 0.043032
Si Si4 0.792791 0.331051 0.542427
Si Si5 0.707291 0.168110 0.783206
Si Si6 0.211095 0.418998 0.661691
Si Si7 0.207603 0.331049 0.401070
Si Si8 0.207127 0.580486 0.902173
O O1 0.750000 0.750000 0.164399
O O2 0.738564 0.873827 0.222944
O O3 0.726080 0.869708 0.098413
O O4 0.000000 0.836575 0.159038
O O5 0.500000 0.925300 0.291131
O O6 0.773807 0.881851 0.346472
O O7 0.773856 0.000000 0.276701
O O8 0.500000 0.421838 0.047370
O O9 0.771093 0.500000 0.050367
O O10 0.750361 0.395376 0.972620
O O11 0.750000 0.250000 0.557029
O O12 0.730367 0.382069 0.597323
O O13 0.728238 0.346446 0.471779
O O14 0.000000 0.336948 0.540760
O O15 0.500000 0.162386 0.783412
O O16 0.750000 0.250000 0.780634
O O17 0.768629 0.126152 0.721717
O O18 0.771764 0.130575 0.846760
O O19 0.264401 0.500000 0.666080
O O20 0.000000 0.418320 0.661544
O O21 0.250000 0.250000 0.386504
O O22 0.000000 0.336803 0.402516
O O23 0.271106 0.500000 0.894985
O O24 0.000000 0.577917 0.897448
#
# Coordination Sequence:
#
# PCOD9348808 Si02
#       8
#     8   8   8   8   8   8   8   8
#     4  11  23  38  56  78 105 136 172 213 256 304
#     4  10  21  36  54  77 105 136 171 213 259 306
#     4   9  19  36  56  77 102 132 165 204 251 301
#     4   9  17  30  50  74 100 132 168 206 249 297
#     4  10  20  33  50  73 101 131 165 206 249 294
#     4   9  17  30  50  74  98 128 168 210 249 292
#     4   9  18  32  50  74 103 134 168 207 251 299
#     4   9  18  33  53  75  99 130 167 205 245 292
#
# _framework density 20.361757000000001
#
# number of rings (size 3 to 8) (size 9 to 14) (size 15 to 20)
#    0.000    2.500    0.000    1.875    0.000    6.250 
#    0.000    6.250    0.000    2.250    0.000    3.500 
#    0.000    0.000    0.000    0.000    0.000    0.000 
#
# Total GULP energy -178657.476641 kJ/mol
# GULP energy per Si atom -5583.046145 kJ/mol
# Density = 2.031541 g / cm^3
# Si number density = 20.361757 Si / 1000 Ang^3
#
#
#
# Elastic Constant Matrix: (Units=GPa)
#
#
# Indices 1 2 3 4 5 6 
#
# 1 29.1595 2.4973 6.8334 0.0000 0.0000 0.0000
# 2 2.4973 175.3386 149.9005 0.0000 0.0000 0.0000
# 3 6.8334 149.9005 205.9824 0.0000 0.0000 0.0000
# 4 0.0000 0.0000 0.0000 52.0480 0.0000 0.0000
# 5 0.0000 0.0000 0.0000 0.0000 37.2484 0.0000
# 6 0.0000 0.0000 0.0000 0.0000 0.0000 19.9203
#
#
#
# Elastic Compliance Matrix: (Units=1/GPa)
#
#
# Indices 1 2 3 4 5 6 
#
# 1 0.034674 0.001296 -0.002093 0.000000 0.000000 0.000000
# 2 0.001296 0.015143 -0.011063 0.000000 0.000000 0.000000
# 3 -0.002093 -0.011063 0.012975 0.000000 0.000000 0.000000
# 4 0.000000 0.000000 0.000000 0.019213 0.000000 0.000000
# 5 0.000000 0.000000 0.000000 0.000000 0.026847 0.000000
# 6 0.000000 0.000000 0.000000 0.000000 0.000000 0.050200
#
#
# Mechanical properties :
#
#
# Convention : Reuss Voigt Hill
#
# Bulk Modulus (GPa) = 25.59461 80.99364 53.29412
# Shear Modulus (GPa) = 25.53687 38.59328 32.06507
#
# Velocity S-wave (km/s) = 3.54525 4.35832 3.97264
# Velocity P-wave (km/s) = 5.41808 8.07405 6.87553
#
# Compressibility (1/GPa) = 0.03907073
#
# Stress axis : x y z
#
# Youngs Moduli (GPa) = 28.84026 66.03898 77.07143
#
# Poissons Ratio (x) = -0.08556 0.16132
# Poissons Ratio (y) = -0.03737 0.85262
# Poissons Ratio (z) = 0.06037 0.73057
#
# Static dielectric constant tensor:
#      x y z
#    x 1.752660 0.000000 0.000000 
#    y 0.000000 1.676870 0.000000 
#    z 0.000000 0.000000 1.720300 
# 
# From -- ./inp_files/18380.got.cif
#   From: 2010.05.17/outbox.cif.g08.bks.cpg/sg35_10_cif.got.tgz:18380.got - 2010.06.03 17:29:28.
