data_PCOD9348292
_publ_section_title
;
Structure prediction by ZEFSAII (Michael W. Deem and Ramdas Pophale) SiO2 
 PCOD9348292
Probable space group: C M M 2
;
_chemical_formula_sum "Si O2"
_cell_formula_units_Z 64
_cell_length_a 30.320999
_cell_length_b 7.760704
_cell_length_c 12.793297
_cell_angle_alpha 90.000000
_cell_angle_beta 90.000000
_cell_angle_gamma 90.000000
_cell_volume 3010.420119
_symmetry_space_group_name_H-M "C M M 2"
_symmetry_group_IT_number 35
_symmetry_cell_setting 'orthorhombic'
loop_
_space_group_symop_operation_xyz
x,y,z
-x,-y,z
-x,y,z
x,-y,z
1/2+x,1/2+y,z
1/2-x,1/2-y,z
1/2-x,1/2+y,z
1/2+x,1/2-y,z
loop_
_atom_site_type_symbol
_atom_site_label
_atom_site_fract_x
_atom_site_fract_y
_atom_site_fract_z
Si Si1 0.079952 0.798764 0.479950
Si Si2 0.895416 0.792751 0.255009
Si Si3 0.297540 0.204130 0.313887
Si Si4 0.949893 0.204049 0.056874
Si Si5 0.322073 0.209864 0.541971
Si Si6 0.112785 0.697971 0.869217
Si Si7 0.798578 0.707145 0.773981
Si Si8 0.547944 0.709326 0.692894
O O1 0.083934 0.723581 0.363876
O O2 0.128629 0.779319 0.528574
O O3 0.049901 0.730138 0.572880
O O4 0.068395 0.000000 0.467642
O O5 0.842753 0.760476 0.257768
O O6 0.922268 0.725312 0.155637
O O7 0.899693 0.000000 0.257080
O O8 0.250000 0.250000 0.266907
O O9 0.299053 0.270489 0.434484
O O10 0.299945 0.000000 0.319097
O O11 0.000000 0.273575 0.045940
O O12 0.954432 0.000000 0.074485
O O13 0.919336 0.222586 0.955173
O O14 0.303079 0.268761 0.653235
O O15 0.322768 0.000000 0.542161
O O16 0.118551 0.500000 0.900623
O O17 0.161079 0.773959 0.844806
O O18 0.086535 0.710115 0.760358
O O19 0.803327 0.500000 0.770456
O O20 0.750000 0.750000 0.813142
O O21 0.500000 0.749783 0.738749
O O22 0.553033 0.500000 0.694604
#
# Coordination Sequence:
#
# PCOD9348292 Si02
#       8
#     8   8   8   8   8   8   8   8
#     4   9  17  30  51  79 111 147 182 221 271 329
#     4   9  19  36  57  82 112 145 185 232 283 334
#     4  10  19  31  52  81 115 153 190 229 273 326
#     4  10  22  41  64  86 108 141 187 237 286 335
#     4   9  17  31  49  74 111 150 185 224 268 321
#     4  11  23  39  58  81 112 146 186 234 280 331
#     4  10  21  35  53  79 110 145 184 225 272 328
#     4  10  20  33  52  81 114 147 183 224 275 336
#
# _framework density 21.259491000000001
#
# number of rings (size 3 to 8) (size 9 to 14) (size 15 to 20)
#    0.000    2.250    1.250    1.500    0.000    5.000 
#    0.000    3.125    0.000    1.500    0.000    5.250 
#    0.000    0.000    0.000    0.000    0.000    0.000 
#
# Total GULP energy -178463.001106 kJ/mol
# GULP energy per Si atom -5576.968785 kJ/mol
# Density = 2.121110 g / cm^3
# Si number density = 21.259491 Si / 1000 Ang^3
#
#
#
# Elastic Constant Matrix: (Units=GPa)
#
#
# Indices 1 2 3 4 5 6 
#
# 1 161.0172 1.6571 72.1569 0.0000 0.0000 0.0000
# 2 1.6571 31.9770 2.8408 0.0000 0.0000 0.0000
# 3 72.1569 2.8408 111.0920 0.0000 0.0000 0.0000
# 4 0.0000 0.0000 0.0000 -14.2413 0.0000 0.0000
# 5 0.0000 0.0000 0.0000 0.0000 12.6405 0.0000
# 6 0.0000 0.0000 0.0000 0.0000 0.0000 13.4226
#
#
#
# Elastic Compliance Matrix: (Units=1/GPa)
#
#
# Indices 1 2 3 4 5 6 
#
# 1 0.008761 0.000052 -0.005691 0.000000 0.000000 0.000000
# 2 0.000052 0.031344 -0.000835 0.000000 0.000000 0.000000
# 3 -0.005691 -0.000835 0.012720 0.000000 0.000000 0.000000
# 4 0.000000 0.000000 0.000000 -0.070218 0.000000 0.000000
# 5 0.000000 0.000000 0.000000 0.000000 0.079111 0.000000
# 6 0.000000 0.000000 0.000000 0.000000 0.000000 0.074501
#
#
# Mechanical properties :
#
#
# Convention : Reuss Voigt Hill
#
# Bulk Modulus (GPa) = 25.07878 50.82174 37.95026
# Shear Modulus (GPa) = 30.77689 17.52644 24.15166
#
# Velocity S-wave (km/s) = 3.80896 2.87436 3.37418
# Velocity P-wave (km/s) = 5.58269 5.91382 5.75064
#
# Compressibility (1/GPa) = 0.03987434
#
# Stress axis : x y z
#
# Youngs Moduli (GPa) = 114.14838 31.90409 78.61842
#
# Poissons Ratio (x) = -0.00165 0.44746
# Poissons Ratio (y) = -0.00590 0.06565
# Poissons Ratio (z) = 0.64967 0.02664
#
# Static dielectric constant tensor:
#      x y z
#    x 1.802380 0.000000 0.000000 
#    y 0.000000 1.782650 0.000000 
#    z 0.000000 0.000000 1.781540 
# 
# From -- ./inp_files/14521.got.cif
#   From: 2010.05.17/outbox.cif.g08.bks.cpg/sg35_8_cif.got.tgz:14521.got - 2010.06.03 17:29:28.
