data_PCOD9348554
_publ_section_title
;
Structure prediction by ZEFSAII (Michael W. Deem and Ramdas Pophale) SiO2 
 PCOD9348554
Probable space group: C M M 2
;
_chemical_formula_sum "Si O2"
_cell_formula_units_Z 48
_cell_length_a 9.204559
_cell_length_b 15.497372
_cell_length_c 17.539036
_cell_angle_alpha 90.000000
_cell_angle_beta 90.000000
_cell_angle_gamma 90.000000
_cell_volume 2501.881659
_symmetry_space_group_name_H-M "C M M 2"
_symmetry_group_IT_number 35
_symmetry_cell_setting 'orthorhombic'
loop_
_space_group_symop_operation_xyz
x,y,z
-x,-y,z
-x,y,z
x,-y,z
1/2+x,1/2+y,z
1/2-x,1/2-y,z
1/2-x,1/2+y,z
1/2+x,1/2-y,z
loop_
_atom_site_type_symbol
_atom_site_label
_atom_site_fract_x
_atom_site_fract_y
_atom_site_fract_z
Si Si1 0.168441 0.895219 0.010070
Si Si2 0.169738 0.104373 0.705355
Si Si3 0.826852 0.500000 0.270087
Si Si4 0.326167 0.162743 0.163034
Si Si5 0.825092 0.837643 0.536491
Si Si6 0.325120 0.500000 0.432592
Si Si7 0.666467 0.105506 0.857239
O O1 0.260846 0.859372 0.080202
O O2 0.000000 0.869064 0.015897
O O3 0.173850 0.000000 0.013243
O O4 0.237724 0.867981 0.929636
O O5 0.216522 0.141751 0.624034
O O6 0.264402 0.133312 0.777164
O O7 0.000000 0.125445 0.718334
O O8 0.178763 0.000000 0.699825
O O9 0.791964 0.583930 0.219549
O O10 0.745132 0.500000 0.349867
O O11 0.000000 0.500000 0.283492
O O12 0.500000 0.172191 0.158352
O O13 0.250000 0.250000 0.190248
O O14 0.750000 0.750000 0.511688
O O15 0.783472 0.916299 0.481808
O O16 0.000000 0.830250 0.535028
O O17 0.500000 0.500000 0.425692
O O18 0.500000 0.133488 0.865156
O O19 0.667516 0.000000 0.856674
#
# Coordination Sequence:
#
# PCOD9348554 Si02
#       7
#     8   8   4   8   8   4   8
#     4  10  19  33  56  85 117 157 204 247 295 351
#     4   9  16  31  54  77 109 152 198 243 290 346
#     4  10  24  44  66  91 122 155 190 239 298 353
#     4  11  23  41  63  90 123 158 197 244 297 353
#     4  10  21  38  60  88 119 155 195 241 293 349
#     4  10  22  42  66  89 118 155 194 235 290 357
#     4   9  17  28  47  79 116 153 197 247 298 344
#
# _framework density 19.185561
#
# number of rings (size 3 to 8) (size 9 to 14) (size 15 to 20)
#    0.000    2.167    1.667    1.500    0.000    6.000 
#    0.000    4.167    0.000    2.000    0.000    0.000 
#    0.000    0.000    0.000    0.000    0.000    0.000 
#
# Total GULP energy -134098.767492 kJ/mol
# GULP energy per Si atom -5587.448645 kJ/mol
# Density = 1.914189 g / cm^3
# Si number density = 19.185561 Si / 1000 Ang^3
#
#
#
# Elastic Constant Matrix: (Units=GPa)
#
#
# Indices 1 2 3 4 5 6 
#
# 1 84.7653 57.8403 73.8189 0.0000 0.0000 0.0000
# 2 57.8403 109.0997 74.0936 0.0000 0.0000 0.0000
# 3 73.8189 74.0936 161.5314 0.0000 0.0000 0.0000
# 4 0.0000 0.0000 0.0000 -10.2783 0.0000 0.0000
# 5 0.0000 0.0000 0.0000 0.0000 35.2047 0.0000
# 6 0.0000 0.0000 0.0000 0.0000 0.0000 25.5803
#
#
#
# Elastic Compliance Matrix: (Units=1/GPa)
#
#
# Indices 1 2 3 4 5 6 
#
# 1 0.023055 -0.007360 -0.007160 0.000000 0.000000 0.000000
# 2 -0.007360 0.015663 -0.003821 0.000000 0.000000 0.000000
# 3 -0.007160 -0.003821 0.011215 0.000000 0.000000 0.000000
# 4 0.000000 0.000000 0.000000 -0.097292 0.000000 0.000000
# 5 0.000000 0.000000 0.000000 0.000000 0.028405 0.000000
# 6 0.000000 0.000000 0.000000 0.000000 0.000000 0.039093
#
#
# Mechanical properties :
#
#
# Convention : Reuss Voigt Hill
#
# Bulk Modulus (GPa) = 75.46496 85.21134 80.33815
# Shear Modulus (GPa) = 81.64842 20.07756 50.86299
#
# Velocity S-wave (km/s) = 6.53067 3.23846 5.15448
# Velocity P-wave (km/s) = 9.81253 7.64815 8.79716
#
# Compressibility (1/GPa) = 0.01325118
#
# Stress axis : x y z
#
# Youngs Moduli (GPa) = 43.37489 63.84484 89.16333
#
# Poissons Ratio (x) = 0.46991 0.63839
# Poissons Ratio (y) = 0.31925 0.34069
# Poissons Ratio (z) = 0.31056 0.24395
#
# Static dielectric constant tensor:
#      x y z
#    x 1.638830 0.000000 0.000000 
#    y 0.000000 1.690090 0.000000 
#    z 0.000000 0.000000 1.628460 
# 
# From -- ./inp_files/17887.got.cif
#   From: 2010.05.17/outbox.cif.g08.bks.cpg/sg35_9_cif.got.tgz:17887.got - 2010.06.03 17:29:28.
