data_PCOD9348723
_publ_section_title
;
Structure prediction by ZEFSAII (Michael W. Deem and Ramdas Pophale) SiO2 
 PCOD9348723
Probable space group: C M M 2
;
_chemical_formula_sum "Si O2"
_cell_formula_units_Z 32
_cell_length_a 16.543491
_cell_length_b 10.789125
_cell_length_c 8.846085
_cell_angle_alpha 90.000000
_cell_angle_beta 90.000000
_cell_angle_gamma 90.000000
_cell_volume 1578.935875
_symmetry_space_group_name_H-M "C M M 2"
_symmetry_group_IT_number 35
_symmetry_cell_setting 'orthorhombic'
loop_
_space_group_symop_operation_xyz
x,y,z
-x,-y,z
-x,y,z
x,-y,z
1/2+x,1/2+y,z
1/2-x,1/2-y,z
1/2-x,1/2+y,z
1/2+x,1/2-y,z
loop_
_atom_site_type_symbol
_atom_site_label
_atom_site_fract_x
_atom_site_fract_y
_atom_site_fract_z
Si Si1 0.162993 0.000000 0.974061
Si Si2 0.905783 0.000000 0.640710
Si Si3 0.905580 0.742073 0.942670
Si Si4 0.344914 0.240910 0.603666
Si Si5 0.843519 0.500000 0.102358
Si Si6 0.094897 0.500000 0.430032
O O1 0.150540 0.000000 0.791234
O O2 0.121631 0.129323 0.019800
O O3 0.253955 0.000000 0.032368
O O4 0.885902 0.871634 0.558528
O O5 0.000000 0.000000 0.686533
O O6 0.858554 0.727478 0.784135
O O7 0.000000 0.749663 0.906393
O O8 0.887204 0.623280 0.043003
O O9 0.250000 0.250000 0.571186
O O10 0.384630 0.122780 0.525130
O O11 0.849274 0.500000 0.282118
O O12 0.000000 0.500000 0.388465
#
# Coordination Sequence:
#
# PCOD9348723 Si02
#       6
#     4   4   8   8   4   4
#     4  10  20  37  61  89 120 152 193 250 303 351
#     4  10  19  37  64  96 122 150 194 254 309 357
#     4  11  21  39  65  94 121 155 198 250 304 358
#     4  11  22  39  64  92 121 156 199 251 304 356
#     4  12  25  40  59  87 125 165 204 245 293 355
#     4  12  26  44  60  86 125 167 205 245 293 357
#
# _framework density 20.266812999999999
#
# number of rings (size 3 to 8) (size 9 to 14) (size 15 to 20)
#    0.000    1.000    0.000   11.250    0.000    2.000 
#    0.000    1.250    0.000    0.000    0.000    0.000 
#    0.000    0.000    0.000    0.000    0.000    0.000 
#
# Total GULP energy -89442.992779 kJ/mol
# GULP energy per Si atom -5590.187049 kJ/mol
# Density = 2.022068 g / cm^3
# Si number density = 20.266813 Si / 1000 Ang^3
#
#
#
# Elastic Constant Matrix: (Units=GPa)
#
#
# Indices 1 2 3 4 5 6 
#
# 1 118.3628 27.6581 20.4197 0.0000 0.0000 0.0000
# 2 27.6581 210.1917 46.8670 0.0000 0.0000 0.0000
# 3 20.4197 46.8670 41.1114 0.0000 0.0000 0.0000
# 4 0.0000 0.0000 0.0000 -9.4727 0.0000 0.0000
# 5 0.0000 0.0000 0.0000 0.0000 12.2899 0.0000
# 6 0.0000 0.0000 0.0000 0.0000 0.0000 36.7999
#
#
#
# Elastic Compliance Matrix: (Units=1/GPa)
#
#
# Indices 1 2 3 4 5 6 
#
# 1 0.009251 -0.000258 -0.004300 0.000000 0.000000 0.000000
# 2 -0.000258 0.006386 -0.007152 0.000000 0.000000 0.000000
# 3 -0.004300 -0.007152 0.034613 0.000000 0.000000 0.000000
# 4 0.000000 0.000000 0.000000 -0.105567 0.000000 0.000000
# 5 0.000000 0.000000 0.000000 0.000000 0.081367 0.000000
# 6 0.000000 0.000000 0.000000 0.000000 0.000000 0.027174
#
#
# Mechanical properties :
#
#
# Convention : Reuss Voigt Hill
#
# Bulk Modulus (GPa) = 37.27286 62.17285 49.72285
# Shear Modulus (GPa) = 58.41858 26.23818 42.32838
#
# Velocity S-wave (km/s) = 5.37469 3.60201 4.57503
# Velocity P-wave (km/s) = 7.54635 6.93131 7.24536
#
# Compressibility (1/GPa) = 0.02682917
#
# Stress axis : x y z
#
# Youngs Moduli (GPa) = 108.09821 156.58604 28.89065
#
# Poissons Ratio (x) = 0.04047 0.12423
# Poissons Ratio (y) = 0.02794 0.20663
# Poissons Ratio (z) = 0.46484 1.11990
#
# Static dielectric constant tensor:
#      x y z
#    x 1.692040 0.000000 0.000000 
#    y 0.000000 1.742160 0.000000 
#    z 0.000000 0.000000 1.684040 
# 
# From -- ./inp_files/8172.got.cif
#   From: 2010.05.17/outbox.cif.g08.bks.cpg/sg35_5_cif.got.tgz:8172.got - 2010.06.03 17:29:28.
