data_PCOD9348336
_publ_section_title
;
Structure prediction by ZEFSAII (Michael W. Deem and Ramdas Pophale) SiO2 
 PCOD9348336
Probable space group: C M M 2
;
_chemical_formula_sum "Si O2"
_cell_formula_units_Z 64
_cell_length_a 30.880569
_cell_length_b 19.444059
_cell_length_c 5.320519
_cell_angle_alpha 90.000000
_cell_angle_beta 90.000000
_cell_angle_gamma 90.000000
_cell_volume 3194.671612
_symmetry_space_group_name_H-M "C M M 2"
_symmetry_group_IT_number 35
_symmetry_cell_setting 'orthorhombic'
loop_
_space_group_symop_operation_xyz
x,y,z
-x,-y,z
-x,y,z
x,-y,z
1/2+x,1/2+y,z
1/2-x,1/2-y,z
1/2-x,1/2+y,z
1/2+x,1/2-y,z
loop_
_atom_site_type_symbol
_atom_site_label
_atom_site_fract_x
_atom_site_fract_y
_atom_site_fract_z
Si Si1 0.764264 0.917574 0.010400
Si Si2 0.190507 0.917338 0.510187
Si Si3 0.394444 0.662037 0.406386
Si Si4 0.046633 0.329161 0.767975
Si Si5 0.181180 0.576661 0.686527
Si Si6 0.050044 0.178090 0.917963
Si Si7 0.369513 0.183994 0.415101
Si Si8 0.599043 0.926015 0.026465
O O1 0.777517 0.892430 0.286315
O O2 0.770181 0.000000 0.023094
O O3 0.794944 0.890981 0.784640
O O4 0.715938 0.908283 0.904134
O O5 0.142311 0.894671 0.442962
O O6 0.193075 0.000000 0.520873
O O7 0.423721 0.651522 0.159047
O O8 0.368313 0.734500 0.373103
O O9 0.424701 0.664452 0.655880
O O10 0.088039 0.322660 0.591537
O O11 0.000000 0.327827 0.636524
O O12 0.048203 0.261329 0.940997
O O13 0.053840 0.399263 0.919396
O O14 0.193078 0.500000 0.572718
O O15 0.172963 0.644589 0.520679
O O16 0.134190 0.566893 0.807252
O O17 0.000000 0.154072 0.908183
O O18 0.382336 0.137023 0.182369
O O19 0.596596 0.000000 0.159129
#
# Coordination Sequence:
#
# PCOD9348336 Si02
#       8
#     8   8   8   8   8   8   8   8
#     4   9  19  36  59  85 111 146 191 232 271 335
#     4  10  21  38  61  88 115 146 187 228 283 345
#     4  11  21  37  61  84 117 150 183 235 283 335
#     4   9  19  34  49  71 105 142 185 233 275 326
#     4   9  19  34  55  77 106 147 192 238 277 327
#     4  10  20  36  60  87 111 148 193 227 268 333
#     4  10  20  33  52  77 106 145 188 232 285 340
#     4  10  19  32  50  74 103 141 187 233 284 329
#
# _framework density 20.033358
#
# number of rings (size 3 to 8) (size 9 to 14) (size 15 to 20)
#    0.000    2.250    1.250    1.500    1.750    1.750 
#    0.000    0.625    0.000    2.250    0.000    0.000 
#    0.000    0.000    0.000    0.000    0.000    0.000 
#
# Total GULP energy -178144.385742 kJ/mol
# GULP energy per Si atom -5567.012054 kJ/mol
# Density = 1.998776 g / cm^3
# Si number density = 20.033358 Si / 1000 Ang^3
#
#
#
# Elastic Constant Matrix: (Units=GPa)
#
#
# Indices 1 2 3 4 5 6 
#
# 1 65.4857 1.2186 -5.3306 0.0000 0.0000 0.0000
# 2 1.2186 11.6011 4.0000 0.0000 0.0000 0.0000
# 3 -5.3306 4.0000 47.0383 0.0000 0.0000 0.0000
# 4 0.0000 0.0000 0.0000 7.8497 0.0000 0.0000
# 5 0.0000 0.0000 0.0000 0.0000 20.6954 0.0000
# 6 0.0000 0.0000 0.0000 0.0000 0.0000 27.3309
#
#
#
# Elastic Compliance Matrix: (Units=1/GPa)
#
#
# Indices 1 2 3 4 5 6 
#
# 1 0.015472 -0.002297 0.001949 0.000000 0.000000 0.000000
# 2 -0.002297 0.089144 -0.007841 0.000000 0.000000 0.000000
# 3 0.001949 -0.007841 0.022147 0.000000 0.000000 0.000000
# 4 0.000000 0.000000 0.000000 0.127394 0.000000 0.000000
# 5 0.000000 0.000000 0.000000 0.000000 0.048320 0.000000
# 6 0.000000 0.000000 0.000000 0.000000 0.000000 0.036589
#
#
# Mechanical properties :
#
#
# Convention : Reuss Voigt Hill
#
# Bulk Modulus (GPa) = 9.05929 13.76680 11.41304
# Shear Modulus (GPa) = 12.74736 19.45767 16.10251
#
# Velocity S-wave (km/s) = 2.52525 3.11989 2.83819
# Velocity P-wave (km/s) = 3.61032 4.45703 4.05583
#
# Compressibility (1/GPa) = 0.11038392
#
# Stress axis : x y z
#
# Youngs Moduli (GPa) = 64.63340 11.21784 45.15313
#
# Poissons Ratio (x) = 0.02577 -0.08799
# Poissons Ratio (y) = 0.14847 0.35404
# Poissons Ratio (z) = -0.12595 0.08796
#
# Static dielectric constant tensor:
#      x y z
#    x 1.712700 0.000000 0.000000 
#    y 0.000000 1.788960 0.000000 
#    z 0.000000 0.000000 1.804500 
# 
# From -- ./inp_files/3792.got.cif
#   From: 2010.05.17/outbox.cif.g08.bks.cpg/sg35_2_cif.got.tgz:3792.got - 2010.06.03 17:29:28.
