data_PCOD9348935
_publ_section_title
;
Structure prediction by ZEFSAII (Michael W. Deem and Ramdas Pophale) SiO2 
 PCOD9348935
Probable space group: C M M 2
;
_chemical_formula_sum "Si O2"
_cell_formula_units_Z 48
_cell_length_a 18.693906
_cell_length_b 8.369989
_cell_length_c 16.166749
_cell_angle_alpha 90.000000
_cell_angle_beta 90.000000
_cell_angle_gamma 90.000000
_cell_volume 2529.575449
_symmetry_space_group_name_H-M "C M M 2"
_symmetry_group_IT_number 35
_symmetry_cell_setting 'orthorhombic'
loop_
_space_group_symop_operation_xyz
x,y,z
-x,-y,z
-x,y,z
x,-y,z
1/2+x,1/2+y,z
1/2-x,1/2-y,z
1/2-x,1/2+y,z
1/2+x,1/2-y,z
loop_
_atom_site_type_symbol
_atom_site_label
_atom_site_fract_x
_atom_site_fract_y
_atom_site_fract_z
Si Si1 0.082343 0.304864 0.419460
Si Si2 0.913111 0.185561 0.921038
Si Si3 0.418018 0.191366 0.097527
Si Si4 0.331090 0.191358 0.581505
Si Si5 0.831117 0.306583 0.256752
Si Si6 0.082859 0.806522 0.740040
O O1 0.081952 0.500000 0.419590
O O2 0.124030 0.252125 0.501603
O O3 0.123702 0.254068 0.336790
O O4 0.000000 0.252353 0.419683
O O5 0.890943 0.249670 0.830941
O O6 0.000000 0.193293 0.918917
O O7 0.892699 0.000000 0.926558
O O8 0.890419 0.268151 0.005812
O O9 0.500000 0.252117 0.105423
O O10 0.369084 0.250606 0.172399
O O11 0.421298 0.000000 0.104218
O O12 0.250000 0.250000 0.576636
O O13 0.368951 0.249527 0.665039
O O14 0.331458 0.000000 0.580946
O O15 0.831633 0.500000 0.256177
O O16 0.750000 0.250000 0.262113
O O17 0.000000 0.755549 0.727979
O O18 0.082830 0.000000 0.742746
#
# Coordination Sequence:
#
# PCOD9348935 Si02
#       6
#     8   8   8   8   8   8
#     4   9  18  34  56  79 101 129 168 211 253 301
#     4   8  15  29  50  75 102 132 165 206 257 304
#     4   9  17  30  50  75 100 130 171 213 249 290
#     4  11  22  35  53  77 106 139 174 212 257 308
#     4  10  20  34  52  74 103 136 167 203 250 302
#     4   9  18  34  55  78 105 137 173 214 261 310
#
# _framework density 18.975515999999999
#
# number of rings (size 3 to 8) (size 9 to 14) (size 15 to 20)
#    0.000    2.667    0.000    3.000    0.000    4.333 
#    0.000    3.333    0.000    5.500    0.000    0.000 
#    0.000    0.000    0.000    0.000    0.000    0.000 
#
# Total GULP energy -133858.527122 kJ/mol
# GULP energy per Si atom -5577.438630 kJ/mol
# Density = 1.893233 g / cm^3
# Si number density = 18.975516 Si / 1000 Ang^3
#
#
#
# Elastic Constant Matrix: (Units=GPa)
#
#
# Indices 1 2 3 4 5 6 
#
# 1 137.5772 15.4390 114.2048 0.0000 0.0000 0.0000
# 2 15.4390 9.4323 23.2550 0.0000 0.0000 0.0000
# 3 114.2048 23.2550 223.0939 0.0000 0.0000 0.0000
# 4 0.0000 0.0000 0.0000 42.0614 0.0000 0.0000
# 5 0.0000 0.0000 0.0000 0.0000 -7.8323 0.0000
# 6 0.0000 0.0000 0.0000 0.0000 0.0000 19.4598
#
#
#
# Elastic Compliance Matrix: (Units=1/GPa)
#
#
# Indices 1 2 3 4 5 6 
#
# 1 0.012931 -0.006522 -0.005940 0.000000 0.000000 0.000000
# 2 -0.006522 0.145979 -0.011878 0.000000 0.000000 0.000000
# 3 -0.005940 -0.011878 0.008761 0.000000 0.000000 0.000000
# 4 0.000000 0.000000 0.000000 0.023775 0.000000 0.000000
# 5 0.000000 0.000000 0.000000 0.000000 -0.127676 0.000000
# 6 0.000000 0.000000 0.000000 0.000000 0.000000 0.051388
#
#
# Mechanical properties :
#
#
# Convention : Reuss Voigt Hill
#
# Bulk Modulus (GPa) = 8.40390 75.10010 41.75200
# Shear Modulus (GPa) = 24.56978 25.21808 24.89393
#
# Velocity S-wave (km/s) = 3.60226 3.64947 3.62594
# Velocity P-wave (km/s) = 4.66263 7.57770 6.29133
#
# Compressibility (1/GPa) = 0.11899239
#
# Stress axis : x y z
#
# Youngs Moduli (GPa) = 77.33164 6.85029 114.13828
#
# Poissons Ratio (x) = 0.04467 0.67797
# Poissons Ratio (y) = 0.50433 1.35575
# Poissons Ratio (z) = 0.45934 0.08137
#
# Static dielectric constant tensor:
#      x y z
#    x 1.626420 0.000000 0.000000 
#    y 0.000000 1.664930 0.000000 
#    z 0.000000 0.000000 1.668830 
# 
# From -- ./inp_files/15097.got.cif
#   From: 2010.05.17/outbox.cif.g08.bks.cpg/sg35_8_cif.got.tgz:15097.got - 2010.06.03 17:29:28.
