data_PCOD9348963
_publ_section_title
;
Structure prediction by ZEFSAII (Michael W. Deem and Ramdas Pophale) SiO2 
 PCOD9348963
Probable space group: C M M 2
;
_chemical_formula_sum "Si O2"
_cell_formula_units_Z 48
_cell_length_a 16.501696
_cell_length_b 16.839148
_cell_length_c 9.093992
_cell_angle_alpha 90.000000
_cell_angle_beta 90.000000
_cell_angle_gamma 90.000000
_cell_volume 2526.988491
_symmetry_space_group_name_H-M "C M M 2"
_symmetry_group_IT_number 35
_symmetry_cell_setting 'orthorhombic'
loop_
_space_group_symop_operation_xyz
x,y,z
-x,-y,z
-x,y,z
x,-y,z
1/2+x,1/2+y,z
1/2-x,1/2-y,z
1/2-x,1/2+y,z
1/2+x,1/2-y,z
loop_
_atom_site_type_symbol
_atom_site_label
_atom_site_fract_x
_atom_site_fract_y
_atom_site_fract_z
Si Si1 0.412112 0.335188 0.474560
Si Si2 0.590397 0.643613 0.125917
Si Si3 0.741210 0.346469 0.650472
Si Si4 0.089583 0.684388 0.976099
Si Si5 0.749639 0.091214 0.975811
Si Si6 0.087207 0.336874 0.623516
O O1 0.500000 0.369413 0.518040
O O2 0.404788 0.340764 0.299910
O O3 0.334883 0.372020 0.554202
O O4 0.413296 0.243393 0.527565
O O5 0.500000 0.608741 0.096090
O O6 0.593627 0.727468 0.040628
O O7 0.670449 0.597865 0.075227
O O8 0.750000 0.250000 0.643393
O O9 0.827779 0.379875 0.595982
O O10 0.728375 0.370934 0.818230
O O11 0.168934 0.637198 0.028783
O O12 0.000000 0.651379 0.016328
O O13 0.091928 0.685684 0.797567
O O14 0.727420 0.000000 0.954341
O O15 0.000000 0.377492 0.600791
#
# Coordination Sequence:
#
# PCOD9348963 Si02
#       6
#     8   8   8   8   8   8
#     4   9  17  29  49  76  99 122 160 211 258 295
#     4  10  20  34  53  76 102 133 171 213 254 298
#     4   9  17  31  51  73  96 127 165 208 250 294
#     4   9  18  34  56  78 101 131 168 211 254 298
#     4  11  22  34  50  74 106 140 171 205 248 301
#     4   8  14  26  45  71  98 121 151 196 248 292
#
# _framework density 18.994941000000001
#
# number of rings (size 3 to 8) (size 9 to 14) (size 15 to 20)
#    0.000    2.667    0.000    3.500    0.000    6.667 
#    0.000    0.833    0.000    1.000    0.000    0.000 
#    0.000    9.333    0.000    0.000    0.000    0.000 
#
# Total GULP energy -133633.795538 kJ/mol
# GULP energy per Si atom -5568.074814 kJ/mol
# Density = 1.895171 g / cm^3
# Si number density = 18.994941 Si / 1000 Ang^3
#
#
#
# Elastic Constant Matrix: (Units=GPa)
#
#
# Indices 1 2 3 4 5 6 
#
# 1 185.9470 17.1275 42.9510 0.0000 0.0000 0.0000
# 2 17.1275 23.3247 0.4752 0.0000 0.0000 0.0000
# 3 42.9510 0.4752 28.6425 0.0000 0.0000 0.0000
# 4 0.0000 0.0000 0.0000 -3.0315 0.0000 0.0000
# 5 0.0000 0.0000 0.0000 0.0000 24.2894 0.0000
# 6 0.0000 0.0000 0.0000 0.0000 0.0000 -2.5617
#
#
#
# Elastic Compliance Matrix: (Units=1/GPa)
#
#
# Indices 1 2 3 4 5 6 
#
# 1 0.009092 -0.006401 -0.013528 0.000000 0.000000 0.000000
# 2 -0.006401 0.047394 0.008812 0.000000 0.000000 0.000000
# 3 -0.013528 0.008812 0.055053 0.000000 0.000000 0.000000
# 4 0.000000 0.000000 0.000000 -0.329873 0.000000 0.000000
# 5 0.000000 0.000000 0.000000 0.000000 0.041170 0.000000
# 6 0.000000 0.000000 0.000000 0.000000 0.000000 -0.390369
#
#
# Mechanical properties :
#
#
# Convention : Reuss Voigt Hill
#
# Bulk Modulus (GPa) = 11.19753 39.89128 25.54440
# Shear Modulus (GPa) = -9.69875 15.56329 2.93227
#
# Velocity S-wave (km/s) = -2.26209 2.86551 1.24381
# Velocity P-wave (km/s) = 0.95652 5.65640 3.94207
#
# Compressibility (1/GPa) = 0.08930543
#
# Stress axis : x y z
#
# Youngs Moduli (GPa) = 109.98368 21.09988 18.16426
#
# Poissons Ratio (x) = 0.13506 0.24573
# Poissons Ratio (y) = 0.70399 -0.16007
# Poissons Ratio (z) = 1.48787 -0.18594
#
# Static dielectric constant tensor:
#      x y z
#    x 1.765730 0.000000 0.000000 
#    y 0.000000 1.613730 0.000000 
#    z 0.000000 0.000000 1.627140 
# 
# From -- ./inp_files/7462.got.cif
#   From: 2010.05.17/outbox.cif.g08.bks.cpg/sg35_4_cif.got.tgz:7462.got - 2010.06.03 17:29:28.
