data_PCOD9348676
_publ_section_title
;
Structure prediction by ZEFSAII (Michael W. Deem and Ramdas Pophale) SiO2 
 PCOD9348676
Probable space group: C M M 2
;
_chemical_formula_sum "Si O2"
_cell_formula_units_Z 64
_cell_length_a 8.503040
_cell_length_b 31.890618
_cell_length_c 12.237424
_cell_angle_alpha 90.000000
_cell_angle_beta 90.000000
_cell_angle_gamma 90.000000
_cell_volume 3318.388007
_symmetry_space_group_name_H-M "C M M 2"
_symmetry_group_IT_number 35
_symmetry_cell_setting 'orthorhombic'
loop_
_space_group_symop_operation_xyz
x,y,z
-x,-y,z
-x,y,z
x,-y,z
1/2+x,1/2+y,z
1/2-x,1/2-y,z
1/2-x,1/2+y,z
1/2+x,1/2-y,z
loop_
_atom_site_type_symbol
_atom_site_label
_atom_site_fract_x
_atom_site_fract_y
_atom_site_fract_z
Si Si1 0.189449 0.077731 0.953900
Si Si2 0.689553 0.046483 0.184144
Si Si3 0.311479 0.874091 0.577971
Si Si4 0.688431 0.704873 0.714460
Si Si5 0.692191 0.125383 0.326153
Si Si6 0.810423 0.823847 0.953497
Si Si7 0.309739 0.547246 0.714234
Si Si8 0.312296 0.794814 0.185339
O O1 0.232610 0.126919 0.952146
O O2 0.237509 0.056863 0.839578
O O3 0.000000 0.074973 0.961116
O O4 0.261014 0.056472 0.060439
O O5 0.500000 0.046620 0.189028
O O6 0.746326 0.083754 0.262619
O O7 0.745328 0.000000 0.215484
O O8 0.500000 0.872425 0.579995
O O9 0.246778 0.833693 0.641598
O O10 0.258297 0.873897 0.451907
O O11 0.256491 0.916377 0.637841
O O12 0.500000 0.704865 0.713913
O O13 0.750000 0.750000 0.677013
O O14 0.742065 0.696712 0.839683
O O15 0.500000 0.125236 0.324676
O O16 0.744236 0.166487 0.259685
O O17 0.000000 0.821156 0.958743
O O18 0.741255 0.802825 0.061114
O O19 0.500000 0.549401 0.710701
O O20 0.261540 0.500000 0.683796
O O21 0.500000 0.794354 0.188259
O O22 0.250000 0.750000 0.223500
#
# Coordination Sequence:
#
# PCOD9348676 Si02
#       8
#     8   8   8   8   8   8   8   8
#     4  10  19  35  59  86 118 152 186 230 287 346
#     4  10  20  36  59  86 116 150 189 234 285 341
#     4  11  23  40  62  86 115 153 201 247 290 341
#     4  11  23  41  62  88 121 154 192 237 292 349
#     4   9  21  40  58  81 113 152 193 239 289 336
#     4  10  20  36  60  88 117 150 188 230 285 345
#     4  10  21  39  61  86 120 158 193 237 295 349
#     4  11  22  38  60  85 117 150 188 233 285 342
#
# _framework density 19.286473000000001
#
# number of rings (size 3 to 8) (size 9 to 14) (size 15 to 20)
#    0.000    1.750    2.500    1.875    0.000    4.500 
#    0.000    6.250    0.000    0.000    0.000    0.000 
#    0.000    0.000    0.000    0.000    0.000    0.000 
#
# Total GULP energy -178804.022173 kJ/mol
# GULP energy per Si atom -5587.625693 kJ/mol
# Density = 1.924258 g / cm^3
# Si number density = 19.286473 Si / 1000 Ang^3
#
#
#
# Elastic Constant Matrix: (Units=GPa)
#
#
# Indices 1 2 3 4 5 6 
#
# 1 19.5433 33.7127 23.2110 0.0000 0.0000 0.0000
# 2 33.7127 204.4734 94.3931 0.0000 0.0000 0.0000
# 3 23.2110 94.3931 157.2921 0.0000 0.0000 0.0000
# 4 0.0000 0.0000 0.0000 -0.8685 0.0000 0.0000
# 5 0.0000 0.0000 0.0000 0.0000 -22.7170 0.0000
# 6 0.0000 0.0000 0.0000 0.0000 0.0000 27.9471
#
#
#
# Elastic Compliance Matrix: (Units=1/GPa)
#
#
# Indices 1 2 3 4 5 6 
#
# 1 0.074236 -0.009935 -0.004993 0.000000 0.000000 0.000000
# 2 -0.009935 0.008094 -0.003391 0.000000 0.000000 0.000000
# 3 -0.004993 -0.003391 0.009130 0.000000 0.000000 0.000000
# 4 0.000000 0.000000 0.000000 -1.151431 0.000000 0.000000
# 5 0.000000 0.000000 0.000000 0.000000 -0.044020 0.000000
# 6 0.000000 0.000000 0.000000 0.000000 0.000000 0.035782
#
#
# Mechanical properties :
#
#
# Convention : Reuss Voigt Hill
#
# Bulk Modulus (GPa) = 18.24089 75.99358 47.11724
# Shear Modulus (GPa) = -4.93439 16.20512 5.63537
#
# Velocity S-wave (km/s) = -1.60126 2.90182 1.71122
# Velocity P-wave (km/s) = 2.46165 7.12148 5.32800
#
# Compressibility (1/GPa) = 0.05482189
#
# Stress axis : x y z
#
# Youngs Moduli (GPa) = 13.47056 123.54450 109.53410
#
# Poissons Ratio (x) = 1.22740 0.54686
# Poissons Ratio (y) = 0.13383 0.37148
# Poissons Ratio (z) = 0.06725 0.41899
#
# Static dielectric constant tensor:
#      x y z
#    x 1.666430 0.000000 0.000000 
#    y 0.000000 1.669240 0.000000 
#    z 0.000000 0.000000 1.643360 
# 
# From -- ./inp_files/11835.got.cif
#   From: 2010.05.17/outbox.cif.g08.bks.cpg/sg35_6_cif.got.tgz:11835.got - 2010.06.03 17:29:28.
