data_PCOD9348660
_publ_section_title
;
Structure prediction by ZEFSAII (Michael W. Deem and Ramdas Pophale) SiO2 
 PCOD9348660
Probable space group: C M M 2
;
_chemical_formula_sum "Si O2"
_cell_formula_units_Z 56
_cell_length_a 15.557058
_cell_length_b 21.328431
_cell_length_c 8.827501
_cell_angle_alpha 90.000000
_cell_angle_beta 90.000000
_cell_angle_gamma 90.000000
_cell_volume 2929.032257
_symmetry_space_group_name_H-M "C M M 2"
_symmetry_group_IT_number 35
_symmetry_cell_setting 'orthorhombic'
loop_
_space_group_symop_operation_xyz
x,y,z
-x,-y,z
-x,y,z
x,-y,z
1/2+x,1/2+y,z
1/2-x,1/2-y,z
1/2-x,1/2+y,z
1/2+x,1/2-y,z
loop_
_atom_site_type_symbol
_atom_site_label
_atom_site_fract_x
_atom_site_fract_y
_atom_site_fract_z
Si Si1 0.901675 0.790477 0.250000
Si Si2 0.240925 0.320178 0.761980
Si Si3 0.104536 0.000000 0.486274
Si Si4 0.153319 0.884380 0.008640
Si Si5 0.177679 0.426411 0.189044
Si Si6 0.212420 0.876430 0.447171
Si Si7 0.904317 0.000000 0.819811
Si Si8 0.901678 0.319381 0.018869
O O1 0.900887 0.848576 0.133064
O O2 0.836833 0.815008 0.379882
O O3 0.871084 0.731819 0.145465
O O4 0.000000 0.778579 0.302380
O O5 0.250000 0.250000 0.704071
O O6 0.256592 0.364950 0.618776
O O7 0.314871 0.334877 0.884203
O O8 0.155414 0.323259 0.866679
O O9 0.146311 0.935254 0.426369
O O10 0.142059 0.000000 0.659489
O O11 0.000000 0.000000 0.461917
O O12 0.237063 0.914468 0.087383
O O13 0.108912 0.939659 0.920205
O O14 0.160289 0.500000 0.203096
O O15 0.204982 0.394849 0.347121
O O16 0.106112 0.385969 0.103888
O O17 0.000000 0.000000 0.762847
O O18 0.000000 0.303382 0.983308
#
# Coordination Sequence:
#
# PCOD9348660 Si02
#       8
#     8   8   4   8   8   8   4   8
#     4  10  21  38  58  88 126 157 197 249 303 358
#     4  11  22  39  62  88 119 159 201 249 298 364
#     4  11  22  37  55  89 136 170 193 238 303 363
#     4  10  19  35  57  84 115 162 207 242 291 352
#     4  10  21  37  62  86 116 156 207 251 300 358
#     4  11  23  37  61  92 124 165 202 239 298 370
#     4  11  20  31  51  85 122 162 201 244 289 347
#     4  10  23  43  65  90 119 154 203 262 309 350
#
# _framework density 19.118941
#
# number of rings (size 3 to 8) (size 9 to 14) (size 15 to 20)
#    0.000    1.571    4.286    0.857    2.000    0.286 
#    0.000    4.286    0.000    0.000    0.000    0.000 
#    0.000    0.000    0.000    0.000    0.000    0.000 
#
# Total GULP energy -156010.570649 kJ/mol
# GULP energy per Si atom -5571.806095 kJ/mol
# Density = 1.907543 g / cm^3
# Si number density = 19.118941 Si / 1000 Ang^3
#
#
#
# Elastic Constant Matrix: (Units=GPa)
#
#
# Indices 1 2 3 4 5 6 
#
# 1 52.8907 22.1822 22.7632 0.0000 0.0000 0.0000
# 2 22.1822 84.7192 23.0602 0.0000 0.0000 0.0000
# 3 22.7632 23.0602 93.6922 0.0000 0.0000 0.0000
# 4 0.0000 0.0000 0.0000 47.4500 0.0000 0.0000
# 5 0.0000 0.0000 0.0000 0.0000 15.5047 0.0000
# 6 0.0000 0.0000 0.0000 0.0000 0.0000 11.8172
#
#
#
# Elastic Compliance Matrix: (Units=1/GPa)
#
#
# Indices 1 2 3 4 5 6 
#
# 1 0.022788 -0.004780 -0.004360 0.000000 0.000000 0.000000
# 2 -0.004780 0.013654 -0.002199 0.000000 0.000000 0.000000
# 3 -0.004360 -0.002199 0.012274 0.000000 0.000000 0.000000
# 4 0.000000 0.000000 0.000000 0.021075 0.000000 0.000000
# 5 0.000000 0.000000 0.000000 0.000000 0.064496 0.000000
# 6 0.000000 0.000000 0.000000 0.000000 0.000000 0.084623
#
#
# Mechanical properties :
#
#
# Convention : Reuss Voigt Hill
#
# Bulk Modulus (GPa) = 38.40636 40.81260 39.60948
# Shear Modulus (GPa) = 19.97864 25.84081 22.90973
#
# Velocity S-wave (km/s) = 3.23610 3.68038 3.46536
# Velocity P-wave (km/s) = 5.83908 6.28118 6.06416
#
# Compressibility (1/GPa) = 0.02603735
#
# Stress axis : x y z
#
# Youngs Moduli (GPa) = 43.88265 73.23942 81.47395
#
# Poissons Ratio (x) = 0.35007 0.35523
# Poissons Ratio (y) = 0.20975 0.17918
# Poissons Ratio (z) = 0.19133 0.16107
#
# Static dielectric constant tensor:
#      x y z
#    x 1.668870 0.000000 0.000000 
#    y 0.000000 1.688320 0.000000 
#    z 0.000000 0.000000 1.679030 
# 
# From -- ./inp_files/7694.got.cif
#   From: 2010.05.17/outbox.cif.g08.bks.cpg/sg35_4_cif.got.tgz:7694.got - 2010.06.03 17:29:28.
