data_PCOD9348008
_publ_section_title
;
Structure prediction by ZEFSAII (Michael W. Deem and Ramdas Pophale) SiO2 
 PCOD9348008
Probable space group: P N N 2
;
_chemical_formula_sum "Si O2"
_cell_formula_units_Z 26
_cell_length_a 7.252600
_cell_length_b 13.698603
_cell_length_c 11.245484
_cell_angle_alpha 90.000000
_cell_angle_beta 90.000000
_cell_angle_gamma 90.000000
_cell_volume 1117.244325
_symmetry_space_group_name_H-M "P N N 2"
_symmetry_group_IT_number 34
_symmetry_cell_setting 'orthorhombic'
loop_
_space_group_symop_operation_xyz
x,y,z
-x,-y,z
1/2-x,1/2+y,1/2+z
1/2+x,1/2-y,1/2+z
loop_
_atom_site_type_symbol
_atom_site_label
_atom_site_fract_x
_atom_site_fract_y
_atom_site_fract_z
Si Si1 0.486644 0.235110 0.791230
Si Si2 0.806653 0.602379 0.135324
Si Si3 0.833192 0.301270 0.543586
Si Si4 0.441089 0.392040 0.622867
Si Si5 0.398775 0.398686 0.376444
Si Si6 0.000000 0.500000 0.948451
Si Si7 0.914215 0.308411 0.798465
O O1 0.508623 0.156989 0.683956
O O2 0.379712 0.326127 0.733332
O O3 0.694452 0.279728 0.811764
O O4 0.412125 0.189113 0.911978
O O5 0.691692 0.686088 0.069259
O O6 0.719997 0.575258 0.260762
O O7 0.834602 0.519040 0.040505
O O8 0.632557 0.349217 0.566329
O O9 0.945290 0.334085 0.660469
O O10 0.500000 0.500000 0.662526
O O11 0.310028 0.384103 0.507365
O O12 0.500000 0.500000 0.398112
O O13 0.497081 0.296443 0.338245
O O14 0.968195 0.401409 0.875416
#
# Coordination Sequence:
#
# PCOD9348008 Si02
#       7
#     4   4   4   4   4   2   4
#     4   9  19  39  59  82 118 154 198 252 298 356
#     4   9  22  36  55  88 115 151 205 243 288 367
#     4   9  19  38  59  84 118 154 202 250 296 365
#     4   9  18  33  56  86 117 152 195 242 302 369
#     4   9  18  38  59  82 119 154 196 250 291 346
#     4  12  22  40  60  84 126 162 194 252 316 356
#     4   9  21  38  58  89 120 155 204 250 299 371
#
# _framework density 23.271542
#
# number of rings (size 3 to 8) (size 9 to 14) (size 15 to 20)
#    0.000    3.385    0.000    1.846    0.000    7.385 
#    0.000   24.615    0.000    0.000    0.000    0.000 
#    0.000    0.000    0.000    0.000    0.000    0.000 
#
# Total GULP energy -144776.036394 kJ/mol
# GULP energy per Si atom -5568.309092 kJ/mol
# Density = 2.321857 g / cm^3
# Si number density = 23.271542 Si / 1000 Ang^3
#
#
#
# Elastic Constant Matrix: (Units=GPa)
#
#
# Indices 1 2 3 4 5 6 
#
# 1 37.9272 10.6557 18.6192 0.0000 0.0000 0.0000
# 2 10.6557 102.0590 72.0458 0.0000 0.0000 0.0000
# 3 18.6192 72.0458 155.6524 0.0000 0.0000 0.0000
# 4 0.0000 0.0000 0.0000 19.4835 0.0000 0.0000
# 5 0.0000 0.0000 0.0000 0.0000 25.5712 0.0000
# 6 0.0000 0.0000 0.0000 0.0000 0.0000 9.7733
#
#
#
# Elastic Compliance Matrix: (Units=1/GPa)
#
#
# Indices 1 2 3 4 5 6 
#
# 1 0.028059 -0.000832 -0.002971 0.000000 0.000000 0.000000
# 2 -0.000832 0.014578 -0.006648 0.000000 0.000000 0.000000
# 3 -0.002971 -0.006648 0.009857 0.000000 0.000000 0.000000
# 4 0.000000 0.000000 0.000000 0.051326 0.000000 0.000000
# 5 0.000000 0.000000 0.000000 0.000000 0.039106 0.000000
# 6 0.000000 0.000000 0.000000 0.000000 0.000000 0.102319
#
#
# Mechanical properties :
#
#
# Convention : Reuss Voigt Hill
#
# Bulk Modulus (GPa) = 31.65447 55.36445 43.50946
# Shear Modulus (GPa) = 18.07150 23.92013 20.99582
#
# Velocity S-wave (km/s) = 2.78969 3.20952 3.00694
# Velocity P-wave (km/s) = 4.89982 6.13001 5.54911
#
# Compressibility (1/GPa) = 0.03159111
#
# Stress axis : x y z
#
# Youngs Moduli (GPa) = 35.63954 68.59535 101.44865
#
# Poissons Ratio (x) = 0.05708 0.30143
# Poissons Ratio (y) = 0.02965 0.67445
# Poissons Ratio (z) = 0.10589 0.45604
#
# Static dielectric constant tensor:
#      x y z
#    x 2.066190 0.000000 0.000000 
#    y 0.000000 1.923220 0.000000 
#    z 0.000000 0.000000 1.933150 
# 
# From -- ./inp_files/5029.got.cif
#   From: 2010.05.17/outbox.cif.g08.bks.cpg/sg34_3_cif.got.tgz:5029.got - 2010.06.03 17:23:11.
