data_PCOD9348586
_publ_section_title
;
Structure prediction by ZEFSAII (Michael W. Deem and Ramdas Pophale) SiO2 
 PCOD9348586
Probable space group: C M M 2
;
_chemical_formula_sum "Si O2"
_cell_formula_units_Z 40
_cell_length_a 26.651680
_cell_length_b 8.768077
_cell_length_c 9.694692
_cell_angle_alpha 90.000000
_cell_angle_beta 90.000000
_cell_angle_gamma 90.000000
_cell_volume 2265.494235
_symmetry_space_group_name_H-M "C M M 2"
_symmetry_group_IT_number 35
_symmetry_cell_setting 'orthorhombic'
loop_
_space_group_symop_operation_xyz
x,y,z
-x,-y,z
-x,y,z
x,-y,z
1/2+x,1/2+y,z
1/2-x,1/2-y,z
1/2-x,1/2+y,z
1/2+x,1/2-y,z
loop_
_atom_site_type_symbol
_atom_site_label
_atom_site_fract_x
_atom_site_fract_y
_atom_site_fract_z
Si Si1 0.303039 0.684086 0.967350
Si Si2 0.000000 0.324551 0.783529
Si Si3 0.893746 0.816742 0.452630
Si Si4 0.500000 0.177617 0.448450
Si Si5 0.104467 0.182733 0.775041
Si Si6 0.696455 0.817195 0.274212
O O1 0.300466 0.500000 0.975614
O O2 0.250000 0.750000 0.916301
O O3 0.348513 0.729160 0.867675
O O4 0.310823 0.752299 0.119702
O O5 0.948303 0.247327 0.828328
O O6 0.000000 0.500000 0.823893
O O7 0.000000 0.314671 0.616023
O O8 0.948529 0.758906 0.404328
O O9 0.888708 0.773430 0.614584
O O10 0.849140 0.740706 0.367510
O O11 0.891282 0.000000 0.441487
O O12 0.500000 0.000000 0.408695
O O13 0.101268 0.000000 0.778005
O O14 0.750000 0.750000 0.323302
O O15 0.698838 0.000000 0.271321
#
# Coordination Sequence:
#
# PCOD9348586 Si02
#       6
#     8   4   8   4   8   8
#     4  10  20  36  55  76 102 136 173 212 258 310
#     4   9  17  29  50  77 106 137 170 208 254 301
#     4  10  19  34  55  80 107 138 173 213 258 307
#     4   9  17  31  50  77 108 139 172 210 256 307
#     4   9  19  34  54  78 106 137 171 209 255 307
#     4  11  22  37  55  76 103 138 175 215 260 311
#
# _framework density 17.656192000000001
#
# number of rings (size 3 to 8) (size 9 to 14) (size 15 to 20)
#    0.000    2.200    0.000    4.800    0.000    5.600 
#    0.000    3.000    0.000    3.600    0.000    0.000 
#    0.000    0.000    0.000    0.000    0.000    0.000 
#
# Total GULP energy -111600.973530 kJ/mol
# GULP energy per Si atom -5580.048677 kJ/mol
# Density = 1.761601 g / cm^3
# Si number density = 17.656192 Si / 1000 Ang^3
#
#
#
# Elastic Constant Matrix: (Units=GPa)
#
#
# Indices 1 2 3 4 5 6 
#
# 1 217.1284 74.0118 81.3332 0.0000 0.0000 0.0000
# 2 74.0118 87.5417 34.9258 0.0000 0.0000 0.0000
# 3 81.3332 34.9258 46.4632 0.0000 0.0000 0.0000
# 4 0.0000 0.0000 0.0000 21.8236 0.0000 0.0000
# 5 0.0000 0.0000 0.0000 0.0000 -113.7642 0.0000
# 6 0.0000 0.0000 0.0000 0.0000 0.0000 39.0915
#
#
#
# Elastic Compliance Matrix: (Units=1/GPa)
#
#
# Indices 1 2 3 4 5 6 
#
# 1 0.013879 -0.002916 -0.022103 0.000000 0.000000 0.000000
# 2 -0.002916 0.016929 -0.007622 0.000000 0.000000 0.000000
# 3 -0.022103 -0.007622 0.065943 0.000000 0.000000 0.000000
# 4 0.000000 0.000000 0.000000 0.045822 0.000000 0.000000
# 5 0.000000 0.000000 0.000000 0.000000 -0.008790 0.000000
# 6 0.000000 0.000000 0.000000 0.000000 0.000000 0.025581
#
#
# Mechanical properties :
#
#
# Convention : Reuss Voigt Hill
#
# Bulk Modulus (GPa) = 31.77641 81.29724 56.53682
# Shear Modulus (GPa) = 21.26440 0.15434 10.70937
#
# Velocity S-wave (km/s) = 3.47415 0.29598 2.46550
# Velocity P-wave (km/s) = 5.84204 6.80157 6.33998
#
# Compressibility (1/GPa) = 0.03146989
#
# Stress axis : x y z
#
# Youngs Moduli (GPa) = 72.05129 59.07107 15.16458
#
# Poissons Ratio (x) = 0.17222 0.33519
# Poissons Ratio (y) = 0.21007 0.11558
# Poissons Ratio (z) = 1.59258 0.45021
#
# Static dielectric constant tensor:
#      x y z
#    x 1.594870 0.000000 0.000000 
#    y 0.000000 1.590620 0.000000 
#    z 0.000000 0.000000 1.589540 
# 
# From -- ./inp_files/5011.got.cif
#   From: 2010.05.17/outbox.cif.g08.bks.cpg/sg35_3_cif.got.tgz:5011.got - 2010.06.03 17:29:28.
