data_PCOD9348180
_publ_section_title
;
Structure prediction by ZEFSAII (Michael W. Deem and Ramdas Pophale) SiO2 
 PCOD9348180
Probable space group: C M M 2
;
_chemical_formula_sum "Si O2"
_cell_formula_units_Z 64
_cell_length_a 29.724190
_cell_length_b 7.825951
_cell_length_c 16.240346
_cell_angle_alpha 90.000000
_cell_angle_beta 90.000000
_cell_angle_gamma 90.000000
_cell_volume 3777.830171
_symmetry_space_group_name_H-M "C M M 2"
_symmetry_group_IT_number 35
_symmetry_cell_setting 'orthorhombic'
loop_
_space_group_symop_operation_xyz
x,y,z
-x,-y,z
-x,y,z
x,-y,z
1/2+x,1/2+y,z
1/2-x,1/2-y,z
1/2-x,1/2+y,z
1/2+x,1/2-y,z
loop_
_atom_site_type_symbol
_atom_site_label
_atom_site_fract_x
_atom_site_fract_y
_atom_site_fract_z
Si Si1 0.855726 0.795398 0.798140
Si Si2 0.641843 0.796922 0.476022
Si Si3 0.450342 0.295359 0.742493
Si Si4 0.802614 0.296264 0.961397
Si Si5 0.697237 0.206689 0.320367
Si Si6 0.949724 0.292890 0.550752
Si Si7 0.802857 0.705451 0.140391
Si Si8 0.302387 0.295561 0.637392
O O1 0.906743 0.728474 0.790417
O O2 0.831589 0.761613 0.884092
O O3 0.826368 0.730400 0.720750
O O4 0.858010 0.000000 0.788452
O O5 0.667460 0.726983 0.395973
O O6 0.592044 0.728945 0.496713
O O7 0.672361 0.771817 0.556769
O O8 0.637001 0.000000 0.462977
O O9 0.500000 0.225999 0.763836
O O10 0.452088 0.500000 0.753991
O O11 0.442839 0.262008 0.645435
O O12 0.804802 0.500000 0.964010
O O13 0.750000 0.250000 0.950562
O O14 0.819113 0.230001 0.051175
O O15 0.750000 0.250000 0.331223
O O16 0.681058 0.268087 0.229856
O O17 0.694908 0.000000 0.320170
O O18 0.949178 0.500000 0.549660
O O19 0.000000 0.236873 0.525731
O O20 0.808003 0.500000 0.140499
O O21 0.750000 0.750000 0.140215
O O22 0.306253 0.500000 0.635624
O O23 0.250000 0.250000 0.636955
#
# Coordination Sequence:
#
# PCOD9348180 Si02
#       8
#     8   8   8   8   8   8   8   8
#     4  10  20  32  45  65  89 116 147 180 217 259
#     4  10  19  30  45  65  88 117 149 181 217 256
#     4   9  17  31  49  66  85 111 145 183 221 259
#     4  10  19  30  46  66  88 117 148 183 221 260
#     4   9  17  29  44  63  87 115 145 179 216 257
#     4   9  17  29  45  65  88 113 144 183 223 259
#     4   8  15  28  44  62  84 110 143 180 220 258
#     4  11  22  33  43  59  87 122 152 178 210 251
#
# _framework density 16.940942
#
# number of rings (size 3 to 8) (size 9 to 14) (size 15 to 20)
#    0.000    2.500    1.250    1.500    0.000    4.500 
#    0.000    0.000    0.000    0.000    0.000    0.875 
#    0.000    3.000    0.000    0.000    0.000    0.000 
#
# Total GULP energy -178305.439989 kJ/mol
# GULP energy per Si atom -5572.045000 kJ/mol
# Density = 1.690238 g / cm^3
# Si number density = 16.940942 Si / 1000 Ang^3
#
#
#
# Elastic Constant Matrix: (Units=GPa)
#
#
# Indices 1 2 3 4 5 6 
#
# 1 132.3359 0.8686 83.3188 0.0000 0.0000 0.0000
# 2 0.8686 17.9065 -3.7183 0.0000 0.0000 0.0000
# 3 83.3188 -3.7183 154.6238 0.0000 0.0000 0.0000
# 4 0.0000 0.0000 0.0000 28.8911 0.0000 0.0000
# 5 0.0000 0.0000 0.0000 0.0000 10.0006 0.0000
# 6 0.0000 0.0000 0.0000 0.0000 0.0000 1.2679
#
#
#
# Elastic Compliance Matrix: (Units=1/GPa)
#
#
# Indices 1 2 3 4 5 6 
#
# 1 0.011497 -0.001853 -0.006240 0.000000 0.000000 0.000000
# 2 -0.001853 0.056425 0.002356 0.000000 0.000000 0.000000
# 3 -0.006240 0.002356 0.009886 0.000000 0.000000 0.000000
# 4 0.000000 0.000000 0.000000 0.034613 0.000000 0.000000
# 5 0.000000 0.000000 0.000000 0.000000 0.099994 0.000000
# 6 0.000000 0.000000 0.000000 0.000000 0.000000 0.788677
#
#
# Mechanical properties :
#
#
# Convention : Reuss Voigt Hill
#
# Bulk Modulus (GPa) = 15.07550 51.75604 33.41577
# Shear Modulus (GPa) = 4.83242 22.99173 13.91207
#
# Velocity S-wave (km/s) = 1.69077 3.68797 2.86879
# Velocity P-wave (km/s) = 3.56788 6.98227 5.54445
#
# Compressibility (1/GPa) = 0.06633280
#
# Stress axis : x y z
#
# Youngs Moduli (GPa) = 86.97669 17.72276 101.15004
#
# Poissons Ratio (x) = 0.03285 0.63116
# Poissons Ratio (y) = 0.16120 -0.23826
# Poissons Ratio (z) = 0.54272 -0.04175
#
# Static dielectric constant tensor:
#      x y z
#    x 1.583970 0.000000 0.000000 
#    y 0.000000 1.601290 0.000000 
#    z 0.000000 0.000000 1.597210 
# 
# From -- ./inp_files/16141.got.cif
#   From: 2010.05.17/outbox.cif.g08.bks.cpg/sg35_9_cif.got.tgz:16141.got - 2010.06.03 17:29:28.
