data_PCOD9348031
_publ_section_title
;
Structure prediction by ZEFSAII (Michael W. Deem and Ramdas Pophale) SiO2 
 PCOD9348031
Probable space group: P N N 2
;
_chemical_formula_sum "Si O2"
_cell_formula_units_Z 20
_cell_length_a 22.049050
_cell_length_b 4.780327
_cell_length_c 7.891004
_cell_angle_alpha 90.000000
_cell_angle_beta 90.000000
_cell_angle_gamma 90.000000
_cell_volume 831.724992
_symmetry_space_group_name_H-M "P N N 2"
_symmetry_group_IT_number 34
_symmetry_cell_setting 'orthorhombic'
loop_
_space_group_symop_operation_xyz
x,y,z
-x,-y,z
1/2-x,1/2+y,1/2+z
1/2+x,1/2-y,1/2+z
loop_
_atom_site_type_symbol
_atom_site_label
_atom_site_fract_x
_atom_site_fract_y
_atom_site_fract_z
Si Si1 0.290731 0.831974 0.482750
Si Si2 0.000000 0.000000 0.071778
Si Si3 0.098486 0.016997 0.804080
Si Si4 0.000000 0.500000 0.310344
Si Si5 0.785292 0.660661 0.380810
Si Si6 0.098800 0.485944 0.578247
O O1 0.151964 0.203327 0.885806
O O2 0.444854 0.409319 0.452206
O O3 0.117363 0.751552 0.691498
O O4 0.270425 0.149201 0.446678
O O5 0.979212 0.749801 0.190790
O O6 0.796822 0.714464 0.183419
O O7 0.155445 0.318800 0.497238
O O8 0.064549 0.249373 0.688744
O O9 0.944425 0.410630 0.428729
O O10 0.765296 0.341797 0.407197
#
# Coordination Sequence:
#
# PCOD9348031 Si02
#       6
#     4   2   4   2   4   4
#     4  12  25  43  67  98 136 181 231 285 342 407
#     4  12  26  46  72 106 140 182 232 290 354 420
#     4  12  25  45  70 101 140 185 232 288 350 418
#     4  12  26  46  72 106 140 182 232 290 354 420
#     4  12  25  43  67  98 136 181 231 285 342 407
#     4  12  25  45  70 101 140 185 232 288 350 418
#
# _framework density 24.046408
#
# number of rings (size 3 to 8) (size 9 to 14) (size 15 to 20)
#    0.000    0.000    0.000   12.000    0.000    3.200 
#    0.000    0.000    0.000    0.000    0.000    0.000 
#    0.000    0.000    0.000    0.000    0.000    0.000 
#
# Total GULP energy -112047.794932 kJ/mol
# GULP energy per Si atom -5602.389747 kJ/mol
# Density = 2.399168 g / cm^3
# Si number density = 24.046408 Si / 1000 Ang^3
#
#
#
# Elastic Constant Matrix: (Units=GPa)
#
#
# Indices 1 2 3 4 5 6 
#
# 1 76.5049 5.2232 46.2938 0.0000 0.0000 0.0000
# 2 5.2232 100.8751 47.2395 0.0000 0.0000 0.0000
# 3 46.2938 47.2395 171.2747 0.0000 0.0000 0.0000
# 4 0.0000 0.0000 0.0000 47.2630 0.0000 0.0000
# 5 0.0000 0.0000 0.0000 0.0000 68.9278 0.0000
# 6 0.0000 0.0000 0.0000 0.0000 0.0000 34.1241
#
#
#
# Elastic Compliance Matrix: (Units=1/GPa)
#
#
# Indices 1 2 3 4 5 6 
#
# 1 0.015787 0.001356 -0.004641 0.000000 0.000000 0.000000
# 2 0.001356 0.011500 -0.003538 0.000000 0.000000 0.000000
# 3 -0.004641 -0.003538 0.008069 0.000000 0.000000 0.000000
# 4 0.000000 0.000000 0.000000 0.021158 0.000000 0.000000
# 5 0.000000 0.000000 0.000000 0.000000 0.014508 0.000000
# 6 0.000000 0.000000 0.000000 0.000000 0.000000 0.029305
#
#
# Mechanical properties :
#
#
# Convention : Reuss Voigt Hill
#
# Bulk Modulus (GPa) = 46.06394 60.68530 53.37462
# Shear Modulus (GPa) = 41.25080 46.72286 43.98683
#
# Velocity S-wave (km/s) = 4.14631 4.41276 4.28161
# Velocity P-wave (km/s) = 6.49002 7.15925 6.83283
#
# Compressibility (1/GPa) = 0.02170896
#
# Stress axis : x y z
#
# Youngs Moduli (GPa) = 63.34406 86.95628 123.93252
#
# Poissons Ratio (x) = -0.11791 0.57517
# Poissons Ratio (y) = -0.08589 0.43852
# Poissons Ratio (z) = 0.29398 0.30768
#
# Static dielectric constant tensor:
#      x y z
#    x 1.903910 0.000000 0.000000 
#    y 0.000000 1.873570 0.000000 
#    z 0.000000 0.000000 1.946210 
# 
# From -- ./inp_files/201.got.cif
#   From: 2010.05.17/outbox.cif.g08.bks.cpg/sg34_1_cif.got.tgz:201.got - 2010.06.03 17:23:11.
