data_PCOD9348974
_publ_section_title
;
Structure prediction by ZEFSAII (Michael W. Deem and Ramdas Pophale) SiO2 
 PCOD9348974
Probable space group: C M M 2
;
_chemical_formula_sum "Si O2"
_cell_formula_units_Z 48
_cell_length_a 7.646556
_cell_length_b 31.146517
_cell_length_c 9.867506
_cell_angle_alpha 90.000000
_cell_angle_beta 90.000000
_cell_angle_gamma 90.000000
_cell_volume 2350.080618
_symmetry_space_group_name_H-M "C M M 2"
_symmetry_group_IT_number 35
_symmetry_cell_setting 'orthorhombic'
loop_
_space_group_symop_operation_xyz
x,y,z
-x,-y,z
-x,y,z
x,-y,z
1/2+x,1/2+y,z
1/2-x,1/2-y,z
1/2-x,1/2+y,z
1/2+x,1/2-y,z
loop_
_atom_site_type_symbol
_atom_site_label
_atom_site_fract_x
_atom_site_fract_y
_atom_site_fract_z
Si Si1 0.710497 0.700982 0.338410
Si Si2 0.205720 0.872650 0.140727
Si Si3 0.784952 0.123598 0.833956
Si Si4 0.290349 0.298799 0.646060
Si Si5 0.710191 0.451402 0.637076
Si Si6 0.208057 0.548910 0.329247
O O1 0.500000 0.696547 0.344125
O O2 0.750000 0.750000 0.298758
O O3 0.779648 0.665698 0.233653
O O4 0.776932 0.694399 0.492406
O O5 0.222103 0.916946 0.222616
O O6 0.000000 0.863260 0.124918
O O7 0.276872 0.876039 0.988760
O O8 0.727939 0.165777 0.751711
O O9 0.726877 0.082108 0.748623
O O10 0.000000 0.122843 0.834487
O O11 0.500000 0.302984 0.640080
O O12 0.250000 0.250000 0.686079
O O13 0.500000 0.452990 0.647496
O O14 0.777829 0.500000 0.654414
O O15 0.751007 0.437402 0.483475
O O16 0.275708 0.500000 0.312089
O O17 0.000000 0.547708 0.314348
#
# Coordination Sequence:
#
# PCOD9348974 Si02
#       6
#     8   8   8   8   8   8
#     4   9  18  32  51  74 100 132 170 210 250 294
#     4  10  20  34  53  77 104 136 172 208 250 301
#     4   9  18  32  51  76 104 131 163 207 253 296
#     4   9  17  31  49  69  96 129 166 207 247 289
#     4   9  17  32  55  78  98 126 167 211 253 299
#     4  10  21  36  53  75 103 134 169 210 255 302
#
# _framework density 20.424831000000001
#
# number of rings (size 3 to 8) (size 9 to 14) (size 15 to 20)
#    0.000    2.667    0.000    1.500    0.000    5.667 
#    0.000    7.500    0.000    2.000    0.000    0.000 
#    0.000    0.000    0.000    0.000    0.000    0.000 
#
# Total GULP energy -133964.862185 kJ/mol
# GULP energy per Si atom -5581.869258 kJ/mol
# Density = 2.037834 g / cm^3
# Si number density = 20.424831 Si / 1000 Ang^3
#
#
#
# Elastic Constant Matrix: (Units=GPa)
#
#
# Indices 1 2 3 4 5 6 
#
# 1 35.0059 -6.0325 -0.9396 0.0000 0.0000 0.0000
# 2 -6.0325 134.8716 129.4393 0.0000 0.0000 0.0000
# 3 -0.9396 129.4393 182.8374 0.0000 0.0000 0.0000
# 4 0.0000 0.0000 0.0000 -52.0915 0.0000 0.0000
# 5 0.0000 0.0000 0.0000 0.0000 -6.1295 0.0000
# 6 0.0000 0.0000 0.0000 0.0000 0.0000 21.0813
#
#
#
# Elastic Compliance Matrix: (Units=1/GPa)
#
#
# Indices 1 2 3 4 5 6 
#
# 1 0.029125 0.003616 -0.002410 0.000000 0.000000 0.000000
# 2 0.003616 0.023578 -0.016674 0.000000 0.000000 0.000000
# 3 -0.002410 -0.016674 0.017261 0.000000 0.000000 0.000000
# 4 0.000000 0.000000 0.000000 -0.019197 0.000000 0.000000
# 5 0.000000 0.000000 0.000000 0.000000 -0.163146 0.000000
# 6 0.000000 0.000000 0.000000 0.000000 0.000000 0.047435
#
#
# Mechanical properties :
#
#
# Convention : Reuss Voigt Hill
#
# Bulk Modulus (GPa) = 25.62247 66.40548 46.01398
# Shear Modulus (GPa) = -238.11143 7.92191 -115.09476
#
# Velocity S-wave (km/s) = -10.80891 1.97155 -7.51483
# Velocity P-wave (km/s) = 11.96681 6.14535 7.26083
#
# Compressibility (1/GPa) = 0.03902825
#
# Stress axis : x y z
#
# Youngs Moduli (GPa) = 34.33481 42.41218 57.93429
#
# Poissons Ratio (x) = -0.15335 0.13962
# Poissons Ratio (y) = -0.12414 0.96597
# Poissons Ratio (z) = 0.08275 0.70716
#
# Static dielectric constant tensor:
#      x y z
#    x 1.766070 0.000000 0.000000 
#    y 0.000000 1.734250 0.000000 
#    z 0.000000 0.000000 1.704210 
# 
# From -- ./inp_files/5276.got.cif
#   From: 2010.05.17/outbox.cif.g08.bks.cpg/sg35_3_cif.got.tgz:5276.got - 2010.06.03 17:29:28.
