data_PCOD9348155
_publ_section_title
;
Structure prediction by ZEFSAII (Michael W. Deem and Ramdas Pophale) SiO2 
 PCOD9348155
Probable space group: C M M 2
;
_chemical_formula_sum "Si O2"
_cell_formula_units_Z 48
_cell_length_a 27.507157
_cell_length_b 13.753700
_cell_length_c 5.343023
_cell_angle_alpha 90.000000
_cell_angle_beta 90.000000
_cell_angle_gamma 90.000000
_cell_volume 2021.400166
_symmetry_space_group_name_H-M "C M M 2"
_symmetry_group_IT_number 35
_symmetry_cell_setting 'orthorhombic'
loop_
_space_group_symop_operation_xyz
x,y,z
-x,-y,z
-x,y,z
x,-y,z
1/2+x,1/2+y,z
1/2-x,1/2-y,z
1/2-x,1/2+y,z
1/2+x,1/2-y,z
loop_
_atom_site_type_symbol
_atom_site_label
_atom_site_fract_x
_atom_site_fract_y
_atom_site_fract_z
Si Si1 0.180168 0.166711 0.682950
Si Si2 0.867358 0.000000 0.969120
Si Si3 0.914639 0.203659 0.331996
Si Si4 0.424764 0.500000 0.460635
Si Si5 0.245895 0.500000 0.654264
Si Si6 0.185368 0.500000 0.173556
Si Si7 0.946731 0.394227 0.590292
Si Si8 0.635995 0.175738 0.942607
O O1 0.163610 0.093033 0.900794
O O2 0.135095 0.184214 0.491869
O O3 0.182131 0.272932 0.807723
O O4 0.223856 0.099550 0.586013
O O5 0.910127 0.000000 0.754276
O O6 0.880723 0.000000 0.257107
O O7 0.942490 0.298640 0.423738
O O8 0.945064 0.105287 0.381587
O O9 0.896702 0.237324 0.059602
O O10 0.203697 0.500000 0.453775
O O11 0.224580 0.500000 0.939401
O O12 0.155232 0.599075 0.140350
O O13 0.944121 0.500000 0.461552
O O14 0.900444 0.383187 0.767627
O O15 0.000000 0.390946 0.718083
#
# Coordination Sequence:
#
# PCOD9348155 Si02
#       8
#     8   4   8   4   4   4   8   8
#     4   9  21  40  67  93 132 182 237 291 353 430
#     4   9  16  32  60  94 123 163 228 276 325 406
#     4  10  22  38  72 101 137 185 242 291 367 437
#     4  10  18  35  61 101 134 173 227 282 338 421
#     4  11  28  48  68  99 142 189 249 308 358 438
#     4  12  30  45  65 100 148 187 245 312 364 417
#     4  10  23  44  71 105 143 188 244 301 366 454
#     4  11  23  42  69  99 143 192 237 300 375 439
#
# _framework density 23.745916000000001
#
# number of rings (size 3 to 8) (size 9 to 14) (size 15 to 20)
#    0.000    1.833    2.500    0.500    8.167    2.667 
#    0.000    2.083    0.000    0.000    0.000    0.000 
#    0.000    0.000    0.000    0.000    0.000    0.000 
#
# Total GULP energy -133645.761485 kJ/mol
# GULP energy per Si atom -5568.573395 kJ/mol
# Density = 2.369187 g / cm^3
# Si number density = 23.745916 Si / 1000 Ang^3
#
#
#
# Elastic Constant Matrix: (Units=GPa)
#
#
# Indices 1 2 3 4 5 6 
#
# 1 59.7193 28.3164 0.3913 0.0000 0.0000 0.0000
# 2 28.3164 188.0883 9.4362 0.0000 0.0000 0.0000
# 3 0.3913 9.4362 34.6011 0.0000 0.0000 0.0000
# 4 0.0000 0.0000 0.0000 20.7919 0.0000 0.0000
# 5 0.0000 0.0000 0.0000 0.0000 -2.9755 0.0000
# 6 0.0000 0.0000 0.0000 0.0000 0.0000**********
#
#
#
# Elastic Compliance Matrix: (Units=1/GPa)
#
#
# Indices 1 2 3 4 5 6 
#
# 1 0.018042 -0.002744 0.000544 0.000000 0.000000 0.000000
# 2 -0.002744 0.005808 -0.001553 0.000000 0.000000 0.000000
# 3 0.000544 -0.001553 0.029318 0.000000 0.000000 0.000000
# 4 0.000000 0.000000 0.000000 0.048096 0.000000 0.000000
# 5 0.000000 0.000000 0.000000 0.000000 -0.336078 0.000000
# 6 0.000000 0.000000 0.000000 0.000000 0.000000 -0.000033
#
#
# Mechanical properties :
#
#
# Convention : Reuss Voigt Hill
#
# Bulk Modulus (GPa) = 21.89923 39.85517 30.87720
# Shear Modulus (GPa) = -23.57133 -6095.70617 -3059.63875
#
# Velocity S-wave (km/s) = -3.15405 -50.72107 -35.93449
# Velocity P-wave (km/s) = 2.00542 58.42388 41.33625
#
# Compressibility (1/GPa) = 0.04566370
#
# Stress axis : x y z
#
# Youngs Moduli (GPa) = 55.42532 172.18852 34.10857
#
# Poissons Ratio (x) = 0.47241 -0.01856
# Poissons Ratio (y) = 0.15206 0.05296
# Poissons Ratio (z) = -0.03016 0.26737
#
# Static dielectric constant tensor:
#      x y z
#    x 1.965000 0.000000 0.000000 
#    y 0.000000 2.056190 0.000000 
#    z 0.000000 0.000000 1.897920 
# 
# From -- ./inp_files/3714.got.cif
#   From: 2010.05.17/outbox.cif.g08.bks.cpg/sg35_2_cif.got.tgz:3714.got - 2010.06.03 17:29:28.
