data_PCOD9348138
_publ_section_title
;
Structure prediction by ZEFSAII (Michael W. Deem and Ramdas Pophale) SiO2 
 PCOD9348138
Probable space group: C M M 2
;
_chemical_formula_sum "Si O2"
_cell_formula_units_Z 44
_cell_length_a 20.776094
_cell_length_b 14.449339
_cell_length_c 7.159512
_cell_angle_alpha 90.000000
_cell_angle_beta 90.000000
_cell_angle_gamma 90.000000
_cell_volume 2149.291411
_symmetry_space_group_name_H-M "C M M 2"
_symmetry_group_IT_number 35
_symmetry_cell_setting 'orthorhombic'
loop_
_space_group_symop_operation_xyz
x,y,z
-x,-y,z
-x,y,z
x,-y,z
1/2+x,1/2+y,z
1/2-x,1/2-y,z
1/2-x,1/2+y,z
1/2+x,1/2-y,z
loop_
_atom_site_type_symbol
_atom_site_label
_atom_site_fract_x
_atom_site_fract_y
_atom_site_fract_z
Si Si1 0.925485 0.103127 0.720890
Si Si2 0.307567 0.391871 0.996408
Si Si3 0.848960 0.606935 0.315384
Si Si4 0.073001 0.296663 0.594979
Si Si5 0.669232 0.106198 0.870879
Si Si6 0.750000 0.750000 0.283617
O O1 0.874211 0.116985 0.886676
O O2 0.917887 0.186458 0.575425
O O3 0.000000 0.106855 0.787065
O O4 0.914384 0.000000 0.643503
O O5 0.301529 0.500000 0.061985
O O6 0.245830 0.376596 0.860977
O O7 0.296139 0.315432 0.155795
O O8 0.838100 0.500000 0.362630
O O9 0.912813 0.646087 0.408763
O O10 0.793566 0.675985 0.389762
O O11 0.846584 0.614856 0.091531
O O12 0.123474 0.330627 0.749320
O O13 0.000000 0.313084 0.657843
O O14 0.657220 0.000000 0.816323
#
# Coordination Sequence:
#
# PCOD9348138 Si02
#       6
#     8   8   8   8   8   4
#     4   9  18  33  54  82 115 149 187 232 280 333
#     4   9  17  32  57  86 114 146 185 229 277 332
#     4  10  22  38  56  83 115 144 182 234 283 331
#     4  11  23  38  57  81 112 152 193 233 284 340
#     4   9  19  36  58  85 114 144 183 230 279 334
#     4  10  18  34  56  80 114 148 182 230 282 334
#
# _framework density 20.471862999999999
#
# number of rings (size 3 to 8) (size 9 to 14) (size 15 to 20)
#    0.000    2.364    0.000    4.364    0.000    3.636 
#    0.000    6.364    0.000    1.091    0.000    5.091 
#    0.000    0.000    0.000    0.000    0.000    0.000 
#
# Total GULP energy -122687.436336 kJ/mol
# GULP energy per Si atom -5576.701652 kJ/mol
# Density = 2.042527 g / cm^3
# Si number density = 20.471863 Si / 1000 Ang^3
#
#
#
# Elastic Constant Matrix: (Units=GPa)
#
#
# Indices 1 2 3 4 5 6 
#
# 1 89.3094 62.5358 23.9260 0.0000 0.0000 0.0000
# 2 62.5358 151.3333 21.6917 0.0000 0.0000 0.0000
# 3 23.9260 21.6917 45.5684 0.0000 0.0000 0.0000
# 4 0.0000 0.0000 0.0000 15.4961 0.0000 0.0000
# 5 0.0000 0.0000 0.0000 0.0000 20.5809 0.0000
# 6 0.0000 0.0000 0.0000 0.0000 0.0000 33.0830
#
#
#
# Elastic Compliance Matrix: (Units=1/GPa)
#
#
# Indices 1 2 3 4 5 6 
#
# 1 0.017184 -0.006233 -0.006055 0.000000 0.000000 0.000000
# 2 -0.006233 0.009353 -0.001179 0.000000 0.000000 0.000000
# 3 -0.006055 -0.001179 0.025686 0.000000 0.000000 0.000000
# 4 0.000000 0.000000 0.000000 0.064532 0.000000 0.000000
# 5 0.000000 0.000000 0.000000 0.000000 0.048589 0.000000
# 6 0.000000 0.000000 0.000000 0.000000 0.000000 0.030227
#
#
# Mechanical properties :
#
#
# Convention : Reuss Voigt Hill
#
# Bulk Modulus (GPa) = 39.54644 55.83533 47.69089
# Shear Modulus (GPa) = 21.65117 25.70252 23.67684
#
# Velocity S-wave (km/s) = 3.25561 3.54715 3.40451
# Velocity P-wave (km/s) = 5.78718 6.64152 6.22901
#
# Compressibility (1/GPa) = 0.02528673
#
# Stress axis : x y z
#
# Youngs Moduli (GPa) = 58.19501 106.92201 38.93182
#
# Poissons Ratio (x) = 0.66643 0.23575
# Poissons Ratio (y) = 0.36272 0.04592
# Poissons Ratio (z) = 0.35239 0.12611
#
# Static dielectric constant tensor:
#      x y z
#    x 1.743130 0.000000 0.000000 
#    y 0.000000 1.780040 0.000000 
#    z 0.000000 0.000000 1.717870 
# 
# From -- ./inp_files/8324.got.cif
#   From: 2010.05.17/outbox.cif.g08.bks.cpg/sg35_5_cif.got.tgz:8324.got - 2010.06.03 17:29:28.
