data_PCOD9348379
_publ_section_title
;
Structure prediction by ZEFSAII (Michael W. Deem and Ramdas Pophale) SiO2 
 PCOD9348379
Probable space group: C M M 2
;
_chemical_formula_sum "Si O2"
_cell_formula_units_Z 56
_cell_length_a 18.646194
_cell_length_b 8.221850
_cell_length_c 18.655373
_cell_angle_alpha 90.000000
_cell_angle_beta 90.000000
_cell_angle_gamma 90.000000
_cell_volume 2859.984533
_symmetry_space_group_name_H-M "C M M 2"
_symmetry_group_IT_number 35
_symmetry_cell_setting 'orthorhombic'
loop_
_space_group_symop_operation_xyz
x,y,z
-x,-y,z
-x,y,z
x,-y,z
1/2+x,1/2+y,z
1/2-x,1/2-y,z
1/2-x,1/2+y,z
1/2+x,1/2-y,z
loop_
_atom_site_type_symbol
_atom_site_label
_atom_site_fract_x
_atom_site_fract_y
_atom_site_fract_z
Si Si1 0.082852 0.198871 0.269730
Si Si2 0.582557 0.699026 0.552743
Si Si3 0.418136 0.196546 0.988551
Si Si4 0.832147 0.805315 0.128343
Si Si5 0.167805 0.196490 0.411480
Si Si6 0.332107 0.694399 0.692352
Si Si7 0.332144 0.194407 0.849818
O O1 0.124730 0.253023 0.198599
O O2 0.124538 0.251939 0.341139
O O3 0.000000 0.250962 0.269549
O O4 0.082769 0.000000 0.269763
O O5 0.500000 0.750329 0.547494
O O6 0.583009 0.500000 0.552815
O O7 0.628388 0.752327 0.483979
O O8 0.619386 0.753587 0.626623
O O9 0.500000 0.254865 0.995051
O O10 0.371431 0.246544 0.056718
O O11 0.419552 0.000000 0.985989
O O12 0.380959 0.254945 0.915113
O O13 0.750000 0.750000 0.130344
O O14 0.833505 0.000000 0.128838
O O15 0.250000 0.250000 0.409333
O O16 0.166099 0.000000 0.411539
O O17 0.332731 0.500000 0.691806
O O18 0.250000 0.750000 0.682460
O O19 0.356393 0.750486 0.771005
O O20 0.250000 0.250000 0.859745
O O21 0.332606 0.000000 0.850773
#
# Coordination Sequence:
#
# PCOD9348379 Si02
#       7
#     8   8   8   8   8   8   8
#     4   9  18  33  54  80 107 137 176 218 259 307
#     4   9  18  32  51  76 103 134 174 215 255 302
#     4  10  22  39  57  79 108 140 175 218 268 319
#     4  11  22  36  56  81 109 141 179 221 263 313
#     4  10  19  33  55  78 104 138 174 214 257 304
#     4  10  19  32  52  76 103 134 170 214 259 307
#     4  10  20  35  55  77 103 136 174 214 258 312
#
# _framework density 19.580525999999999
#
# number of rings (size 3 to 8) (size 9 to 14) (size 15 to 20)
#    0.000    2.143    0.000    4.286    0.000    5.429 
#    0.000    1.429    0.000    6.429    0.000    0.000 
#    0.000    0.000    0.000    0.000    0.000    0.000 
#
# Total GULP energy -156405.213916 kJ/mol
# GULP energy per Si atom -5585.900497 kJ/mol
# Density = 1.953596 g / cm^3
# Si number density = 19.580526 Si / 1000 Ang^3
#
#
#
# Elastic Constant Matrix: (Units=GPa)
#
#
# Indices 1 2 3 4 5 6 
#
# 1 190.9212 12.4660 142.8548 0.0000 0.0000 0.0000
# 2 12.4660 18.8693 18.6526 0.0000 0.0000 0.0000
# 3 142.8548 18.6526 224.0069 0.0000 0.0000 0.0000
# 4 0.0000 0.0000 0.0000 0.4513 0.0000 0.0000
# 5 0.0000 0.0000 0.0000 0.0000 -30.4370 0.0000
# 6 0.0000 0.0000 0.0000 0.0000 0.0000 15.4930
#
#
#
# Elastic Compliance Matrix: (Units=1/GPa)
#
#
# Indices 1 2 3 4 5 6 
#
# 1 0.010020 -0.000330 -0.006363 0.000000 0.000000 0.000000
# 2 -0.000330 0.057760 -0.004599 0.000000 0.000000 0.000000
# 3 -0.006363 -0.004599 0.008905 0.000000 0.000000 0.000000
# 4 0.000000 0.000000 0.000000 2.215622 0.000000 0.000000
# 5 0.000000 0.000000 0.000000 0.000000 -0.032855 0.000000
# 6 0.000000 0.000000 0.000000 0.000000 0.000000 0.064545
#
#
# Mechanical properties :
#
#
# Convention : Reuss Voigt Hill
#
# Bulk Modulus (GPa) = 18.48378 86.86047 52.67213
# Shear Modulus (GPa) = 2.11451 14.42306 8.26879
#
# Velocity S-wave (km/s) = 1.04031 2.71699 2.05721
# Velocity P-wave (km/s) = 3.30203 7.36883 5.70977
#
# Compressibility (1/GPa) = 0.05410149
#
# Stress axis : x y z
#
# Youngs Moduli (GPa) = 99.80020 17.31291 112.30116
#
# Poissons Ratio (x) = 0.00572 0.71452
# Poissons Ratio (y) = 0.03297 0.51646
# Poissons Ratio (z) = 0.63498 0.07962
#
# Static dielectric constant tensor:
#      x y z
#    x 1.663100 0.000000 0.000000 
#    y 0.000000 1.697490 0.000000 
#    z 0.000000 0.000000 1.675850 
# 
# From -- ./inp_files/17408.got.cif
#   From: 2010.05.17/outbox.cif.g08.bks.cpg/sg35_9_cif.got.tgz:17408.got - 2010.06.03 17:29:28.
