data_PCOD9348419
_publ_section_title
;
Structure prediction by ZEFSAII (Michael W. Deem and Ramdas Pophale) SiO2 
 PCOD9348419
Probable space group: C M M 2
;
_chemical_formula_sum "Si O2"
_cell_formula_units_Z 64
_cell_length_a 16.133647
_cell_length_b 20.858810
_cell_length_c 9.861700
_cell_angle_alpha 90.000000
_cell_angle_beta 90.000000
_cell_angle_gamma 90.000000
_cell_volume 3318.744858
_symmetry_space_group_name_H-M "C M M 2"
_symmetry_group_IT_number 35
_symmetry_cell_setting 'orthorhombic'
loop_
_space_group_symop_operation_xyz
x,y,z
-x,-y,z
-x,y,z
x,-y,z
1/2+x,1/2+y,z
1/2-x,1/2-y,z
1/2-x,1/2+y,z
1/2+x,1/2-y,z
loop_
_atom_site_type_symbol
_atom_site_label
_atom_site_fract_x
_atom_site_fract_y
_atom_site_fract_z
Si Si1 0.398634 0.707001 0.208780
Si Si2 0.595678 0.568351 0.199043
Si Si3 0.341448 0.717219 0.518964
Si Si4 0.095504 0.672581 0.696618
Si Si5 0.900772 0.427562 0.197552
Si Si6 0.851339 0.929488 0.503098
Si Si7 0.842917 0.427597 0.485029
Si Si8 0.898593 0.682067 0.002447
O O1 0.500000 0.706194 0.218459
O O2 0.368563 0.636900 0.159174
O O3 0.364013 0.719565 0.359292
O O4 0.373529 0.759824 0.099705
O O5 0.500000 0.567363 0.154543
O O6 0.634597 0.500000 0.158929
O O7 0.597736 0.570822 0.363246
O O8 0.250000 0.750000 0.534640
O O9 0.398134 0.763215 0.608570
O O10 0.356065 0.642655 0.564046
O O11 0.140073 0.616923 0.612455
O O12 0.129538 0.684192 0.847386
O O13 0.000000 0.652823 0.709005
O O14 0.867415 0.500000 0.192294
O O15 0.881048 0.400227 0.346494
O O16 0.000000 0.430723 0.186817
O O17 0.870785 0.382530 0.077773
O O18 0.754847 0.931698 0.462812
O O19 0.869142 0.000000 0.570724
O O20 0.875968 0.500000 0.504800
O O21 0.000000 0.683183 0.000802
#
# Coordination Sequence:
#
# PCOD9348419 Si02
#       8
#     8   8   8   8   8   8   8   8
#     4   9  17  31  52  76 101 131 169 214 261 309
#     4   8  14  26  48  77 103 128 164 212 263 311
#     4  11  20  33  54  78 105 134 175 219 261 312
#     4  11  22  35  52  76 107 143 178 217 260 314
#     4   9  17  30  49  73 101 135 177 220 256 299
#     4   9  18  32  51  75 107 136 167 212 266 312
#     4  10  19  32  53  79 108 142 176 217 264 310
#     4   9  19  33  49  71 103 139 173 212 262 309
#
# _framework density 19.284399000000001
#
# number of rings (size 3 to 8) (size 9 to 14) (size 15 to 20)
#    0.000    2.500    1.250    1.500    0.000    2.750 
#    0.000    1.875    0.000    0.750    0.000    1.750 
#    0.000    0.000    0.000    0.000    0.000    0.000 
#
# Total GULP energy -178145.226888 kJ/mol
# GULP energy per Si atom -5567.038340 kJ/mol
# Density = 1.924051 g / cm^3
# Si number density = 19.284399 Si / 1000 Ang^3
#
#
#
# Elastic Constant Matrix: (Units=GPa)
#
#
# Indices 1 2 3 4 5 6 
#
# 1 22.1244 0.4125 3.9655 0.0000 0.0000 0.0000
# 2 0.4125 132.5955 62.3145 0.0000 0.0000 0.0000
# 3 3.9655 62.3145 99.6589 0.0000 0.0000 0.0000
# 4 0.0000 0.0000 0.0000 2.7625 0.0000 0.0000
# 5 0.0000 0.0000 0.0000 0.0000 -106.9325 0.0000
# 6 0.0000 0.0000 0.0000 0.0000 0.0000 6.6407
#
#
#
# Elastic Compliance Matrix: (Units=1/GPa)
#
#
# Indices 1 2 3 4 5 6 
#
# 1 0.045618 0.001007 -0.002445 0.000000 0.000000 0.000000
# 2 0.001007 0.010702 -0.006732 0.000000 0.000000 0.000000
# 3 -0.002445 -0.006732 0.014341 0.000000 0.000000 0.000000
# 4 0.000000 0.000000 0.000000 0.361987 0.000000 0.000000
# 5 0.000000 0.000000 0.000000 0.000000 -0.009352 0.000000
# 6 0.000000 0.000000 0.000000 0.000000 0.000000 0.150587
#
#
# Mechanical properties :
#
#
# Convention : Reuss Voigt Hill
#
# Bulk Modulus (GPa) = 18.40874 43.08486 30.74680
# Shear Modulus (GPa) = 8.21921 -6.99342 0.61289
#
# Velocity S-wave (km/s) = 2.06673 -1.90639 0.56437
# Velocity P-wave (km/s) = 3.90663 4.18862 4.05008
#
# Compressibility (1/GPa) = 0.05432203
#
# Stress axis : x y z
#
# Youngs Moduli (GPa) = 21.92097 93.43717 69.73067
#
# Poissons Ratio (x) = -0.09410 0.17048
# Poissons Ratio (y) = -0.02208 0.46943
# Poissons Ratio (z) = 0.05359 0.62902
#
# Static dielectric constant tensor:
#      x y z
#    x 1.692520 0.000000 0.000000 
#    y 0.000000 1.754760 0.000000 
#    z 0.000000 0.000000 1.630900 
# 
# From -- ./inp_files/9520.got.cif
#   From: 2010.05.17/outbox.cif.g08.bks.cpg/sg35_5_cif.got.tgz:9520.got - 2010.06.03 17:29:28.
