data_PCOD9348314
_publ_section_title
;
Structure prediction by ZEFSAII (Michael W. Deem and Ramdas Pophale) SiO2 
 PCOD9348314
Probable space group: C M M 2
;
_chemical_formula_sum "Si O2"
_cell_formula_units_Z 64
_cell_length_a 8.669306
_cell_length_b 29.128465
_cell_length_c 16.173028
_cell_angle_alpha 90.000000
_cell_angle_beta 90.000000
_cell_angle_gamma 90.000000
_cell_volume 4084.070872
_symmetry_space_group_name_H-M "C M M 2"
_symmetry_group_IT_number 35
_symmetry_cell_setting 'orthorhombic'
loop_
_space_group_symop_operation_xyz
x,y,z
-x,-y,z
-x,y,z
x,-y,z
1/2+x,1/2+y,z
1/2-x,1/2-y,z
1/2-x,1/2+y,z
1/2+x,1/2-y,z
loop_
_atom_site_type_symbol
_atom_site_label
_atom_site_fract_x
_atom_site_fract_y
_atom_site_fract_z
Si Si1 0.685297 0.698572 0.688630
Si Si2 0.683773 0.947693 0.778911
Si Si3 0.185784 0.801966 0.375076
Si Si4 0.186641 0.801748 0.012679
Si Si5 0.185596 0.198394 0.193465
Si Si6 0.684318 0.447445 0.594827
Si Si7 0.683511 0.855943 0.530808
Si Si8 0.313875 0.641460 0.852866
O O1 0.500000 0.699805 0.683628
O O2 0.750000 0.750000 0.689485
O O3 0.749570 0.671284 0.609877
O O4 0.729008 0.672089 0.772908
O O5 0.500000 0.943694 0.768273
O O6 0.762758 0.940344 0.689671
O O7 0.743665 0.908695 0.839890
O O8 0.719081 0.000000 0.805123
O O9 0.250000 0.750000 0.382786
O O10 0.231067 0.820625 0.283435
O O11 0.251598 0.832619 0.448324
O O12 0.000000 0.800294 0.380540
O O13 0.250000 0.750000 0.003881
O O14 0.232816 0.820769 0.103679
O O15 0.000000 0.799199 0.010118
O O16 0.237140 0.833187 0.936454
O O17 0.250000 0.250000 0.193201
O O18 0.000000 0.199849 0.193530
O O19 0.500000 0.442385 0.590667
O O20 0.724953 0.500000 0.572595
O O21 0.763174 0.408500 0.540346
O O22 0.500000 0.852820 0.532128
O O23 0.500000 0.637926 0.853795
#
# Coordination Sequence:
#
# PCOD9348314 Si02
#       8
#     8   8   8   8   8   8   8   8
#     4  11  22  34  46  64  94 132 168 197 230 275
#     4  10  20  33  50  71  94 122 159 201 241 282
#     4  10  19  32  49  70  97 129 163 201 242 286
#     4   9  17  30  47  71  98 127 162 197 236 282
#     4   8  15  28  47  68  93 123 157 199 241 280
#     4  10  20  35  54  73  94 121 155 197 243 288
#     4  12  23  34  49  70  96 128 162 199 237 282
#     4  10  20  32  48  69  96 129 162 196 236 283
#
# _framework density 15.670638
#
# number of rings (size 3 to 8) (size 9 to 14) (size 15 to 20)
#    0.000    2.000    1.250    3.375    0.000    3.000 
#    0.000    0.000    0.000    0.000    0.000    0.875 
#    0.000    3.000    0.000    0.000    0.000    0.000 
#
# Total GULP energy -178469.955288 kJ/mol
# GULP energy per Si atom -5577.186103 kJ/mol
# Density = 1.563497 g / cm^3
# Si number density = 15.670638 Si / 1000 Ang^3
#
#
#
# Elastic Constant Matrix: (Units=GPa)
#
#
# Indices 1 2 3 4 5 6 
#
# 1 44.3725 34.4623 41.7409 0.0000 0.0000 0.0000
# 2 34.4623 100.4529 71.4540 0.0000 0.0000 0.0000
# 3 41.7409 71.4540 156.5993 0.0000 0.0000 0.0000
# 4 0.0000 0.0000 0.0000 7.3755 0.0000 0.0000
# 5 0.0000 0.0000 0.0000 0.0000 8.6712 0.0000
# 6 0.0000 0.0000 0.0000 0.0000 0.0000 26.4879
#
#
#
# Elastic Compliance Matrix: (Units=1/GPa)
#
#
# Indices 1 2 3 4 5 6 
#
# 1 0.033621 -0.007639 -0.005476 0.000000 0.000000 0.000000
# 2 -0.007639 0.016474 -0.005481 0.000000 0.000000 0.000000
# 3 -0.005476 -0.005481 0.010346 0.000000 0.000000 0.000000
# 4 0.000000 0.000000 0.000000 0.135583 0.000000 0.000000
# 5 0.000000 0.000000 0.000000 0.000000 0.115324 0.000000
# 6 0.000000 0.000000 0.000000 0.000000 0.000000 0.037753
#
#
# Mechanical properties :
#
#
# Convention : Reuss Voigt Hill
#
# Bulk Modulus (GPa) = 43.01177 66.30434 54.65806
# Shear Modulus (GPa) = 12.68898 18.75810 15.72354
#
# Velocity S-wave (km/s) = 2.84866 3.46355 3.17105
# Velocity P-wave (km/s) = 6.19086 7.64186 6.95431
#
# Compressibility (1/GPa) = 0.02324945
#
# Stress axis : x y z
#
# Youngs Moduli (GPa) = 29.74369 60.70076 96.65502
#
# Poissons Ratio (x) = 0.46370 0.52926
# Poissons Ratio (y) = 0.22722 0.52974
# Poissons Ratio (z) = 0.16287 0.33269
#
# Static dielectric constant tensor:
#      x y z
#    x 1.523380 0.000000 0.000000 
#    y 0.000000 1.501480 0.000000 
#    z 0.000000 0.000000 1.540120 
# 
# From -- ./inp_files/16220.got.cif
#   From: 2010.05.17/outbox.cif.g08.bks.cpg/sg35_9_cif.got.tgz:16220.got - 2010.06.03 17:29:28.
