data_PCOD9348400
_publ_section_title
;
Structure prediction by ZEFSAII (Michael W. Deem and Ramdas Pophale) SiO2 
 PCOD9348400
Probable space group: C M M 2
;
_chemical_formula_sum "Si O2"
_cell_formula_units_Z 64
_cell_length_a 7.778113
_cell_length_b 30.509007
_cell_length_c 12.716929
_cell_angle_alpha 90.000000
_cell_angle_beta 90.000000
_cell_angle_gamma 90.000000
_cell_volume 3017.759094
_symmetry_space_group_name_H-M "C M M 2"
_symmetry_group_IT_number 35
_symmetry_cell_setting 'orthorhombic'
loop_
_space_group_symop_operation_xyz
x,y,z
-x,-y,z
-x,y,z
x,-y,z
1/2+x,1/2+y,z
1/2-x,1/2-y,z
1/2-x,1/2+y,z
1/2+x,1/2-y,z
loop_
_atom_site_type_symbol
_atom_site_label
_atom_site_fract_x
_atom_site_fract_y
_atom_site_fract_z
Si Si1 0.293235 0.797506 0.230900
Si Si2 0.697145 0.812297 0.464225
Si Si3 0.701997 0.405513 0.523884
Si Si4 0.703034 0.394276 0.758251
Si Si5 0.797474 0.550103 0.958866
Si Si6 0.206851 0.547268 0.329185
Si Si7 0.289178 0.888832 0.147530
Si Si8 0.205133 0.702259 0.698144
O O1 0.500000 0.801632 0.238975
O O2 0.250000 0.750000 0.186706
O O3 0.224414 0.799721 0.351773
O O4 0.232547 0.838643 0.161875
O O5 0.500000 0.796308 0.464388
O O6 0.700587 0.864845 0.471025
O O7 0.776063 0.798875 0.577129
O O8 0.500000 0.394253 0.528011
O O9 0.764321 0.410031 0.643039
O O10 0.728173 0.445760 0.446811
O O11 0.500000 0.401320 0.764499
O O12 0.781291 0.423163 0.850518
O O13 0.734480 0.341629 0.757821
O O14 0.727808 0.500000 0.955141
O O15 0.000000 0.545657 0.981911
O O16 0.726460 0.582323 0.049472
O O17 0.259880 0.500000 0.286700
O O18 0.265074 0.585563 0.252499
O O19 0.000000 0.548537 0.331445
O O20 0.500000 0.888349 0.143373
O O21 0.250000 0.750000 0.743333
O O22 0.000000 0.698436 0.691751
#
# Coordination Sequence:
#
# PCOD9348400 Si02
#       8
#     8   8   8   8   8   8   8   8
#     4  10  19  32  52  79 113 149 183 222 268 326
#     4   9  17  31  51  76 110 152 191 227 267 323
#     4  10  20  33  51  77 113 150 182 225 276 331
#     4  10  22  39  57  80 113 152 192 235 287 341
#     4  10  21  39  64  88 106 136 190 247 294 344
#     4  10  19  33  56  82 109 144 183 222 275 344
#     4   9  18  36  59  82 111 143 182 232 283 335
#     4  10  19  32  54  84 118 154 193 235 279 332
#
# _framework density 21.207789999999999
#
# number of rings (size 3 to 8) (size 9 to 14) (size 15 to 20)
#    0.000    2.250    1.250    1.875    0.000    5.000 
#    0.000    4.375    0.000    3.000    0.000    0.000 
#    0.000    0.000    0.000    0.000    0.000    0.000 
#
# Total GULP energy -178496.278947 kJ/mol
# GULP energy per Si atom -5578.008717 kJ/mol
# Density = 2.115952 g / cm^3
# Si number density = 21.207790 Si / 1000 Ang^3
#
#
#
# Elastic Constant Matrix: (Units=GPa)
#
#
# Indices 1 2 3 4 5 6 
#
# 1 30.3148 2.6820 -0.3092 0.0000 0.0000 0.0000
# 2 2.6820 177.9953 77.9600 0.0000 0.0000 0.0000
# 3 -0.3092 77.9600 102.9687 0.0000 0.0000 0.0000
# 4 0.0000 0.0000 0.0000 11.0966 0.0000 0.0000
# 5 0.0000 0.0000 0.0000 0.0000 -34.3401 0.0000
# 6 0.0000 0.0000 0.0000 0.0000 0.0000 21.3283
#
#
#
# Elastic Compliance Matrix: (Units=1/GPa)
#
#
# Indices 1 2 3 4 5 6 
#
# 1 0.033066 -0.000810 0.000713 0.000000 0.000000 0.000000
# 2 -0.000810 0.008425 -0.006381 0.000000 0.000000 0.000000
# 3 0.000713 -0.006381 0.014545 0.000000 0.000000 0.000000
# 4 0.000000 0.000000 0.000000 0.090117 0.000000 0.000000
# 5 0.000000 0.000000 0.000000 0.000000 -0.029120 0.000000
# 6 0.000000 0.000000 0.000000 0.000000 0.000000 0.046886
#
#
# Mechanical properties :
#
#
# Convention : Reuss Voigt Hill
#
# Bulk Modulus (GPa) = 23.21321 52.43824 37.82572
# Shear Modulus (GPa) = 26.14549 15.01337 20.57943
#
# Velocity S-wave (km/s) = 3.51497 2.66356 3.11846
# Velocity P-wave (km/s) = 5.23858 5.85141 5.55345
#
# Compressibility (1/GPa) = 0.04307892
#
# Stress axis : x y z
#
# Youngs Moduli (GPa) = 30.24237 118.68948 68.75034
#
# Poissons Ratio (x) = 0.09620 -0.04902
# Poissons Ratio (y) = 0.02451 0.43873
# Poissons Ratio (z) = -0.02156 0.75741
#
# Static dielectric constant tensor:
#      x y z
#    x 1.824630 0.000000 0.000000 
#    y 0.000000 1.789670 0.000000 
#    z 0.000000 0.000000 1.770000 
# 
# From -- ./inp_files/12033.got.cif
#   From: 2010.05.17/outbox.cif.g08.bks.cpg/sg35_7_cif.got.tgz:12033.got - 2010.06.03 17:29:28.
