data_PCOD9348069
_publ_section_title
;
Structure prediction by ZEFSAII (Michael W. Deem and Ramdas Pophale) SiO2 
 PCOD9348069
Probable space group: C M M 2
;
_chemical_formula_sum "Si O2"
_cell_formula_units_Z 58
_cell_length_a 7.807238
_cell_length_b 31.109276
_cell_length_c 12.961966
_cell_angle_alpha 90.000000
_cell_angle_beta 90.000000
_cell_angle_gamma 90.000000
_cell_volume 3148.170179
_symmetry_space_group_name_H-M "C M M 2"
_symmetry_group_IT_number 35
_symmetry_cell_setting 'orthorhombic'
loop_
_space_group_symop_operation_xyz
x,y,z
-x,-y,z
-x,y,z
x,-y,z
1/2+x,1/2+y,z
1/2-x,1/2-y,z
1/2-x,1/2+y,z
1/2+x,1/2-y,z
loop_
_atom_site_type_symbol
_atom_site_label
_atom_site_fract_x
_atom_site_fract_y
_atom_site_fract_z
Si Si1 0.708697 0.548111 0.724910
Si Si2 0.202129 0.662027 0.430106
Si Si3 0.799435 0.201890 0.220567
Si Si4 0.198871 0.436802 0.487155
Si Si5 0.705159 0.201795 0.636541
Si Si6 0.500000 0.500000 0.422528
Si Si7 0.702181 0.636751 0.815466
Si Si8 0.207344 0.200762 0.989554
O O1 0.500000 0.549729 0.717641
O O2 0.754128 0.500000 0.761948
O O3 0.777535 0.553672 0.608852
O O4 0.769288 0.588796 0.792138
O O5 0.262716 0.670627 0.314785
O O6 0.228880 0.613445 0.466420
O O7 0.272736 0.692601 0.520768
O O8 0.000000 0.670116 0.426581
O O9 0.750000 0.250000 0.253097
O O10 0.724831 0.193541 0.106332
O O11 0.000000 0.201753 0.204421
O O12 0.346745 0.463241 0.430473
O O13 0.000000 0.446531 0.459076
O O14 0.500000 0.197198 0.637287
O O15 0.750000 0.250000 0.669243
O O16 0.775879 0.166047 0.714060
O O17 0.500000 0.631285 0.834968
O O18 0.774076 0.665135 0.909631
O O19 0.250000 0.250000 0.960092
O O20 0.000000 0.198036 0.988103
#
# Coordination Sequence:
#
# PCOD9348069 Si02
#       8
#     8   8   8   8   8   2   8   8
#     4  10  18  32  52  79 107 143 184 226 278 336
#     4  10  22  36  52  78 109 141 183 226 276 331
#     4  10  20  34  55  76 104 142 186 235 277 326
#     4  11  21  35  55  81 114 148 185 236 278 337
#     4  11  22  34  47  71 107 144 177 213 264 330
#     4  12  22  36  56  82 112 150 198 224 288 338
#     4  10  20  33  53  76 108 142 180 223 271 331
#     4   9  19  35  52  77 103 141 184 230 276 326
#
# _framework density 18.423400999999998
#
# number of rings (size 3 to 8) (size 9 to 14) (size 15 to 20)
#    0.000    1.793    2.759    1.862    0.966    4.414 
#    0.000    0.000    0.000    0.000    1.793    0.000 
#    0.000    0.000    0.000    0.000    0.000    0.000 
#
# Total GULP energy -161486.359921 kJ/mol
# GULP energy per Si atom -5568.495170 kJ/mol
# Density = 1.838147 g / cm^3
# Si number density = 18.423401 Si / 1000 Ang^3
#
#
#
# Elastic Constant Matrix: (Units=GPa)
#
#
# Indices 1 2 3 4 5 6 
#
# 1 50.2035 17.6852 2.5449 0.0000 0.0000 0.0000
# 2 17.6852 131.4365 56.1209 0.0000 0.0000 0.0000
# 3 2.5449 56.1209 74.5024 0.0000 0.0000 0.0000
# 4 0.0000 0.0000 0.0000 31.8609 0.0000 0.0000
# 5 0.0000 0.0000 0.0000 0.0000 17.2126 0.0000
# 6 0.0000 0.0000 0.0000 0.0000 0.0000 22.2630
#
#
#
# Elastic Compliance Matrix: (Units=1/GPa)
#
#
# Indices 1 2 3 4 5 6 
#
# 1 0.021129 -0.003737 0.002093 0.000000 0.000000 0.000000
# 2 -0.003737 0.011876 -0.008819 0.000000 0.000000 0.000000
# 3 0.002093 -0.008819 0.019994 0.000000 0.000000 0.000000
# 4 0.000000 0.000000 0.000000 0.031386 0.000000 0.000000
# 5 0.000000 0.000000 0.000000 0.000000 0.058097 0.000000
# 6 0.000000 0.000000 0.000000 0.000000 0.000000 0.044918
#
#
# Mechanical properties :
#
#
# Convention : Reuss Voigt Hill
#
# Bulk Modulus (GPa) = 31.17717 45.42718 38.30217
# Shear Modulus (GPa) = 22.82937 26.25340 24.54138
#
# Velocity S-wave (km/s) = 3.52398 3.77902 3.65372
# Velocity P-wave (km/s) = 5.78940 6.61454 6.21568
#
# Compressibility (1/GPa) = 0.03207476
#
# Stress axis : x y z
#
# Youngs Moduli (GPa) = 47.32799 84.20084 50.01581
#
# Poissons Ratio (x) = 0.31463 -0.10468
# Poissons Ratio (y) = 0.17685 0.44107
# Poissons Ratio (z) = -0.09906 0.74253
#
# Static dielectric constant tensor:
#      x y z
#    x 1.672410 0.000000 0.000000 
#    y 0.000000 1.634600 0.000000 
#    z 0.000000 0.000000 1.678780 
# 
# From -- ./inp_files/11786.got.cif
#   From: 2010.05.17/outbox.cif.g08.bks.cpg/sg35_6_cif.got.tgz:11786.got - 2010.06.03 17:29:28.
