data_PCOD9348627
_publ_section_title
;
Structure prediction by ZEFSAII (Michael W. Deem and Ramdas Pophale) SiO2 
 PCOD9348627
Probable space group: C M M 2
;
_chemical_formula_sum "Si O2"
_cell_formula_units_Z 64
_cell_length_a 8.611897
_cell_length_b 31.809830
_cell_length_c 12.184076
_cell_angle_alpha 90.000000
_cell_angle_beta 90.000000
_cell_angle_gamma 90.000000
_cell_volume 3337.742082
_symmetry_space_group_name_H-M "C M M 2"
_symmetry_group_IT_number 35
_symmetry_cell_setting 'orthorhombic'
loop_
_space_group_symop_operation_xyz
x,y,z
-x,-y,z
-x,y,z
x,-y,z
1/2+x,1/2+y,z
1/2-x,1/2-y,z
1/2-x,1/2+y,z
1/2+x,1/2-y,z
loop_
_atom_site_type_symbol
_atom_site_label
_atom_site_fract_x
_atom_site_fract_y
_atom_site_fract_z
Si Si1 0.687955 0.625821 0.004260
Si Si2 0.813885 0.205586 0.855458
Si Si3 0.812881 0.953119 0.859288
Si Si4 0.815390 0.794948 0.389222
Si Si5 0.685651 0.177570 0.622108
Si Si6 0.313481 0.872742 0.249769
Si Si7 0.686400 0.078029 0.629081
Si Si8 0.810724 0.453150 0.389795
O O1 0.500000 0.625162 0.010848
O O2 0.756353 0.627902 0.125309
O O3 0.732219 0.666569 0.932523
O O4 0.740848 0.583859 0.940227
O O5 0.750000 0.250000 0.897088
O O6 0.747481 0.197579 0.734004
O O7 0.000000 0.206908 0.849838
O O8 0.760885 0.942271 0.736138
O O9 0.000000 0.952850 0.862055
O O10 0.758750 0.000000 0.889502
O O11 0.750000 0.750000 0.352171
O O12 0.761423 0.802763 0.514284
O O13 0.750007 0.832925 0.316414
O O14 0.000000 0.794593 0.383787
O O15 0.500000 0.182592 0.615192
O O16 0.721432 0.127721 0.624847
O O17 0.500000 0.871603 0.253730
O O18 0.260214 0.915615 0.310286
O O19 0.500000 0.073495 0.637167
O O20 0.736954 0.057223 0.514646
O O21 0.759580 0.500000 0.358061
O O22 0.000000 0.452850 0.389308
#
# Coordination Sequence:
#
# PCOD9348627 Si02
#       8
#     8   8   8   8   8   8   8   8
#     4  10  23  42  60  83 117 160 205 251 304 355
#     4  11  23  40  62  88 120 157 197 244 298 359
#     4  10  21  38  60  87 122 160 200 248 300 356
#     4  12  25  42  65  91 123 160 199 245 300 361
#     4  11  21  37  62  93 125 157 197 243 298 358
#     4  11  23  41  63  89 120 158 205 255 303 353
#     4  10  19  34  60  89 122 157 195 243 298 359
#     4   9  18  35  59  88 122 157 194 242 298 353
#
# _framework density 19.17464
#
# number of rings (size 3 to 8) (size 9 to 14) (size 15 to 20)
#    0.000    1.500    2.500    3.000    0.000    3.750 
#    0.000    1.250    0.000    1.875    0.000    0.000 
#    0.000    0.000    0.000    0.000    0.000    0.000 
#
# Total GULP energy -178885.944329 kJ/mol
# GULP energy per Si atom -5590.185760 kJ/mol
# Density = 1.913100 g / cm^3
# Si number density = 19.174640 Si / 1000 Ang^3
#
#
#
# Elastic Constant Matrix: (Units=GPa)
#
#
# Indices 1 2 3 4 5 6 
#
# 1 37.6144 48.1027 32.5491 0.0000 0.0000 0.0000
# 2 48.1027 198.0401 92.6971 0.0000 0.0000 0.0000
# 3 32.5491 92.6971 149.0742 0.0000 0.0000 0.0000
# 4 0.0000 0.0000 0.0000 -4.7897 0.0000 0.0000
# 5 0.0000 0.0000 0.0000 0.0000 31.3770 0.0000
# 6 0.0000 0.0000 0.0000 0.0000 0.0000 20.6792
#
#
#
# Elastic Compliance Matrix: (Units=1/GPa)
#
#
# Indices 1 2 3 4 5 6 
#
# 1 0.040035 -0.007945 -0.003801 0.000000 0.000000 0.000000
# 2 -0.007945 0.008699 -0.003675 0.000000 0.000000 0.000000
# 3 -0.003801 -0.003675 0.009823 0.000000 0.000000 0.000000
# 4 0.000000 0.000000 0.000000 -0.208781 0.000000 0.000000
# 5 0.000000 0.000000 0.000000 0.000000 0.031870 0.000000
# 6 0.000000 0.000000 0.000000 0.000000 0.000000 0.048358
#
#
# Mechanical properties :
#
#
# Convention : Reuss Voigt Hill
#
# Bulk Modulus (GPa) = 36.08017 81.26961 58.67489
# Shear Modulus (GPa) = -167.13988 23.54530 -71.79729
#
# Velocity S-wave (km/s) = -9.34646 3.50800 -6.12578
# Velocity P-wave (km/s) = 9.88017 7.67359 4.40078
#
# Compressibility (1/GPa) = 0.02771606
#
# Stress axis : x y z
#
# Youngs Moduli (GPa) = 24.97797 114.95139 101.80286
#
# Poissons Ratio (x) = 0.91332 0.38694
# Poissons Ratio (y) = 0.19846 0.37409
# Poissons Ratio (z) = 0.09494 0.42240
#
# Static dielectric constant tensor:
#      x y z
#    x 1.652010 0.000000 0.000000 
#    y 0.000000 1.680330 0.000000 
#    z 0.000000 0.000000 1.621030 
# 
# From -- ./inp_files/11957.got.cif
#   From: 2010.05.17/outbox.cif.g08.bks.cpg/sg35_6_cif.got.tgz:11957.got - 2010.06.03 17:29:28.
