data_PCOD9348686
_publ_section_title
;
Structure prediction by ZEFSAII (Michael W. Deem and Ramdas Pophale) SiO2 
 PCOD9348686
Probable space group: C M M 2
;
_chemical_formula_sum "Si O2"
_cell_formula_units_Z 64
_cell_length_a 31.454564
_cell_length_b 8.793774
_cell_length_c 12.002341
_cell_angle_alpha 90.000000
_cell_angle_beta 90.000000
_cell_angle_gamma 90.000000
_cell_volume 3319.899456
_symmetry_space_group_name_H-M "C M M 2"
_symmetry_group_IT_number 35
_symmetry_cell_setting 'orthorhombic'
loop_
_space_group_symop_operation_xyz
x,y,z
-x,-y,z
-x,y,z
x,-y,z
1/2+x,1/2+y,z
1/2-x,1/2-y,z
1/2-x,1/2+y,z
1/2+x,1/2-y,z
loop_
_atom_site_type_symbol
_atom_site_label
_atom_site_fract_x
_atom_site_fract_y
_atom_site_fract_z
Si Si1 0.586065 0.819714 0.715860
Si Si2 0.321003 0.319389 0.715860
Si Si3 0.951593 0.682165 0.474024
Si Si4 0.706014 0.819025 0.950375
Si Si5 0.627764 0.679713 0.347930
Si Si6 0.706014 0.180975 0.481345
Si Si7 0.951593 0.682166 0.957695
Si Si8 0.627764 0.679713 0.083790
O O1 0.629065 0.723067 0.715860
O O2 0.559767 0.790303 0.603726
O O3 0.559766 0.790302 0.827994
O O4 0.597740 0.000000 0.715861
O O5 0.314974 0.500000 0.715860
O O6 0.301359 0.247519 0.826868
O O7 0.301359 0.247520 0.604852
O O8 0.948307 0.500000 0.456427
O O9 0.916585 0.764749 0.399821
O O10 0.000000 0.728724 0.450626
O O11 0.750000 0.750000 0.995037
O O12 0.708517 0.000000 0.945382
O O13 0.665973 0.767766 0.023772
O O14 0.633077 0.500000 0.369093
O O15 0.665973 0.767766 0.407947
O O16 0.628409 0.706091 0.215860
O O17 0.750000 0.250000 0.436683
O O18 0.708517 0.000000 0.486338
O O19 0.948307 0.500000 0.975292
O O20 0.000000 0.728724 0.981094
O O21 0.916585 0.764748 0.031899
O O22 0.633077 0.500000 0.062627
#
# Coordination Sequence:
#
# PCOD9348686 Si02
#       8
#     8   8   8   8   8   8   8   8
#     4  10  19  35  61  93 127 166 204 250 310 373
#     4  12  23  38  63  96 132 166 203 250 308 372
#     4  10  21  38  63  94 128 166 209 257 311 374
#     4  12  25  43  67  95 127 164 206 255 311 372
#     4  11  25  44  64  89 124 166 212 263 316 370
#     4  12  25  43  67  95 127 164 206 255 311 372
#     4  10  21  38  63  94 128 166 209 257 311 374
#     4  11  25  44  64  89 124 166 212 263 316 370
#
# _framework density 19.277691999999998
#
# number of rings (size 3 to 8) (size 9 to 14) (size 15 to 20)
#    0.000    1.000    2.500    4.875    0.000    5.000 
#    0.000    2.500    0.000    2.250    0.000    0.000 
#    0.000    0.000    0.000    0.000    0.000    0.000 
#
# Total GULP energy -179056.195670 kJ/mol
# GULP energy per Si atom -5595.506115 kJ/mol
# Density = 1.923382 g / cm^3
# Si number density = 19.277692 Si / 1000 Ang^3
#
#
#
# Elastic Constant Matrix: (Units=GPa)
#
#
# Indices 1 2 3 4 5 6 
#
# 1 158.1697 78.8444 46.0495 0.0000 0.0000 0.0000
# 2 78.8444 135.9659 71.9664 0.0000 0.0000 0.0000
# 3 46.0495 71.9664 79.1114 0.0000 0.0000 0.0000
# 4 0.0000 0.0000 0.0000 2199.9040 0.0000 0.0000
# 5 0.0000 0.0000 0.0000 0.0000 -5.4268 0.0000
# 6 0.0000 0.0000 0.0000 0.0000 0.0000 35.9290
#
#
#
# Elastic Compliance Matrix: (Units=1/GPa)
#
#
# Indices 1 2 3 4 5 6 
#
# 1 0.008929 -0.004680 -0.000940 0.000000 0.000000 0.000000
# 2 -0.004680 0.016638 -0.012411 0.000000 0.000000 0.000000
# 3 -0.000940 -0.012411 0.024477 0.000000 0.000000 0.000000
# 4 0.000000 0.000000 0.000000 0.000455 0.000000 0.000000
# 5 0.000000 0.000000 0.000000 0.000000 -0.184270 0.000000
# 6 0.000000 0.000000 0.000000 0.000000 0.000000 0.027833
#
#
# Mechanical properties :
#
#
# Convention : Reuss Voigt Hill
#
# Bulk Modulus (GPa) = 71.51911 85.21863 78.36887
# Shear Modulus (GPa) = -76.66878 457.84035 190.58578
#
# Velocity S-wave (km/s) = -6.31324 15.42767 9.95379
# Velocity P-wave (km/s) = 3.99535 19.01716 13.14705
#
# Compressibility (1/GPa) = 0.01398228
#
# Stress axis : x y z
#
# Youngs Moduli (GPa) = 111.99477 60.10389 40.85405
#
# Poissons Ratio (x) = 0.28131 0.03839
# Poissons Ratio (y) = 0.52417 0.50703
# Poissons Ratio (z) = 0.10525 0.74594
#
# Static dielectric constant tensor:
#      x y z
#    x 1.660710 0.000000 0.000000 
#    y 0.000000 1.649770 0.000000 
#    z 0.000000 0.000000 1.647470 
# 
# From -- ./inp_files/14513.got.cif
#   From: 2010.05.17/outbox.cif.g08.bks.cpg/sg35_8_cif.got.tgz:14513.got - 2010.06.03 17:29:28.
