data_PCOD9348988
_publ_section_title
;
Structure prediction by ZEFSAII (Michael W. Deem and Ramdas Pophale) SiO2 
 PCOD9348988
Probable space group: C M M 2
;
_chemical_formula_sum "Si O2"
_cell_formula_units_Z 64
_cell_length_a 8.649994
_cell_length_b 19.707806
_cell_length_c 21.033159
_cell_angle_alpha 90.000000
_cell_angle_beta 90.000000
_cell_angle_gamma 90.000000
_cell_volume 3585.573171
_symmetry_space_group_name_H-M "C M M 2"
_symmetry_group_IT_number 35
_symmetry_cell_setting 'orthorhombic'
loop_
_space_group_symop_operation_xyz
x,y,z
-x,-y,z
-x,y,z
x,-y,z
1/2+x,1/2+y,z
1/2-x,1/2-y,z
1/2-x,1/2+y,z
1/2+x,1/2-y,z
loop_
_atom_site_type_symbol
_atom_site_label
_atom_site_fract_x
_atom_site_fract_y
_atom_site_fract_z
Si Si1 0.813157 0.824817 0.011940
Si Si2 0.316873 0.676568 0.519672
Si Si3 0.817735 0.580335 0.625385
Si Si4 0.311053 0.421856 0.898639
Si Si5 0.321092 0.417529 0.759067
Si Si6 0.186484 0.825011 0.156553
Si Si7 0.815585 0.324865 0.380296
Si Si8 0.312749 0.421286 0.271599
O O1 0.750000 0.750000 0.998827
O O2 0.766157 0.842833 0.084249
O O3 0.000000 0.823468 0.010694
O O4 0.760296 0.876528 0.957667
O O5 0.500000 0.681720 0.511299
O O6 0.250000 0.750000 0.538509
O O7 0.274084 0.622326 0.573046
O O8 0.241357 0.659272 0.451653
O O9 0.782163 0.500000 0.620382
O O10 0.773270 0.602537 0.696882
O O11 0.000000 0.589465 0.615132
O O12 0.500000 0.421989 0.897284
O O13 0.262113 0.500000 0.906359
O O14 0.262905 0.395666 0.828710
O O15 0.500000 0.396731 0.751061
O O16 0.319605 0.500000 0.761868
O O17 0.250000 0.750000 0.171574
O O18 0.235388 0.880390 0.208227
O O19 0.000000 0.821486 0.157838
O O20 0.750000 0.250000 0.363947
O O21 0.753502 0.380339 0.331280
O O22 0.000000 0.322118 0.378773
O O23 0.500000 0.419567 0.274677
O O24 0.265026 0.500000 0.270577
#
# Coordination Sequence:
#
# PCOD9348988 Si02
#       8
#     8   8   8   8   8   8   8   8
#     4   9  17  30  48  71  99 130 166 208 255 304
#     4  11  22  38  59  81 107 137 171 211 256 305
#     4  10  20  34  53  78 107 138 174 215 257 304
#     4   8  14  26  47  72  95 124 167 215 256 298
#     4   8  14  27  47  70  96 129 170 212 255 304
#     4   9  18  32  51  73  98 133 172 209 251 304
#     4  11  22  38  59  80 104 136 174 210 250 304
#     4  10  21  36  53  77 108 137 169 213 261 305
#
# _framework density 17.849307
#
# number of rings (size 3 to 8) (size 9 to 14) (size 15 to 20)
#    0.000    2.500    0.000    4.500    0.000    3.500 
#    0.000    3.750    0.000    2.625    0.000    3.500 
#    0.000    0.000    0.000    0.000    0.000    0.000 
#
# Total GULP energy -178487.862277 kJ/mol
# GULP energy per Si atom -5577.745696 kJ/mol
# Density = 1.780868 g / cm^3
# Si number density = 17.849307 Si / 1000 Ang^3
#
#
#
# Elastic Constant Matrix: (Units=GPa)
#
#
# Indices 1 2 3 4 5 6 
#
# 1 42.3809 31.4694 34.6180 0.0000 0.0000 0.0000
# 2 31.4694 89.0930 87.7628 0.0000 0.0000 0.0000
# 3 34.6180 87.7628 123.0095 0.0000 0.0000 0.0000
# 4 0.0000 0.0000 0.0000 36.4694 0.0000 0.0000
# 5 0.0000 0.0000 0.0000 0.0000 11.7030 0.0000
# 6 0.0000 0.0000 0.0000 0.0000 0.0000 22.9316
#
#
#
# Elastic Compliance Matrix: (Units=1/GPa)
#
#
# Indices 1 2 3 4 5 6 
#
# 1 0.032355 -0.008274 -0.003203 0.000000 0.000000 0.000000
# 2 -0.008274 0.039884 -0.026127 0.000000 0.000000 0.000000
# 3 -0.003203 -0.026127 0.027671 0.000000 0.000000 0.000000
# 4 0.000000 0.000000 0.000000 0.027420 0.000000 0.000000
# 5 0.000000 0.000000 0.000000 0.000000 0.085448 0.000000
# 6 0.000000 0.000000 0.000000 0.000000 0.000000 0.043608
#
#
# Mechanical properties :
#
#
# Convention : Reuss Voigt Hill
#
# Bulk Modulus (GPa) = 40.48020 62.46485 51.47252
# Shear Modulus (GPa) = 14.71334 20.92968 17.82151
#
# Velocity S-wave (km/s) = 2.87419 3.42801 3.16324
# Velocity P-wave (km/s) = 5.80885 7.12320 6.49933
#
# Compressibility (1/GPa) = 0.02470344
#
# Stress axis : x y z
#
# Youngs Moduli (GPa) = 30.90717 25.07291 36.13827
#
# Poissons Ratio (x) = 0.20744 0.11573
# Poissons Ratio (y) = 0.25572 0.94419
# Poissons Ratio (z) = 0.09898 0.65508
#
# Static dielectric constant tensor:
#      x y z
#    x 1.605110 0.000000 0.000000 
#    y 0.000000 1.582720 0.000000 
#    z 0.000000 0.000000 1.620110 
# 
# From -- ./inp_files/18345.got.cif
#   From: 2010.05.17/outbox.cif.g08.bks.cpg/sg35_10_cif.got.tgz:18345.got - 2010.06.03 17:29:28.
