data_PCOD9348283
_publ_section_title
;
Structure prediction by ZEFSAII (Michael W. Deem and Ramdas Pophale) SiO2 
 PCOD9348283
Probable space group: C M M 2
;
_chemical_formula_sum "Si O2"
_cell_formula_units_Z 64
_cell_length_a 29.685133
_cell_length_b 9.194477
_cell_length_c 12.501744
_cell_angle_alpha 90.000000
_cell_angle_beta 90.000000
_cell_angle_gamma 90.000000
_cell_volume 3412.216914
_symmetry_space_group_name_H-M "C M M 2"
_symmetry_group_IT_number 35
_symmetry_cell_setting 'orthorhombic'
loop_
_space_group_symop_operation_xyz
x,y,z
-x,-y,z
-x,y,z
x,-y,z
1/2+x,1/2+y,z
1/2-x,1/2-y,z
1/2-x,1/2+y,z
1/2+x,1/2-y,z
loop_
_atom_site_type_symbol
_atom_site_label
_atom_site_fract_x
_atom_site_fract_y
_atom_site_fract_z
Si Si1 0.931828 0.167595 0.524780
Si Si2 0.708717 0.167018 0.387190
Si Si3 0.827073 0.834374 0.582656
Si Si4 0.949568 0.674059 0.747171
Si Si5 0.141042 0.329627 0.198129
Si Si6 0.949417 0.326559 0.301363
Si Si7 0.859164 0.825567 0.812589
Si Si8 0.701156 0.673618 0.021781
O O1 0.877871 0.164313 0.537049
O O2 0.948169 0.257678 0.627790
O O3 0.944447 0.242873 0.413547
O O4 0.947321 0.000000 0.528974
O O5 0.750000 0.250000 0.333034
O O6 0.700210 0.234514 0.502800
O O7 0.664951 0.180763 0.313675
O O8 0.720649 0.000000 0.395994
O O9 0.832407 0.783149 0.704465
O O10 0.809799 0.000000 0.581655
O O11 0.943502 0.500000 0.741263
O O12 0.907459 0.745273 0.809768
O O13 0.000000 0.702991 0.791265
O O14 0.142258 0.500000 0.165470
O O15 0.089610 0.283161 0.218452
O O16 0.170276 0.235945 0.116908
O O17 0.943349 0.500000 0.321602
O O18 0.000000 0.303698 0.260378
O O19 0.867519 0.000000 0.804422
O O20 0.827758 0.797718 0.914118
O O21 0.707242 0.500000 0.032607
O O22 0.750000 0.750000 0.019717
#
# Coordination Sequence:
#
# PCOD9348283 Si02
#       8
#     8   8   8   8   8   8   8   8
#     4  10  19  31  51  80 117 159 198 237 282 337
#     4  11  22  35  54  81 113 149 187 231 285 347
#     4   9  18  34  54  79 114 151 186 229 281 339
#     4  10  20  33  53  84 120 159 201 240 282 337
#     4  10  22  40  60  85 117 152 194 241 291 346
#     4  10  20  35  56  83 117 155 195 240 288 341
#     4   9  21  40  60  86 117 150 191 241 294 346
#     4  11  24  43  67  90 113 146 193 246 298 352
#
# _framework density 18.756136000000001
#
# number of rings (size 3 to 8) (size 9 to 14) (size 15 to 20)
#    0.000    2.000    1.250    3.000    0.000    8.750 
#    0.000    1.875    0.000    2.250    0.000    0.000 
#    0.000    0.000    0.000    0.000    0.000    0.000 
#
# Total GULP energy -178589.498967 kJ/mol
# GULP energy per Si atom -5580.921843 kJ/mol
# Density = 1.871345 g / cm^3
# Si number density = 18.756136 Si / 1000 Ang^3
#
#
#
# Elastic Constant Matrix: (Units=GPa)
#
#
# Indices 1 2 3 4 5 6 
#
# 1 141.0386 63.2407 58.3974 0.0000 0.0000 0.0000
# 2 63.2407 85.8891 51.5381 0.0000 0.0000 0.0000
# 3 58.3974 51.5381 83.7071 0.0000 0.0000 0.0000
# 4 0.0000 0.0000 0.0000 19.2940 0.0000 0.0000
# 5 0.0000 0.0000 0.0000 0.0000 14.7989 0.0000
# 6 0.0000 0.0000 0.0000 0.0000 0.0000 23.0642
#
#
#
# Elastic Compliance Matrix: (Units=1/GPa)
#
#
# Indices 1 2 3 4 5 6 
#
# 1 0.011554 -0.005821 -0.004476 0.000000 0.000000 0.000000
# 2 -0.005821 0.021397 -0.009113 0.000000 0.000000 0.000000
# 3 -0.004476 -0.009113 0.020680 0.000000 0.000000 0.000000
# 4 0.000000 0.000000 0.000000 0.051830 0.000000 0.000000
# 5 0.000000 0.000000 0.000000 0.000000 0.067572 0.000000
# 6 0.000000 0.000000 0.000000 0.000000 0.000000 0.043357
#
#
# Mechanical properties :
#
#
# Convention : Reuss Voigt Hill
#
# Bulk Modulus (GPa) = 67.52154 72.99857 70.26005
# Shear Modulus (GPa) = 19.21972 20.59533 19.90752
#
# Velocity S-wave (km/s) = 3.20459 3.31729 3.26143
# Velocity P-wave (km/s) = 7.05481 7.32645 7.19192
#
# Compressibility (1/GPa) = 0.01481009
#
# Stress axis : x y z
#
# Youngs Moduli (GPa) = 86.55114 46.73447 48.35497
#
# Poissons Ratio (x) = 0.27204 0.21646
# Poissons Ratio (y) = 0.50382 0.44067
# Poissons Ratio (z) = 0.38744 0.42591
#
# Static dielectric constant tensor:
#      x y z
#    x 1.684260 0.000000 0.000000 
#    y 0.000000 1.638910 0.000000 
#    z 0.000000 0.000000 1.627860 
# 
# From -- ./inp_files/11960.got.cif
#   From: 2010.05.17/outbox.cif.g08.bks.cpg/sg35_6_cif.got.tgz:11960.got - 2010.06.03 17:29:28.
