data_PCOD9348425
_publ_section_title
;
Structure prediction by ZEFSAII (Michael W. Deem and Ramdas Pophale) SiO2 
 PCOD9348425
Probable space group: C M M 2
;
_chemical_formula_sum "Si O2"
_cell_formula_units_Z 56
_cell_length_a 23.838506
_cell_length_b 8.665306
_cell_length_c 15.993468
_cell_angle_alpha 90.000000
_cell_angle_beta 90.000000
_cell_angle_gamma 90.000000
_cell_volume 3303.737883
_symmetry_space_group_name_H-M "C M M 2"
_symmetry_group_IT_number 35
_symmetry_cell_setting 'orthorhombic'
loop_
_space_group_symop_operation_xyz
x,y,z
-x,-y,z
-x,y,z
x,-y,z
1/2+x,1/2+y,z
1/2-x,1/2-y,z
1/2-x,1/2+y,z
1/2+x,1/2-y,z
loop_
_atom_site_type_symbol
_atom_site_label
_atom_site_fract_x
_atom_site_fract_y
_atom_site_fract_z
Si Si1 0.812995 0.685667 0.805380
Si Si2 0.500000 0.683963 0.213104
Si Si3 0.884625 0.184022 0.468411
Si Si4 0.500000 0.183778 0.402143
Si Si5 0.383878 0.814834 0.149625
Si Si6 0.686645 0.186633 0.988612
Si Si7 0.186397 0.314143 0.621271
Si Si8 0.812258 0.184237 0.302346
O O1 0.811615 0.500000 0.805370
O O2 0.750000 0.750000 0.805660
O O3 0.836010 0.733277 0.896305
O O4 0.835852 0.731479 0.714274
O O5 0.500000 0.500000 0.218013
O O6 0.500000 0.748094 0.308046
O O7 0.444471 0.742271 0.166360
O O8 0.853283 0.249468 0.549327
O O9 0.845888 0.215660 0.387536
O O10 0.944611 0.259061 0.449812
O O11 0.890987 0.000000 0.475821
O O12 0.500000 0.000000 0.396003
O O13 0.344421 0.762848 0.225812
O O14 0.388970 0.000000 0.149172
O O15 0.353853 0.764561 0.063661
O O16 0.750000 0.250000 0.999231
O O17 0.690256 0.000000 0.990949
O O18 0.188838 0.500000 0.616138
O O19 0.250000 0.250000 0.612012
O O20 0.750000 0.250000 0.308579
O O21 0.810853 0.000000 0.289418
#
# Coordination Sequence:
#
# PCOD9348425 Si02
#       8
#     8   4   8   4   8   8   8   8
#     4   8  15  29  49  75 108 142 176 217 263 317
#     4  12  24  40  58  77 104 139 182 225 268 316
#     4  11  23  38  56  78 108 142 179 222 267 316
#     4  12  24  40  62  81 102 135 182 227 266 316
#     4  11  22  36  56  79 105 139 181 225 267 317
#     4   9  18  32  52  80 111 142 177 217 267 320
#     4  10  19  32  53  81 112 145 182 222 269 321
#     4  11  23  36  52  75 108 143 175 214 265 319
#
# _framework density 16.950498
#
# number of rings (size 3 to 8) (size 9 to 14) (size 15 to 20)
#    0.000    1.714    1.429    3.857    0.000    5.714 
#    0.000    0.000    0.000    0.857    0.000    3.000 
#    0.000    0.000    0.000    0.000    0.000    0.000 
#
# Total GULP energy -156250.574281 kJ/mol
# GULP energy per Si atom -5580.377653 kJ/mol
# Density = 1.691192 g / cm^3
# Si number density = 16.950498 Si / 1000 Ang^3
#
#
#
# Elastic Constant Matrix: (Units=GPa)
#
#
# Indices 1 2 3 4 5 6 
#
# 1 132.0864 53.4025 83.7429 0.0000 0.0000 0.0000
# 2 53.4025 61.9021 66.6580 0.0000 0.0000 0.0000
# 3 83.7429 66.6580 187.2735 0.0000 0.0000 0.0000
# 4 0.0000 0.0000 0.0000 3.7635 0.0000 0.0000
# 5 0.0000 0.0000 0.0000 0.0000 -0.8314 0.0000
# 6 0.0000 0.0000 0.0000 0.0000 0.0000 -105.1989
#
#
#
# Elastic Compliance Matrix: (Units=1/GPa)
#
#
# Indices 1 2 3 4 5 6 
#
# 1 0.012491 -0.007720 -0.002838 0.000000 0.000000 0.000000
# 2 -0.007720 0.030966 -0.007570 0.000000 0.000000 0.000000
# 3 -0.002838 -0.007570 0.009303 0.000000 0.000000 0.000000
# 4 0.000000 0.000000 0.000000 0.265713 0.000000 0.000000
# 5 0.000000 0.000000 0.000000 0.000000 -1.202816 0.000000
# 6 0.000000 0.000000 0.000000 0.000000 0.000000 -0.009506
#
#
# Mechanical properties :
#
#
# Convention : Reuss Voigt Hill
#
# Bulk Modulus (GPa) = 60.58839 87.65211 74.12025
# Shear Modulus (GPa) = -5.86792 -8.62278 -7.24535
#
# Velocity S-wave (km/s) = -1.86261 -2.25789 -2.06971
# Velocity P-wave (km/s) = 5.58535 6.71010 6.17340
#
# Compressibility (1/GPa) = 0.01650481
#
# Stress axis : x y z
#
# Youngs Moduli (GPa) = 80.05586 32.29328 107.49114
#
# Poissons Ratio (x) = 0.24932 0.30503
# Poissons Ratio (y) = 0.61806 0.81368
# Poissons Ratio (z) = 0.22718 0.24445
#
# Static dielectric constant tensor:
#      x y z
#    x 1.529480 0.000000 0.000000 
#    y 0.000000 1.569430 0.000000 
#    z 0.000000 0.000000 1.601490 
# 
# From -- ./inp_files/17460.got.cif
#   From: 2010.05.17/outbox.cif.g08.bks.cpg/sg35_9_cif.got.tgz:17460.got - 2010.06.03 17:29:28.
