data_PCOD9348874
_publ_section_title
;
Structure prediction by ZEFSAII (Michael W. Deem and Ramdas Pophale) SiO2 
 PCOD9348874
Probable space group: C M M 2
;
_chemical_formula_sum "Si O2"
_cell_formula_units_Z 40
_cell_length_a 8.697080
_cell_length_b 26.808862
_cell_length_c 9.863789
_cell_angle_alpha 90.000000
_cell_angle_beta 90.000000
_cell_angle_gamma 90.000000
_cell_volume 2299.829380
_symmetry_space_group_name_H-M "C M M 2"
_symmetry_group_IT_number 35
_symmetry_cell_setting 'orthorhombic'
loop_
_space_group_symop_operation_xyz
x,y,z
-x,-y,z
-x,y,z
x,-y,z
1/2+x,1/2+y,z
1/2-x,1/2-y,z
1/2-x,1/2+y,z
1/2+x,1/2-y,z
loop_
_atom_site_type_symbol
_atom_site_label
_atom_site_fract_x
_atom_site_fract_y
_atom_site_fract_z
Si Si1 0.184035 0.605684 0.415320
Si Si2 0.176632 0.000000 0.425752
Si Si3 0.313198 0.607765 0.113443
Si Si4 0.315274 0.303308 0.912568
Si Si5 0.323051 0.500000 0.095798
Si Si6 0.815207 0.696403 0.611483
O O1 0.243453 0.551741 0.465716
O O2 0.250818 0.614480 0.265055
O O3 0.229504 0.650996 0.513542
O O4 0.000000 0.604050 0.407357
O O5 0.177246 0.000000 0.260535
O O6 0.000000 0.000000 0.470145
O O7 0.500000 0.605255 0.121363
O O8 0.255781 0.553802 0.058766
O O9 0.271026 0.652698 0.014821
O O10 0.500000 0.300752 0.905135
O O11 0.250000 0.250000 0.959007
O O12 0.249271 0.312257 0.762430
O O13 0.500000 0.500000 0.048333
O O14 0.750000 0.750000 0.565106
O O15 0.000000 0.699346 0.616948
#
# Coordination Sequence:
#
# PCOD9348874 Si02
#       6
#     8   4   8   8   4   8
#     4  10  20  33  52  78 105 133 167 209 254 298
#     4   9  17  31  52  75 102 136 168 202 248 301
#     4   9  18  32  52  76 100 129 166 207 249 297
#     4  10  20  34  52  73  99 133 170 208 252 302
#     4   7  12  27  48  69  94 122 154 194 238 283
#     4  10  21  36  53  73 100 135 172 211 255 303
#
# _framework density 17.392596000000001
#
# number of rings (size 3 to 8) (size 9 to 14) (size 15 to 20)
#    0.000    2.600    0.000    4.500    0.000    5.600 
#    0.000    5.000    0.000    1.200    0.000    0.000 
#    0.000    0.000    0.000    0.000    0.000    0.000 
#
# Total GULP energy -111476.901557 kJ/mol
# GULP energy per Si atom -5573.845078 kJ/mol
# Density = 1.735301 g / cm^3
# Si number density = 17.392596 Si / 1000 Ang^3
#
#
#
# Elastic Constant Matrix: (Units=GPa)
#
#
# Indices 1 2 3 4 5 6 
#
# 1 43.0602 52.8707 26.1408 0.0000 0.0000 0.0000
# 2 52.8707 221.5535 96.5438 0.0000 0.0000 0.0000
# 3 26.1408 96.5438 59.5647 0.0000 0.0000 0.0000
# 4 0.0000 0.0000 0.0000 -33.5766 0.0000 0.0000
# 5 0.0000 0.0000 0.0000 0.0000 22.3454 0.0000
# 6 0.0000 0.0000 0.0000 0.0000 0.0000 27.4493
#
#
#
# Elastic Compliance Matrix: (Units=1/GPa)
#
#
# Indices 1 2 3 4 5 6 
#
# 1 0.033452 -0.005398 -0.005931 0.000000 0.000000 0.000000
# 2 -0.005398 0.016238 -0.023951 0.000000 0.000000 0.000000
# 3 -0.005931 -0.023951 0.058211 0.000000 0.000000 0.000000
# 4 0.000000 0.000000 0.000000 -0.029783 0.000000 0.000000
# 5 0.000000 0.000000 0.000000 0.000000 0.044752 0.000000
# 6 0.000000 0.000000 0.000000 0.000000 0.000000 0.036431
#
#
# Mechanical properties :
#
#
# Convention : Reuss Voigt Hill
#
# Bulk Modulus (GPa) = 26.77986 75.03212 50.90599
# Shear Modulus (GPa) = 20.63478 13.15183 16.89331
#
# Velocity S-wave (km/s) = 3.44817 2.75285 3.11994
# Velocity P-wave (km/s) = 5.59320 7.30330 6.50469
#
# Compressibility (1/GPa) = 0.03734149
#
# Stress axis : x y z
#
# Youngs Moduli (GPa) = 29.89335 61.58217 17.17886
#
# Poissons Ratio (x) = 0.33244 0.10189
# Poissons Ratio (y) = 0.16137 0.41144
# Poissons Ratio (z) = 0.17731 1.47493
#
# Static dielectric constant tensor:
#      x y z
#    x 1.595150 0.000000 0.000000 
#    y 0.000000 1.619100 0.000000 
#    z 0.000000 0.000000 1.555700 
# 
# From -- ./inp_files/5014.got.cif
#   From: 2010.05.17/outbox.cif.g08.bks.cpg/sg35_3_cif.got.tgz:5014.got - 2010.06.03 17:29:28.
