data_PCOD9348672
_publ_section_title
;
Structure prediction by ZEFSAII (Michael W. Deem and Ramdas Pophale) SiO2 
 PCOD9348672
Probable space group: C M M 2
;
_chemical_formula_sum "Si O2"
_cell_formula_units_Z 48
_cell_length_a 8.715681
_cell_length_b 15.268294
_cell_length_c 19.509893
_cell_angle_alpha 90.000000
_cell_angle_beta 90.000000
_cell_angle_gamma 90.000000
_cell_volume 2596.251305
_symmetry_space_group_name_H-M "C M M 2"
_symmetry_group_IT_number 35
_symmetry_cell_setting 'orthorhombic'
loop_
_space_group_symop_operation_xyz
x,y,z
-x,-y,z
-x,y,z
x,-y,z
1/2+x,1/2+y,z
1/2-x,1/2-y,z
1/2-x,1/2+y,z
1/2+x,1/2-y,z
loop_
_atom_site_type_symbol
_atom_site_label
_atom_site_fract_x
_atom_site_fract_y
_atom_site_fract_z
Si Si1 0.321236 0.394895 0.075020
Si Si2 0.182556 0.342222 0.930824
Si Si3 0.814444 0.500000 0.834421
Si Si4 0.314602 0.349974 0.574428
Si Si5 0.314259 0.500000 0.325421
Si Si6 0.184800 0.158043 0.225791
Si Si7 0.184129 0.000000 0.682441
Si Si8 0.683473 0.000000 0.477197
O O1 0.500000 0.368639 0.068024
O O2 0.315357 0.500000 0.077240
O O3 0.261142 0.360962 0.148031
O O4 0.233508 0.362435 0.008383
O O5 0.250000 0.250000 0.909657
O O6 0.237169 0.416673 0.878719
O O7 0.000000 0.340108 0.929048
O O8 0.753737 0.500000 0.757695
O O9 0.000000 0.500000 0.832559
O O10 0.500000 0.345380 0.570261
O O11 0.250000 0.250000 0.575653
O O12 0.272904 0.411510 0.640257
O O13 0.251897 0.412152 0.513084
O O14 0.500000 0.500000 0.335028
O O15 0.271797 0.416866 0.279009
O O16 0.233049 0.500000 0.398235
O O17 0.250000 0.250000 0.248758
O O18 0.000000 0.159001 0.222809
O O19 0.000000 0.000000 0.686560
O O20 0.500000 0.000000 0.485173
#
# Coordination Sequence:
#
# PCOD9348672 Si02
#       8
#     8   8   4   8   4   8   4   4
#     4  10  19  35  59  83 108 145 192 241 295 349
#     4  11  23  39  56  81 112 149 194 241 292 345
#     4  10  23  40  57  80 117 154 191 236 286 340
#     4  10  21  40  65  94 123 155 194 236 284 341
#     4  10  21  40  59  78 115 158 191 234 290 346
#     4  10  21  37  57  81 110 147 191 238 291 347
#     4   9  21  39  61  89 121 153 191 233 282 340
#     4  11  23  39  61  91 123 157 197 239 286 342
#
# _framework density 18.488195000000001
#
# number of rings (size 3 to 8) (size 9 to 14) (size 15 to 20)
#    0.000    1.833    1.667    2.750    0.000    7.333 
#    0.000    5.000    0.000    0.000    0.000    0.000 
#    0.000    0.000    0.000    0.000    0.000    0.000 
#
# Total GULP energy -133983.589769 kJ/mol
# GULP energy per Si atom -5582.649574 kJ/mol
# Density = 1.844612 g / cm^3
# Si number density = 18.488195 Si / 1000 Ang^3
#
#
#
# Elastic Constant Matrix: (Units=GPa)
#
#
# Indices 1 2 3 4 5 6 
#
# 1 47.2498 52.2411 45.6563 0.0000 0.0000 0.0000
# 2 52.2411 189.5568 101.0335 0.0000 0.0000 0.0000
# 3 45.6563 101.0335 164.3961 0.0000 0.0000 0.0000
# 4 0.0000 0.0000 0.0000 -618.8296 0.0000 0.0000
# 5 0.0000 0.0000 0.0000 0.0000 -6.4304 0.0000
# 6 0.0000 0.0000 0.0000 0.0000 0.0000 26.0045
#
#
#
# Elastic Compliance Matrix: (Units=1/GPa)
#
#
# Indices 1 2 3 4 5 6 
#
# 1 0.033353 -0.006328 -0.005374 0.000000 0.000000 0.000000
# 2 -0.006328 0.009046 -0.003802 0.000000 0.000000 0.000000
# 3 -0.005374 -0.003802 0.009912 0.000000 0.000000 0.000000
# 4 0.000000 0.000000 0.000000 -0.001616 0.000000 0.000000
# 5 0.000000 0.000000 0.000000 0.000000 -0.155510 0.000000
# 6 0.000000 0.000000 0.000000 0.000000 0.000000 0.038455
#
#
# Mechanical properties :
#
#
# Convention : Reuss Voigt Hill
#
# Bulk Modulus (GPa) = 46.94085 88.78496 67.86290
# Shear Modulus (GPa) = -176.97539 -106.36632 -141.67086
#
# Velocity S-wave (km/s) = -9.79445 -7.59322 -8.76322
# Velocity P-wave (km/s) = 10.12243 5.36182 8.09978
#
# Compressibility (1/GPa) = 0.02130341
#
# Stress axis : x y z
#
# Youngs Moduli (GPa) = 29.98241 110.54885 100.88813
#
# Poissons Ratio (x) = 0.69950 0.54218
# Poissons Ratio (y) = 0.18972 0.38358
# Poissons Ratio (z) = 0.16113 0.42031
#
# Static dielectric constant tensor:
#      x y z
#    x 1.630640 0.000000 0.000000 
#    y 0.000000 1.632140 0.000000 
#    z 0.000000 0.000000 1.619380 
# 
# From -- ./inp_files/17963.got.cif
#   From: 2010.05.17/outbox.cif.g08.bks.cpg/sg35_9_cif.got.tgz:17963.got - 2010.06.03 17:29:28.
