data_PCOD9348798
_publ_section_title
;
Structure prediction by ZEFSAII (Michael W. Deem and Ramdas Pophale) SiO2 
 PCOD9348798
Probable space group: C M M 2
;
_chemical_formula_sum "Si O2"
_cell_formula_units_Z 64
_cell_length_a 8.651092
_cell_length_b 29.179143
_cell_length_c 16.063106
_cell_angle_alpha 90.000000
_cell_angle_beta 90.000000
_cell_angle_gamma 90.000000
_cell_volume 4054.833148
_symmetry_space_group_name_H-M "C M M 2"
_symmetry_group_IT_number 35
_symmetry_cell_setting 'orthorhombic'
loop_
_space_group_symop_operation_xyz
x,y,z
-x,-y,z
-x,y,z
x,-y,z
1/2+x,1/2+y,z
1/2-x,1/2-y,z
1/2-x,1/2+y,z
1/2+x,1/2-y,z
loop_
_atom_site_type_symbol
_atom_site_label
_atom_site_fract_x
_atom_site_fract_y
_atom_site_fract_z
Si Si1 0.185543 0.198169 0.357130
Si Si2 0.815026 0.698616 0.851502
Si Si3 0.814406 0.146793 0.689387
Si Si4 0.185600 0.051579 0.764456
Si Si5 0.314850 0.355870 0.009953
Si Si6 0.815901 0.301811 0.529862
Si Si7 0.813824 0.801511 0.173894
Si Si8 0.815557 0.552204 0.949998
O O1 0.250000 0.250000 0.355081
O O2 0.256423 0.178288 0.441564
O O3 0.228634 0.179439 0.265706
O O4 0.000000 0.198767 0.364635
O O5 0.750000 0.750000 0.856828
O O6 0.746573 0.674257 0.769740
O O7 0.761925 0.670667 0.932764
O O8 0.000000 0.699417 0.846532
O O9 0.773361 0.093420 0.704257
O O10 0.742484 0.168300 0.606843
O O11 0.000000 0.150883 0.685778
O O12 0.265160 0.058672 0.853834
O O13 0.000000 0.053607 0.777574
O O14 0.223905 0.000000 0.735265
O O15 0.500000 0.351908 0.002212
O O16 0.265936 0.408641 0.003100
O O17 0.265050 0.332597 0.096518
O O18 0.750000 0.250000 0.538645
O O19 0.000000 0.299025 0.529066
O O20 0.750000 0.750000 0.164666
O O21 0.000000 0.798449 0.172458
O O22 0.773077 0.500000 0.972934
O O23 0.000000 0.557050 0.955757
#
# Coordination Sequence:
#
# PCOD9348798 Si02
#       8
#     8   8   8   8   8   8   8   8
#     4   9  16  30  49  70  95 124 159 201 245 287
#     4  12  24  36  48  66  97 134 170 203 238 284
#     4  11  21  34  51  72  98 129 164 201 243 291
#     4   9  18  33  53  73  94 123 160 202 246 292
#     4  11  21  34  50  72  99 131 167 202 244 293
#     4  11  21  33  49  71  99 130 165 202 242 289
#     4   9  19  32  49  72  99 129 163 201 241 287
#     4  10  20  33  50  72  97 126 163 207 251 291
#
# _framework density 15.783633
#
# number of rings (size 3 to 8) (size 9 to 14) (size 15 to 20)
#    0.000    1.750    1.250    5.250    0.000    3.750 
#    0.000    0.000    0.000    0.000    0.000    0.875 
#    0.000    3.000    0.000    0.000    0.000    0.000 
#
# Total GULP energy -178562.844300 kJ/mol
# GULP energy per Si atom -5580.088884 kJ/mol
# Density = 1.574771 g / cm^3
# Si number density = 15.783633 Si / 1000 Ang^3
#
#
#
# Elastic Constant Matrix: (Units=GPa)
#
#
# Indices 1 2 3 4 5 6 
#
# 1 72.6789 36.6680 46.6750 0.0000 0.0000 0.0000
# 2 36.6680 97.6492 64.5792 0.0000 0.0000 0.0000
# 3 46.6750 64.5792 148.9665 0.0000 0.0000 0.0000
# 4 0.0000 0.0000 0.0000 6.5172 0.0000 0.0000
# 5 0.0000 0.0000 0.0000 0.0000 10.0974 0.0000
# 6 0.0000 0.0000 0.0000 0.0000 0.0000 18.6141
#
#
#
# Elastic Compliance Matrix: (Units=1/GPa)
#
#
# Indices 1 2 3 4 5 6 
#
# 1 0.018458 -0.004355 -0.003895 0.000000 0.000000 0.000000
# 2 -0.004355 0.015384 -0.005305 0.000000 0.000000 0.000000
# 3 -0.003895 -0.005305 0.010233 0.000000 0.000000 0.000000
# 4 0.000000 0.000000 0.000000 0.153441 0.000000 0.000000
# 5 0.000000 0.000000 0.000000 0.000000 0.099036 0.000000
# 6 0.000000 0.000000 0.000000 0.000000 0.000000 0.053723
#
#
# Mechanical properties :
#
#
# Convention : Reuss Voigt Hill
#
# Bulk Modulus (GPa) = 58.94442 68.34880 63.64661
# Shear Modulus (GPa) = 13.05346 18.47055 15.76200
#
# Velocity S-wave (km/s) = 2.87892 3.42458 3.16354
# Velocity P-wave (km/s) = 6.96256 7.68340 7.33184
#
# Compressibility (1/GPa) = 0.01696513
#
# Stress axis : x y z
#
# Youngs Moduli (GPa) = 54.17706 65.00116 97.72119
#
# Poissons Ratio (x) = 0.28307 0.38067
# Poissons Ratio (y) = 0.23594 0.51840
# Poissons Ratio (z) = 0.21104 0.34482
#
# Static dielectric constant tensor:
#      x y z
#    x 1.528990 0.000000 0.000000 
#    y 0.000000 1.508630 0.000000 
#    z 0.000000 0.000000 1.532510 
# 
# From -- ./inp_files/16167.got.cif
#   From: 2010.05.17/outbox.cif.g08.bks.cpg/sg35_9_cif.got.tgz:16167.got - 2010.06.03 17:29:28.
