data_PCOD9348915
_publ_section_title
;
Structure prediction by ZEFSAII (Michael W. Deem and Ramdas Pophale) SiO2 
 PCOD9348915
Probable space group: C M M 2
;
_chemical_formula_sum "Si O2"
_cell_formula_units_Z 64
_cell_length_a 9.087222
_cell_length_b 14.827658
_cell_length_c 21.741001
_cell_angle_alpha 90.000000
_cell_angle_beta 90.000000
_cell_angle_gamma 90.000000
_cell_volume 2929.430739
_symmetry_space_group_name_H-M "C M M 2"
_symmetry_group_IT_number 35
_symmetry_cell_setting 'orthorhombic'
loop_
_space_group_symop_operation_xyz
x,y,z
-x,-y,z
-x,y,z
x,-y,z
1/2+x,1/2+y,z
1/2-x,1/2-y,z
1/2-x,1/2+y,z
1/2+x,1/2-y,z
loop_
_atom_site_type_symbol
_atom_site_label
_atom_site_fract_x
_atom_site_fract_y
_atom_site_fract_z
Si Si1 0.336398 0.606131 0.267200
Si Si2 0.168007 0.389357 0.387313
Si Si3 0.834812 0.893807 0.753104
Si Si4 0.677218 0.652474 0.889003
Si Si5 0.332650 0.389761 0.510897
Si Si6 0.333434 0.110581 0.633869
Si Si7 0.176217 0.348639 0.143836
Si Si8 0.177975 0.850473 0.022834
O O1 0.500000 0.644770 0.254644
O O2 0.353846 0.500000 0.278121
O O3 0.263358 0.642497 0.329253
O O4 0.230600 0.613196 0.208570
O O5 0.167450 0.500000 0.386655
O O6 0.237349 0.361920 0.452207
O O7 0.000000 0.359624 0.381469
O O8 0.778294 0.886982 0.823080
O O9 0.732120 0.858445 0.699023
O O10 0.000000 0.854203 0.749877
O O11 0.848615 0.000000 0.740897
O O12 0.500000 0.658347 0.887985
O O13 0.750000 0.750000 0.890045
O O14 0.711009 0.608362 0.955399
O O15 0.500000 0.359085 0.504534
O O16 0.333636 0.500000 0.510864
O O17 0.264298 0.361843 0.575853
O O18 0.500000 0.141473 0.626028
O O19 0.335803 0.000000 0.633877
O O20 0.250000 0.250000 0.144399
O O21 0.247570 0.393329 0.082939
O O22 0.000000 0.346503 0.139150
O O23 0.250000 0.750000 0.019689
O O24 0.000000 0.845558 0.030560
#
# Coordination Sequence:
#
# PCOD9348915 Si02
#       8
#     8   8   8   8   8   8   8   8
#     4  10  20  34  51  72 100 132 164 199 242 291
#     4   9  16  26  41  63  92 124 157 195 238 281
#     4   9  17  30  46  65  92 124 155 188 230 280
#     4   9  18  31  49  71  93 120 155 194 234 278
#     4   9  15  23  37  58  85 119 157 194 232 275
#     4   9  16  25  38  59  87 118 152 191 234 276
#     4  11  21  34  53  75  99 127 162 202 243 288
#     4   9  16  29  48  70  94 120 155 196 238 281
#
# _framework density 21.847249000000001
#
# number of rings (size 3 to 8) (size 9 to 14) (size 15 to 20)
#    0.000    2.625    0.000    3.750    0.000    6.250 
#    0.000    0.625    0.000    2.250    0.000    0.875 
#    0.000    2.000    0.000    0.000    0.000    0.000 
#
# Total GULP energy -178511.234411 kJ/mol
# GULP energy per Si atom -5578.476075 kJ/mol
# Density = 2.179752 g / cm^3
# Si number density = 21.847249 Si / 1000 Ang^3
#
#
#
# Elastic Constant Matrix: (Units=GPa)
#
#
# Indices 1 2 3 4 5 6 
#
# 1 143.0103 6.8686 85.1627 0.0000 0.0000 0.0000
# 2 6.8686 39.9533 2.1927 0.0000 0.0000 0.0000
# 3 85.1627 2.1927 190.9151 0.0000 0.0000 0.0000
# 4 0.0000 0.0000 0.0000 17.8317 0.0000 0.0000
# 5 0.0000 0.0000 0.0000 0.0000 -37.8368 0.0000
# 6 0.0000 0.0000 0.0000 0.0000 0.0000 6.9703
#
#
#
# Elastic Compliance Matrix: (Units=1/GPa)
#
#
# Indices 1 2 3 4 5 6 
#
# 1 0.009601 -0.001416 -0.004267 0.000000 0.000000 0.000000
# 2 -0.001416 0.025254 0.000342 0.000000 0.000000 0.000000
# 3 -0.004267 0.000342 0.007137 0.000000 0.000000 0.000000
# 4 0.000000 0.000000 0.000000 0.056080 0.000000 0.000000
# 5 0.000000 0.000000 0.000000 0.000000 -0.026429 0.000000
# 6 0.000000 0.000000 0.000000 0.000000 0.000000 0.143466
#
#
# Mechanical properties :
#
#
# Convention : Reuss Voigt Hill
#
# Bulk Modulus (GPa) = 31.93872 62.48072 47.20972
# Shear Modulus (GPa) = 21.16598 16.03671 18.60134
#
# Velocity S-wave (km/s) = 3.11596 2.71225 2.92109
# Velocity P-wave (km/s) = 5.25323 6.20237 5.74743
#
# Compressibility (1/GPa) = 0.03130996
#
# Stress axis : x y z
#
# Youngs Moduli (GPa) = 104.15223 39.59770 140.10985
#
# Poissons Ratio (x) = 0.05609 0.59780
# Poissons Ratio (y) = 0.14753 -0.04789
# Poissons Ratio (z) = 0.44438 -0.01353
#
# Static dielectric constant tensor:
#      x y z
#    x 1.761960 0.000000 0.000000 
#    y 0.000000 1.868320 0.000000 
#    z 0.000000 0.000000 1.824330 
# 
# From -- ./inp_files/18492.got.cif
#   From: 2010.05.17/outbox.cif.g08.bks.cpg/sg35_10_cif.got.tgz:18492.got - 2010.06.03 17:29:28.
