data_PCOD9348162
_publ_section_title
;
Structure prediction by ZEFSAII (Michael W. Deem and Ramdas Pophale) SiO2 
 PCOD9348162
Probable space group: C M M 2
;
_chemical_formula_sum "Si O2"
_cell_formula_units_Z 64
_cell_length_a 24.130212
_cell_length_b 14.533041
_cell_length_c 9.502564
_cell_angle_alpha 90.000000
_cell_angle_beta 90.000000
_cell_angle_gamma 90.000000
_cell_volume 3332.410080
_symmetry_space_group_name_H-M "C M M 2"
_symmetry_group_IT_number 35
_symmetry_cell_setting 'orthorhombic'
loop_
_space_group_symop_operation_xyz
x,y,z
-x,-y,z
-x,y,z
x,-y,z
1/2+x,1/2+y,z
1/2-x,1/2-y,z
1/2-x,1/2+y,z
1/2+x,1/2-y,z
loop_
_atom_site_type_symbol
_atom_site_label
_atom_site_fract_x
_atom_site_fract_y
_atom_site_fract_z
Si Si1 0.933217 0.208545 0.102020
Si Si2 0.855079 0.894532 0.885255
Si Si3 0.126672 0.602481 0.143095
Si Si4 0.650380 0.100610 0.477447
Si Si5 0.632231 0.699684 0.592219
Si Si6 0.752727 0.139554 0.082025
Si Si7 0.434551 0.603723 0.383993
Si Si8 0.230926 0.144655 0.394731
O O1 0.909841 0.312273 0.091601
O O2 0.915738 0.167892 0.254668
O O3 0.000000 0.206553 0.088417
O O4 0.901894 0.144978 0.989588
O O5 0.854812 0.829182 0.749646
O O6 0.866940 0.000000 0.845086
O O7 0.795862 0.891770 0.964600
O O8 0.104238 0.500000 0.115122
O O9 0.133330 0.612275 0.313052
O O10 0.188826 0.608026 0.079247
O O11 0.633055 0.191034 0.563315
O O12 0.717221 0.099107 0.471903
O O13 0.630153 0.000000 0.525989
O O14 0.577095 0.653926 0.530953
O O15 0.677543 0.650763 0.490840
O O16 0.750000 0.250000 0.073844
O O17 0.775609 0.109861 0.235937
O O18 0.500000 0.596058 0.365135
O O19 0.411207 0.500000 0.378300
O O20 0.250000 0.250000 0.376165
#
# Coordination Sequence:
#
# PCOD9348162 Si02
#       8
#     8   8   8   8   8   8   8   8
#     4  11  23  42  64  88 119 157 205 263 308 354
#     4  12  26  39  56  88 127 168 205 247 305 366
#     4  10  19  37  66  97 122 155 200 250 306 361
#     4   9  18  34  60  90 120 153 194 241 293 352
#     4  11  21  38  58  84 126 159 196 245 296 360
#     4  10  18  36  64  87 124 164 201 248 300 362
#     4  10  21  38  62  87 111 149 203 255 303 354
#     4   8  17  32  56  84 112 154 197 240 288 342
#
# _framework density 19.205318999999999
#
# number of rings (size 3 to 8) (size 9 to 14) (size 15 to 20)
#    0.000    1.875    2.500    2.625    0.000    4.500 
#    0.000    0.625    0.000    0.375    0.000    0.000 
#    0.000    0.000    0.000    0.000    0.000    0.000 
#
# Total GULP energy -178523.725952 kJ/mol
# GULP energy per Si atom -5578.866436 kJ/mol
# Density = 1.916161 g / cm^3
# Si number density = 19.205319 Si / 1000 Ang^3
#
#
#
# Elastic Constant Matrix: (Units=GPa)
#
#
# Indices 1 2 3 4 5 6 
#
# 1 56.8056 27.4956 24.1441 0.0000 0.0000 0.0000
# 2 27.4956 159.5464 27.7660 0.0000 0.0000 0.0000
# 3 24.1441 27.7660 78.1155 0.0000 0.0000 0.0000
# 4 0.0000 0.0000 0.0000 839.0936 0.0000 0.0000
# 5 0.0000 0.0000 0.0000 0.0000 9.1706 0.0000
# 6 0.0000 0.0000 0.0000 0.0000 0.0000 15.0414
#
#
#
# Elastic Compliance Matrix: (Units=1/GPa)
#
#
# Indices 1 2 3 4 5 6 
#
# 1 0.021298 -0.002691 -0.005626 0.000000 0.000000 0.000000
# 2 -0.002691 0.007021 -0.001664 0.000000 0.000000 0.000000
# 3 -0.005626 -0.001664 0.015132 0.000000 0.000000 0.000000
# 4 0.000000 0.000000 0.000000 0.001192 0.000000 0.000000
# 5 0.000000 0.000000 0.000000 0.000000 0.109044 0.000000
# 6 0.000000 0.000000 0.000000 0.000000 0.000000 0.066483
#
#
# Mechanical properties :
#
#
# Convention : Reuss Voigt Hill
#
# Bulk Modulus (GPa) = 42.57427 50.36430 46.46929
# Shear Modulus (GPa) = 20.16443 186.99859 103.58151
#
# Velocity S-wave (km/s) = 3.24379 9.87823 7.35193
# Velocity P-wave (km/s) = 6.02044 12.50548 9.81409
#
# Compressibility (1/GPa) = 0.02348837
#
# Stress axis : x y z
#
# Youngs Moduli (GPa) = 46.95310 142.42732 66.08548
#
# Poissons Ratio (x) = 0.38331 0.37181
# Poissons Ratio (y) = 0.12636 0.10995
# Poissons Ratio (z) = 0.26417 0.23697
#
# Static dielectric constant tensor:
#      x y z
#    x 1.697440 0.000000 0.000000 
#    y 0.000000 -2.340420 0.000000 
#    z 0.000000 0.000000 1.655340 
# 
# From -- ./inp_files/9898.got.cif
#   From: 2010.05.17/outbox.cif.g08.bks.cpg/sg35_5_cif.got.tgz:9898.got - 2010.06.03 17:29:28.
