data_PCOD9348754
_publ_section_title
;
Structure prediction by ZEFSAII (Michael W. Deem and Ramdas Pophale) SiO2 
 PCOD9348754
Probable space group: C M M 2
;
_chemical_formula_sum "Si O2"
_cell_formula_units_Z 64
_cell_length_a 20.464220
_cell_length_b 15.161895
_cell_length_c 10.082305
_cell_angle_alpha 90.000000
_cell_angle_beta 90.000000
_cell_angle_gamma 90.000000
_cell_volume 3128.300844
_symmetry_space_group_name_H-M "C M M 2"
_symmetry_group_IT_number 35
_symmetry_cell_setting 'orthorhombic'
loop_
_space_group_symop_operation_xyz
x,y,z
-x,-y,z
-x,y,z
x,-y,z
1/2+x,1/2+y,z
1/2-x,1/2-y,z
1/2-x,1/2+y,z
1/2+x,1/2-y,z
loop_
_atom_site_type_symbol
_atom_site_label
_atom_site_fract_x
_atom_site_fract_y
_atom_site_fract_z
Si Si1 0.180925 0.397181 0.254810
Si Si2 0.928460 0.896627 0.767392
Si Si3 0.319075 0.897181 0.959989
Si Si4 0.713702 0.343706 0.456239
Si Si5 0.924400 0.392276 0.460320
Si Si6 0.928460 0.103373 0.447407
Si Si7 0.713702 0.343706 0.758560
Si Si8 0.424400 0.107724 0.754480
O O1 0.164981 0.500000 0.239257
O O2 0.245479 0.393192 0.344063
O O3 0.122290 0.359710 0.344518
O O4 0.187821 0.358180 0.107400
O O5 0.932023 0.894269 0.607400
O O6 0.862314 0.844678 0.798869
O O7 0.000000 0.866204 0.816950
O O8 0.920281 0.000000 0.804801
O O9 0.254521 0.893192 0.870736
O O10 0.377710 0.859710 0.870281
O O11 0.335019 0.000000 0.975542
O O12 0.750000 0.250000 0.460726
O O13 0.637686 0.344678 0.415930
O O14 0.718181 0.381088 0.607400
O O15 0.922492 0.500000 0.462445
O O16 0.902283 0.362308 0.607400
O O17 0.000000 0.367268 0.443531
O O18 0.000000 0.133796 0.397849
O O19 0.920281 0.000000 0.409998
O O20 0.750000 0.250000 0.754073
O O21 0.500000 0.132732 0.771268
O O22 0.422492 0.000000 0.752354
#
# Coordination Sequence:
#
# PCOD9348754 Si02
#       8
#     8   8   8   8   8   8   8   8
#     4  10  20  32  48  71  98 131 170 210 256 313
#     4   8  14  27  50  77 100 126 167 218 263 301
#     4  10  20  32  48  71  98 131 170 210 256 313
#     4  10  20  33  50  74 103 133 166 208 264 325
#     4   8  14  26  45  68  93 122 159 204 248 286
#     4   8  14  27  50  77 100 126 167 218 263 301
#     4  10  20  33  50  74 103 133 166 208 264 325
#     4   8  14  26  45  68  93 122 159 204 248 286
#
# _framework density 20.458389
#
# number of rings (size 3 to 8) (size 9 to 14) (size 15 to 20)
#    0.000    3.000    0.000    3.000    0.000    3.500 
#    0.000    3.750    0.000    5.250    0.000    3.500 
#    0.000    0.000    0.000    0.000    0.000    0.000 
#
# Total GULP energy -178268.004630 kJ/mol
# GULP energy per Si atom -5570.875145 kJ/mol
# Density = 2.041182 g / cm^3
# Si number density = 20.458389 Si / 1000 Ang^3
#
#
#
# Elastic Constant Matrix: (Units=GPa)
#
#
# Indices 1 2 3 4 5 6 
#
# 1 186.3794 26.9244 80.9943 0.0000 0.0000 0.0000
# 2 26.9244 42.2317 15.9709 0.0000 0.0000 0.0000
# 3 80.9943 15.9709 137.8981 0.0000 0.0000 0.0000
# 4 0.0000 0.0000 0.0000 7.5471 0.0000 0.0000
# 5 0.0000 0.0000 0.0000 0.0000 -8.2440 0.0000
# 6 0.0000 0.0000 0.0000 0.0000 0.0000 12.1732
#
#
#
# Elastic Compliance Matrix: (Units=1/GPa)
#
#
# Indices 1 2 3 4 5 6 
#
# 1 0.007623 -0.003312 -0.004094 0.000000 0.000000 0.000000
# 2 -0.003312 0.026202 -0.001090 0.000000 0.000000 0.000000
# 3 -0.004094 -0.001090 0.009782 0.000000 0.000000 0.000000
# 4 0.000000 0.000000 0.000000 0.132502 0.000000 0.000000
# 5 0.000000 0.000000 0.000000 0.000000 -0.121300 0.000000
# 6 0.000000 0.000000 0.000000 0.000000 0.000000 0.082148
#
#
# Mechanical properties :
#
#
# Convention : Reuss Voigt Hill
#
# Bulk Modulus (GPa) = 37.56919 68.25425 52.91172
# Shear Modulus (GPa) = 30.70895 18.46989 24.58942
#
# Velocity S-wave (km/s) = 3.87853 3.00793 3.47064
# Velocity P-wave (km/s) = 6.20169 6.74525 6.47917
#
# Compressibility (1/GPa) = 0.02661756
#
# Stress axis : x y z
#
# Youngs Moduli (GPa) = 131.18553 38.16462 102.22503
#
# Poissons Ratio (x) = 0.12639 0.41848
# Poissons Ratio (y) = 0.43445 0.11138
# Poissons Ratio (z) = 0.53703 0.04158
#
# Static dielectric constant tensor:
#      x y z
#    x 1.751470 0.000000 0.000000 
#    y 0.000000 1.804220 0.000000 
#    z 0.000000 0.000000 1.737250 
# 
# From -- ./inp_files/8779.got.cif
#   From: 2010.05.17/outbox.cif.g08.bks.cpg/sg35_5_cif.got.tgz:8779.got - 2010.06.03 17:29:28.
