data_PCOD9348860
_publ_section_title
;
Structure prediction by ZEFSAII (Michael W. Deem and Ramdas Pophale) SiO2 
 PCOD9348860
Probable space group: C M M 2
;
_chemical_formula_sum "Si O2"
_cell_formula_units_Z 64
_cell_length_a 9.071864
_cell_length_b 19.192587
_cell_length_c 21.096925
_cell_angle_alpha 90.000000
_cell_angle_beta 90.000000
_cell_angle_gamma 90.000000
_cell_volume 3673.239178
_symmetry_space_group_name_H-M "C M M 2"
_symmetry_group_IT_number 35
_symmetry_cell_setting 'orthorhombic'
loop_
_space_group_symop_operation_xyz
x,y,z
-x,-y,z
-x,y,z
x,-y,z
1/2+x,1/2+y,z
1/2-x,1/2-y,z
1/2-x,1/2+y,z
1/2+x,1/2-y,z
loop_
_atom_site_type_symbol
_atom_site_label
_atom_site_fract_x
_atom_site_fract_y
_atom_site_fract_z
Si Si1 0.676087 0.825514 0.977320
Si Si2 0.673457 0.582967 0.227051
Si Si3 0.673251 0.416485 0.870297
Si Si4 0.823102 0.082296 0.372935
Si Si5 0.324816 0.175064 0.121888
Si Si6 0.669914 0.084692 0.741367
Si Si7 0.177588 0.674023 0.481398
Si Si8 0.179311 0.419833 0.601227
O O1 0.500000 0.819663 0.970926
O O2 0.750000 0.750000 0.968421
O O3 0.740241 0.878102 0.925915
O O4 0.709571 0.848341 0.049738
O O5 0.500000 0.599069 0.218991
O O6 0.691154 0.500000 0.219994
O O7 0.713419 0.600101 0.299854
O O8 0.765212 0.623307 0.174841
O O9 0.500000 0.401649 0.875031
O O10 0.694085 0.500000 0.875022
O O11 0.734705 0.393841 0.801585
O O12 0.736018 0.129801 0.421843
O O13 0.000000 0.091087 0.380656
O O14 0.791059 0.000000 0.382758
O O15 0.500000 0.182371 0.126860
O O16 0.250000 0.250000 0.130816
O O17 0.500000 0.107438 0.749449
O O18 0.726005 0.104834 0.671422
O O19 0.668503 0.000000 0.740003
O O20 0.250000 0.750000 0.481494
O O21 0.221684 0.630979 0.544548
O O22 0.000000 0.679262 0.479652
O O23 0.228423 0.500000 0.590423
O O24 0.000000 0.421768 0.603257
#
# Coordination Sequence:
#
# PCOD9348860 Si02
#       8
#     8   8   8   8   8   8   8   8
#     4  10  21  37  55  75 102 137 176 215 258 308
#     4   9  19  36  57  80 107 137 168 208 258 308
#     4  10  20  33  51  78 109 138 172 214 256 302
#     4   9  19  37  58  79 104 135 172 212 256 308
#     4  10  21  36  55  78 104 136 174 215 256 305
#     4   8  14  28  51  75  99 130 169 213 260 308
#     4  11  22  35  52  76 107 140 175 215 258 304
#     4   8  15  30  53  77  98 127 171 217 260 309
#
# _framework density 17.423314000000001
#
# number of rings (size 3 to 8) (size 9 to 14) (size 15 to 20)
#    0.000    2.625    0.000    3.375    0.000    4.750 
#    0.000    5.625    0.000    4.500    0.000    0.000 
#    0.000    0.000    0.000    0.000    0.000    0.000 
#
# Total GULP energy -178471.621199 kJ/mol
# GULP energy per Si atom -5577.238162 kJ/mol
# Density = 1.738366 g / cm^3
# Si number density = 17.423314 Si / 1000 Ang^3
#
#
#
# Elastic Constant Matrix: (Units=GPa)
#
#
# Indices 1 2 3 4 5 6 
#
# 1 70.5526 49.8225 80.4819 0.0000 0.0000 0.0000
# 2 49.8225 63.2920 79.6769 0.0000 0.0000 0.0000
# 3 80.4819 79.6769 166.4631 0.0000 0.0000 0.0000
# 4 0.0000 0.0000 0.0000 -56.3911 0.0000 0.0000
# 5 0.0000 0.0000 0.0000 0.0000 24.7998 0.0000
# 6 0.0000 0.0000 0.0000 0.0000 0.0000 24.2652
#
#
#
# Elastic Compliance Matrix: (Units=1/GPa)
#
#
# Indices 1 2 3 4 5 6 
#
# 1 0.037644 -0.016910 -0.010106 0.000000 0.000000 0.000000
# 2 -0.016910 0.047350 -0.014488 0.000000 0.000000 0.000000
# 3 -0.010106 -0.014488 0.017828 0.000000 0.000000 0.000000
# 4 0.000000 0.000000 0.000000 -0.017733 0.000000 0.000000
# 5 0.000000 0.000000 0.000000 0.000000 0.040323 0.000000
# 6 0.000000 0.000000 0.000000 0.000000 0.000000 0.041211
#
#
# Mechanical properties :
#
#
# Convention : Reuss Voigt Hill
#
# Bulk Modulus (GPa) = 50.47175 80.03003 65.25089
# Shear Modulus (GPa) = 19.51323 4.55653 12.03488
#
# Velocity S-wave (km/s) = 3.35019 1.61891 2.63103
# Velocity P-wave (km/s) = 6.63294 7.03754 6.83823
#
# Compressibility (1/GPa) = 0.01981306
#
# Stress axis : x y z
#
# Youngs Moduli (GPa) = 26.56478 21.11924 56.09119
#
# Poissons Ratio (x) = 0.35713 0.56686
# Poissons Ratio (y) = 0.44922 0.81266
# Poissons Ratio (z) = 0.26846 0.30598
#
# Static dielectric constant tensor:
#      x y z
#    x 1.579860 0.000000 0.000000 
#    y 0.000000 1.565050 0.000000 
#    z 0.000000 0.000000 1.595950 
# 
# From -- ./inp_files/18297.got.cif
#   From: 2010.05.17/outbox.cif.g08.bks.cpg/sg35_10_cif.got.tgz:18297.got - 2010.06.03 17:29:28.
