data_PCOD9348962
_publ_section_title
;
Structure prediction by ZEFSAII (Michael W. Deem and Ramdas Pophale) SiO2 
 PCOD9348962
Probable space group: C M M 2
;
_chemical_formula_sum "Si O2"
_cell_formula_units_Z 64
_cell_length_a 7.935799
_cell_length_b 19.204194
_cell_length_c 21.073341
_cell_angle_alpha 90.000000
_cell_angle_beta 90.000000
_cell_angle_gamma 90.000000
_cell_volume 3211.590308
_symmetry_space_group_name_H-M "C M M 2"
_symmetry_group_IT_number 35
_symmetry_cell_setting 'orthorhombic'
loop_
_space_group_symop_operation_xyz
x,y,z
-x,-y,z
-x,y,z
x,-y,z
1/2+x,1/2+y,z
1/2-x,1/2-y,z
1/2-x,1/2+y,z
1/2+x,1/2-y,z
loop_
_atom_site_type_symbol
_atom_site_label
_atom_site_fract_x
_atom_site_fract_y
_atom_site_fract_z
Si Si1 0.296493 0.169445 0.990330
Si Si2 0.298217 0.078835 0.871520
Si Si3 0.703032 0.670882 0.609792
Si Si4 0.294435 0.080137 0.109230
Si Si5 0.298720 0.329149 0.753344
Si Si6 0.300282 0.669663 0.372036
Si Si7 0.293250 0.419864 0.491493
Si Si8 0.297131 0.078987 0.252506
O O1 0.500000 0.165410 0.990388
O O2 0.250000 0.250000 0.986772
O O3 0.233494 0.126145 0.929478
O O4 0.235688 0.132487 0.054946
O O5 0.500000 0.074762 0.879166
O O6 0.264292 0.116946 0.805298
O O7 0.231435 0.000000 0.873041
O O8 0.500000 0.666891 0.611543
O O9 0.750000 0.750000 0.592456
O O10 0.765570 0.657699 0.681561
O O11 0.762283 0.617367 0.556432
O O12 0.500000 0.081621 0.109195
O O13 0.239076 0.096930 0.181054
O O14 0.246502 0.000000 0.095215
O O15 0.500000 0.333095 0.752047
O O16 0.250000 0.250000 0.770689
O O17 0.500000 0.667116 0.377123
O O18 0.250000 0.750000 0.374594
O O19 0.232491 0.624907 0.431356
O O20 0.252484 0.632938 0.306269
O O21 0.500000 0.419452 0.491363
O O22 0.240179 0.500000 0.487401
O O23 0.500000 0.076877 0.250575
O O24 0.238087 0.000000 0.267445
#
# Coordination Sequence:
#
# PCOD9348962 Si02
#       8
#     8   8   8   8   8   8   8   8
#     4  10  20  34  53  76 102 133 171 212 254 303
#     4  10  21  36  54  76 103 136 173 215 261 307
#     4   9  18  33  54  77 102 133 168 207 250 300
#     4   8  15  31  55  78 100 131 170 208 248 299
#     4  10  20  34  54  79 106 138 173 210 254 304
#     4  11  22  35  53  76 104 138 175 215 258 305
#     4   9  18  33  53  76 101 131 169 212 257 305
#     4   9  18  34  56  80 106 136 170 210 256 306
#
# _framework density 19.927821999999999
#
# number of rings (size 3 to 8) (size 9 to 14) (size 15 to 20)
#    0.000    2.500    0.000    3.000    0.000    5.500 
#    0.000    3.750    0.000    3.750    0.000    0.000 
#    0.000    0.000    0.000    0.000    0.000    0.000 
#
# Total GULP energy -178635.836236 kJ/mol
# GULP energy per Si atom -5582.369882 kJ/mol
# Density = 1.988247 g / cm^3
# Si number density = 19.927822 Si / 1000 Ang^3
#
#
#
# Elastic Constant Matrix: (Units=GPa)
#
#
# Indices 1 2 3 4 5 6 
#
# 1 17.9315 8.0198 9.0461 0.0000 0.0000 0.0000
# 2 8.0198 203.2050 145.5397 0.0000 0.0000 0.0000
# 3 9.0461 145.5397 161.4654 0.0000 0.0000 0.0000
# 4 0.0000 0.0000 0.0000 42.4898 0.0000 0.0000
# 5 0.0000 0.0000 0.0000 0.0000 4.4244 0.0000
# 6 0.0000 0.0000 0.0000 0.0000 0.0000 16.3484
#
#
#
# Elastic Compliance Matrix: (Units=1/GPa)
#
#
# Indices 1 2 3 4 5 6 
#
# 1 0.057390 0.000107 -0.003312 0.000000 0.000000 0.000000
# 2 0.000107 0.013885 -0.012522 0.000000 0.000000 0.000000
# 3 -0.003312 -0.012522 0.017665 0.000000 0.000000 0.000000
# 4 0.000000 0.000000 0.000000 0.023535 0.000000 0.000000
# 5 0.000000 0.000000 0.000000 0.000000 0.226017 0.000000
# 6 0.000000 0.000000 0.000000 0.000000 0.000000 0.061168
#
#
# Mechanical properties :
#
#
# Convention : Reuss Voigt Hill
#
# Bulk Modulus (GPa) = 17.39485 78.64589 48.02037
# Shear Modulus (GPa) = 11.10427 27.31896 19.21161
#
# Velocity S-wave (km/s) = 2.36312 3.70658 3.10830
# Velocity P-wave (km/s) = 4.02414 7.60719 6.08535
#
# Compressibility (1/GPa) = 0.05748829
#
# Stress axis : x y z
#
# Youngs Moduli (GPa) = 17.42449 72.01916 56.60777
#
# Poissons Ratio (x) = -0.00769 0.18746
# Poissons Ratio (y) = -0.00186 0.70882
# Poissons Ratio (z) = 0.05770 0.90180
#
# Static dielectric constant tensor:
#      x y z
#    x 1.724940 0.000000 0.000000 
#    y 0.000000 1.647280 0.000000 
#    z 0.000000 0.000000 1.708150 
# 
# From -- ./inp_files/18337.got.cif
#   From: 2010.05.17/outbox.cif.g08.bks.cpg/sg35_10_cif.got.tgz:18337.got - 2010.06.03 17:29:28.
