data_PCOD9348348
_publ_section_title
;
Structure prediction by ZEFSAII (Michael W. Deem and Ramdas Pophale) SiO2 
 PCOD9348348
Probable space group: C M M 2
;
_chemical_formula_sum "Si O2"
_cell_formula_units_Z 64
_cell_length_a 7.929915
_cell_length_b 28.723561
_cell_length_c 14.603450
_cell_angle_alpha 90.000000
_cell_angle_beta 90.000000
_cell_angle_gamma 90.000000
_cell_volume 3326.306625
_symmetry_space_group_name_H-M "C M M 2"
_symmetry_group_IT_number 35
_symmetry_cell_setting 'orthorhombic'
loop_
_space_group_symop_operation_xyz
x,y,z
-x,-y,z
-x,y,z
x,-y,z
1/2+x,1/2+y,z
1/2-x,1/2-y,z
1/2-x,1/2+y,z
1/2+x,1/2-y,z
loop_
_atom_site_type_symbol
_atom_site_label
_atom_site_fract_x
_atom_site_fract_y
_atom_site_fract_z
Si Si1 0.795961 0.052103 0.536090
Si Si2 0.308722 0.876996 0.177847
Si Si3 0.295845 0.804016 0.033229
Si Si4 0.693733 0.055376 0.826561
Si Si5 0.302830 0.555194 0.030749
Si Si6 0.687551 0.622105 0.681499
Si Si7 0.300819 0.196541 0.828729
Si Si8 0.203892 0.447906 0.323295
O O1 0.728750 0.095882 0.594878
O O2 0.750139 0.056623 0.429674
O O3 0.000000 0.052214 0.544963
O O4 0.737331 0.000000 0.566402
O O5 0.500000 0.863203 0.203350
O O6 0.230810 0.834714 0.118718
O O7 0.308789 0.917854 0.102737
O O8 0.230005 0.904071 0.264488
O O9 0.500000 0.809189 0.033802
O O10 0.250000 0.750000 0.044536
O O11 0.233017 0.817782 0.930444
O O12 0.500000 0.070040 0.810332
O O13 0.811141 0.080203 0.754512
O O14 0.704019 0.000000 0.818282
O O15 0.746736 0.067950 0.928820
O O16 0.500000 0.566294 0.044509
O O17 0.281596 0.500000 0.040293
O O18 0.500000 0.636097 0.653453
O O19 0.756507 0.664415 0.742382
O O20 0.500000 0.194886 0.837974
O O21 0.250000 0.250000 0.813452
O O22 0.262467 0.500000 0.292883
O O23 0.000000 0.447778 0.314571
#
# Coordination Sequence:
#
# PCOD9348348 Si02
#       8
#     8   8   8   8   8   8   8   8
#     4   9  19  35  53  74 103 137 171 211 258 305
#     4  10  19  32  51  74 100 131 168 209 254 303
#     4   9  19  34  52  74 101 132 166 205 249 299
#     4  10  20  32  46  67  98 135 170 204 246 300
#     4  10  20  31  44  67  99 133 167 202 243 296
#     4  11  21  33  52  76 101 131 169 213 261 311
#     4  10  20  35  54  77 105 137 173 212 257 308
#     4   9  18  32  51  75 102 133 170 212 256 303
#
# _framework density 19.240559999999999
#
# number of rings (size 3 to 8) (size 9 to 14) (size 15 to 20)
#    0.000    2.250    0.000    3.000    0.000    6.000 
#    0.000    2.500    0.000    0.750    0.000    3.500 
#    0.000    0.000    0.000    0.000    0.000    0.000 
#
# Total GULP energy -178344.835858 kJ/mol
# GULP energy per Si atom -5573.276121 kJ/mol
# Density = 1.919677 g / cm^3
# Si number density = 19.240560 Si / 1000 Ang^3
#
#
#
# Elastic Constant Matrix: (Units=GPa)
#
#
# Indices 1 2 3 4 5 6 
#
# 1 25.7441 12.5133 -4.9130 0.0000 0.0000 0.0000
# 2 12.5133 111.3303 62.7710 0.0000 0.0000 0.0000
# 3 -4.9130 62.7710 94.6338 0.0000 0.0000 0.0000
# 4 0.0000 0.0000 0.0000 89.8577 0.0000 0.0000
# 5 0.0000 0.0000 0.0000 0.0000 11.7197 0.0000
# 6 0.0000 0.0000 0.0000 0.0000 0.0000 133.3893
#
#
#
# Elastic Compliance Matrix: (Units=1/GPa)
#
#
# Indices 1 2 3 4 5 6 
#
# 1 0.045621 -0.010324 0.009217 0.000000 0.000000 0.000000
# 2 -0.010324 0.016685 -0.011603 0.000000 0.000000 0.000000
# 3 0.009217 -0.011603 0.018742 0.000000 0.000000 0.000000
# 4 0.000000 0.000000 0.000000 0.011129 0.000000 0.000000
# 5 0.000000 0.000000 0.000000 0.000000 0.085326 0.000000
# 6 0.000000 0.000000 0.000000 0.000000 0.000000 0.007497
#
#
# Mechanical properties :
#
#
# Convention : Reuss Voigt Hill
#
# Bulk Modulus (GPa) = 17.97712 41.38342 29.68027
# Shear Modulus (GPa) = 21.83753 57.74912 39.79332
#
# Velocity S-wave (km/s) = 3.37259 5.48447 4.55268
# Velocity P-wave (km/s) = 4.95272 7.85245 6.56470
#
# Compressibility (1/GPa) = 0.05562625
#
# Stress axis : x y z
#
# Youngs Moduli (GPa) = 21.91969 59.93452 53.35624
#
# Poissons Ratio (x) = 0.61878 -0.49176
# Poissons Ratio (y) = 0.22631 0.61910
# Poissons Ratio (z) = -0.20203 0.69543
#
# Static dielectric constant tensor:
#      x y z
#    x 1.754810 0.000000 0.000000 
#    y 0.000000 1.665530 0.000000 
#    z 0.000000 0.000000 1.689280 
# 
# From -- ./inp_files/16252.got.cif
#   From: 2010.05.17/outbox.cif.g08.bks.cpg/sg35_9_cif.got.tgz:16252.got - 2010.06.03 17:29:28.
