data_PCOD9348127
_publ_section_title
;
Structure prediction by ZEFSAII (Michael W. Deem and Ramdas Pophale) SiO2 
 PCOD9348127
Probable space group: C M M 2
;
_chemical_formula_sum "Si O2"
_cell_formula_units_Z 48
_cell_length_a 34.824103
_cell_length_b 9.140680
_cell_length_c 7.628967
_cell_angle_alpha 90.000000
_cell_angle_beta 90.000000
_cell_angle_gamma 90.000000
_cell_volume 2428.422121
_symmetry_space_group_name_H-M "C M M 2"
_symmetry_group_IT_number 35
_symmetry_cell_setting 'orthorhombic'
loop_
_space_group_symop_operation_xyz
x,y,z
-x,-y,z
-x,y,z
x,-y,z
1/2+x,1/2+y,z
1/2-x,1/2-y,z
1/2-x,1/2+y,z
1/2+x,1/2-y,z
loop_
_atom_site_type_symbol
_atom_site_label
_atom_site_fract_x
_atom_site_fract_y
_atom_site_fract_z
Si Si1 0.500000 0.669538 0.346750
Si Si2 0.155741 0.171936 0.231991
Si Si3 0.921884 0.671162 0.347163
Si Si4 0.209426 0.172574 0.572130
Si Si5 0.000000 0.833255 0.775141
Si Si6 0.576890 0.169747 0.771710
Si Si7 0.837637 0.675989 0.881504
O O1 0.500000 0.500000 0.292911
O O2 0.538348 0.753993 0.290956
O O3 0.500000 0.671381 0.561033
O O4 0.114534 0.242955 0.273994
O O5 0.182452 0.186615 0.402078
O O6 0.151740 0.000000 0.190857
O O7 0.173255 0.259559 0.069295
O O8 0.920513 0.500000 0.298020
O O9 0.920308 0.679486 0.559803
O O10 0.250000 0.250000 0.541798
O O11 0.188088 0.252103 0.731950
O O12 0.214550 0.000000 0.609014
O O13 0.039382 0.756591 0.831026
O O14 0.000000 0.000000 0.831553
O O15 0.617712 0.218360 0.847673
O O16 0.571431 0.000000 0.816836
O O17 0.835114 0.500000 0.875333
#
# Coordination Sequence:
#
# PCOD9348127 Si02
#       7
#     4   8   8   8   4   8   8
#     4   9  17  29  48  81 120 160 207 257 312 365
#     4  11  24  41  63  94 129 166 207 256 311 369
#     4  10  18  33  57  85 119 162 211 259 310 366
#     4  11  25  45  70  96 126 161 201 250 308 372
#     4   9  17  27  48  81 116 158 205 253 304 357
#     4   9  18  33  55  83 118 160 205 253 306 362
#     4  11  23  41  66  95 127 165 208 256 309 370
#
# _framework density 19.765922
#
# number of rings (size 3 to 8) (size 9 to 14) (size 15 to 20)
#    0.000    1.833    1.667    2.500    0.000    6.667 
#    0.000    2.500    0.000    3.000    0.000    0.000 
#    0.000    0.000    0.000    0.000    0.000    0.000 
#
# Total GULP energy -134184.079979 kJ/mol
# GULP energy per Si atom -5591.003332 kJ/mol
# Density = 1.972093 g / cm^3
# Si number density = 19.765922 Si / 1000 Ang^3
#
#
#
# Elastic Constant Matrix: (Units=GPa)
#
#
# Indices 1 2 3 4 5 6 
#
# 1 120.2959 76.4754 27.6998 0.0000 0.0000 0.0000
# 2 76.4754 131.6543 48.0663 0.0000 0.0000 0.0000
# 3 27.6998 48.0663 71.8412 0.0000 0.0000 0.0000
# 4 0.0000 0.0000 0.0000 22.6962 0.0000 0.0000
# 5 0.0000 0.0000 0.0000 0.0000 -14.5779 0.0000
# 6 0.0000 0.0000 0.0000 0.0000 0.0000 33.4286
#
#
#
# Elastic Compliance Matrix: (Units=1/GPa)
#
#
# Indices 1 2 3 4 5 6 
#
# 1 0.013180 -0.007676 0.000054 0.000000 0.000000 0.000000
# 2 -0.007676 0.014521 -0.006756 0.000000 0.000000 0.000000
# 3 0.000054 -0.006756 0.018419 0.000000 0.000000 0.000000
# 4 0.000000 0.000000 0.000000 0.044060 0.000000 0.000000
# 5 0.000000 0.000000 0.000000 0.000000 -0.068597 0.000000
# 6 0.000000 0.000000 0.000000 0.000000 0.000000 0.029914
#
#
# Mechanical properties :
#
#
# Convention : Reuss Voigt Hill
#
# Bulk Modulus (GPa) = 57.58971 69.80826 63.69898
# Shear Modulus (GPa) = 58.11165 19.74606 38.92885
#
# Velocity S-wave (km/s) = 5.42805 3.16412 4.44271
# Velocity P-wave (km/s) = 8.27551 6.98162 7.65595
#
# Compressibility (1/GPa) = 0.01736421
#
# Stress axis : x y z
#
# Youngs Moduli (GPa) = 75.87195 68.86671 54.29179
#
# Poissons Ratio (x) = 0.52860 -0.00291
# Poissons Ratio (y) = 0.58237 0.36679
# Poissons Ratio (z) = -0.00407 0.46525
#
# Static dielectric constant tensor:
#      x y z
#    x 1.658410 0.000000 0.000000 
#    y 0.000000 1.657700 0.000000 
#    z 0.000000 0.000000 1.725130 
# 
# From -- ./inp_files/10520.got.cif
#   From: 2010.05.17/outbox.cif.g08.bks.cpg/sg35_6_cif.got.tgz:10520.got - 2010.06.03 17:29:28.
