data_PCOD9348776
_publ_section_title
;
Structure prediction by ZEFSAII (Michael W. Deem and Ramdas Pophale) SiO2 
 PCOD9348776
Probable space group: C M M 2
;
_chemical_formula_sum "Si O2"
_cell_formula_units_Z 64
_cell_length_a 30.331547
_cell_length_b 8.573660
_cell_length_c 12.707101
_cell_angle_alpha 90.000000
_cell_angle_beta 90.000000
_cell_angle_gamma 90.000000
_cell_volume 3304.511747
_symmetry_space_group_name_H-M "C M M 2"
_symmetry_group_IT_number 35
_symmetry_cell_setting 'orthorhombic'
loop_
_space_group_symop_operation_xyz
x,y,z
-x,-y,z
-x,y,z
x,-y,z
1/2+x,1/2+y,z
1/2-x,1/2-y,z
1/2-x,1/2+y,z
1/2+x,1/2-y,z
loop_
_atom_site_type_symbol
_atom_site_label
_atom_site_fract_x
_atom_site_fract_y
_atom_site_fract_z
Si Si1 0.800056 0.810834 0.291080
Si Si2 0.068593 0.319653 0.784788
Si Si3 0.451799 0.188503 0.550506
Si Si4 0.642206 0.684869 0.490344
Si Si5 0.859737 0.811698 0.093741
Si Si6 0.204481 0.687237 0.921652
Si Si7 0.331042 0.180432 0.708883
Si Si8 0.451576 0.312454 0.013121
O O1 0.750000 0.750000 0.286300
O O2 0.826510 0.759835 0.395700
O O3 0.830373 0.759593 0.192587
O O4 0.798081 0.000000 0.290455
O O5 0.054731 0.500000 0.797681
O O6 0.050013 0.259381 0.673300
O O7 0.120892 0.318281 0.763854
O O8 0.056422 0.231189 0.890853
O O9 0.500000 0.233596 0.506859
O O10 0.407477 0.246796 0.494165
O O11 0.449309 0.000000 0.552767
O O12 0.637817 0.500000 0.480824
O O13 0.664902 0.727247 0.601172
O O14 0.860093 0.000000 0.095697
O O15 0.835029 0.754193 0.989848
O O16 0.910306 0.756590 0.083122
O O17 0.203143 0.500000 0.922672
O O18 0.250000 0.750000 0.967730
O O19 0.200245 0.741506 0.800708
O O20 0.320485 0.000000 0.684163
O O21 0.500000 0.253597 0.044544
O O22 0.451973 0.500000 0.020070
#
# Coordination Sequence:
#
# PCOD9348776 Si02
#       8
#     8   8   8   8   8   8   8   8
#     4  10  23  42  62  84 107 140 186 237 287 337
#     4   9  16  30  50  74 107 148 187 222 261 314
#     4   9  18  33  53  79 114 155 192 225 271 329
#     4  10  21  36  56  83 113 142 185 238 283 328
#     4  10  21  39  59  80 112 147 185 231 279 331
#     4  11  22  36  55  82 113 145 183 225 278 340
#     4   9  19  35  53  76 112 151 184 220 273 336
#     4  10  20  32  50  79 112 146 183 223 270 323
#
# _framework density 19.367460000000001
#
# number of rings (size 3 to 8) (size 9 to 14) (size 15 to 20)
#    0.000    2.250    1.250    2.250    0.000    7.000 
#    0.000    3.125    0.000    2.250    0.000    0.000 
#    0.000    0.000    0.000    0.000    0.000    0.000 
#
# Total GULP energy -178459.941566 kJ/mol
# GULP energy per Si atom -5576.873174 kJ/mol
# Density = 1.932338 g / cm^3
# Si number density = 19.367460 Si / 1000 Ang^3
#
#
#
# Elastic Constant Matrix: (Units=GPa)
#
#
# Indices 1 2 3 4 5 6 
#
# 1 165.6887 21.0357 77.7565 0.0000 0.0000 0.0000
# 2 21.0357 10.4796 18.1252 0.0000 0.0000 0.0000
# 3 77.7565 18.1252 103.8585 0.0000 0.0000 0.0000
# 4 0.0000 0.0000 0.0000 -0.3362 0.0000 0.0000
# 5 0.0000 0.0000 0.0000 0.0000 18.2550 0.0000
# 6 0.0000 0.0000 0.0000 0.0000 0.0000 -1.2255
#
#
#
# Elastic Compliance Matrix: (Units=1/GPa)
#
#
# Indices 1 2 3 4 5 6 
#
# 1 0.010014 -0.010219 -0.005714 0.000000 0.000000 0.000000
# 2 -0.010219 0.147107 -0.018022 0.000000 0.000000 0.000000
# 3 -0.005714 -0.018022 0.017052 0.000000 0.000000 0.000000
# 4 0.000000 0.000000 0.000000 -2.973998 0.000000 0.000000
# 5 0.000000 0.000000 0.000000 0.000000 0.054779 0.000000
# 6 0.000000 0.000000 0.000000 0.000000 0.000000 -0.815976
#
#
# Mechanical properties :
#
#
# Convention : Reuss Voigt Hill
#
# Bulk Modulus (GPa) = 9.41065 57.09573 33.25319
# Shear Modulus (GPa) = -1.44605 14.21260 6.38327
#
# Velocity S-wave (km/s) = -0.86502 2.71189 1.81742
# Velocity P-wave (km/s) = 1.96771 6.27296 4.64876
#
# Compressibility (1/GPa) = 0.10626254
#
# Stress axis : x y z
#
# Youngs Moduli (GPa) = 99.85594 6.79778 58.64487
#
# Poissons Ratio (x) = 0.06947 0.33511
# Poissons Ratio (y) = 1.02041 1.05691
# Poissons Ratio (z) = 0.57060 0.12251
#
# Static dielectric constant tensor:
#      x y z
#    x 1.824970 0.000000 0.000000 
#    y 0.000000 1.661050 0.000000 
#    z 0.000000 0.000000 1.666940 
# 
# From -- ./inp_files/11944.got.cif
#   From: 2010.05.17/outbox.cif.g08.bks.cpg/sg35_6_cif.got.tgz:11944.got - 2010.06.03 17:29:28.
