data_PCOD9348416
_publ_section_title
;
Structure prediction by ZEFSAII (Michael W. Deem and Ramdas Pophale) SiO2 
 PCOD9348416
Probable space group: C M M 2
;
_chemical_formula_sum "Si O2"
_cell_formula_units_Z 64
_cell_length_a 32.991614
_cell_length_b 8.940215
_cell_length_c 11.825559
_cell_angle_alpha 90.000000
_cell_angle_beta 90.000000
_cell_angle_gamma 90.000000
_cell_volume 3487.973725
_symmetry_space_group_name_H-M "C M M 2"
_symmetry_group_IT_number 35
_symmetry_cell_setting 'orthorhombic'
loop_
_space_group_symop_operation_xyz
x,y,z
-x,-y,z
-x,y,z
x,-y,z
1/2+x,1/2+y,z
1/2-x,1/2-y,z
1/2-x,1/2+y,z
1/2+x,1/2-y,z
loop_
_atom_site_type_symbol
_atom_site_label
_atom_site_fract_x
_atom_site_fract_y
_atom_site_fract_z
Si Si1 0.126009 0.679122 0.962300
Si Si2 0.867529 0.822427 0.717595
Si Si3 0.403576 0.322741 0.482660
Si Si4 0.173467 0.324601 0.362822
Si Si5 0.952158 0.334745 0.307242
Si Si6 0.294732 0.180998 0.113407
Si Si7 0.952427 0.177562 0.078093
Si Si8 0.708965 0.174560 0.603083
O O1 0.124434 0.500000 0.968554
O O2 0.128109 0.735123 0.833750
O O3 0.167204 0.724687 0.031606
O O4 0.083663 0.744395 0.009557
O O5 0.898706 0.788923 0.615487
O O6 0.826122 0.769445 0.660170
O O7 0.868022 0.000000 0.738356
O O8 0.408396 0.500000 0.470447
O O9 0.364513 0.269971 0.409067
O O10 0.439029 0.229969 0.426264
O O11 0.161532 0.500000 0.353073
O O12 0.191667 0.278293 0.242123
O O13 0.204703 0.315851 0.467078
O O14 0.934445 0.500000 0.285377
O O15 0.941943 0.221032 0.207144
O O16 0.000000 0.347519 0.304703
O O17 0.250000 0.250000 0.088523
O O18 0.290974 0.000000 0.108130
O O19 0.000000 0.224058 0.056196
O O20 0.950784 0.000000 0.061360
O O21 0.750000 0.250000 0.640315
O O22 0.705749 0.000000 0.633781
#
# Coordination Sequence:
#
# PCOD9348416 Si02
#       8
#     8   8   8   8   8   8   8   8
#     4  11  23  39  59  83 113 151 195 239 286 339
#     4  10  22  39  56  76 105 143 188 234 279 331
#     4  10  20  34  55  81 107 140 181 225 277 333
#     4   9  18  33  53  78 109 141 175 221 277 337
#     4  10  20  34  55  84 116 146 175 213 267 331
#     4  10  22  37  54  80 112 147 186 228 276 332
#     4  10  21  38  62  91 119 148 186 231 280 335
#     4  10  19  32  53  79 106 139 179 226 280 336
#
# _framework density 18.348761
#
# number of rings (size 3 to 8) (size 9 to 14) (size 15 to 20)
#    0.000    2.000    0.000    3.375    0.000    6.500 
#    0.000    1.875    0.000    0.750    0.000    0.000 
#    0.000    0.000    0.000    0.000    0.000    0.000 
#
# Total GULP energy -178374.323265 kJ/mol
# GULP energy per Si atom -5574.197602 kJ/mol
# Density = 1.830700 g / cm^3
# Si number density = 18.348761 Si / 1000 Ang^3
#
#
#
# Elastic Constant Matrix: (Units=GPa)
#
#
# Indices 1 2 3 4 5 6 
#
# 1 72.0686 32.5584 57.9175 0.0000 0.0000 0.0000
# 2 32.5584 47.0300 38.4903 0.0000 0.0000 0.0000
# 3 57.9175 38.4903 109.2343 0.0000 0.0000 0.0000
# 4 0.0000 0.0000 0.0000 25.5619 0.0000 0.0000
# 5 0.0000 0.0000 0.0000 0.0000 15.3532 0.0000
# 6 0.0000 0.0000 0.0000 0.0000 0.0000 30.1053
#
#
#
# Elastic Compliance Matrix: (Units=1/GPa)
#
#
# Indices 1 2 3 4 5 6 
#
# 1 0.027064 -0.009826 -0.010888 0.000000 0.000000 0.000000
# 2 -0.009826 0.033447 -0.006576 0.000000 0.000000 0.000000
# 3 -0.010888 -0.006576 0.017245 0.000000 0.000000 0.000000
# 4 0.000000 0.000000 0.000000 0.039121 0.000000 0.000000
# 5 0.000000 0.000000 0.000000 0.000000 0.065133 0.000000
# 6 0.000000 0.000000 0.000000 0.000000 0.000000 0.033217
#
#
# Mechanical properties :
#
#
# Convention : Reuss Voigt Hill
#
# Bulk Modulus (GPa) = 43.14526 54.02949 48.58737
# Shear Modulus (GPa) = 18.01599 20.82851 19.42225
#
# Velocity S-wave (km/s) = 3.13687 3.37285 3.25700
# Velocity P-wave (km/s) = 6.05681 6.68415 6.37820
#
# Compressibility (1/GPa) = 0.02317752
#
# Stress axis : x y z
#
# Youngs Moduli (GPa) = 36.94883 29.89795 57.98944
#
# Poissons Ratio (x) = 0.29377 0.63137
# Poissons Ratio (y) = 0.36305 0.38133
# Poissons Ratio (z) = 0.40229 0.19660
#
# Static dielectric constant tensor:
#      x y z
#    x 1.648410 0.000000 0.000000 
#    y 0.000000 1.630340 0.000000 
#    z 0.000000 0.000000 1.633240 
# 
# From -- ./inp_files/14558.got.cif
#   From: 2010.05.17/outbox.cif.g08.bks.cpg/sg35_8_cif.got.tgz:14558.got - 2010.06.03 17:29:28.
