data_PCOD9348086
_publ_section_title
;
Structure prediction by ZEFSAII (Michael W. Deem and Ramdas Pophale) SiO2 
 PCOD9348086
Probable space group: C M M 2
;
_chemical_formula_sum "Si O2"
_cell_formula_units_Z 48
_cell_length_a 20.775770
_cell_length_b 17.854086
_cell_length_c 7.813433
_cell_angle_alpha 90.000000
_cell_angle_beta 90.000000
_cell_angle_gamma 90.000000
_cell_volume 2898.255332
_symmetry_space_group_name_H-M "C M M 2"
_symmetry_group_IT_number 35
_symmetry_cell_setting 'orthorhombic'
loop_
_space_group_symop_operation_xyz
x,y,z
-x,-y,z
-x,y,z
x,-y,z
1/2+x,1/2+y,z
1/2-x,1/2-y,z
1/2-x,1/2+y,z
1/2+x,1/2-y,z
loop_
_atom_site_type_symbol
_atom_site_label
_atom_site_fract_x
_atom_site_fract_y
_atom_site_fract_z
Si Si1 0.813019 0.196065 0.286400
Si Si2 0.730717 0.411958 0.581670
Si Si3 0.427390 0.188249 0.309108
Si Si4 0.129754 0.589345 0.005200
Si Si5 0.732921 0.336516 0.932637
Si Si6 0.614397 0.912926 0.612555
O O1 0.750000 0.250000 0.292297
O O2 0.800587 0.132603 0.426042
O O3 0.875545 0.245613 0.319259
O O4 0.814417 0.164691 0.093607
O O5 0.717645 0.500000 0.574105
O O6 0.709222 0.377015 0.762339
O O7 0.808710 0.402621 0.580058
O O8 0.500000 0.214806 0.284459
O O9 0.421760 0.140394 0.482752
O O10 0.407091 0.133803 0.152440
O O11 0.130610 0.500000 0.036988
O O12 0.202409 0.621282 0.995708
O O13 0.102441 0.601748 0.813531
O O14 0.750000 0.250000 0.890527
O O15 0.599334 0.000000 0.579065
#
# Coordination Sequence:
#
# PCOD9348086 Si02
#       6
#     8   8   8   8   8   8
#     4  11  20  36  57  80 107 145 183 222 271 323
#     4  10  20  33  57  87 110 135 177 232 281 322
#     4  12  24  36  52  79 111 148 186 221 262 316
#     4  10  20  35  54  80 113 147 182 218 261 319
#     4  10  18  32  56  82 110 143 177 225 270 318
#     4   9  19  34  53  79 111 145 179 216 260 318
#
# _framework density 16.561688
#
# number of rings (size 3 to 8) (size 9 to 14) (size 15 to 20)
#    0.000    1.667    5.000    2.500    2.333    4.667 
#    0.000    1.667    0.000    0.500    0.000    0.000 
#    0.000    0.000    0.000    0.000    0.000    0.000 
#
# Total GULP energy -133977.880743 kJ/mol
# GULP energy per Si atom -5582.411698 kJ/mol
# Density = 1.652399 g / cm^3
# Si number density = 16.561688 Si / 1000 Ang^3
#
#
#
# Elastic Constant Matrix: (Units=GPa)
#
#
# Indices 1 2 3 4 5 6 
#
# 1 48.5439 38.5114 14.5557 0.0000 0.0000 0.0000
# 2 38.5114 97.1537 69.3820 0.0000 0.0000 0.0000
# 3 14.5557 69.3820 80.0727 0.0000 0.0000 0.0000
# 4 0.0000 0.0000 0.0000 31.8836 0.0000 0.0000
# 5 0.0000 0.0000 0.0000 0.0000 -1.5394 0.0000
# 6 0.0000 0.0000 0.0000 0.0000 0.0000 11.9154
#
#
#
# Elastic Compliance Matrix: (Units=1/GPa)
#
#
# Indices 1 2 3 4 5 6 
#
# 1 0.035989 -0.025168 0.015265 0.000000 0.000000 0.000000
# 2 -0.025168 0.044601 -0.034072 0.000000 0.000000 0.000000
# 3 0.015265 -0.034072 0.039236 0.000000 0.000000 0.000000
# 4 0.000000 0.000000 0.000000 0.031364 0.000000 0.000000
# 5 0.000000 0.000000 0.000000 0.000000 -0.649593 0.000000
# 6 0.000000 0.000000 0.000000 0.000000 0.000000 0.083925
#
#
# Mechanical properties :
#
#
# Convention : Reuss Voigt Hill
#
# Bulk Modulus (GPa) = 31.36869 52.29650 41.83260
# Shear Modulus (GPa) = -15.82764 15.34001 -0.24382
#
# Velocity S-wave (km/s) = -3.09476 3.04671 -0.38411
# Velocity P-wave (km/s) = 2.49231 6.63490 5.01166
#
# Compressibility (1/GPa) = 0.03187892
#
# Stress axis : x y z
#
# Youngs Moduli (GPa) = 27.78637 22.42080 25.48655
#
# Poissons Ratio (x) = 0.56428 -0.38906
# Poissons Ratio (y) = 0.69931 0.86837
# Poissons Ratio (z) = -0.42417 0.76391
#
# Static dielectric constant tensor:
#      x y z
#    x 1.548160 0.000000 0.000000 
#    y 0.000000 1.545490 0.000000 
#    z 0.000000 0.000000 1.580320 
# 
# From -- ./inp_files/7457.got.cif
#   From: 2010.05.17/outbox.cif.g08.bks.cpg/sg35_4_cif.got.tgz:7457.got - 2010.06.03 17:29:28.
