data_PCOD9348870
_publ_section_title
;
Structure prediction by ZEFSAII (Michael W. Deem and Ramdas Pophale) SiO2 
 PCOD9348870
Probable space group: C M M 2
;
_chemical_formula_sum "Si O2"
_cell_formula_units_Z 48
_cell_length_a 8.883411
_cell_length_b 18.728665
_cell_length_c 16.188662
_cell_angle_alpha 90.000000
_cell_angle_beta 90.000000
_cell_angle_gamma 90.000000
_cell_volume 2693.379391
_symmetry_space_group_name_H-M "C M M 2"
_symmetry_group_IT_number 35
_symmetry_cell_setting 'orthorhombic'
loop_
_space_group_symop_operation_xyz
x,y,z
-x,-y,z
-x,y,z
x,-y,z
1/2+x,1/2+y,z
1/2-x,1/2-y,z
1/2-x,1/2+y,z
1/2+x,1/2-y,z
loop_
_atom_site_type_symbol
_atom_site_label
_atom_site_fract_x
_atom_site_fract_y
_atom_site_fract_z
Si Si1 0.175813 0.085783 0.046900
Si Si2 0.679067 0.829225 0.898814
Si Si3 0.819597 0.829667 0.732026
Si Si4 0.325713 0.913152 0.217128
Si Si5 0.318447 0.083727 0.400027
Si Si6 0.820141 0.171062 0.549574
O O1 0.228639 0.108633 0.138425
O O2 0.000000 0.102052 0.034824
O O3 0.195425 0.000000 0.041569
O O4 0.272159 0.124368 0.977014
O O5 0.500000 0.823356 0.892253
O O6 0.750000 0.750000 0.907718
O O7 0.746356 0.862314 0.813975
O O8 0.750000 0.750000 0.729249
O O9 0.785830 0.860613 0.641130
O O10 0.000000 0.826058 0.741839
O O11 0.500000 0.891700 0.205375
O O12 0.273069 0.889819 0.308201
O O13 0.324458 0.000000 0.219893
O O14 0.500000 0.089526 0.403743
O O15 0.244950 0.125644 0.474801
O O16 0.279933 0.000000 0.406332
O O17 0.750000 0.250000 0.545699
O O18 0.000000 0.176536 0.543335
#
# Coordination Sequence:
#
# PCOD9348870 Si02
#       6
#     8   8   8   8   8   8
#     4  10  20  34  53  77 104 133 166 206 250 296
#     4  11  21  34  54  77 102 132 167 207 250 298
#     4   9  17  31  50  72  98 130 168 206 247 296
#     4   8  15  30  51  73  98 131 169 205 245 296
#     4   9  18  33  53  76 103 134 167 206 250 296
#     4  10  20  33  52  76 102 133 168 208 250 296
#
# _framework density 17.821477000000002
#
# number of rings (size 3 to 8) (size 9 to 14) (size 15 to 20)
#    0.000    2.500    0.000    5.000    0.000    4.000 
#    0.000    3.333    0.000    5.000    0.000    0.000 
#    0.000    0.000    0.000    0.000    0.000    0.000 
#
# Total GULP energy -133779.562020 kJ/mol
# GULP energy per Si atom -5574.148417 kJ/mol
# Density = 1.778092 g / cm^3
# Si number density = 17.821477 Si / 1000 Ang^3
#
#
#
# Elastic Constant Matrix: (Units=GPa)
#
#
# Indices 1 2 3 4 5 6 
#
# 1 92.2396 26.6127 71.9381 0.0000 0.0000 0.0000
# 2 26.6127 21.6663 41.1026 0.0000 0.0000 0.0000
# 3 71.9381 41.1026 183.6296 0.0000 0.0000 0.0000
# 4 0.0000 0.0000 0.0000 29.1601 0.0000 0.0000
# 5 0.0000 0.0000 0.0000 0.0000 35.9168 0.0000
# 6 0.0000 0.0000 0.0000 0.0000 0.0000 22.5724
#
#
#
# Elastic Compliance Matrix: (Units=1/GPa)
#
#
# Indices 1 2 3 4 5 6 
#
# 1 0.018117 -0.015275 -0.003678 0.000000 0.000000 0.000000
# 2 -0.015275 0.093096 -0.014854 0.000000 0.000000 0.000000
# 3 -0.003678 -0.014854 0.010212 0.000000 0.000000 0.000000
# 4 0.000000 0.000000 0.000000 0.034293 0.000000 0.000000
# 5 0.000000 0.000000 0.000000 0.000000 0.027842 0.000000
# 6 0.000000 0.000000 0.000000 0.000000 0.000000 0.044302
#
#
# Mechanical properties :
#
#
# Convention : Reuss Voigt Hill
#
# Bulk Modulus (GPa) = 18.58392 64.09357 41.33875
# Shear Modulus (GPa) = 15.95333 28.05535 22.00434
#
# Velocity S-wave (km/s) = 2.99519 3.97198 3.51765
# Velocity P-wave (km/s) = 4.73413 7.55498 6.30436
#
# Compressibility (1/GPa) = 0.05380997
#
# Stress axis : x y z
#
# Youngs Moduli (GPa) = 55.19579 10.74159 97.92743
#
# Poissons Ratio (x) = 0.16408 0.36023
# Poissons Ratio (y) = 0.84312 1.45461
# Poissons Ratio (z) = 0.20304 0.15956
#
# Static dielectric constant tensor:
#      x y z
#    x 1.594730 0.000000 0.000000 
#    y 0.000000 1.588250 0.000000 
#    z 0.000000 0.000000 1.645340 
# 
# From -- ./inp_files/15141.got.cif
#   From: 2010.05.17/outbox.cif.g08.bks.cpg/sg35_8_cif.got.tgz:15141.got - 2010.06.03 17:29:28.
