data_PCOD9348132
_publ_section_title
;
Structure prediction by ZEFSAII (Michael W. Deem and Ramdas Pophale) SiO2 
 PCOD9348132
Probable space group: C M M 2
;
_chemical_formula_sum "Si O2"
_cell_formula_units_Z 48
_cell_length_a 15.103614
_cell_length_b 10.451881
_cell_length_c 13.907840
_cell_angle_alpha 90.000000
_cell_angle_beta 90.000000
_cell_angle_gamma 90.000000
_cell_volume 2195.507981
_symmetry_space_group_name_H-M "C M M 2"
_symmetry_group_IT_number 35
_symmetry_cell_setting 'orthorhombic'
loop_
_space_group_symop_operation_xyz
x,y,z
-x,-y,z
-x,y,z
x,-y,z
1/2+x,1/2+y,z
1/2-x,1/2-y,z
1/2-x,1/2+y,z
1/2+x,1/2-y,z
loop_
_atom_site_type_symbol
_atom_site_label
_atom_site_fract_x
_atom_site_fract_y
_atom_site_fract_z
Si Si1 0.368604 0.500000 0.226560
Si Si2 0.897705 0.500000 0.067063
Si Si3 0.608815 0.227682 0.937923
Si Si4 0.108314 0.855716 0.571389
Si Si5 0.391913 0.143902 0.723718
Si Si6 0.897385 0.000000 0.000768
Si Si7 0.667370 0.000000 0.274086
Si Si8 0.102376 0.241696 0.362763
O O1 0.397800 0.500000 0.116438
O O2 0.263586 0.500000 0.228751
O O3 0.396123 0.371920 0.284017
O O4 0.894970 0.500000 0.181118
O O5 0.000000 0.500000 0.037203
O O6 0.860146 0.372192 0.018864
O O7 0.500000 0.232676 0.940894
O O8 0.633637 0.179602 0.832304
O O9 0.642444 0.369202 0.960910
O O10 0.137672 0.750790 0.648306
O O11 0.134761 0.816091 0.463639
O O12 0.000000 0.857215 0.572238
O O13 0.137644 0.000000 0.593376
O O14 0.500000 0.143823 0.721740
O O15 0.362914 0.000000 0.699509
O O16 0.000000 0.000000 0.968871
O O17 0.653431 0.130787 0.332173
O O18 0.000000 0.280843 0.375450
#
# Coordination Sequence:
#
# PCOD9348132 Si02
#       8
#     4   4   8   8   8   4   4   8
#     4  12  24  42  59  84 120 158 201 246 303 352
#     4  10  18  34  53  76 112 150 187 232 287 344
#     4   9  17  29  48  77 112 146 183 229 287 344
#     4   9  18  31  51  80 112 148 187 233 290 348
#     4   9  16  27  46  77 117 147 175 231 297 343
#     4  10  20  32  53  80 108 152 199 236 279 348
#     4  12  26  38  59  90 118 152 203 252 299 348
#     4  11  22  40  62  86 119 158 198 244 296 355
#
# _framework density 21.862822000000001
#
# number of rings (size 3 to 8) (size 9 to 14) (size 15 to 20)
#    0.000    2.000    1.667    3.000    2.333    1.333 
#    0.000    0.000    0.000    0.000    0.000    7.000 
#    0.000    0.000    0.000    0.000    0.000    0.000 
#
# Total GULP energy -134131.863939 kJ/mol
# GULP energy per Si atom -5588.827664 kJ/mol
# Density = 2.181306 g / cm^3
# Si number density = 21.862822 Si / 1000 Ang^3
#
#
#
# Elastic Constant Matrix: (Units=GPa)
#
#
# Indices 1 2 3 4 5 6 
#
# 1 35.2672 -1.6389 -24.0872 0.0000 0.0000 0.0000
# 2 -1.6389 220.6389 78.2261 0.0000 0.0000 0.0000
# 3 -24.0872 78.2261 96.4364 0.0000 0.0000 0.0000
# 4 0.0000 0.0000 0.0000 44.3154 0.0000 0.0000
# 5 0.0000 0.0000 0.0000 0.0000 -15.2178 0.0000
# 6 0.0000 0.0000 0.0000 0.0000 0.0000 12.7680
#
#
#
# Elastic Compliance Matrix: (Units=1/GPa)
#
#
# Indices 1 2 3 4 5 6 
#
# 1 0.036748 -0.004185 0.012573 0.000000 0.000000 0.000000
# 2 -0.004185 0.006839 -0.006592 0.000000 0.000000 0.000000
# 3 0.012573 -0.006592 0.018858 0.000000 0.000000 0.000000
# 4 0.000000 0.000000 0.000000 0.022565 0.000000 0.000000
# 5 0.000000 0.000000 0.000000 0.000000 -0.065712 0.000000
# 6 0.000000 0.000000 0.000000 0.000000 0.000000 0.078321
#
#
# Mechanical properties :
#
#
# Convention : Reuss Voigt Hill
#
# Bulk Modulus (GPa) = 15.14328 50.81585 32.97957
# Shear Modulus (GPa) = 43.08931 28.36261 35.72596
#
# Velocity S-wave (km/s) = 4.44429 3.60571 4.04678
# Velocity P-wave (km/s) = 5.76864 6.37404 6.07888
#
# Compressibility (1/GPa) = 0.06603589
#
# Stress axis : x y z
#
# Youngs Moduli (GPa) = 27.21244 146.23069 53.02920
#
# Poissons Ratio (x) = 0.61194 -0.66675
# Poissons Ratio (y) = 0.11388 0.34959
# Poissons Ratio (z) = -0.34215 0.96402
#
# Static dielectric constant tensor:
#      x y z
#    x 1.847280 0.000000 0.000000 
#    y 0.000000 1.841080 0.000000 
#    z 0.000000 0.000000 1.741210 
# 
# From -- ./inp_files/17161.got.cif
#   From: 2010.05.17/outbox.cif.g08.bks.cpg/sg35_9_cif.got.tgz:17161.got - 2010.06.03 17:29:28.
