data_PCOD9348366
_publ_section_title
;
Structure prediction by ZEFSAII (Michael W. Deem and Ramdas Pophale) SiO2 
 PCOD9348366
Probable space group: C M M 2
;
_chemical_formula_sum "Si O2"
_cell_formula_units_Z 48
_cell_length_a 15.768893
_cell_length_b 8.493018
_cell_length_c 18.019316
_cell_angle_alpha 90.000000
_cell_angle_beta 90.000000
_cell_angle_gamma 90.000000
_cell_volume 2413.245762
_symmetry_space_group_name_H-M "C M M 2"
_symmetry_group_IT_number 35
_symmetry_cell_setting 'orthorhombic'
loop_
_space_group_symop_operation_xyz
x,y,z
-x,-y,z
-x,y,z
x,-y,z
1/2+x,1/2+y,z
1/2-x,1/2-y,z
1/2-x,1/2+y,z
1/2+x,1/2-y,z
loop_
_atom_site_type_symbol
_atom_site_label
_atom_site_fract_x
_atom_site_fract_y
_atom_site_fract_z
Si Si1 0.653191 0.190116 0.080630
Si Si2 0.901548 0.819396 0.394137
Si Si3 0.847066 0.310329 0.916411
Si Si4 0.500000 0.310882 0.816658
Si Si5 0.339417 0.690650 0.549302
Si Si6 0.846133 0.687597 0.240289
Si Si7 0.500000 0.692035 0.645740
O O1 0.750000 0.250000 0.082431
O O2 0.616104 0.241910 0.160406
O O3 0.651481 0.000000 0.080180
O O4 0.621589 0.240032 0.999493
O O5 0.852331 0.750519 0.464597
O O6 0.891742 0.738577 0.315115
O O7 0.000000 0.820468 0.416305
O O8 0.873424 0.000000 0.383520
O O9 0.844920 0.500000 0.913895
O O10 0.750000 0.250000 0.906040
O O11 0.915350 0.248679 0.857923
O O12 0.500000 0.500000 0.818157
O O13 0.500000 0.257375 0.731009
O O14 0.340985 0.500000 0.546384
O O15 0.250000 0.750000 0.578230
O O16 0.416748 0.742711 0.600907
O O17 0.843909 0.500000 0.238624
O O18 0.750000 0.750000 0.245128
O O19 0.500000 0.500000 0.645414
#
# Coordination Sequence:
#
# PCOD9348366 Si02
#       7
#     8   8   8   4   8   8   4
#     4   8  16  31  52  76 105 145 188 231 280 329
#     4  10  20  35  54  76 109 150 189 230 279 333
#     4  10  20  38  62  87 118 156 196 241 291 346
#     4  11  23  39  61  90 119 152 192 237 291 353
#     4  10  20  38  62  85 110 148 188 228 279 337
#     4  10  19  32  51  77 108 144 187 234 279 328
#     4   9  20  41  63  82 113 150 184 227 283 343
#
# _framework density 19.890222999999999
#
# number of rings (size 3 to 8) (size 9 to 14) (size 15 to 20)
#    0.000    2.333    0.833    1.750    0.000    4.333 
#    1.500    3.750    0.000    0.000    0.000    0.000 
#    0.000    0.000    0.000    0.000    0.000    0.000 
#
# Total GULP energy -133817.527920 kJ/mol
# GULP energy per Si atom -5575.730330 kJ/mol
# Density = 1.984495 g / cm^3
# Si number density = 19.890223 Si / 1000 Ang^3
#
#
#
# Elastic Constant Matrix: (Units=GPa)
#
#
# Indices 1 2 3 4 5 6 
#
# 1 105.9930 15.8922 76.1134 0.0000 0.0000 0.0000
# 2 15.8922 26.7406 29.9046 0.0000 0.0000 0.0000
# 3 76.1134 29.9046 179.1384 0.0000 0.0000 0.0000
# 4 0.0000 0.0000 0.0000 -55.9321 0.0000 0.0000
# 5 0.0000 0.0000 0.0000 0.0000 9.3010 0.0000
# 6 0.0000 0.0000 0.0000 0.0000 0.0000 26.5169
#
#
#
# Elastic Compliance Matrix: (Units=1/GPa)
#
#
# Indices 1 2 3 4 5 6 
#
# 1 0.013664 -0.002002 -0.005471 0.000000 0.000000 0.000000
# 2 -0.002002 0.046274 -0.006874 0.000000 0.000000 0.000000
# 3 -0.005471 -0.006874 0.009055 0.000000 0.000000 0.000000
# 4 0.000000 0.000000 0.000000 -0.017879 0.000000 0.000000
# 5 0.000000 0.000000 0.000000 0.000000 0.107515 0.000000
# 6 0.000000 0.000000 0.000000 0.000000 0.000000 0.037712
#
#
# Mechanical properties :
#
#
# Convention : Reuss Voigt Hill
#
# Bulk Modulus (GPa) = 24.81562 61.74358 43.27960
# Shear Modulus (GPa) = 20.96730 8.64130 14.80430
#
# Velocity S-wave (km/s) = 3.25029 2.08661 2.73115
# Velocity P-wave (km/s) = 5.15648 6.07576 5.63489
#
# Compressibility (1/GPa) = 0.04029720
#
# Stress axis : x y z
#
# Youngs Moduli (GPa) = 73.18671 21.61063 110.44200
#
# Poissons Ratio (x) = 0.04326 0.60427
# Poissons Ratio (y) = 0.14650 0.75920
# Poissons Ratio (z) = 0.40043 0.14856
#
# Static dielectric constant tensor:
#      x y z
#    x 1.675760 0.000000 0.000000 
#    y 0.000000 1.698770 0.000000 
#    z 0.000000 0.000000 1.742770 
# 
# From -- ./inp_files/17836.got.cif
#   From: 2010.05.17/outbox.cif.g08.bks.cpg/sg35_9_cif.got.tgz:17836.got - 2010.06.03 17:29:28.
