data_PCOD9348677
_publ_section_title
;
Structure prediction by ZEFSAII (Michael W. Deem and Ramdas Pophale) SiO2 
 PCOD9348677
Probable space group: C M M 2
;
_chemical_formula_sum "Si O2"
_cell_formula_units_Z 48
_cell_length_a 16.400695
_cell_length_b 8.392707
_cell_length_c 17.324267
_cell_angle_alpha 90.000000
_cell_angle_beta 90.000000
_cell_angle_gamma 90.000000
_cell_volume 2384.620001
_symmetry_space_group_name_H-M "C M M 2"
_symmetry_group_IT_number 35
_symmetry_cell_setting 'orthorhombic'
loop_
_space_group_symop_operation_xyz
x,y,z
-x,-y,z
-x,y,z
x,-y,z
1/2+x,1/2+y,z
1/2-x,1/2-y,z
1/2-x,1/2+y,z
1/2+x,1/2-y,z
loop_
_atom_site_type_symbol
_atom_site_label
_atom_site_fract_x
_atom_site_fract_y
_atom_site_fract_z
Si Si1 0.500000 0.805414 0.009970
Si Si2 0.907017 0.692429 0.592467
Si Si3 0.837671 0.812044 0.746951
Si Si4 0.657814 0.807377 0.426944
Si Si5 0.837665 0.692348 0.101239
Si Si6 0.500000 0.809365 0.832244
Si Si7 0.906707 0.694144 0.261497
O O1 0.583070 0.754600 0.052859
O O2 0.500000 0.000000 0.012135
O O3 0.500000 0.754776 0.921110
O O4 0.900915 0.500000 0.595651
O O5 0.849031 0.763231 0.657403
O O6 0.886769 0.743983 0.505381
O O7 0.000000 0.736758 0.611197
O O8 0.750000 0.750000 0.775212
O O9 0.917018 0.745527 0.790799
O O10 0.838391 0.000000 0.753695
O O11 0.750000 0.750000 0.430941
O O12 0.619871 0.750241 0.346168
O O13 0.654680 0.000000 0.425852
O O14 0.837619 0.500000 0.100560
O O15 0.750000 0.750000 0.072468
O O16 0.851563 0.746993 0.189909
O O17 0.500000 0.000000 0.830585
O O18 0.904191 0.500000 0.262551
O O19 0.000000 0.739634 0.246056
#
# Coordination Sequence:
#
# PCOD9348677 Si02
#       7
#     4   8   8   8   8   4   8
#     4   9  20  39  63  88 117 154 192 233 291 359
#     4  10  20  36  58  83 116 156 200 249 299 351
#     4  12  25  42  65  93 123 160 203 247 302 365
#     4  10  20  32  49  78 112 151 198 244 289 341
#     4  10  19  35  59  87 117 154 196 239 288 345
#     4  11  23  43  67  92 123 156 196 251 307 365
#     4   9  16  30  54  79 108 150 199 241 281 341
#
# _framework density 20.128992
#
# number of rings (size 3 to 8) (size 9 to 14) (size 15 to 20)
#    0.000    1.833    1.667    3.250    0.000    4.667 
#    0.000    3.750    0.000    2.500    0.000    0.000 
#    0.000    0.000    0.000    0.000    0.000    0.000 
#
# Total GULP energy -134043.868287 kJ/mol
# GULP energy per Si atom -5585.161179 kJ/mol
# Density = 2.008318 g / cm^3
# Si number density = 20.128992 Si / 1000 Ang^3
#
#
#
# Elastic Constant Matrix: (Units=GPa)
#
#
# Indices 1 2 3 4 5 6 
#
# 1 169.4307 26.9236 67.2073 0.0000 0.0000 0.0000
# 2 26.9236 25.6898 25.3073 0.0000 0.0000 0.0000
# 3 67.2073 25.3073 130.3143 0.0000 0.0000 0.0000
# 4 0.0000 0.0000 0.0000 4.4759 0.0000 0.0000
# 5 0.0000 0.0000 0.0000 0.0000 13.7217 0.0000
# 6 0.0000 0.0000 0.0000 0.0000 0.0000 27.8817
#
#
#
# Elastic Compliance Matrix: (Units=1/GPa)
#
#
# Indices 1 2 3 4 5 6 
#
# 1 0.007968 -0.005320 -0.003076 0.000000 0.000000 0.000000
# 2 -0.005320 0.051687 -0.007294 0.000000 0.000000 0.000000
# 3 -0.003076 -0.007294 0.010677 0.000000 0.000000 0.000000
# 4 0.000000 0.000000 0.000000 0.223421 0.000000 0.000000
# 5 0.000000 0.000000 0.000000 0.000000 0.072878 0.000000
# 6 0.000000 0.000000 0.000000 0.000000 0.000000 0.035866
#
#
# Mechanical properties :
#
#
# Convention : Reuss Voigt Hill
#
# Bulk Modulus (GPa) = 25.67324 62.70125 44.18725
# Shear Modulus (GPa) = 11.18921 22.94895 17.06908
#
# Velocity S-wave (km/s) = 2.36026 3.38019 2.91518
# Velocity P-wave (km/s) = 4.49553 6.81554 5.77328
#
# Compressibility (1/GPa) = 0.03895106
#
# Stress axis : x y z
#
# Youngs Moduli (GPa) = 125.50735 19.34728 93.66231
#
# Poissons Ratio (x) = 0.10293 0.28811
# Poissons Ratio (y) = 0.66771 0.68317
# Poissons Ratio (z) = 0.38606 0.14112
#
# Static dielectric constant tensor:
#      x y z
#    x 1.670200 0.000000 0.000000 
#    y 0.000000 1.696210 0.000000 
#    z 0.000000 0.000000 1.730160 
# 
# From -- ./inp_files/17834.got.cif
#   From: 2010.05.17/outbox.cif.g08.bks.cpg/sg35_9_cif.got.tgz:17834.got - 2010.06.03 17:29:28.
