data_PCOD9348344
_publ_section_title
;
Structure prediction by ZEFSAII (Michael W. Deem and Ramdas Pophale) SiO2 
 PCOD9348344
Probable space group: C M M 2
;
_chemical_formula_sum "Si O2"
_cell_formula_units_Z 56
_cell_length_a 24.834634
_cell_length_b 21.226078
_cell_length_c 5.281263
_cell_angle_alpha 90.000000
_cell_angle_beta 90.000000
_cell_angle_gamma 90.000000
_cell_volume 2783.974898
_symmetry_space_group_name_H-M "C M M 2"
_symmetry_group_IT_number 35
_symmetry_cell_setting 'orthorhombic'
loop_
_space_group_symop_operation_xyz
x,y,z
-x,-y,z
-x,y,z
x,-y,z
1/2+x,1/2+y,z
1/2-x,1/2-y,z
1/2-x,1/2+y,z
1/2+x,1/2-y,z
loop_
_atom_site_type_symbol
_atom_site_label
_atom_site_fract_x
_atom_site_fract_y
_atom_site_fract_z
Si Si1 0.146105 0.074293 0.530880
Si Si2 0.301084 0.630849 0.030393
Si Si3 0.094239 0.376857 0.151592
Si Si4 0.308852 0.928963 0.944988
Si Si5 0.384381 0.264336 0.994767
Si Si6 0.915153 0.572792 0.650592
Si Si7 0.436551 0.319859 0.494347
O O1 0.182948 0.102452 0.304011
O O2 0.089555 0.110867 0.514399
O O3 0.141705 0.000000 0.501270
O O4 0.170272 0.092074 0.804304
O O5 0.238246 0.620989 0.976820
O O6 0.326630 0.700680 0.014379
O O7 0.147536 0.420903 0.167904
O O8 0.114189 0.308871 0.062329
O O9 0.068139 0.382046 0.423789
O O10 0.061271 0.406266 0.920401
O O11 0.286545 0.000000 0.939029
O O12 0.350704 0.920286 0.713428
O O13 0.420680 0.295485 0.215612
O O14 0.408210 0.279057 0.717019
O O15 0.926903 0.500000 0.595979
O O16 0.500000 0.319228 0.530267
#
# Coordination Sequence:
#
# PCOD9348344 Si02
#       7
#     8   8   8   8   8   8   8
#     4  10  20  34  52  77 104 137 179 221 265 307
#     4  10  21  33  50  73 108 148 180 215 254 296
#     4  10  19  32  51  73 107 140 174 217 255 301
#     4   9  19  31  50  74 104 142 181 215 246 291
#     4  10  21  37  54  77 108 137 174 215 266 319
#     4   9  18  31  48  75 104 134 178 220 251 290
#     4  10  21  38  58  78 102 133 170 221 272 324
#
# _framework density 20.115124000000002
#
# number of rings (size 3 to 8) (size 9 to 14) (size 15 to 20)
#    0.857    1.429    0.000    3.429    2.000    0.857 
#    0.000    0.000    3.143    5.143    0.000    0.000 
#    0.000   66.286    0.000    0.000    0.000    0.000 
#
# Total GULP energy -155978.301669 kJ/mol
# GULP energy per Si atom -5570.653631 kJ/mol
# Density = 2.006934 g / cm^3
# Si number density = 20.115124 Si / 1000 Ang^3
#
#
#
# Elastic Constant Matrix: (Units=GPa)
#
#
# Indices 1 2 3 4 5 6 
#
# 1 76.7489 7.9016 1.8057 0.0000 0.0000 0.0000
# 2 7.9016 87.6886 2.4069 0.0000 0.0000 0.0000
# 3 1.8057 2.4069 95.1844 0.0000 0.0000 0.0000
# 4 0.0000 0.0000 0.0000 24.2103 0.0000 0.0000
# 5 0.0000 0.0000 0.0000 0.0000 -4.1717 0.0000
# 6 0.0000 0.0000 0.0000 0.0000 0.0000 -17.5626
#
#
#
# Elastic Compliance Matrix: (Units=1/GPa)
#
#
# Indices 1 2 3 4 5 6 
#
# 1 0.013156 -0.001179 -0.000220 0.000000 0.000000 0.000000
# 2 -0.001179 0.011518 -0.000269 0.000000 0.000000 0.000000
# 3 -0.000220 -0.000269 0.010517 0.000000 0.000000 0.000000
# 4 0.000000 0.000000 0.000000 0.041305 0.000000 0.000000
# 5 0.000000 0.000000 0.000000 0.000000 -0.239710 0.000000
# 6 0.000000 0.000000 0.000000 0.000000 0.000000 -0.056939
#
#
# Mechanical properties :
#
#
# Convention : Reuss Voigt Hill
#
# Bulk Modulus (GPa) = 31.39277 31.53893 31.46585
# Shear Modulus (GPa) = -24.24841 16.99571 -3.62635
#
# Velocity S-wave (km/s) = -3.47577 2.90991 -1.34414
# Velocity P-wave (km/s) = 0.68378 5.19647 3.64251
#
# Compressibility (1/GPa) = 0.03185447
#
# Stress axis : x y z
#
# Youngs Moduli (GPa) = 76.01038 86.82330 95.08509
#
# Poissons Ratio (x) = 0.10240 0.02090
# Poissons Ratio (y) = 0.08965 0.02557
# Poissons Ratio (z) = 0.01670 0.02334
#
# Static dielectric constant tensor:
#      x y z
#    x 1.751660 0.000000 0.000000 
#    y 0.000000 1.710540 0.000000 
#    z 0.000000 0.000000 1.744090 
# 
# From -- ./inp_files/3421.got.cif
#   From: 2010.05.17/outbox.cif.g08.bks.cpg/sg35_2_cif.got.tgz:3421.got - 2010.06.03 17:29:28.
