data_PCOD9348276
_publ_section_title
;
Structure prediction by ZEFSAII (Michael W. Deem and Ramdas Pophale) SiO2 
 PCOD9348276
Probable space group: C M M 2
;
_chemical_formula_sum "Si O2"
_cell_formula_units_Z 64
_cell_length_a 29.551403
_cell_length_b 9.125417
_cell_length_c 12.657725
_cell_angle_alpha 90.000000
_cell_angle_beta 90.000000
_cell_angle_gamma 90.000000
_cell_volume 3413.394465
_symmetry_space_group_name_H-M "C M M 2"
_symmetry_group_IT_number 35
_symmetry_cell_setting 'orthorhombic'
loop_
_space_group_symop_operation_xyz
x,y,z
-x,-y,z
-x,y,z
x,-y,z
1/2+x,1/2+y,z
1/2-x,1/2-y,z
1/2-x,1/2+y,z
1/2+x,1/2-y,z
loop_
_atom_site_type_symbol
_atom_site_label
_atom_site_fract_x
_atom_site_fract_y
_atom_site_fract_z
Si Si1 0.553008 0.675657 0.979580
Si Si2 0.397044 0.324783 0.199987
Si Si3 0.294956 0.674031 0.252983
Si Si4 0.948732 0.168558 0.612184
Si Si5 0.203894 0.323854 0.709876
Si Si6 0.892826 0.675309 0.790144
Si Si7 0.316516 0.168236 0.467966
Si Si8 0.422290 0.832605 0.411720
O O1 0.500000 0.718793 0.980079
O O2 0.554649 0.500000 0.962620
O O3 0.581218 0.753837 0.888047
O O4 0.577222 0.706246 0.091301
O O5 0.399857 0.500000 0.220684
O O6 0.343294 0.287084 0.199428
O O7 0.419688 0.237166 0.295982
O O8 0.289815 0.500000 0.249168
O O9 0.250000 0.750000 0.207677
O O10 0.299347 0.728723 0.374282
O O11 0.917669 0.268046 0.685191
O O12 0.948180 0.231432 0.494234
O O13 0.000000 0.172843 0.653850
O O14 0.933163 0.000000 0.613235
O O15 0.207671 0.500000 0.712676
O O16 0.250000 0.250000 0.746426
O O17 0.159788 0.281849 0.777293
O O18 0.195751 0.283750 0.586245
O O19 0.895303 0.500000 0.795352
O O20 0.370632 0.165606 0.454608
O O21 0.300331 0.000000 0.452025
O O22 0.438805 0.000000 0.410176
#
# Coordination Sequence:
#
# PCOD9348276 Si02
#       8
#     8   8   8   8   8   8   8   8
#     4  10  22  42  66  88 111 146 195 247 296 349
#     4   9  20  38  58  83 116 152 191 238 291 348
#     4  10  19  31  50  79 113 152 194 233 280 336
#     4  11  23  37  56  84 117 155 196 234 284 352
#     4  10  21  36  54  81 115 152 191 232 283 340
#     4  11  23  41  61  85 118 150 189 244 297 346
#     4   9  17  32  51  76 113 153 190 230 277 333
#     4  10  19  34  56  84 120 155 188 236 290 341
#
# _framework density 18.749663999999999
#
# number of rings (size 3 to 8) (size 9 to 14) (size 15 to 20)
#    0.000    2.000    1.250    2.250    0.000    7.250 
#    0.000    1.875    0.000    3.000    0.000    0.000 
#    0.000    0.000    0.000    0.000    0.000    0.000 
#
# Total GULP energy -178659.497922 kJ/mol
# GULP energy per Si atom -5583.109310 kJ/mol
# Density = 1.870699 g / cm^3
# Si number density = 18.749664 Si / 1000 Ang^3
#
#
#
# Elastic Constant Matrix: (Units=GPa)
#
#
# Indices 1 2 3 4 5 6 
#
# 1 137.5750 47.5574 68.3001 0.0000 0.0000 0.0000
# 2 47.5574 42.7640 46.4669 0.0000 0.0000 0.0000
# 3 68.3001 46.4669 102.7687 0.0000 0.0000 0.0000
# 4 0.0000 0.0000 0.0000 82.1196 0.0000 0.0000
# 5 0.0000 0.0000 0.0000 0.0000 15.3767 0.0000
# 6 0.0000 0.0000 0.0000 0.0000 0.0000 26.2300
#
#
#
# Elastic Compliance Matrix: (Units=1/GPa)
#
#
# Indices 1 2 3 4 5 6 
#
# 1 0.012594 -0.009654 -0.004005 0.000000 0.000000 0.000000
# 2 -0.009654 0.053369 -0.017715 0.000000 0.000000 0.000000
# 3 -0.004005 -0.017715 0.020402 0.000000 0.000000 0.000000
# 4 0.000000 0.000000 0.000000 0.012177 0.000000 0.000000
# 5 0.000000 0.000000 0.000000 0.000000 0.065034 0.000000
# 6 0.000000 0.000000 0.000000 0.000000 0.000000 0.038124
#
#
# Mechanical properties :
#
#
# Convention : Reuss Voigt Hill
#
# Bulk Modulus (GPa) = 42.34123 67.52850 54.93486
# Shear Modulus (GPa) = 18.36065 32.79746 25.57905
#
# Velocity S-wave (km/s) = 3.13270 4.18692 3.69757
# Velocity P-wave (km/s) = 5.97632 7.71153 6.89870
#
# Compressibility (1/GPa) = 0.02361764
#
# Stress axis : x y z
#
# Youngs Moduli (GPa) = 79.40017 18.73741 49.01455
#
# Poissons Ratio (x) = 0.18090 0.19631
# Poissons Ratio (y) = 0.76655 0.86828
# Poissons Ratio (z) = 0.31801 0.33193
#
# Static dielectric constant tensor:
#      x y z
#    x 1.676740 0.000000 0.000000 
#    y 0.000000 1.630510 0.000000 
#    z 0.000000 0.000000 1.621660 
# 
# From -- ./inp_files/11921.got.cif
#   From: 2010.05.17/outbox.cif.g08.bks.cpg/sg35_6_cif.got.tgz:11921.got - 2010.06.03 17:29:28.
