data_PCOD9348972
_publ_section_title
;
Structure prediction by ZEFSAII (Michael W. Deem and Ramdas Pophale) SiO2 
 PCOD9348972
Probable space group: C M M 2
;
_chemical_formula_sum "Si O2"
_cell_formula_units_Z 56
_cell_length_a 9.241113
_cell_length_b 14.832006
_cell_length_c 18.672696
_cell_angle_alpha 90.000000
_cell_angle_beta 90.000000
_cell_angle_gamma 90.000000
_cell_volume 2559.358951
_symmetry_space_group_name_H-M "C M M 2"
_symmetry_group_IT_number 35
_symmetry_cell_setting 'orthorhombic'
loop_
_space_group_symop_operation_xyz
x,y,z
-x,-y,z
-x,y,z
x,-y,z
1/2+x,1/2+y,z
1/2-x,1/2-y,z
1/2-x,1/2+y,z
1/2+x,1/2-y,z
loop_
_atom_site_type_symbol
_atom_site_label
_atom_site_fract_x
_atom_site_fract_y
_atom_site_fract_z
Si Si1 0.664942 0.389676 0.322780
Si Si2 0.332483 0.110262 0.623314
Si Si3 0.834507 0.610635 0.180481
Si Si4 0.826941 0.654092 0.902008
Si Si5 0.661095 0.393490 0.760267
Si Si6 0.832649 0.390031 0.463341
Si Si7 0.661566 0.605347 0.042846
O O1 0.500000 0.359454 0.315159
O O2 0.664177 0.500000 0.323252
O O3 0.760394 0.362481 0.254828
O O4 0.733964 0.360005 0.397822
O O5 0.500000 0.136930 0.634029
O O6 0.232190 0.143164 0.687721
O O7 0.285664 0.137425 0.543280
O O8 0.331292 0.000000 0.624479
O O9 0.836611 0.500000 0.179511
O O10 0.742366 0.642866 0.112356
O O11 0.000000 0.640954 0.175907
O O12 0.750000 0.750000 0.904656
O O13 0.767229 0.615211 0.827574
O O14 0.000000 0.655367 0.903427
O O15 0.761409 0.608996 0.972850
O O16 0.500000 0.355440 0.775155
O O17 0.644821 0.500000 0.748944
O O18 0.831267 0.500000 0.462705
O O19 0.000000 0.363094 0.452894
O O20 0.500000 0.644325 0.030314
O O21 0.642834 0.500000 0.058427
#
# Coordination Sequence:
#
# PCOD9348972 Si02
#       7
#     8   8   8   8   8   8   8
#     4   9  15  21  31  51  82 120 159 198 242 289
#     4   8  14  25  41  62  89 123 163 203 243 289
#     4   9  16  26  41  62  89 123 163 202 241 288
#     4  12  25  40  57  76 101 131 165 205 251 302
#     4  10  20  34  53  77 104 133 167 207 250 297
#     4   8  13  21  33  51  80 119 159 197 238 286
#     4  10  20  35  55  78 104 132 165 206 250 297
#
# _framework density 21.880479999999999
#
# number of rings (size 3 to 8) (size 9 to 14) (size 15 to 20)
#    0.000    2.571    0.000    4.286    0.000    7.429 
#    0.000    2.857    0.000    0.000    0.000    0.000 
#    0.000    1.143    0.000    6.286    0.000   13.000 
#
# Total GULP energy -156348.060671 kJ/mol
# GULP energy per Si atom -5583.859310 kJ/mol
# Density = 2.183068 g / cm^3
# Si number density = 21.880480 Si / 1000 Ang^3
#
#
#
# Elastic Constant Matrix: (Units=GPa)
#
#
# Indices 1 2 3 4 5 6 
#
# 1 212.5661 9.7969 130.4537 0.0000 0.0000 0.0000
# 2 9.7969 39.8519 1.2771 0.0000 0.0000 0.0000
# 3 130.4537 1.2771 197.4331 0.0000 0.0000 0.0000
# 4 0.0000 0.0000 0.0000 -90.8210 0.0000 0.0000
# 5 0.0000 0.0000 0.0000 0.0000 43.1714 0.0000
# 6 0.0000 0.0000 0.0000 0.0000 0.0000 8.7295
#
#
#
# Elastic Compliance Matrix: (Units=1/GPa)
#
#
# Indices 1 2 3 4 5 6 
#
# 1 0.008041 -0.001807 -0.005302 0.000000 0.000000 0.000000
# 2 -0.001807 0.025504 0.001029 0.000000 0.000000 0.000000
# 3 -0.005302 0.001029 0.008561 0.000000 0.000000 0.000000
# 4 0.000000 0.000000 0.000000 -0.011011 0.000000 0.000000
# 5 0.000000 0.000000 0.000000 0.000000 0.023164 0.000000
# 6 0.000000 0.000000 0.000000 0.000000 0.000000 0.114554
#
#
# Mechanical properties :
#
#
# Convention : Reuss Voigt Hill
#
# Bulk Modulus (GPa) = 33.39155 81.43406 57.41280
# Shear Modulus (GPa) = 26.18417 12.77087 19.47752
#
# Velocity S-wave (km/s) = 3.46308 2.41854 2.98682
# Velocity P-wave (km/s) = 5.59326 6.71547 6.17989
#
# Compressibility (1/GPa) = 0.02994770
#
# Stress axis : x y z
#
# Youngs Moduli (GPa) = 124.35719 39.20929 116.80344
#
# Poissons Ratio (x) = 0.07085 0.61925
# Poissons Ratio (y) = 0.22470 -0.12018
# Poissons Ratio (z) = 0.65930 -0.04034
#
# Static dielectric constant tensor:
#      x y z
#    x 1.770260 0.000000 0.000000 
#    y 0.000000 2.001230 0.000000 
#    z 0.000000 0.000000 1.839180 
# 
# From -- ./inp_files/18251.got.cif
#   From: 2010.05.17/outbox.cif.g08.bks.cpg/sg35_10_cif.got.tgz:18251.got - 2010.06.03 17:29:28.
