data_PCOD9348168
_publ_section_title
;
Structure prediction by ZEFSAII (Michael W. Deem and Ramdas Pophale) SiO2 
 PCOD9348168
Probable space group: C M M 2
;
_chemical_formula_sum "Si O2"
_cell_formula_units_Z 48
_cell_length_a 9.008430
_cell_length_b 27.334293
_cell_length_c 11.789216
_cell_angle_alpha 90.000000
_cell_angle_beta 90.000000
_cell_angle_gamma 90.000000
_cell_volume 2902.965526
_symmetry_space_group_name_H-M "C M M 2"
_symmetry_group_IT_number 35
_symmetry_cell_setting 'orthorhombic'
loop_
_space_group_symop_operation_xyz
x,y,z
-x,-y,z
-x,y,z
x,-y,z
1/2+x,1/2+y,z
1/2-x,1/2-y,z
1/2-x,1/2+y,z
1/2+x,1/2-y,z
loop_
_atom_site_type_symbol
_atom_site_label
_atom_site_fract_x
_atom_site_fract_y
_atom_site_fract_z
Si Si1 0.322420 0.301682 0.503650
Si Si2 0.167463 0.376669 0.073355
Si Si3 0.822954 0.197702 0.237062
Si Si4 0.679495 0.943048 0.873969
Si Si5 0.823064 0.134673 0.707278
Si Si6 0.833497 0.703568 0.877052
O O1 0.500000 0.296371 0.515267
O O2 0.250000 0.250000 0.539426
O O3 0.288620 0.308885 0.370804
O O4 0.279017 0.348390 0.580517
O O5 0.262098 0.349161 0.168669
O O6 0.000000 0.387714 0.114983
O O7 0.227123 0.422140 0.998128
O O8 0.155626 0.336151 0.974887
O O9 0.750000 0.250000 0.203257
O O10 0.000000 0.201594 0.221920
O O11 0.500000 0.937298 0.870693
O O12 0.747016 0.910962 0.771375
O O13 0.716043 0.000000 0.862585
O O14 0.769247 0.181099 0.780220
O O15 0.000000 0.128312 0.712492
O O16 0.750000 0.750000 0.924494
O O17 0.000000 0.714436 0.835995
#
# Coordination Sequence:
#
# PCOD9348168 Si02
#       6
#     8   8   8   8   8   8
#     4   9  19  32  46  68  98 131 163 194 228 268
#     4   9  18  31  47  68  92 120 154 191 234 282
#     4  10  19  31  47  68  97 131 164 195 227 269
#     4   9  19  36  55  73  94 120 152 196 248 293
#     4  10  19  31  48  70  95 123 157 194 234 284
#     4  10  19  29  42  64  95 126 155 190 233 280
#
# _framework density 16.534815999999999
#
# number of rings (size 3 to 8) (size 9 to 14) (size 15 to 20)
#    0.000    2.500    0.000    3.500    0.000    8.333 
#    0.000    0.000    0.000    1.000    0.000    4.667 
#    0.000    0.000    0.000    0.000    0.000    0.000 
#
# Total GULP energy -133610.931991 kJ/mol
# GULP energy per Si atom -5567.122166 kJ/mol
# Density = 1.649718 g / cm^3
# Si number density = 16.534816 Si / 1000 Ang^3
#
#
#
# Elastic Constant Matrix: (Units=GPa)
#
#
# Indices 1 2 3 4 5 6 
#
# 1 37.3520 36.8061 31.2651 0.0000 0.0000 0.0000
# 2 36.8061 94.2844 52.1617 0.0000 0.0000 0.0000
# 3 31.2651 52.1617 87.3749 0.0000 0.0000 0.0000
# 4 0.0000 0.0000 0.0000 23.7410 0.0000 0.0000
# 5 0.0000 0.0000 0.0000 0.0000 14.3440 0.0000
# 6 0.0000 0.0000 0.0000 0.0000 0.0000 17.5785
#
#
#
# Elastic Compliance Matrix: (Units=1/GPa)
#
#
# Indices 1 2 3 4 5 6 
#
# 1 0.047727 -0.013712 -0.008892 0.000000 0.000000 0.000000
# 2 -0.013712 0.019776 -0.006900 0.000000 0.000000 0.000000
# 3 -0.008892 -0.006900 0.018746 0.000000 0.000000 0.000000
# 4 0.000000 0.000000 0.000000 0.042121 0.000000 0.000000
# 5 0.000000 0.000000 0.000000 0.000000 0.069716 0.000000
# 6 0.000000 0.000000 0.000000 0.000000 0.000000 0.056888
#
#
# Mechanical properties :
#
#
# Convention : Reuss Voigt Hill
#
# Bulk Modulus (GPa) = 36.70874 51.05302 43.88088
# Shear Modulus (GPa) = 15.47697 17.71792 16.59745
#
# Velocity S-wave (km/s) = 3.06277 3.27701 3.17170
# Velocity P-wave (km/s) = 5.89546 6.72767 6.32527
#
# Compressibility (1/GPa) = 0.02724147
#
# Stress axis : x y z
#
# Youngs Moduli (GPa) = 20.95262 50.56628 53.34531
#
# Poissons Ratio (x) = 0.69335 0.47436
# Poissons Ratio (y) = 0.28730 0.36806
# Poissons Ratio (z) = 0.18632 0.34889
#
# Static dielectric constant tensor:
#      x y z
#    x 1.577820 0.000000 0.000000 
#    y 0.000000 1.591690 0.000000 
#    z 0.000000 0.000000 1.584820 
# 
# From -- ./inp_files/11466.got.cif
#   From: 2010.05.17/outbox.cif.g08.bks.cpg/sg35_6_cif.got.tgz:11466.got - 2010.06.03 17:29:28.
