data_PCOD9348841
_publ_section_title
;
Structure prediction by ZEFSAII (Michael W. Deem and Ramdas Pophale) SiO2 
 PCOD9348841
Probable space group: C M M 2
;
_chemical_formula_sum "Si O2"
_cell_formula_units_Z 48
_cell_length_a 15.919290
_cell_length_b 8.847959
_cell_length_c 17.850955
_cell_angle_alpha 90.000000
_cell_angle_beta 90.000000
_cell_angle_gamma 90.000000
_cell_volume 2514.364585
_symmetry_space_group_name_H-M "C M M 2"
_symmetry_group_IT_number 35
_symmetry_cell_setting 'orthorhombic'
loop_
_space_group_symop_operation_xyz
x,y,z
-x,-y,z
-x,y,z
x,-y,z
1/2+x,1/2+y,z
1/2-x,1/2-y,z
1/2-x,1/2+y,z
1/2+x,1/2-y,z
loop_
_atom_site_type_symbol
_atom_site_label
_atom_site_fract_x
_atom_site_fract_y
_atom_site_fract_z
Si Si1 0.662866 0.181307 0.322750
Si Si2 0.843544 0.317354 0.954392
Si Si3 0.000000 0.315437 0.055904
Si Si4 0.500000 0.183845 0.228065
Si Si5 0.158007 0.320387 0.786891
Si Si6 0.900366 0.169510 0.638029
Si Si7 0.099429 0.817194 0.475020
O O1 0.750000 0.250000 0.294430
O O2 0.583517 0.230627 0.272519
O O3 0.646898 0.240839 0.406690
O O4 0.667030 0.000000 0.322829
O O5 0.836267 0.500000 0.958106
O O6 0.750000 0.250000 0.965857
O O7 0.874281 0.277675 0.869842
O O8 0.915091 0.268193 0.012715
O O9 0.000000 0.500000 0.054721
O O10 0.000000 0.265769 0.142056
O O11 0.500000 0.000000 0.227761
O O12 0.161642 0.500000 0.784491
O O13 0.250000 0.250000 0.782936
O O14 0.112507 0.262474 0.713020
O O15 0.869335 0.231134 0.557894
O O16 0.000000 0.156131 0.626564
O O17 0.865468 0.000000 0.649346
O O18 0.000000 0.780464 0.466961
O O19 0.107067 0.000000 0.471831
#
# Coordination Sequence:
#
# PCOD9348841 Si02
#       7
#     8   8   4   4   8   8   8
#     4  11  22  37  58  86 114 147 188 228 276 333
#     4   9  19  35  57  82 112 146 185 228 274 327
#     4   9  18  36  61  84 109 148 182 219 279 337
#     4   9  20  38  59  84 115 144 180 227 277 335
#     4  10  20  33  51  75 106 143 184 228 272 321
#     4   9  19  34  52  77 108 143 182 225 274 322
#     4   9  18  35  57  79 108 146 186 230 279 328
#
# _framework density 19.090309999999999
#
# number of rings (size 3 to 8) (size 9 to 14) (size 15 to 20)
#    0.000    2.500    0.833    2.000    1.167    3.000 
#    0.000    2.083    0.000    3.000    0.000    0.000 
#    0.000    0.000    0.000    0.000    0.000    0.000 
#
# Total GULP energy -133815.535194 kJ/mol
# GULP energy per Si atom -5575.647300 kJ/mol
# Density = 1.904686 g / cm^3
# Si number density = 19.090310 Si / 1000 Ang^3
#
#
#
# Elastic Constant Matrix: (Units=GPa)
#
#
# Indices 1 2 3 4 5 6 
#
# 1 106.9295 24.8836 80.3952 0.0000 0.0000 0.0000
# 2 24.8836 24.5760 35.3477 0.0000 0.0000 0.0000
# 3 80.3952 35.3477 171.9654 0.0000 0.0000 0.0000
# 4 0.0000 0.0000 0.0000 26.9677 0.0000 0.0000
# 5 0.0000 0.0000 0.0000 0.0000 -10.8893 0.0000
# 6 0.0000 0.0000 0.0000 0.0000 0.0000 24.2159
#
#
#
# Elastic Compliance Matrix: (Units=1/GPa)
#
#
# Indices 1 2 3 4 5 6 
#
# 1 0.015312 -0.007393 -0.005639 0.000000 0.000000 0.000000
# 2 -0.007393 0.061339 -0.009152 0.000000 0.000000 0.000000
# 3 -0.005639 -0.009152 0.010332 0.000000 0.000000 0.000000
# 4 0.000000 0.000000 0.000000 0.037081 0.000000 0.000000
# 5 0.000000 0.000000 0.000000 0.000000 -0.091833 0.000000
# 6 0.000000 0.000000 0.000000 0.000000 0.000000 0.041295
#
#
# Mechanical properties :
#
#
# Convention : Reuss Voigt Hill
#
# Bulk Modulus (GPa) = 23.46560 64.96932 44.21746
# Shear Modulus (GPa) = 37.84999 18.91516 28.38257
#
# Velocity S-wave (km/s) = 4.45756 3.15115 3.86003
# Velocity P-wave (km/s) = 6.22990 6.88086 6.56346
#
# Compressibility (1/GPa) = 0.04261558
#
# Stress axis : x y z
#
# Youngs Moduli (GPa) = 65.30829 16.30279 96.78245
#
# Poissons Ratio (x) = 0.12053 0.54573
# Poissons Ratio (y) = 0.48285 0.88574
# Poissons Ratio (z) = 0.36826 0.14920
#
# Static dielectric constant tensor:
#      x y z
#    x 1.664520 0.000000 0.000000 
#    y 0.000000 1.636310 0.000000 
#    z 0.000000 0.000000 1.692040 
# 
# From -- ./inp_files/15192.got.cif
#   From: 2010.05.17/outbox.cif.g08.bks.cpg/sg35_8_cif.got.tgz:15192.got - 2010.06.03 17:29:28.
