data_PCOD9348270
_publ_section_title
;
Structure prediction by ZEFSAII (Michael W. Deem and Ramdas Pophale) SiO2 
 PCOD9348270
Probable space group: C M M 2
;
_chemical_formula_sum "Si O2"
_cell_formula_units_Z 48
_cell_length_a 8.808104
_cell_length_b 15.681334
_cell_length_c 17.624523
_cell_angle_alpha 90.000000
_cell_angle_beta 90.000000
_cell_angle_gamma 90.000000
_cell_volume 2434.348831
_symmetry_space_group_name_H-M "C M M 2"
_symmetry_group_IT_number 35
_symmetry_cell_setting 'orthorhombic'
loop_
_space_group_symop_operation_xyz
x,y,z
-x,-y,z
-x,y,z
x,-y,z
1/2+x,1/2+y,z
1/2-x,1/2-y,z
1/2-x,1/2+y,z
1/2+x,1/2-y,z
loop_
_atom_site_type_symbol
_atom_site_label
_atom_site_fract_x
_atom_site_fract_y
_atom_site_fract_z
Si Si1 0.824222 0.599861 0.683540
Si Si2 0.317371 0.344946 0.194316
Si Si3 0.681143 0.000000 0.917691
Si Si4 0.315677 0.500000 0.085551
Si Si5 0.181770 0.845707 0.363345
Si Si6 0.818556 0.344991 0.515428
Si Si7 0.179023 0.838939 0.831153
O O1 0.817649 0.500000 0.702317
O O2 0.783392 0.611128 0.595454
O O3 0.718999 0.648808 0.742289
O O4 0.000000 0.628411 0.693196
O O5 0.500000 0.336721 0.191817
O O6 0.250000 0.250000 0.183679
O O7 0.271804 0.415194 0.132673
O O8 0.279509 0.378859 0.279366
O O9 0.744721 0.083083 0.875228
O O10 0.500000 0.000000 0.914550
O O11 0.740659 0.000000 0.003560
O O12 0.500000 0.500000 0.078649
O O13 0.250000 0.750000 0.362572
O O14 0.250362 0.886559 0.439255
O O15 0.000000 0.842899 0.370594
O O16 0.750000 0.250000 0.521031
O O17 0.000000 0.340729 0.507305
O O18 0.250000 0.750000 0.857082
O O19 0.000000 0.840007 0.842619
#
# Coordination Sequence:
#
# PCOD9348270 Si02
#       7
#     8   8   4   4   8   8   8
#     4  10  21  38  58  82 120 163 203 253 308 359
#     4   9  19  36  60  86 118 157 199 246 301 358
#     4  12  26  46  68  95 130 161 198 253 306 367
#     4  10  22  42  64  89 122 159 196 241 302 371
#     4   9  16  29  50  77 108 149 195 245 297 348
#     4  10  19  31  50  77 110 153 200 248 299 352
#     4  12  25  43  69  98 125 163 207 250 306 369
#
# _framework density 19.717798999999999
#
# number of rings (size 3 to 8) (size 9 to 14) (size 15 to 20)
#    0.000    1.833    0.833    4.750    0.000    4.667 
#    1.500    1.667    0.000    0.000    0.000    0.000 
#    0.000    0.000    0.000    0.000    0.000    0.000 
#
# Total GULP energy -134022.999857 kJ/mol
# GULP energy per Si atom -5584.291661 kJ/mol
# Density = 1.967292 g / cm^3
# Si number density = 19.717799 Si / 1000 Ang^3
#
#
#
# Elastic Constant Matrix: (Units=GPa)
#
#
# Indices 1 2 3 4 5 6 
#
# 1 100.4544 49.8773 68.8201 0.0000 0.0000 0.0000
# 2 49.8773 108.4952 65.4277 0.0000 0.0000 0.0000
# 3 68.8201 65.4277 152.4919 0.0000 0.0000 0.0000
# 4 0.0000 0.0000 0.0000 24.0917 0.0000 0.0000
# 5 0.0000 0.0000 0.0000 0.0000 29.7160 0.0000
# 6 0.0000 0.0000 0.0000 0.0000 0.0000 19.9099
#
#
#
# Elastic Compliance Matrix: (Units=1/GPa)
#
#
# Indices 1 2 3 4 5 6 
#
# 1 0.015565 -0.003938 -0.005335 0.000000 0.000000 0.000000
# 2 -0.003938 0.013431 -0.003985 0.000000 0.000000 0.000000
# 3 -0.005335 -0.003985 0.010675 0.000000 0.000000 0.000000
# 4 0.000000 0.000000 0.000000 0.041508 0.000000 0.000000
# 5 0.000000 0.000000 0.000000 0.000000 0.033652 0.000000
# 6 0.000000 0.000000 0.000000 0.000000 0.000000 0.050226
#
#
# Mechanical properties :
#
#
# Convention : Reuss Voigt Hill
#
# Bulk Modulus (GPa) = 76.02048 81.07685 78.54867
# Shear Modulus (GPa) = 25.51560 26.56463 26.04011
#
# Velocity S-wave (km/s) = 3.60118 3.67446 3.63800
# Velocity P-wave (km/s) = 7.47859 7.69481 7.58747
#
# Compressibility (1/GPa) = 0.01315435
#
# Stress axis : x y z
#
# Youngs Moduli (GPa) = 64.24654 74.45569 93.67542
#
# Poissons Ratio (x) = 0.29324 0.49973
# Poissons Ratio (y) = 0.25303 0.37331
# Poissons Ratio (z) = 0.34274 0.29672
#
# Static dielectric constant tensor:
#      x y z
#    x 1.661820 0.000000 0.000000 
#    y 0.000000 1.679980 0.000000 
#    z 0.000000 0.000000 1.725580 
# 
# From -- ./inp_files/17879.got.cif
#   From: 2010.05.17/outbox.cif.g08.bks.cpg/sg35_9_cif.got.tgz:17879.got - 2010.06.03 17:29:28.
