data_PCOD9348821
_publ_section_title
;
Structure prediction by ZEFSAII (Michael W. Deem and Ramdas Pophale) SiO2 
 PCOD9348821
Probable space group: C M M 2
;
_chemical_formula_sum "Si O2"
_cell_formula_units_Z 64
_cell_length_a 9.093729
_cell_length_b 19.167033
_cell_length_c 21.115826
_cell_angle_alpha 90.000000
_cell_angle_beta 90.000000
_cell_angle_gamma 90.000000
_cell_volume 3680.484330
_symmetry_space_group_name_H-M "C M M 2"
_symmetry_group_IT_number 35
_symmetry_cell_setting 'orthorhombic'
loop_
_space_group_symop_operation_xyz
x,y,z
-x,-y,z
-x,y,z
x,-y,z
1/2+x,1/2+y,z
1/2-x,1/2-y,z
1/2-x,1/2+y,z
1/2+x,1/2-y,z
loop_
_atom_site_type_symbol
_atom_site_label
_atom_site_fract_x
_atom_site_fract_y
_atom_site_fract_z
Si Si1 0.322303 0.325638 0.816400
Si Si2 0.327472 0.083470 0.562205
Si Si3 0.175317 0.174699 0.455755
Si Si4 0.824132 0.081750 0.694503
Si Si5 0.672533 0.916299 0.203841
Si Si6 0.820773 0.080470 0.935205
Si Si7 0.669553 0.584827 0.075385
Si Si8 0.175103 0.825241 0.310051
O O1 0.500000 0.319304 0.818094
O O2 0.250000 0.250000 0.815062
O O3 0.284328 0.370265 0.753920
O O4 0.275527 0.369406 0.878403
O O5 0.500000 0.100820 0.560313
O O6 0.242869 0.122066 0.506238
O O7 0.259305 0.102130 0.630440
O O8 0.311626 0.000000 0.555361
O O9 0.250000 0.250000 0.464665
O O10 0.204652 0.152863 0.382894
O O11 0.000000 0.180384 0.463771
O O12 0.000000 0.087280 0.684246
O O13 0.792509 0.000000 0.708224
O O14 0.500000 0.900722 0.208471
O O15 0.734885 0.893562 0.135397
O O16 0.759267 0.878627 0.259713
O O17 0.691761 0.000000 0.208271
O O18 0.000000 0.079113 0.936268
O O19 0.773445 0.000000 0.925121
O O20 0.775533 0.105307 0.005441
O O21 0.500000 0.607345 0.083705
O O22 0.668551 0.500000 0.073978
O O23 0.250000 0.750000 0.300864
O O24 0.000000 0.819044 0.302344
#
# Coordination Sequence:
#
# PCOD9348821 Si02
#       8
#     8   8   8   8   8   8   8   8
#     4  10  20  33  50  74 103 132 164 206 255 304
#     4  10  21  36  55  80 109 138 169 210 257 304
#     4  10  21  37  57  79 104 136 173 213 256 306
#     4   9  18  34  55  75  97 131 174 214 250 294
#     4  10  20  33  51  77 108 139 172 213 258 304
#     4   8  14  28  52  76  95 124 170 215 251 294
#     4   8  14  27  49  74  98 127 167 214 258 300
#     4  10  21  37  56  77 103 136 174 214 257 307
#
# _framework density 17.389015000000001
#
# number of rings (size 3 to 8) (size 9 to 14) (size 15 to 20)
#    0.000    2.625    0.000    2.625    0.000    6.000 
#    0.000    5.000    0.000    3.375    0.000    0.000 
#    0.000    0.000    0.000    0.000    0.000    0.000 
#
# Total GULP energy -178475.430448 kJ/mol
# GULP energy per Si atom -5577.357202 kJ/mol
# Density = 1.734944 g / cm^3
# Si number density = 17.389015 Si / 1000 Ang^3
#
#
#
# Elastic Constant Matrix: (Units=GPa)
#
#
# Indices 1 2 3 4 5 6 
#
# 1 70.6388 47.1817 84.2472 0.0000 0.0000 0.0000
# 2 47.1817 61.9844 80.5846 0.0000 0.0000 0.0000
# 3 84.2472 80.5846 176.6514 0.0000 0.0000 0.0000
# 4 0.0000 0.0000 0.0000 -29.9080 0.0000 0.0000
# 5 0.0000 0.0000 0.0000 0.0000 19.4275 0.0000
# 6 0.0000 0.0000 0.0000 0.0000 0.0000 29.7775
#
#
#
# Elastic Compliance Matrix: (Units=1/GPa)
#
#
# Indices 1 2 3 4 5 6 
#
# 1 0.036463 -0.012649 -0.011620 0.000000 0.000000 0.000000
# 2 -0.012649 0.044033 -0.014055 0.000000 0.000000 0.000000
# 3 -0.011620 -0.014055 0.017614 0.000000 0.000000 0.000000
# 4 0.000000 0.000000 0.000000 -0.033436 0.000000 0.000000
# 5 0.000000 0.000000 0.000000 0.000000 0.051473 0.000000
# 6 0.000000 0.000000 0.000000 0.000000 0.000000 0.033582
#
#
# Mechanical properties :
#
#
# Convention : Reuss Voigt Hill
#
# Bulk Modulus (GPa) = 46.58951 81.47795 64.03373
# Shear Modulus (GPa) = 21.41043 10.34349 15.87696
#
# Velocity S-wave (km/s) = 3.51274 2.44156 3.02494
# Velocity P-wave (km/s) = 6.58051 7.40986 7.00746
#
# Compressibility (1/GPa) = 0.02146406
#
# Stress axis : x y z
#
# Youngs Moduli (GPa) = 27.42500 22.71002 56.77375
#
# Poissons Ratio (x) = 0.28726 0.65968
# Poissons Ratio (y) = 0.34690 0.79794
# Poissons Ratio (z) = 0.31866 0.31918
#
# Static dielectric constant tensor:
#      x y z
#    x 1.579800 0.000000 0.000000 
#    y 0.000000 1.565280 0.000000 
#    z 0.000000 0.000000 1.587950 
# 
# From -- ./inp_files/18308.got.cif
#   From: 2010.05.17/outbox.cif.g08.bks.cpg/sg35_10_cif.got.tgz:18308.got - 2010.06.03 17:29:28.
