data_PCOD9348908
_publ_section_title
;
Structure prediction by ZEFSAII (Michael W. Deem and Ramdas Pophale) SiO2 
 PCOD9348908
Probable space group: C M M 2
;
_chemical_formula_sum "Si O2"
_cell_formula_units_Z 48
_cell_length_a 10.330556
_cell_length_b 16.871003
_cell_length_c 14.651993
_cell_angle_alpha 90.000000
_cell_angle_beta 90.000000
_cell_angle_gamma 90.000000
_cell_volume 2553.649578
_symmetry_space_group_name_H-M "C M M 2"
_symmetry_group_IT_number 35
_symmetry_cell_setting 'orthorhombic'
loop_
_space_group_symop_operation_xyz
x,y,z
-x,-y,z
-x,y,z
x,-y,z
1/2+x,1/2+y,z
1/2-x,1/2-y,z
1/2-x,1/2+y,z
1/2+x,1/2-y,z
loop_
_atom_site_type_symbol
_atom_site_label
_atom_site_fract_x
_atom_site_fract_y
_atom_site_fract_z
Si Si1 0.741557 0.847023 0.783210
Si Si2 0.759030 0.406880 0.205756
Si Si3 0.654259 0.824652 0.590306
Si Si4 0.000000 0.337165 0.902619
Si Si5 0.648128 0.094271 0.395456
Si Si6 0.000000 0.675042 0.111157
Si Si7 0.000000 0.865248 0.098444
Si Si8 0.000000 0.855818 0.885547
O O1 0.750000 0.750000 0.780976
O O2 0.702828 0.870875 0.680618
O O3 0.626222 0.867320 0.851372
O O4 0.874040 0.877377 0.826749
O O5 0.795104 0.500000 0.203610
O O6 0.756813 0.382744 0.312824
O O7 0.871674 0.356098 0.159772
O O8 0.626811 0.395572 0.150876
O O9 0.500000 0.805479 0.603169
O O10 0.750000 0.750000 0.584732
O O11 0.668958 0.868576 0.494252
O O12 0.000000 0.240712 0.894430
O O13 0.000000 0.356988 0.008197
O O14 0.500000 0.113954 0.366664
O O15 0.655697 0.000000 0.406182
O O16 0.000000 0.769924 0.106151
O O17 0.000000 0.885893 0.990205
#
# Coordination Sequence:
#
# PCOD9348908 Si02
#       8
#     8   8   8   4   8   4   4   4
#     4   9  16  28  48  76 111 144 176 217 278 338
#     4  11  22  40  60  82 114 159 197 232 292 361
#     4  10  20  33  55  87 115 140 180 235 287 326
#     4   9  16  29  48  77 110 136 181 229 274 329
#     4   9  19  39  61  78 104 150 195 227 275 347
#     4  11  21  35  60  87 114 146 199 247 284 331
#     4  11  23  37  58  91 120 148 191 251 296 327
#     4   9  18  31  50  77 112 150 177 221 282 339
#
# _framework density 18.796628999999999
#
# number of rings (size 3 to 8) (size 9 to 14) (size 15 to 20)
#    0.000    2.167    1.667    2.000    3.500    4.000 
#    1.500    0.000    0.000    6.000    0.000    0.000 
#    0.000    0.000    0.000    0.000    0.000    0.000 
#
# Total GULP energy -133844.531663 kJ/mol
# GULP energy per Si atom -5576.855486 kJ/mol
# Density = 1.875385 g / cm^3
# Si number density = 18.796629 Si / 1000 Ang^3
#
#
#
# Elastic Constant Matrix: (Units=GPa)
#
#
# Indices 1 2 3 4 5 6 
#
# 1 125.5014 10.4450 75.5892 0.0000 0.0000 0.0000
# 2 10.4450 22.0259 23.3815 0.0000 0.0000 0.0000
# 3 75.5892 23.3815 181.5992 0.0000 0.0000 0.0000
# 4 0.0000 0.0000 0.0000-1190.2478 0.0000 0.0000
# 5 0.0000 0.0000 0.0000 0.0000 -47.1148 0.0000
# 6 0.0000 0.0000 0.0000 0.0000 0.0000 20.7683
#
#
#
# Elastic Compliance Matrix: (Units=1/GPa)
#
#
# Indices 1 2 3 4 5 6 
#
# 1 0.010637 -0.000399 -0.004376 0.000000 0.000000 0.000000
# 2 -0.000399 0.052604 -0.006607 0.000000 0.000000 0.000000
# 3 -0.004376 -0.006607 0.008179 0.000000 0.000000 0.000000
# 4 0.000000 0.000000 0.000000 -0.000840 0.000000 0.000000
# 5 0.000000 0.000000 0.000000 0.000000 -0.021225 0.000000
# 6 0.000000 0.000000 0.000000 0.000000 0.000000 0.048150
#
#
# Mechanical properties :
#
#
# Convention : Reuss Voigt Hill
#
# Bulk Modulus (GPa) = 20.55250 60.88423 40.71836
# Shear Modulus (GPa) = 36.63339 -228.67148 -96.01904
#
# Velocity S-wave (km/s) = 4.41946 -11.04172 -7.15500
# Velocity P-wave (km/s) = 6.08277 11.40606 6.82269
#
# Compressibility (1/GPa) = 0.04865589
#
# Stress axis : x y z
#
# Youngs Moduli (GPa) = 94.01131 19.01005 122.26614
#
# Poissons Ratio (x) = 0.00758 0.53507
# Poissons Ratio (y) = 0.03748 0.80781
# Poissons Ratio (z) = 0.41142 0.12560
#
# Static dielectric constant tensor:
#      x y z
#    x 2.099880 0.000000 0.000000 
#    y 0.000000 1.645250 0.000000 
#    z 0.000000 0.000000 1.664330 
# 
# From -- ./inp_files/15292.got.cif
#   From: 2010.05.17/outbox.cif.g08.bks.cpg/sg35_8_cif.got.tgz:15292.got - 2010.06.03 17:29:28.
