data_PCOD9348901
_publ_section_title
;
Structure prediction by ZEFSAII (Michael W. Deem and Ramdas Pophale) SiO2 
 PCOD9348901
Probable space group: C M M 2
;
_chemical_formula_sum "Si O2"
_cell_formula_units_Z 64
_cell_length_a 18.362806
_cell_length_b 13.344112
_cell_length_c 12.786369
_cell_angle_alpha 90.000000
_cell_angle_beta 90.000000
_cell_angle_gamma 90.000000
_cell_volume 3133.112274
_symmetry_space_group_name_H-M "C M M 2"
_symmetry_group_IT_number 35
_symmetry_cell_setting 'orthorhombic'
loop_
_space_group_symop_operation_xyz
x,y,z
-x,-y,z
-x,y,z
x,-y,z
1/2+x,1/2+y,z
1/2-x,1/2-y,z
1/2-x,1/2+y,z
1/2+x,1/2-y,z
loop_
_atom_site_type_symbol
_atom_site_label
_atom_site_fract_x
_atom_site_fract_y
_atom_site_fract_z
Si Si1 0.414333 0.184339 0.919820
Si Si2 0.870321 0.619541 0.150634
Si Si3 0.584559 0.879993 0.692782
Si Si4 0.846905 0.882500 0.421700
Si Si5 0.207599 0.118229 0.185988
Si Si6 0.584442 0.616621 0.021400
Si Si7 0.578944 0.810677 0.366635
Si Si8 0.802382 0.381363 0.518942
O O1 0.500000 0.163988 0.916915
O O2 0.387124 0.143322 0.809751
O O3 0.402959 0.303867 0.929612
O O4 0.389049 0.137785 0.029462
O O5 0.877053 0.500000 0.171420
O O6 0.787759 0.657578 0.164267
O O7 0.915502 0.675457 0.241479
O O8 0.500000 0.842810 0.679598
O O9 0.644344 0.841283 0.610102
O O10 0.580514 0.000000 0.680858
O O11 0.811472 0.872767 0.306812
O O12 0.911349 0.802260 0.411072
O O13 0.781565 0.849618 0.499687
O O14 0.866104 0.000000 0.438265
O O15 0.215217 0.000000 0.164086
O O16 0.140284 0.146398 0.112323
O O17 0.500000 0.628134 0.055621
O O18 0.594553 0.500000 0.993214
O O19 0.500000 0.850732 0.400613
O O20 0.648794 0.866322 0.414960
O O21 0.795050 0.500000 0.536645
#
# Coordination Sequence:
#
# PCOD9348901 Si02
#       8
#     8   8   8   8   8   8   8   8
#     4  10  20  33  53  83 118 154 187 227 287 351
#     4  11  22  35  53  83 122 157 188 232 289 353
#     4   9  18  34  57  84 114 147 184 232 291 353
#     4  10  21  38  58  80 111 152 195 239 285 333
#     4   9  18  33  53  76 108 151 189 226 278 334
#     4   9  18  33  54  80 112 152 197 240 279 334
#     4  12  24  35  56  88 118 153 191 231 285 350
#     4  10  20  37  61  86 110 144 191 242 292 342
#
# _framework density 20.426974999999999
#
# number of rings (size 3 to 8) (size 9 to 14) (size 15 to 20)
#    0.000    2.000    1.250    2.625    0.000    6.000 
#    0.000    1.250    5.500    0.750    0.000    1.750 
#    0.000    0.000    0.000    0.000    0.000    0.000 
#
# Total GULP energy -178394.392691 kJ/mol
# GULP energy per Si atom -5574.824772 kJ/mol
# Density = 2.038048 g / cm^3
# Si number density = 20.426975 Si / 1000 Ang^3
#
#
#
# Elastic Constant Matrix: (Units=GPa)
#
#
# Indices 1 2 3 4 5 6 
#
# 1 72.1844 15.3544 22.4898 0.0000 0.0000 0.0000
# 2 15.3544 61.8835 3.2283 0.0000 0.0000 0.0000
# 3 22.4898 3.2283 76.2100 0.0000 0.0000 0.0000
# 4 0.0000 0.0000 0.0000 24.1435 0.0000 0.0000
# 5 0.0000 0.0000 0.0000 0.0000 25.4433 0.0000
# 6 0.0000 0.0000 0.0000 0.0000 0.0000 16.9515
#
#
#
# Elastic Compliance Matrix: (Units=1/GPa)
#
#
# Indices 1 2 3 4 5 6 
#
# 1 0.016080 -0.003751 -0.004586 0.000000 0.000000 0.000000
# 2 -0.003751 0.017070 0.000384 0.000000 0.000000 0.000000
# 3 -0.004586 0.000384 0.014459 0.000000 0.000000 0.000000
# 4 0.000000 0.000000 0.000000 0.041419 0.000000 0.000000
# 5 0.000000 0.000000 0.000000 0.000000 0.039303 0.000000
# 6 0.000000 0.000000 0.000000 0.000000 0.000000 0.058992
#
#
# Mechanical properties :
#
#
# Convention : Reuss Voigt Hill
#
# Bulk Modulus (GPa) = 31.54329 32.49144 32.01737
# Shear Modulus (GPa) = 23.38668 24.58801 23.98735
#
# Velocity S-wave (km/s) = 3.38730 3.47321 3.43052
# Velocity P-wave (km/s) = 5.54742 5.65905 5.60352
#
# Compressibility (1/GPa) = 0.03170246
#
# Stress axis : x y z
#
# Youngs Moduli (GPa) = 62.18852 58.58249 69.16178
#
# Poissons Ratio (x) = 0.21971 0.31721
# Poissons Ratio (y) = 0.23324 -0.02654
# Poissons Ratio (z) = 0.28522 -0.02248
#
# Static dielectric constant tensor:
#      x y z
#    x 1.739360 0.000000 0.000000 
#    y 0.000000 1.814930 0.000000 
#    z 0.000000 0.000000 1.713980 
# 
# From -- ./inp_files/13572.got.cif
#   From: 2010.05.17/outbox.cif.g08.bks.cpg/sg35_7_cif.got.tgz:13572.got - 2010.06.03 17:29:28.
