data_PCOD9348685
_publ_section_title
;
Structure prediction by ZEFSAII (Michael W. Deem and Ramdas Pophale) SiO2 
 PCOD9348685
Probable space group: C M M 2
;
_chemical_formula_sum "Si O2"
_cell_formula_units_Z 48
_cell_length_a 25.972004
_cell_length_b 16.861578
_cell_length_c 5.285923
_cell_angle_alpha 90.000000
_cell_angle_beta 90.000000
_cell_angle_gamma 90.000000
_cell_volume 2314.858822
_symmetry_space_group_name_H-M "C M M 2"
_symmetry_group_IT_number 35
_symmetry_cell_setting 'orthorhombic'
loop_
_space_group_symop_operation_xyz
x,y,z
-x,-y,z
-x,y,z
x,-y,z
1/2+x,1/2+y,z
1/2-x,1/2-y,z
1/2-x,1/2+y,z
1/2+x,1/2-y,z
loop_
_atom_site_type_symbol
_atom_site_label
_atom_site_fract_x
_atom_site_fract_y
_atom_site_fract_z
Si Si1 0.271378 0.403264 0.161700
Si Si2 0.059381 0.905325 0.708328
Si Si3 0.557217 0.181204 0.171996
Si Si4 0.410119 0.905129 0.671657
Si Si5 0.113499 0.158985 0.208205
Si Si6 0.709226 0.903815 0.662093
O O1 0.277279 0.500000 0.161294
O O2 0.327095 0.364171 0.183570
O O3 0.236826 0.380462 0.402663
O O4 0.242141 0.379285 0.905526
O O5 0.091715 0.868228 0.479508
O O6 0.000000 0.878285 0.694885
O O7 0.060471 0.000000 0.678973
O O8 0.083206 0.883394 0.978843
O O9 0.500000 0.217700 0.183311
O O10 0.565095 0.125223 0.413064
O O11 0.600229 0.248864 0.180442
O O12 0.563111 0.132625 0.914504
O O13 0.350107 0.879183 0.674428
O O14 0.412361 0.000000 0.684937
O O15 0.708602 0.000000 0.664976
#
# Coordination Sequence:
#
# PCOD9348685 Si02
#       6
#     8   8   8   8   8   8
#     4  10  19  35  61  91 124 164 207 244 287 355
#     4  11  22  37  59  85 118 167 221 263 297 346
#     4  12  26  43  64  92 127 165 204 256 322 375
#     4  11  24  45  70  93 119 155 206 263 320 385
#     4  12  24  40  59  90 131 169 204 252 308 362
#     4   9  19  37  62  91 121 155 198 253 310 361
#
# _framework density 20.735607000000002
#
# number of rings (size 3 to 8) (size 9 to 14) (size 15 to 20)
#    0.000    1.167    0.000    7.000    0.000    7.333 
#    0.000    5.000    0.000    0.000    0.000    0.000 
#    0.000    0.000    0.000    0.000    0.000    0.000 
#
# Total GULP energy -134320.702772 kJ/mol
# GULP energy per Si atom -5596.695949 kJ/mol
# Density = 2.068841 g / cm^3
# Si number density = 20.735607 Si / 1000 Ang^3
#
#
#
# Elastic Constant Matrix: (Units=GPa)
#
#
# Indices 1 2 3 4 5 6 
#
# 1 86.3764 0.2854 -1.9324 0.0000 0.0000 0.0000
# 2 0.2854 47.2031 -1.5189 0.0000 0.0000 0.0000
# 3 -1.9324 -1.5189 52.4536 0.0000 0.0000 0.0000
# 4 0.0000 0.0000 0.0000 26.9068 0.0000 0.0000
# 5 0.0000 0.0000 0.0000 0.0000 29.5331 0.0000
# 6 0.0000 0.0000 0.0000 0.0000 0.0000 46.4823
#
#
#
# Elastic Compliance Matrix: (Units=1/GPa)
#
#
# Indices 1 2 3 4 5 6 
#
# 1 0.011587 -0.000056 0.000425 0.000000 0.000000 0.000000
# 2 -0.000056 0.021205 0.000612 0.000000 0.000000 0.000000
# 3 0.000425 0.000612 0.019098 0.000000 0.000000 0.000000
# 4 0.000000 0.000000 0.000000 0.037165 0.000000 0.000000
# 5 0.000000 0.000000 0.000000 0.000000 0.033860 0.000000
# 6 0.000000 0.000000 0.000000 0.000000 0.000000 0.021514
#
#
# Mechanical properties :
#
#
# Convention : Reuss Voigt Hill
#
# Bulk Modulus (GPa) = 18.56959 19.96683 19.26821
# Shear Modulus (GPa) = 31.16858 33.19770 32.18314
#
# Velocity S-wave (km/s) = 3.88124 4.00559 3.94391
# Velocity P-wave (km/s) = 5.39076 5.57164 5.48194
#
# Compressibility (1/GPa) = 0.05385147
#
# Stress axis : x y z
#
# Youngs Moduli (GPa) = 86.30411 47.15847 52.36195
#
# Poissons Ratio (x) = 0.00266 -0.02227
# Poissons Ratio (y) = 0.00487 -0.03204
# Poissons Ratio (z) = -0.03670 -0.02886
#
# Static dielectric constant tensor:
#      x y z
#    x 1.709950 0.000000 0.000000 
#    y 0.000000 1.706570 0.000000 
#    z 0.000000 0.000000 1.710120 
# 
# From -- ./inp_files/3380.got.cif
#   From: 2010.05.17/outbox.cif.g08.bks.cpg/sg35_2_cif.got.tgz:3380.got - 2010.06.03 17:29:28.
