data_PCOD9348192
_publ_section_title
;
Structure prediction by ZEFSAII (Michael W. Deem and Ramdas Pophale) SiO2 
 PCOD9348192
Probable space group: C M M 2
;
_chemical_formula_sum "Si O2"
_cell_formula_units_Z 64
_cell_length_a 7.960936
_cell_length_b 19.644745
_cell_length_c 21.587545
_cell_angle_alpha 90.000000
_cell_angle_beta 90.000000
_cell_angle_gamma 90.000000
_cell_volume 3376.088202
_symmetry_space_group_name_H-M "C M M 2"
_symmetry_group_IT_number 35
_symmetry_cell_setting 'orthorhombic'
loop_
_space_group_symop_operation_xyz
x,y,z
-x,-y,z
-x,y,z
x,-y,z
1/2+x,1/2+y,z
1/2-x,1/2-y,z
1/2-x,1/2+y,z
1/2+x,1/2-y,z
loop_
_atom_site_type_symbol
_atom_site_label
_atom_site_fract_x
_atom_site_fract_y
_atom_site_fract_z
Si Si1 0.701621 0.923187 0.985380
Si Si2 0.206100 0.421047 0.352466
Si Si3 0.199822 0.171865 0.872542
Si Si4 0.202707 0.671017 0.237790
Si Si5 0.798003 0.577377 0.621869
Si Si6 0.700447 0.328416 0.735367
Si Si7 0.705093 0.078846 0.124170
Si Si8 0.694140 0.082814 0.488238
O O1 0.500000 0.926030 0.988954
O O2 0.744728 0.874161 0.929368
O O3 0.763789 0.000000 0.973580
O O4 0.760210 0.902501 0.054363
O O5 0.253985 0.500000 0.340729
O O6 0.260918 0.370481 0.298431
O O7 0.267517 0.399563 0.421096
O O8 0.000000 0.420851 0.354186
O O9 0.250000 0.250000 0.882738
O O10 0.265866 0.151452 0.804065
O O11 0.000000 0.168447 0.869766
O O12 0.250000 0.750000 0.238261
O O13 0.263619 0.630640 0.176787
O O14 0.000000 0.667288 0.237650
O O15 0.736901 0.500000 0.632313
O O16 0.760338 0.624694 0.679664
O O17 0.731484 0.603069 0.554827
O O18 0.000000 0.573966 0.615328
O O19 0.500000 0.332398 0.736630
O O20 0.750000 0.250000 0.725348
O O21 0.500000 0.079750 0.125048
O O22 0.753440 0.000000 0.136270
O O23 0.500000 0.106249 0.487127
O O24 0.691881 0.000000 0.489516
#
# Coordination Sequence:
#
# PCOD9348192 Si02
#       8
#     8   8   8   8   8   8   8   8
#     4   9  18  33  53  76 101 127 156 195 242 289
#     4   8  13  24  46  71  90 117 161 202 231 268
#     4  10  21  36  53  72  96 127 163 201 240 285
#     4  10  19  30  46  69  97 126 156 194 237 278
#     4   9  17  30  50  75 101 128 158 196 242 290
#     4  10  21  36  52  70  95 128 164 202 241 284
#     4   8  15  30  51  72  93 121 160 199 230 268
#     4   7  11  22  42  69  96 119 151 196 237 273
#
# _framework density 18.956849999999999
#
# number of rings (size 3 to 8) (size 9 to 14) (size 15 to 20)
#    0.000    3.125    0.000    3.375    0.000    4.500 
#    0.000    5.000    0.000    4.500    0.000    1.750 
#    0.000    0.000    0.000    0.000    0.000    0.000 
#
# Total GULP energy -178267.358392 kJ/mol
# GULP energy per Si atom -5570.854950 kJ/mol
# Density = 1.891370 g / cm^3
# Si number density = 18.956850 Si / 1000 Ang^3
#
#
#
# Elastic Constant Matrix: (Units=GPa)
#
#
# Indices 1 2 3 4 5 6 
#
# 1 15.5986 5.1819 14.7943 0.0000 0.0000 0.0000
# 2 5.1819 102.3370 127.2409 0.0000 0.0000 0.0000
# 3 14.7943 127.2409 238.7122 0.0000 0.0000 0.0000
# 4 0.0000 0.0000 0.0000 -20.9402 0.0000 0.0000
# 5 0.0000 0.0000 0.0000 0.0000 3.0819 0.0000
# 6 0.0000 0.0000 0.0000 0.0000 0.0000 21.3288
#
#
#
# Elastic Compliance Matrix: (Units=1/GPa)
#
#
# Indices 1 2 3 4 5 6 
#
# 1 0.069109 0.005414 -0.007169 0.000000 0.000000 0.000000
# 2 0.005414 0.029398 -0.016006 0.000000 0.000000 0.000000
# 3 -0.007169 -0.016006 0.013165 0.000000 0.000000 0.000000
# 4 0.000000 0.000000 0.000000 -0.047755 0.000000 0.000000
# 5 0.000000 0.000000 0.000000 0.000000 0.324475 0.000000
# 6 0.000000 0.000000 0.000000 0.000000 0.000000 0.046885
#
#
# Mechanical properties :
#
#
# Convention : Reuss Voigt Hill
#
# Bulk Modulus (GPa) = 13.13181 72.34246 42.73714
# Shear Modulus (GPa) = 10.07696 14.65615 12.36655
#
# Velocity S-wave (km/s) = 2.30809 2.78354 2.55689
# Velocity P-wave (km/s) = 3.74770 6.96960 5.59556
#
# Compressibility (1/GPa) = 0.07615098
#
# Stress axis : x y z
#
# Youngs Moduli (GPa) = 14.46993 34.01575 75.95928
#
# Poissons Ratio (x) = -0.18417 0.54455
# Poissons Ratio (y) = -0.07834 1.21578
# Poissons Ratio (z) = 0.10373 0.54444
#
# Static dielectric constant tensor:
#      x y z
#    x 1.702070 0.000000 0.000000 
#    y 0.000000 1.595790 0.000000 
#    z 0.000000 0.000000 1.705660 
# 
# From -- ./inp_files/18432.got.cif
#   From: 2010.05.17/outbox.cif.g08.bks.cpg/sg35_10_cif.got.tgz:18432.got - 2010.06.03 17:29:28.
