data_PCOD9348573
_publ_section_title
;
Structure prediction by ZEFSAII (Michael W. Deem and Ramdas Pophale) SiO2 
 PCOD9348573
Probable space group: C M M 2
;
_chemical_formula_sum "Si O2"
_cell_formula_units_Z 64
_cell_length_a 29.214036
_cell_length_b 8.967510
_cell_length_c 15.842002
_cell_angle_alpha 90.000000
_cell_angle_beta 90.000000
_cell_angle_gamma 90.000000
_cell_volume 4150.242692
_symmetry_space_group_name_H-M "C M M 2"
_symmetry_group_IT_number 35
_symmetry_cell_setting 'orthorhombic'
loop_
_space_group_symop_operation_xyz
x,y,z
-x,-y,z
-x,y,z
x,-y,z
1/2+x,1/2+y,z
1/2-x,1/2-y,z
1/2-x,1/2+y,z
1/2+x,1/2-y,z
loop_
_atom_site_type_symbol
_atom_site_label
_atom_site_fract_x
_atom_site_fract_y
_atom_site_fract_z
Si Si1 0.053677 0.680277 0.076090
Si Si2 0.446297 0.178499 0.391844
Si Si3 0.297844 0.321463 0.301874
Si Si4 0.555505 0.171567 0.887568
Si Si5 0.395233 0.320958 0.233360
Si Si6 0.890323 0.321515 0.561889
Si Si7 0.298492 0.678802 0.500521
Si Si8 0.554231 0.322860 0.714002
O O1 0.055883 0.500000 0.080848
O O2 0.083604 0.752671 0.148923
O O3 0.000000 0.721456 0.087052
O O4 0.069217 0.723073 0.981289
O O5 0.500000 0.213536 0.399788
O O6 0.424219 0.262721 0.313090
O O7 0.419761 0.215692 0.477981
O O8 0.442066 0.000000 0.378076
O O9 0.293851 0.500000 0.297210
O O10 0.250000 0.250000 0.274701
O O11 0.342562 0.275030 0.249957
O O12 0.305339 0.283230 0.400903
O O13 0.500000 0.169977 0.890251
O O14 0.568671 0.269928 0.807548
O O15 0.570339 0.000000 0.875043
O O16 0.397155 0.500000 0.230638
O O17 0.885988 0.500000 0.566244
O O18 0.840893 0.246613 0.550967
O O19 0.917019 0.260593 0.642866
O O20 0.297161 0.500000 0.508161
O O21 0.250000 0.750000 0.525711
O O22 0.500000 0.287215 0.704302
O O23 0.559538 0.500000 0.705654
#
# Coordination Sequence:
#
# PCOD9348573 Si02
#       8
#     8   8   8   8   8   8   8   8
#     4   9  18  32  49  70  97 130 166 200 235 282
#     4  10  21  34  46  63  92 131 170 200 228 274
#     4   9  19  33  49  68  92 121 158 201 245 287
#     4   8  15  30  50  69  92 124 162 203 242 282
#     4  11  21  32  46  70  98 126 159 199 244 288
#     4  11  21  33  50  71  96 130 168 203 243 289
#     4  10  19  34  52  71  96 124 161 206 250 293
#     4  10  20  32  48  72 101 131 163 202 247 292
#
# _framework density 15.420785
#
# number of rings (size 3 to 8) (size 9 to 14) (size 15 to 20)
#    0.000    2.250    1.250    3.000    0.000    5.750 
#    0.000    1.250    0.000    0.000    0.000    0.875 
#    0.000    4.000    0.000    0.000    0.000    0.000 
#
# Total GULP energy -178505.372392 kJ/mol
# GULP energy per Si atom -5578.292887 kJ/mol
# Density = 1.538569 g / cm^3
# Si number density = 15.420785 Si / 1000 Ang^3
#
#
#
# Elastic Constant Matrix: (Units=GPa)
#
#
# Indices 1 2 3 4 5 6 
#
# 1 112.6262 47.8319 66.9039 0.0000 0.0000 0.0000
# 2 47.8319 44.5967 51.4447 0.0000 0.0000 0.0000
# 3 66.9039 51.4447 124.2210 0.0000 0.0000 0.0000
# 4 0.0000 0.0000 0.0000 20.3623 0.0000 0.0000
# 5 0.0000 0.0000 0.0000 0.0000 5.4051 0.0000
# 6 0.0000 0.0000 0.0000 0.0000 0.0000 26.0826
#
#
#
# Elastic Compliance Matrix: (Units=1/GPa)
#
#
# Indices 1 2 3 4 5 6 
#
# 1 0.016891 -0.014594 -0.003053 0.000000 0.000000 0.000000
# 2 -0.014594 0.055544 -0.015143 0.000000 0.000000 0.000000
# 3 -0.003053 -0.015143 0.015966 0.000000 0.000000 0.000000
# 4 0.000000 0.000000 0.000000 0.049110 0.000000 0.000000
# 5 0.000000 0.000000 0.000000 0.000000 0.185009 0.000000
# 6 0.000000 0.000000 0.000000 0.000000 0.000000 0.038340
#
#
# Mechanical properties :
#
#
# Convention : Reuss Voigt Hill
#
# Bulk Modulus (GPa) = 43.82018 68.20054 56.01036
# Shear Modulus (GPa) = 11.51953 18.05425 14.78689
#
# Velocity S-wave (km/s) = 2.73612 3.42537 3.09996
# Velocity P-wave (km/s) = 6.20160 7.74381 7.01521
#
# Compressibility (1/GPa) = 0.02282054
#
# Stress axis : x y z
#
# Youngs Moduli (GPa) = 59.20458 18.00379 62.63402
#
# Poissons Ratio (x) = 0.26275 0.19123
# Poissons Ratio (y) = 0.86403 0.94845
# Poissons Ratio (z) = 0.18076 0.27263
#
# Static dielectric constant tensor:
#      x y z
#    x 1.496480 0.000000 0.000000 
#    y 0.000000 1.512560 0.000000 
#    z 0.000000 0.000000 1.501020 
# 
# From -- ./inp_files/16200.got.cif
#   From: 2010.05.17/outbox.cif.g08.bks.cpg/sg35_9_cif.got.tgz:16200.got - 2010.06.03 17:29:28.
