data_PCOD9348049
_publ_section_title
;
Structure prediction by ZEFSAII (Michael W. Deem and Ramdas Pophale) SiO2 
 PCOD9348049
Probable space group: P N N 2
;
_chemical_formula_sum "Si O2"
_cell_formula_units_Z 16
_cell_length_a 16.734715
_cell_length_b 7.650840
_cell_length_c 5.117336
_cell_angle_alpha 90.000000
_cell_angle_beta 90.000000
_cell_angle_gamma 90.000000
_cell_volume 655.196206
_symmetry_space_group_name_H-M "P N N 2"
_symmetry_group_IT_number 34
_symmetry_cell_setting 'orthorhombic'
loop_
_space_group_symop_operation_xyz
x,y,z
-x,-y,z
1/2-x,1/2+y,1/2+z
1/2+x,1/2-y,1/2+z
loop_
_atom_site_type_symbol
_atom_site_label
_atom_site_fract_x
_atom_site_fract_y
_atom_site_fract_z
Si Si1 0.169706 0.400215 0.836860
Si Si2 0.160034 0.039888 0.507412
Si Si3 0.548488 0.252643 0.688676
Si Si4 0.936732 0.279449 0.684543
O O1 0.257373 0.474386 0.887313
O O2 0.116529 0.548354 0.702963
O O3 0.170522 0.218040 0.675457
O O4 0.123931 0.368300 0.111406
O O5 0.122031 0.885431 0.675624
O O6 0.094206 0.073937 0.282116
O O7 0.495459 0.247985 0.429186
O O8 0.491527 0.207325 0.928448
#
# Coordination Sequence:
#
# PCOD9348049 Si02
#       4
#     4   4   4   4
#     4  12  31  55  84 124 171 222 274 345 423 498
#     4  12  31  55  84 124 171 222 274 345 423 498
#     4  12  29  54  87 124 162 224 280 342 409 492
#     4  12  31  54  89 122 170 218 288 344 411 496
#
# _framework density 24.420162999999999
#
# number of rings (size 3 to 8) (size 9 to 14) (size 15 to 20)
#    0.000    0.000    2.500    3.000   17.500    4.000 
#    0.000    0.000    0.000    0.000    0.000    0.000 
#    0.000    0.000    0.000    0.000    0.000    0.000 
#
# Total GULP energy -89758.753448 kJ/mol
# GULP energy per Si atom -5609.922091 kJ/mol
# Density = 2.436458 g / cm^3
# Si number density = 24.420163 Si / 1000 Ang^3
#
#
#
# Elastic Constant Matrix: (Units=GPa)
#
#
# Indices 1 2 3 4 5 6 
#
# 1 146.1233 68.3561 49.1436 0.0000 0.0000 0.0000
# 2 68.3561 189.6957 51.6010 0.0000 0.0000 0.0000
# 3 49.1436 51.6010 151.2462 0.0000 0.0000 0.0000
# 4 0.0000 0.0000 0.0000 16.3008 0.0000 0.0000
# 5 0.0000 0.0000 0.0000 0.0000 12.9788 0.0000
# 6 0.0000 0.0000 0.0000 0.0000 0.0000 58.8400
#
#
#
# Elastic Compliance Matrix: (Units=1/GPa)
#
#
# Indices 1 2 3 4 5 6 
#
# 1 0.008719 -0.002614 -0.001941 0.000000 0.000000 0.000000
# 2 -0.002614 0.006594 -0.001401 0.000000 0.000000 0.000000
# 3 -0.001941 -0.001401 0.007720 0.000000 0.000000 0.000000
# 4 0.000000 0.000000 0.000000 0.061347 0.000000 0.000000
# 5 0.000000 0.000000 0.000000 0.000000 0.077049 0.000000
# 6 0.000000 0.000000 0.000000 0.000000 0.000000 0.016995
#
#
# Mechanical properties :
#
#
# Convention : Reuss Voigt Hill
#
# Bulk Modulus (GPa) = 89.90709 91.69629 90.80169
# Shear Modulus (GPa) = 25.76745 38.82156 32.29450
#
# Velocity S-wave (km/s) = 3.25186 3.99147 3.64050
# Velocity P-wave (km/s) = 7.14116 7.67290 7.41180
#
# Compressibility (1/GPa) = 0.01112259
#
# Stress axis : x y z
#
# Youngs Moduli (GPa) = 114.68967 151.64224 129.52803
#
# Poissons Ratio (x) = 0.39637 0.25145
# Poissons Ratio (y) = 0.29978 0.18141
# Poissons Ratio (z) = 0.22265 0.21238
#
# Static dielectric constant tensor:
#      x y z
#    x 1.878220 0.000000 0.000000 
#    y 0.000000 2.038560 0.000000 
#    z 0.000000 0.000000 1.973190 
# 
# From -- ./inp_files/1369.got.cif
#   From: 2010.05.17/outbox.cif.g08.bks.cpg/sg34_1_cif.got.tgz:1369.got - 2010.06.03 17:23:11.
