data_PCOD9348644
_publ_section_title
;
Structure prediction by ZEFSAII (Michael W. Deem and Ramdas Pophale) SiO2 
 PCOD9348644
Probable space group: C M M 2
;
_chemical_formula_sum "Si O2"
_cell_formula_units_Z 48
_cell_length_a 8.516040
_cell_length_b 31.898201
_cell_length_c 9.531018
_cell_angle_alpha 90.000000
_cell_angle_beta 90.000000
_cell_angle_gamma 90.000000
_cell_volume 2589.066305
_symmetry_space_group_name_H-M "C M M 2"
_symmetry_group_IT_number 35
_symmetry_cell_setting 'orthorhombic'
loop_
_space_group_symop_operation_xyz
x,y,z
-x,-y,z
-x,y,z
x,-y,z
1/2+x,1/2+y,z
1/2-x,1/2-y,z
1/2-x,1/2+y,z
1/2+x,1/2-y,z
loop_
_atom_site_type_symbol
_atom_site_label
_atom_site_fract_x
_atom_site_fract_y
_atom_site_fract_z
Si Si1 0.322824 0.644864 0.059050
Si Si2 0.187598 0.500000 0.966327
Si Si3 0.188126 0.500000 0.293089
Si Si4 0.810091 0.203038 0.822981
Si Si5 0.317655 0.862973 0.596306
Si Si6 0.675828 0.578550 0.807974
Si Si7 0.187402 0.093385 0.326826
O O1 0.500000 0.656912 0.105434
O O2 0.251193 0.617889 0.186753
O O3 0.251292 0.684326 0.974160
O O4 0.335668 0.612888 0.929875
O O5 0.235822 0.500000 0.128797
O O6 0.000000 0.500000 0.962353
O O7 0.257751 0.461153 0.885004
O O8 0.246845 0.454176 0.347158
O O9 0.000000 0.500000 0.305486
O O10 0.750000 0.250000 0.805407
O O11 0.752402 0.174326 0.692545
O O12 0.000000 0.201455 0.825209
O O13 0.500000 0.854961 0.568741
O O14 0.292467 0.904042 0.692089
O O15 0.229245 0.875563 0.454319
O O16 0.500000 0.572217 0.749080
O O17 0.000000 0.088678 0.312514
#
# Coordination Sequence:
#
# PCOD9348644 Si02
#       7
#     8   4   4   8   8   8   8
#     4   8  17  33  57  83 110 142 186 234 282 337
#     4  11  21  32  51  82 115 148 190 244 293 340
#     4  11  23  36  53  84 121 156 196 246 293 344
#     4  10  20  39  64  92 117 149 190 238 291 354
#     4  11  23  39  57  84 118 154 190 240 297 350
#     4  10  19  35  56  79 106 146 194 238 283 342
#     4  11  21  38  60  84 115 160 203 241 287 347
#
# _framework density 18.539501999999999
#
# number of rings (size 3 to 8) (size 9 to 14) (size 15 to 20)
#    0.000    1.833    1.667    4.500    0.000    1.333 
#    0.000    6.667    0.000    2.000    0.000    0.000 
#    0.000    0.000    0.000    0.000    0.000    0.000 
#
# Total GULP energy -133660.883180 kJ/mol
# GULP energy per Si atom -5569.203466 kJ/mol
# Density = 1.849731 g / cm^3
# Si number density = 18.539502 Si / 1000 Ang^3
#
#
#
# Elastic Constant Matrix: (Units=GPa)
#
#
# Indices 1 2 3 4 5 6 
#
# 1 52.4050 26.7984 7.9298 0.0000 0.0000 0.0000
# 2 26.7984 116.6359 34.8902 0.0000 0.0000 0.0000
# 3 7.9298 34.8902 77.2134 0.0000 0.0000 0.0000
# 4 0.0000 0.0000 0.0000 -139.8329 0.0000 0.0000
# 5 0.0000 0.0000 0.0000 0.0000 21.4084 0.0000
# 6 0.0000 0.0000 0.0000 0.0000 0.0000 27.4299
#
#
#
# Elastic Compliance Matrix: (Units=1/GPa)
#
#
# Indices 1 2 3 4 5 6 
#
# 1 0.021623 -0.004976 0.000028 0.000000 0.000000 0.000000
# 2 -0.004976 0.011059 -0.004486 0.000000 0.000000 0.000000
# 3 0.000028 -0.004486 0.014975 0.000000 0.000000 0.000000
# 4 0.000000 0.000000 0.000000 -0.007151 0.000000 0.000000
# 5 0.000000 0.000000 0.000000 0.000000 0.046711 0.000000
# 6 0.000000 0.000000 0.000000 0.000000 0.000000 0.036457
#
#
# Mechanical properties :
#
#
# Convention : Reuss Voigt Hill
#
# Bulk Modulus (GPa) = 34.73664 42.83235 38.78449
# Shear Modulus (GPa) = 32.86489 -6.42319 13.22085
#
# Velocity S-wave (km/s) = 4.21491 -1.86336 2.67332
# Velocity P-wave (km/s) = 6.51648 4.30395 5.52216
#
# Compressibility (1/GPa) = 0.02878805
#
# Stress axis : x y z
#
# Youngs Moduli (GPa) = 46.24769 90.42363 66.77629
#
# Poissons Ratio (x) = 0.44999 -0.00187
# Poissons Ratio (y) = 0.23015 0.29957
# Poissons Ratio (z) = -0.00130 0.40565
#
# Static dielectric constant tensor:
#      x y z
#    x 1.648830 0.000000 0.000000 
#    y 0.000000 1.844440 0.000000 
#    z 0.000000 0.000000 1.649370 
# 
# From -- ./inp_files/5419.got.cif
#   From: 2010.05.17/outbox.cif.g08.bks.cpg/sg35_3_cif.got.tgz:5419.got - 2010.06.03 17:29:28.
