data_PCOD9348393
_publ_section_title
;
Structure prediction by ZEFSAII (Michael W. Deem and Ramdas Pophale) SiO2 
 PCOD9348393
Probable space group: C M M 2
;
_chemical_formula_sum "Si O2"
_cell_formula_units_Z 40
_cell_length_a 8.320102
_cell_length_b 14.742722
_cell_length_c 14.616396
_cell_angle_alpha 90.000000
_cell_angle_beta 90.000000
_cell_angle_gamma 90.000000
_cell_volume 1792.861031
_symmetry_space_group_name_H-M "C M M 2"
_symmetry_group_IT_number 35
_symmetry_cell_setting 'orthorhombic'
loop_
_space_group_symop_operation_xyz
x,y,z
-x,-y,z
-x,y,z
x,-y,z
1/2+x,1/2+y,z
1/2-x,1/2-y,z
1/2-x,1/2+y,z
1/2+x,1/2-y,z
loop_
_atom_site_type_symbol
_atom_site_label
_atom_site_fract_x
_atom_site_fract_y
_atom_site_fract_z
Si Si1 0.810772 0.350726 0.908920
Si Si2 0.180739 0.396111 0.704004
Si Si3 0.175541 0.611045 0.290691
Si Si4 0.822972 0.107365 0.106513
Si Si5 0.000000 0.889317 0.393499
Si Si6 0.000000 0.111470 0.606206
O O1 0.750000 0.250000 0.892416
O O2 0.782358 0.399158 0.812524
O O3 0.000000 0.354366 0.926359
O O4 0.727580 0.382058 0.001818
O O5 0.169299 0.500000 0.671009
O O6 0.335649 0.355321 0.654012
O O7 0.000000 0.355946 0.693081
O O8 0.173077 0.500000 0.295425
O O9 0.201943 0.639374 0.184826
O O10 0.334838 0.640671 0.344809
O O11 0.000000 0.641966 0.323854
O O12 0.000000 0.148039 0.119862
O O13 0.834949 0.000000 0.122710
O O14 0.000000 0.864709 0.499766
O O15 0.000000 0.000000 0.387815
O O16 0.000000 0.000000 0.613937
#
# Coordination Sequence:
#
# PCOD9348393 Si02
#       6
#     8   8   8   8   4   4
#     4  11  23  36  51  75 107 137 179 219 263 314
#     4   9  19  35  53  75 104 139 176 214 262 317
#     4   9  16  27  45  70 104 141 172 206 254 307
#     4  10  19  32  52  77 107 142 178 214 257 314
#     4   9  16  28  43  73 107 131 168 214 260 308
#     4   9  18  30  51  75 103 137 171 216 264 308
#
# _framework density 22.31071
#
# number of rings (size 3 to 8) (size 9 to 14) (size 15 to 20)
#    0.000    2.400    1.000    1.800    2.800    2.800 
#    0.000    4.000    0.000    0.000    0.000    1.400 
#    0.000    0.000    0.000    0.000    0.000    0.000 
#
# Total GULP energy -111612.091295 kJ/mol
# GULP energy per Si atom -5580.604565 kJ/mol
# Density = 2.225993 g / cm^3
# Si number density = 22.310710 Si / 1000 Ang^3
#
#
#
# Elastic Constant Matrix: (Units=GPa)
#
#
# Indices 1 2 3 4 5 6 
#
# 1 208.5596 12.8844 111.3308 0.0000 0.0000 0.0000
# 2 12.8844 31.8258 -0.6750 0.0000 0.0000 0.0000
# 3 111.3308 -0.6750 116.5093 0.0000 0.0000 0.0000
# 4 0.0000 0.0000 0.0000 -42.4712 0.0000 0.0000
# 5 0.0000 0.0000 0.0000 0.0000 -23.4292 0.0000
# 6 0.0000 0.0000 0.0000 0.0000 0.0000 16.3615
#
#
#
# Elastic Compliance Matrix: (Units=1/GPa)
#
#
# Indices 1 2 3 4 5 6 
#
# 1 0.010371 -0.004409 -0.009935 0.000000 0.000000 0.000000
# 2 -0.004409 0.033300 0.004406 0.000000 0.000000 0.000000
# 3 -0.009935 0.004406 0.018102 0.000000 0.000000 0.000000
# 4 0.000000 0.000000 0.000000 -0.023545 0.000000 0.000000
# 5 0.000000 0.000000 0.000000 0.000000 -0.042682 0.000000
# 6 0.000000 0.000000 0.000000 0.000000 0.000000 0.061119
#
#
# Mechanical properties :
#
#
# Convention : Reuss Voigt Hill
#
# Bulk Modulus (GPa) = 23.86876 67.10836 45.48856
# Shear Modulus (GPa) = 55.24464 5.64919 30.44691
#
# Velocity S-wave (km/s) = 4.98149 1.59297 3.69816
# Velocity P-wave (km/s) = 6.61880 5.79031 6.21837
#
# Compressibility (1/GPa) = 0.04189577
#
# Stress axis : x y z
#
# Youngs Moduli (GPa) = 96.42508 30.03041 55.24172
#
# Poissons Ratio (x) = 0.13241 0.54884
# Poissons Ratio (y) = 0.42516 -0.24340
# Poissons Ratio (z) = 0.95802 -0.13232
#
# Static dielectric constant tensor:
#      x y z
#    x 1.831470 0.000000 0.000000 
#    y 0.000000 1.851060 0.000000 
#    z 0.000000 0.000000 1.799210 
# 
# From -- ./inp_files/11188.got.cif
#   From: 2010.05.17/outbox.cif.g08.bks.cpg/sg35_6_cif.got.tgz:11188.got - 2010.06.03 17:29:28.
