data_PCOD9348549
_publ_section_title
;
Structure prediction by ZEFSAII (Michael W. Deem and Ramdas Pophale) SiO2 
 PCOD9348549
Probable space group: C M M 2
;
_chemical_formula_sum "Si O2"
_cell_formula_units_Z 64
_cell_length_a 20.226387
_cell_length_b 16.628327
_cell_length_c 9.925624
_cell_angle_alpha 90.000000
_cell_angle_beta 90.000000
_cell_angle_gamma 90.000000
_cell_volume 3338.294818
_symmetry_space_group_name_H-M "C M M 2"
_symmetry_group_IT_number 35
_symmetry_cell_setting 'orthorhombic'
loop_
_space_group_symop_operation_xyz
x,y,z
-x,-y,z
-x,y,z
x,-y,z
1/2+x,1/2+y,z
1/2-x,1/2-y,z
1/2-x,1/2+y,z
1/2+x,1/2-y,z
loop_
_atom_site_type_symbol
_atom_site_label
_atom_site_fract_x
_atom_site_fract_y
_atom_site_fract_z
Si Si1 0.780301 0.658917 0.998820
Si Si2 0.074825 0.593168 0.685886
Si Si3 0.330431 0.593384 0.178527
Si Si4 0.571779 0.150007 0.984929
Si Si5 0.925690 0.161276 0.964992
Si Si6 0.683643 0.404426 0.481017
Si Si7 0.575864 0.403136 0.686441
Si Si8 0.713071 0.835716 0.679745
O O1 0.750000 0.750000 0.014212
O O2 0.855587 0.645253 0.049793
O O3 0.779669 0.641551 0.838130
O O4 0.733222 0.602606 0.084612
O O5 0.088548 0.500000 0.647596
O O6 0.072704 0.598294 0.848824
O O7 0.135116 0.652493 0.647748
O O8 0.000000 0.614607 0.639894
O O9 0.350298 0.500000 0.185448
O O10 0.315571 0.625811 0.327991
O O11 0.386600 0.641557 0.099260
O O12 0.500000 0.134896 0.053873
O O13 0.571248 0.243796 0.942144
O O14 0.894949 0.123465 0.830367
O O15 0.000000 0.128573 0.976200
O O16 0.675941 0.500000 0.470691
O O17 0.620977 0.372799 0.565460
O O18 0.747121 0.388536 0.572621
O O19 0.500000 0.374426 0.677680
O O20 0.574896 0.500000 0.683897
O O21 0.750000 0.750000 0.667829
#
# Coordination Sequence:
#
# PCOD9348549 Si02
#       8
#     8   8   8   8   8   8   8   8
#     4  10  19  34  56  79 110 141 181 233 283 334
#     4   9  18  33  56  86 116 146 184 236 291 341
#     4  11  23  36  53  80 111 152 192 227 279 340
#     4   9  18  32  54  81 111 142 179 227 283 332
#     4  10  19  33  56  83 112 146 184 235 285 331
#     4  10  22  37  52  75 113 153 190 230 279 340
#     4   9  18  32  52  78 109 148 189 230 275 325
#     4  10  21  35  57  87 112 144 190 235 293 346
#
# _framework density 19.171464
#
# number of rings (size 3 to 8) (size 9 to 14) (size 15 to 20)
#    0.000    2.250    1.250    1.500    3.500    5.250 
#    0.000    1.250    0.000    0.750    0.000    1.750 
#    0.000    0.000    0.000    0.000    0.000    0.000 
#
# Total GULP energy -178203.630556 kJ/mol
# GULP energy per Si atom -5568.863455 kJ/mol
# Density = 1.912783 g / cm^3
# Si number density = 19.171464 Si / 1000 Ang^3
#
#
#
# Elastic Constant Matrix: (Units=GPa)
#
#
# Indices 1 2 3 4 5 6 
#
# 1 136.0994 16.9463 38.2481 0.0000 0.0000 0.0000
# 2 16.9463 35.3623 20.0889 0.0000 0.0000 0.0000
# 3 38.2481 20.0889 84.7617 0.0000 0.0000 0.0000
# 4 0.0000 0.0000 0.0000-6060.1763 0.0000 0.0000
# 5 0.0000 0.0000 0.0000 0.0000 1.5496 0.0000
# 6 0.0000 0.0000 0.0000 0.0000 0.0000 14.4179
#
#
#
# Elastic Compliance Matrix: (Units=1/GPa)
#
#
# Indices 1 2 3 4 5 6 
#
# 1 0.008561 -0.002205 -0.003340 0.000000 0.000000 0.000000
# 2 -0.002205 0.033246 -0.006885 0.000000 0.000000 0.000000
# 3 -0.003340 -0.006885 0.014937 0.000000 0.000000 0.000000
# 4 0.000000 0.000000 0.000000 -0.000165 0.000000 0.000000
# 5 0.000000 0.000000 0.000000 0.000000 0.645322 0.000000
# 6 0.000000 0.000000 0.000000 0.000000 0.000000 0.069358
#
#
# Mechanical properties :
#
#
# Convention : Reuss Voigt Hill
#
# Bulk Modulus (GPa) = 31.36349 45.19891 38.28120
# Shear Modulus (GPa) = 6.19773 -1196.77908 -595.29068
#
# Velocity S-wave (km/s) = 1.79995 -25.01211 -17.64037
# Velocity P-wave (km/s) = 4.55134 28.46951 19.87207
#
# Compressibility (1/GPa) = 0.03188420
#
# Stress axis : x y z
#
# Youngs Moduli (GPa) = 116.81033 30.07840 66.94852
#
# Poissons Ratio (x) = 0.06632 0.22364
# Poissons Ratio (y) = 0.25755 0.46092
# Poissons Ratio (z) = 0.39020 0.20708
#
# Static dielectric constant tensor:
#      x y z
#    x 1.745030 0.000000 0.000000 
#    y 0.000000 1.711940 0.000000 
#    z 0.000000 0.000000 1.645330 
# 
# From -- ./inp_files/9455.got.cif
#   From: 2010.05.17/outbox.cif.g08.bks.cpg/sg35_5_cif.got.tgz:9455.got - 2010.06.03 17:29:28.
