data_PCOD9348616
_publ_section_title
;
Structure prediction by ZEFSAII (Michael W. Deem and Ramdas Pophale) SiO2 
 PCOD9348616
Probable space group: C M M 2
;
_chemical_formula_sum "Si O2"
_cell_formula_units_Z 64
_cell_length_a 18.000569
_cell_length_b 17.999070
_cell_length_c 10.218890
_cell_angle_alpha 90.000000
_cell_angle_beta 90.000000
_cell_angle_gamma 90.000000
_cell_volume 3310.853952
_symmetry_space_group_name_H-M "C M M 2"
_symmetry_group_IT_number 35
_symmetry_cell_setting 'orthorhombic'
loop_
_space_group_symop_operation_xyz
x,y,z
-x,-y,z
-x,y,z
x,-y,z
1/2+x,1/2+y,z
1/2-x,1/2-y,z
1/2-x,1/2+y,z
1/2+x,1/2-y,z
loop_
_atom_site_type_symbol
_atom_site_label
_atom_site_fract_x
_atom_site_fract_y
_atom_site_fract_z
Si Si1 0.667459 0.272448 0.247830
Si Si2 0.916437 0.291766 0.006235
Si Si3 0.912304 0.296318 0.490092
Si Si4 0.183885 0.916609 0.081017
Si Si5 0.702367 0.086480 0.570321
Si Si6 0.813340 0.807438 0.658922
Si Si7 0.917069 0.866521 0.865198
Si Si8 0.321246 0.085389 0.884910
O O1 0.750000 0.250000 0.288997
O O2 0.640625 0.225032 0.122496
O O3 0.610690 0.249279 0.360690
O O4 0.672056 0.356590 0.194588
O O5 0.000000 0.304038 0.056248
O O6 0.917697 0.218013 0.918093
O O7 0.886960 0.359791 0.922320
O O8 0.867849 0.374296 0.501466
O O9 0.877321 0.245736 0.604284
O O10 0.000000 0.305881 0.500940
O O11 0.196748 0.000000 0.129593
O O12 0.111834 0.913699 0.987403
O O13 0.251455 0.896419 0.980745
O O14 0.771562 0.142704 0.549873
O O15 0.693971 0.090277 0.729379
O O16 0.712194 0.000000 0.534824
O O17 0.750000 0.750000 0.713806
O O18 0.854716 0.864490 0.754177
O O19 0.000000 0.887053 0.822538
O O20 0.340410 0.000000 0.912115
#
# Coordination Sequence:
#
# PCOD9348616 Si02
#       8
#     8   8   8   8   8   8   8   8
#     4  11  21  39  63  84 113 159 207 248 296 351
#     4  10  20  33  52  83 119 156 197 247 301 354
#     4  11  24  41  60  87 122 161 210 257 297 351
#     4  10  21  37  60  88 120 154 195 245 300 365
#     4  10  21  38  63  90 121 160 202 248 304 367
#     4  10  19  34  58  84 116 157 202 250 300 354
#     4  10  20  31  53  87 120 154 193 245 307 360
#     4  10  19  34  58  89 121 158 195 241 302 363
#
# _framework density 19.330359999999999
#
# number of rings (size 3 to 8) (size 9 to 14) (size 15 to 20)
#    0.000    1.750    2.500    3.375    0.000    2.750 
#    0.000    4.375    0.000    3.375    0.000    0.000 
#    0.000    0.000    0.000    0.000    0.000    0.000 
#
# Total GULP energy -178470.204762 kJ/mol
# GULP energy per Si atom -5577.193899 kJ/mol
# Density = 1.928636 g / cm^3
# Si number density = 19.330360 Si / 1000 Ang^3
#
#
#
# Elastic Constant Matrix: (Units=GPa)
#
#
# Indices 1 2 3 4 5 6 
#
# 1 115.8674 29.1245 7.0968 0.0000 0.0000 0.0000
# 2 29.1245 95.8405 10.6096 0.0000 0.0000 0.0000
# 3 7.0968 10.6096 42.1364 0.0000 0.0000 0.0000
# 4 0.0000 0.0000 0.0000 14.8308 0.0000 0.0000
# 5 0.0000 0.0000 0.0000 0.0000 26.5046 0.0000
# 6 0.0000 0.0000 0.0000 0.0000 0.0000 8.0006
#
#
#
# Elastic Compliance Matrix: (Units=1/GPa)
#
#
# Indices 1 2 3 4 5 6 
#
# 1 0.009376 -0.002751 -0.000886 0.000000 0.000000 0.000000
# 2 -0.002751 0.011540 -0.002442 0.000000 0.000000 0.000000
# 3 -0.000886 -0.002442 0.024497 0.000000 0.000000 0.000000
# 4 0.000000 0.000000 0.000000 0.067427 0.000000 0.000000
# 5 0.000000 0.000000 0.000000 0.000000 0.037729 0.000000
# 6 0.000000 0.000000 0.000000 0.000000 0.000000 0.124990
#
#
# Mechanical properties :
#
#
# Convention : Reuss Voigt Hill
#
# Bulk Modulus (GPa) = 30.07216 38.61178 34.34197
# Shear Modulus (GPa) = 16.73333 23.66810 20.20071
#
# Velocity S-wave (km/s) = 2.94539 3.50294 3.23619
# Velocity P-wave (km/s) = 5.21131 6.03149 5.63634
#
# Compressibility (1/GPa) = 0.03325334
#
# Stress axis : x y z
#
# Youngs Moduli (GPa) = 106.65072 86.65187 40.82177
#
# Poissons Ratio (x) = 0.23840 0.03619
# Poissons Ratio (y) = 0.29342 0.09970
# Poissons Ratio (z) = 0.09454 0.21164
#
# Static dielectric constant tensor:
#      x y z
#    x 1.692270 0.000000 0.000000 
#    y 0.000000 1.685160 0.000000 
#    z 0.000000 0.000000 1.721340 
# 
# From -- ./inp_files/13678.got.cif
#   From: 2010.05.17/outbox.cif.g08.bks.cpg/sg35_7_cif.got.tgz:13678.got - 2010.06.03 17:29:28.
