data_PCOD9348483
_publ_section_title
;
Structure prediction by ZEFSAII (Michael W. Deem and Ramdas Pophale) SiO2 
 PCOD9348483
Probable space group: C M M 2
;
_chemical_formula_sum "Si O2"
_cell_formula_units_Z 56
_cell_length_a 8.643256
_cell_length_b 22.525882
_cell_length_c 14.931046
_cell_angle_alpha 90.000000
_cell_angle_beta 90.000000
_cell_angle_gamma 90.000000
_cell_volume 2907.029337
_symmetry_space_group_name_H-M "C M M 2"
_symmetry_group_IT_number 35
_symmetry_cell_setting 'orthorhombic'
loop_
_space_group_symop_operation_xyz
x,y,z
-x,-y,z
-x,y,z
x,-y,z
1/2+x,1/2+y,z
1/2-x,1/2-y,z
1/2-x,1/2+y,z
1/2+x,1/2-y,z
loop_
_atom_site_type_symbol
_atom_site_label
_atom_site_fract_x
_atom_site_fract_y
_atom_site_fract_z
Si Si1 0.185685 0.000000 0.788821
Si Si2 0.686201 0.616130 0.469122
Si Si3 0.815320 0.623837 0.803124
Si Si4 0.812158 0.000000 0.579977
Si Si5 0.813501 0.314283 0.981264
Si Si6 0.315343 0.313342 0.634702
Si Si7 0.311595 0.932483 0.088015
Si Si8 0.185885 0.566979 0.295904
O O1 0.253245 0.940493 0.831248
O O2 0.236316 0.000000 0.683614
O O3 0.000000 0.000000 0.792348
O O4 0.500000 0.615518 0.464081
O O5 0.736901 0.557759 0.524813
O O6 0.734736 0.669474 0.534163
O O7 0.750969 0.611881 0.369619
O O8 0.743710 0.640139 0.707723
O O9 0.000000 0.622028 0.796868
O O10 0.771369 0.672068 0.877950
O O11 0.000000 0.000000 0.581990
O O12 0.750000 0.250000 0.009662
O O13 0.760655 0.373716 0.034448
O O14 0.000000 0.312229 0.987910
O O15 0.500000 0.313585 0.637207
O O16 0.250000 0.250000 0.660302
O O17 0.500000 0.933659 0.082232
O O18 0.269575 0.923522 0.192657
O O19 0.260351 0.000000 0.061823
O O20 0.238637 0.500000 0.320466
O O21 0.000000 0.567817 0.299083
#
# Coordination Sequence:
#
# PCOD9348483 Si02
#       8
#     4   8   8   4   8   8   8   8
#     4  11  21  37  57  82 117 154 186 229 287 335
#     4  10  19  33  53  76 107 145 179 215 271 334
#     4  11  23  37  57  86 114 146 191 235 280 338
#     4   9  16  31  51  74 103 140 174 209 263 321
#     4  10  22  39  61  84 111 149 190 236 286 344
#     4  11  23  39  56  75 106 151 195 234 282 335
#     4   8  16  34  59  83 110 145 184 229 286 345
#     4   9  17  30  52  83 110 136 177 227 276 327
#
# _framework density 19.263652
#
# number of rings (size 3 to 8) (size 9 to 14) (size 15 to 20)
#    0.000    2.143    2.143    2.357    1.000    3.429 
#    0.000    1.429    0.000    4.286    0.000    0.000 
#    0.000    0.000    0.000    0.000    0.000    0.000 
#
# Total GULP energy -156178.241988 kJ/mol
# GULP energy per Si atom -5577.794357 kJ/mol
# Density = 1.921981 g / cm^3
# Si number density = 19.263652 Si / 1000 Ang^3
#
#
#
# Elastic Constant Matrix: (Units=GPa)
#
#
# Indices 1 2 3 4 5 6 
#
# 1 20.2894 18.3693 19.0604 0.0000 0.0000 0.0000
# 2 18.3693 121.2118 42.3144 0.0000 0.0000 0.0000
# 3 19.0604 42.3144 83.9985 0.0000 0.0000 0.0000
# 4 0.0000 0.0000 0.0000 27.9872 0.0000 0.0000
# 5 0.0000 0.0000 0.0000 0.0000 13.3383 0.0000
# 6 0.0000 0.0000 0.0000 0.0000 0.0000 25.5178
#
#
#
# Elastic Compliance Matrix: (Units=1/GPa)
#
#
# Indices 1 2 3 4 5 6 
#
# 1 0.065812 -0.005776 -0.012024 0.000000 0.000000 0.000000
# 2 -0.005776 0.010517 -0.003987 0.000000 0.000000 0.000000
# 3 -0.012024 -0.003987 0.016642 0.000000 0.000000 0.000000
# 4 0.000000 0.000000 0.000000 0.035731 0.000000 0.000000
# 5 0.000000 0.000000 0.000000 0.000000 0.074972 0.000000
# 6 0.000000 0.000000 0.000000 0.000000 0.000000 0.039188
#
#
# Mechanical properties :
#
#
# Convention : Reuss Voigt Hill
#
# Bulk Modulus (GPa) = 20.24438 42.77641 31.51039
# Shear Modulus (GPa) = 16.50694 23.08569 19.79632
#
# Velocity S-wave (km/s) = 2.93045 3.46556 3.20918
# Velocity P-wave (km/s) = 4.68850 6.18607 5.48860
#
# Compressibility (1/GPa) = 0.04939644
#
# Stress axis : x y z
#
# Youngs Moduli (GPa) = 15.19480 95.08070 60.08873
#
# Poissons Ratio (x) = 0.54920 0.72250
# Poissons Ratio (y) = 0.08777 0.23960
# Poissons Ratio (z) = 0.18270 0.37913
#
# Static dielectric constant tensor:
#      x y z
#    x 1.648040 0.000000 0.000000 
#    y 0.000000 1.665370 0.000000 
#    z 0.000000 0.000000 1.674710 
# 
# From -- ./inp_files/15741.got.cif
#   From: 2010.05.17/outbox.cif.g08.bks.cpg/sg35_8_cif.got.tgz:15741.got - 2010.06.03 17:29:28.
