data_PCOD9348556
_publ_section_title
;
Structure prediction by ZEFSAII (Michael W. Deem and Ramdas Pophale) SiO2 
 PCOD9348556
Probable space group: C M M 2
;
_chemical_formula_sum "Si O2"
_cell_formula_units_Z 48
_cell_length_a 14.593809
_cell_length_b 15.815126
_cell_length_c 10.388821
_cell_angle_alpha 90.000000
_cell_angle_beta 90.000000
_cell_angle_gamma 90.000000
_cell_volume 2397.770307
_symmetry_space_group_name_H-M "C M M 2"
_symmetry_group_IT_number 35
_symmetry_cell_setting 'orthorhombic'
loop_
_space_group_symop_operation_xyz
x,y,z
-x,-y,z
-x,y,z
x,-y,z
1/2+x,1/2+y,z
1/2-x,1/2-y,z
1/2-x,1/2+y,z
1/2+x,1/2-y,z
loop_
_atom_site_type_symbol
_atom_site_label
_atom_site_fract_x
_atom_site_fract_y
_atom_site_fract_z
Si Si1 0.398736 0.599699 0.228820
Si Si2 0.203757 0.602935 0.147445
Si Si3 0.397283 0.333399 0.510209
Si Si4 0.894777 0.603310 0.884365
Si Si5 0.728975 0.903917 0.647951
Si Si6 0.394584 0.140783 0.414034
O O1 0.500000 0.637021 0.200800
O O2 0.403098 0.500000 0.200282
O O3 0.308925 0.634206 0.157706
O O4 0.382995 0.610339 0.381958
O O5 0.205594 0.500000 0.149568
O O6 0.149836 0.631143 0.274434
O O7 0.151643 0.629038 0.018362
O O8 0.500000 0.349286 0.559438
O O9 0.318614 0.351441 0.611952
O O10 0.392292 0.238293 0.457706
O O11 0.896618 0.500000 0.881609
O O12 0.832549 0.630342 0.764350
O O13 0.000000 0.631903 0.873448
O O14 0.665565 0.905349 0.521183
O O15 0.757002 0.000000 0.679386
O O16 0.500000 0.112029 0.412714
#
# Coordination Sequence:
#
# PCOD9348556 Si02
#       6
#     8   8   8   8   8   8
#     4   9  17  31  53  80 109 143 184 230 278 327
#     4  10  19  33  56  86 114 147 188 234 287 339
#     4  10  21  36  55  79 113 149 184 231 282 327
#     4   9  19  35  54  80 117 151 182 231 291 340
#     4  11  21  35  57  83 110 147 190 230 278 334
#     4  11  22  34  55  83 113 145 184 233 281 335
#
# _framework density 20.018599999999999
#
# number of rings (size 3 to 8) (size 9 to 14) (size 15 to 20)
#    0.000    2.000    1.667    2.500    0.000    3.667 
#    0.000    0.833    7.333    3.000    0.000    0.000 
#    0.000    0.000    0.000    0.000    0.000    0.000 
#
# Total GULP energy -134022.123535 kJ/mol
# GULP energy per Si atom -5584.255147 kJ/mol
# Density = 1.997304 g / cm^3
# Si number density = 20.018600 Si / 1000 Ang^3
#
#
#
# Elastic Constant Matrix: (Units=GPa)
#
#
# Indices 1 2 3 4 5 6 
#
# 1 208.6795 24.4397 99.6941 0.0000 0.0000 0.0000
# 2 24.4397 21.7027 10.1461 0.0000 0.0000 0.0000
# 3 99.6941 10.1461 140.5385 0.0000 0.0000 0.0000
# 4 0.0000 0.0000 0.0000 1.9594 0.0000 0.0000
# 5 0.0000 0.0000 0.0000 0.0000 32.9173 0.0000
# 6 0.0000 0.0000 0.0000 0.0000 0.0000 44.3224
#
#
#
# Elastic Compliance Matrix: (Units=1/GPa)
#
#
# Indices 1 2 3 4 5 6 
#
# 1 0.008079 -0.006643 -0.005251 0.000000 0.000000 0.000000
# 2 -0.006643 0.053148 0.000875 0.000000 0.000000 0.000000
# 3 -0.005251 0.000875 0.010777 0.000000 0.000000 0.000000
# 4 0.000000 0.000000 0.000000 0.510358 0.000000 0.000000
# 5 0.000000 0.000000 0.000000 0.000000 0.030379 0.000000
# 6 0.000000 0.000000 0.000000 0.000000 0.000000 0.022562
#
#
# Mechanical properties :
#
#
# Convention : Reuss Voigt Hill
#
# Bulk Modulus (GPa) = 20.01322 71.05339 45.53331
# Shear Modulus (GPa) = 7.41843 31.61588 19.51715
#
# Velocity S-wave (km/s) = 1.92713 3.97838 3.12581
# Velocity P-wave (km/s) = 3.86921 7.52822 5.98519
#
# Compressibility (1/GPa) = 0.04996696
#
# Stress axis : x y z
#
# Youngs Moduli (GPa) = 123.78207 18.81523 92.78661
#
# Poissons Ratio (x) = 0.12498 0.48725
# Poissons Ratio (y) = 0.82223 -0.08119
# Poissons Ratio (z) = 0.65001 -0.01646
#
# Static dielectric constant tensor:
#      x y z
#    x 1.724710 0.000000 0.000000 
#    y 0.000000 1.748620 0.000000 
#    z 0.000000 0.000000 1.662610 
# 
# From -- ./inp_files/7308.got.cif
#   From: 2010.05.17/outbox.cif.g08.bks.cpg/sg35_4_cif.got.tgz:7308.got - 2010.06.03 17:29:28.
