data_PCOD9348835
_publ_section_title
;
Structure prediction by ZEFSAII (Michael W. Deem and Ramdas Pophale) SiO2 
 PCOD9348835
Probable space group: C M M 2
;
_chemical_formula_sum "Si O2"
_cell_formula_units_Z 64
_cell_length_a 26.324663
_cell_length_b 7.741224
_cell_length_c 12.976555
_cell_angle_alpha 90.000000
_cell_angle_beta 90.000000
_cell_angle_gamma 90.000000
_cell_volume 2644.428727
_symmetry_space_group_name_H-M "C M M 2"
_symmetry_group_IT_number 35
_symmetry_cell_setting 'orthorhombic'
loop_
_space_group_symop_operation_xyz
x,y,z
-x,-y,z
-x,y,z
x,-y,z
1/2+x,1/2+y,z
1/2-x,1/2-y,z
1/2-x,1/2+y,z
1/2+x,1/2-y,z
loop_
_atom_site_type_symbol
_atom_site_label
_atom_site_fract_x
_atom_site_fract_y
_atom_site_fract_z
Si Si1 0.304858 0.702482 0.136250
Si Si2 0.193913 0.806189 0.464881
Si Si3 0.553867 0.796644 0.966386
Si Si4 0.083953 0.211592 0.415328
Si Si5 0.555164 0.290381 0.643267
Si Si6 0.083987 0.210369 0.192362
Si Si7 0.331587 0.799150 0.689643
Si Si8 0.164347 0.708669 0.910024
O O1 0.308986 0.500000 0.146413
O O2 0.250000 0.750000 0.179543
O O3 0.357054 0.771709 0.184394
O O4 0.307146 0.746869 0.014796
O O5 0.250000 0.750000 0.436578
O O6 0.142111 0.721061 0.425073
O O7 0.188399 0.797472 0.589116
O O8 0.189890 0.000000 0.426976
O O9 0.500000 0.719850 0.932301
O O10 0.557673 0.778904 0.090056
O O11 0.553752 0.000000 0.941066
O O12 0.606620 0.722715 0.924097
O O13 0.057397 0.258864 0.521923
O O14 0.063362 0.262976 0.303977
O O15 0.083867 0.000000 0.415974
O O16 0.500000 0.236428 0.685000
O O17 0.558610 0.500000 0.650053
O O18 0.606761 0.215203 0.690326
O O19 0.081967 0.000000 0.186561
O O20 0.314061 0.730902 0.800710
O O21 0.317544 0.000000 0.676875
O O22 0.162410 0.500000 0.903943
#
# Coordination Sequence:
#
# PCOD9348835 Si02
#       8
#     8   8   8   8   8   8   8   8
#     4  10  20  33  51  74 100 129 162 202 246 291
#     4  10  20  35  54  75 101 132 165 203 248 297
#     4   9  18  33  51  72 100 131 162 200 247 294
#     4   8  16  32  52  73  99 131 166 202 241 289
#     4   9  18  33  52  74 102 136 169 203 248 297
#     4   9  18  33  52  74  99 129 166 204 241 286
#     4  10  20  34  53  76 100 129 167 209 251 294
#     4   9  19  35  53  72  97 130 166 203 245 293
#
# _framework density 24.201826000000001
#
# number of rings (size 3 to 8) (size 9 to 14) (size 15 to 20)
#    0.000    2.750    0.000    1.875    0.000    4.000 
#    0.000    5.625    0.000    0.000    0.000    0.000 
#    0.000    0.000    0.000    0.000    0.000    0.000 
#
# Total GULP energy -178669.111215 kJ/mol
# GULP energy per Si atom -5583.409725 kJ/mol
# Density = 2.414674 g / cm^3
# Si number density = 24.201826 Si / 1000 Ang^3
#
#
#
# Elastic Constant Matrix: (Units=GPa)
#
#
# Indices 1 2 3 4 5 6 
#
# 1 102.6566 -0.8092 4.0162 0.0000 0.0000 0.0000
# 2 -0.8092 37.2501 -12.4575 0.0000 0.0000 0.0000
# 3 4.0162 -12.4575 105.3891 0.0000 0.0000 0.0000
# 4 0.0000 0.0000 0.0000 10.6029 0.0000 0.0000
# 5 0.0000 0.0000 0.0000 0.0000 -18.5900 0.0000
# 6 0.0000 0.0000 0.0000 0.0000 0.0000 25.7331
#
#
#
# Elastic Compliance Matrix: (Units=1/GPa)
#
#
# Indices 1 2 3 4 5 6 
#
# 1 0.009756 0.000091 -0.000361 0.000000 0.000000 0.000000
# 2 0.000091 0.027951 0.003301 0.000000 0.000000 0.000000
# 3 -0.000361 0.003301 0.009893 0.000000 0.000000 0.000000
# 4 0.000000 0.000000 0.000000 0.094313 0.000000 0.000000
# 5 0.000000 0.000000 0.000000 0.000000 -0.053792 0.000000
# 6 0.000000 0.000000 0.000000 0.000000 0.000000 0.038861
#
#
# Mechanical properties :
#
#
# Convention : Reuss Voigt Hill
#
# Bulk Modulus (GPa) = 18.63536 25.19940 21.91738
# Shear Modulus (GPa) = 36.02119 20.51896 28.27007
#
# Velocity S-wave (km/s) = 3.86212 2.91491 3.42145
# Velocity P-wave (km/s) = 5.25401 4.66516 4.96832
#
# Compressibility (1/GPa) = 0.05366141
#
# Stress axis : x y z
#
# Youngs Moduli (GPa) = 102.50041 35.77644 101.08623
#
# Poissons Ratio (x) = -0.00326 0.03649
# Poissons Ratio (y) = -0.00935 -0.33364
# Poissons Ratio (z) = 0.03700 -0.11808
#
# Static dielectric constant tensor:
#      x y z
#    x 1.953200 0.000000 0.000000 
#    y 0.000000 1.887520 0.000000 
#    z 0.000000 0.000000 1.937930 
# 
# From -- ./inp_files/17756.got.cif
#   From: 2010.05.17/outbox.cif.g08.bks.cpg/sg35_9_cif.got.tgz:17756.got - 2010.06.03 17:29:28.
