data_PCOD9348623
_publ_section_title
;
Structure prediction by ZEFSAII (Michael W. Deem and Ramdas Pophale) SiO2 
 PCOD9348623
Probable space group: C M M 2
;
_chemical_formula_sum "Si O2"
_cell_formula_units_Z 64
_cell_length_a 20.134933
_cell_length_b 18.605149
_cell_length_c 8.812298
_cell_angle_alpha 90.000000
_cell_angle_beta 90.000000
_cell_angle_gamma 90.000000
_cell_volume 3301.205167
_symmetry_space_group_name_H-M "C M M 2"
_symmetry_group_IT_number 35
_symmetry_cell_setting 'orthorhombic'
loop_
_space_group_symop_operation_xyz
x,y,z
-x,-y,z
-x,y,z
x,-y,z
1/2+x,1/2+y,z
1/2-x,1/2-y,z
1/2-x,1/2+y,z
1/2+x,1/2-y,z
loop_
_atom_site_type_symbol
_atom_site_label
_atom_site_fract_x
_atom_site_fract_y
_atom_site_fract_z
Si Si1 0.805479 0.582479 0.856210
Si Si2 0.604455 0.186148 0.344389
Si Si3 0.927359 0.586074 0.073299
Si Si4 0.341360 0.584064 0.362434
Si Si5 0.574504 0.311563 0.560516
Si Si6 0.693188 0.305402 0.801128
Si Si7 0.800238 0.419864 0.504160
Si Si8 0.680667 0.291408 0.139530
O O1 0.792135 0.500000 0.897006
O O2 0.737494 0.626630 0.853415
O O3 0.824195 0.584415 0.677920
O O4 0.864570 0.607944 0.967488
O O5 0.572276 0.126899 0.234302
O O6 0.573181 0.232847 0.480111
O O7 0.666343 0.143824 0.414107
O O8 0.626456 0.248123 0.231301
O O9 0.921659 0.500000 0.095694
O O10 0.000000 0.599468 0.000100
O O11 0.354911 0.500000 0.332524
O O12 0.401559 0.627243 0.440833
O O13 0.278858 0.586888 0.479894
O O14 0.318990 0.628995 0.213060
O O15 0.500000 0.327032 0.616301
O O16 0.632940 0.312034 0.685507
O O17 0.750000 0.250000 0.742729
O O18 0.665152 0.282321 0.963318
O O19 0.817902 0.500000 0.446302
O O20 0.750000 0.250000 0.165310
#
# Coordination Sequence:
#
# PCOD9348623 Si02
#       8
#     8   8   8   8   8   8   8   8
#     4  10  21  37  58  87 118 158 204 248 302 365
#     4  11  21  37  59  87 122 159 203 253 303 363
#     4  10  21  38  59  87 128 169 203 246 305 372
#     4  10  21  38  62  91 123 156 200 254 312 364
#     4  11  25  41  63  88 121 166 211 258 312 369
#     4  11  22  39  60  87 122 158 200 256 309 363
#     4  10  19  34  59  91 120 155 199 253 305 361
#     4  10  20  35  57  90 121 153 192 248 311 360
#
# _framework density 19.386859999999999
#
# number of rings (size 3 to 8) (size 9 to 14) (size 15 to 20)
#    0.000    1.625    2.500    3.000    0.000    0.750 
#    0.000    8.750    0.000    3.000    0.000    0.000 
#    0.000    0.000    0.000    0.000    0.000    0.000 
#
# Total GULP energy -178261.174739 kJ/mol
# GULP energy per Si atom -5570.661711 kJ/mol
# Density = 1.934273 g / cm^3
# Si number density = 19.386860 Si / 1000 Ang^3
#
#
#
# Elastic Constant Matrix: (Units=GPa)
#
#
# Indices 1 2 3 4 5 6 
#
# 1 106.6571 48.2270 48.0228 0.0000 0.0000 0.0000
# 2 48.2270 108.7199 34.3542 0.0000 0.0000 0.0000
# 3 48.0228 34.3542 64.4158 0.0000 0.0000 0.0000
# 4 0.0000 0.0000 0.0000 23.7539 0.0000 0.0000
# 5 0.0000 0.0000 0.0000 0.0000 12.0416 0.0000
# 6 0.0000 0.0000 0.0000 0.0000 0.0000 6.7969
#
#
#
# Elastic Compliance Matrix: (Units=1/GPa)
#
#
# Indices 1 2 3 4 5 6 
#
# 1 0.015338 -0.003837 -0.009388 0.000000 0.000000 0.000000
# 2 -0.003837 0.012022 -0.003551 0.000000 0.000000 0.000000
# 3 -0.009388 -0.003551 0.024417 0.000000 0.000000 0.000000
# 4 0.000000 0.000000 0.000000 0.042098 0.000000 0.000000
# 5 0.000000 0.000000 0.000000 0.000000 0.083045 0.000000
# 6 0.000000 0.000000 0.000000 0.000000 0.000000 0.147127
#
#
# Mechanical properties :
#
#
# Convention : Reuss Voigt Hill
#
# Bulk Modulus (GPa) = 54.87165 60.11121 57.49143
# Shear Modulus (GPa) = 13.74854 18.46441 16.10647
#
# Velocity S-wave (km/s) = 2.66591 3.08948 2.88548
# Velocity P-wave (km/s) = 6.15151 6.61815 6.38909
#
# Compressibility (1/GPa) = 0.01822435
#
# Stress axis : x y z
#
# Youngs Moduli (GPa) = 65.19768 83.17975 40.95517
#
# Poissons Ratio (x) = 0.31918 0.38449
# Poissons Ratio (y) = 0.25018 0.14543
# Poissons Ratio (z) = 0.61209 0.29537
#
# Static dielectric constant tensor:
#      x y z
#    x 1.684430 0.000000 0.000000 
#    y 0.000000 1.729180 0.000000 
#    z 0.000000 0.000000 1.715940 
# 
# From -- ./inp_files/9419.got.cif
#   From: 2010.05.17/outbox.cif.g08.bks.cpg/sg35_5_cif.got.tgz:9419.got - 2010.06.03 17:29:28.
