data_PCOD9348539
_publ_section_title
;
Structure prediction by ZEFSAII (Michael W. Deem and Ramdas Pophale) SiO2 
 PCOD9348539
Probable space group: C M M 2
;
_chemical_formula_sum "Si O2"
_cell_formula_units_Z 32
_cell_length_a 14.725391
_cell_length_b 16.651769
_cell_length_c 5.272056
_cell_angle_alpha 90.000000
_cell_angle_beta 90.000000
_cell_angle_gamma 90.000000
_cell_volume 1292.728214
_symmetry_space_group_name_H-M "C M M 2"
_symmetry_group_IT_number 35
_symmetry_cell_setting 'orthorhombic'
loop_
_space_group_symop_operation_xyz
x,y,z
-x,-y,z
-x,y,z
x,-y,z
1/2+x,1/2+y,z
1/2-x,1/2-y,z
1/2-x,1/2+y,z
1/2+x,1/2-y,z
loop_
_atom_site_type_symbol
_atom_site_label
_atom_site_fract_x
_atom_site_fract_y
_atom_site_fract_z
Si Si1 0.109869 0.595034 0.311000
Si Si2 0.109185 0.910026 0.496316
Si Si3 0.399015 0.654871 0.997527
Si Si4 0.834936 0.312066 0.819721
O O1 0.126778 0.500000 0.345803
O O2 0.144899 0.644490 0.555360
O O3 0.000000 0.605982 0.290133
O O4 0.157538 0.626607 0.054469
O O5 0.148571 0.895301 0.774973
O O6 0.000000 0.900218 0.531744
O O7 0.127459 0.000000 0.409195
O O8 0.141953 0.850242 0.277976
O O9 0.500000 0.619346 0.035330
O O10 0.407761 0.743787 0.892988
O O11 0.750000 0.250000 0.816281
#
# Coordination Sequence:
#
# PCOD9348539 Si02
#       4
#     8   8   8   8
#     4  11  24  46  76 104 135 184 246 302 348 413
#     4   9  17  30  49  76 109 146 197 252 294 352
#     4  10  19  33  55  80 111 160 212 259 318 395
#     4  12  25  43  65 101 144 176 218 289 373 437
#
# _framework density 24.753848999999999
#
# number of rings (size 3 to 8) (size 9 to 14) (size 15 to 20)
#    0.000    1.500    0.000    6.000    0.000    7.000 
#    0.000    7.500    0.000    0.000    0.000    0.000 
#    0.000    0.000    0.000    0.000    0.000    0.000 
#
# Total GULP energy -89374.613431 kJ/mol
# GULP energy per Si atom -5585.913339 kJ/mol
# Density = 2.469751 g / cm^3
# Si number density = 24.753849 Si / 1000 Ang^3
#
#
#
# Elastic Constant Matrix: (Units=GPa)
#
#
# Indices 1 2 3 4 5 6 
#
# 1 114.9760 28.7347 30.8932 0.0000 0.0000 0.0000
# 2 28.7347 137.1047 70.4857 0.0000 0.0000 0.0000
# 3 30.8932 70.4857 205.3818 0.0000 0.0000 0.0000
# 4 0.0000 0.0000 0.0000 58.0639 0.0000 0.0000
# 5 0.0000 0.0000 0.0000 0.0000 23.5055 0.0000
# 6 0.0000 0.0000 0.0000 0.0000 0.0000 20.5555
#
#
#
# Elastic Compliance Matrix: (Units=1/GPa)
#
#
# Indices 1 2 3 4 5 6 
#
# 1 0.009309 -0.001495 -0.000887 0.000000 0.000000 0.000000
# 2 -0.001495 0.009096 -0.002897 0.000000 0.000000 0.000000
# 3 -0.000887 -0.002897 0.005997 0.000000 0.000000 0.000000
# 4 0.000000 0.000000 0.000000 0.017222 0.000000 0.000000
# 5 0.000000 0.000000 0.000000 0.000000 0.042543 0.000000
# 6 0.000000 0.000000 0.000000 0.000000 0.000000 0.048649
#
#
# Mechanical properties :
#
#
# Convention : Reuss Voigt Hill
#
# Bulk Modulus (GPa) = 72.23262 79.74331 75.98796
# Shear Modulus (GPa) = 33.78607 42.24824 38.01715
#
# Velocity S-wave (km/s) = 3.69844 4.13575 3.92319
# Velocity P-wave (km/s) = 6.89069 7.42228 7.16142
#
# Compressibility (1/GPa) = 0.01384416
#
# Stress axis : x y z
#
# Youngs Moduli (GPa) = 107.41734 109.93441 166.75982
#
# Poissons Ratio (x) = 0.16435 0.14796
# Poissons Ratio (y) = 0.16059 0.48309
# Poissons Ratio (z) = 0.09531 0.31847
#
# Static dielectric constant tensor:
#      x y z
#    x 2.150260 0.000000 0.000000 
#    y 0.000000 1.946230 0.000000 
#    z 0.000000 0.000000 1.975810 
# 
# From -- ./inp_files/2315.got.cif
#   From: 2010.05.17/outbox.cif.g08.bks.cpg/sg35_2_cif.got.tgz:2315.got - 2010.06.03 17:29:28.
