data_PCOD9348587
_publ_section_title
;
Structure prediction by ZEFSAII (Michael W. Deem and Ramdas Pophale) SiO2 
 PCOD9348587
Probable space group: C M M 2
;
_chemical_formula_sum "Si O2"
_cell_formula_units_Z 48
_cell_length_a 10.559512
_cell_length_b 14.881188
_cell_length_c 14.466667
_cell_angle_alpha 90.000000
_cell_angle_beta 90.000000
_cell_angle_gamma 90.000000
_cell_volume 2273.264324
_symmetry_space_group_name_H-M "C M M 2"
_symmetry_group_IT_number 35
_symmetry_cell_setting 'orthorhombic'
loop_
_space_group_symop_operation_xyz
x,y,z
-x,-y,z
-x,y,z
x,-y,z
1/2+x,1/2+y,z
1/2-x,1/2-y,z
1/2-x,1/2+y,z
1/2+x,1/2-y,z
loop_
_atom_site_type_symbol
_atom_site_label
_atom_site_fract_x
_atom_site_fract_y
_atom_site_fract_z
Si Si1 0.850871 0.670672 0.203220
Si Si2 0.235054 0.394923 0.009077
Si Si3 0.000000 0.390758 0.681115
Si Si4 0.500000 0.389648 0.931386
Si Si5 0.500000 0.110546 0.892125
Si Si6 0.500000 0.610079 0.714811
Si Si7 0.764218 0.109446 0.590294
Si Si8 0.642441 0.107353 0.410928
O O1 0.750000 0.750000 0.200797
O O2 0.811400 0.613300 0.114093
O O3 0.834311 0.625935 0.303530
O O4 0.000000 0.695198 0.194950
O O5 0.242558 0.500000 0.986562
O O6 0.373619 0.358200 0.984600
O O7 0.125059 0.357043 0.944156
O O8 0.000000 0.361764 0.786625
O O9 0.129783 0.363638 0.633211
O O10 0.000000 0.500000 0.678851
O O11 0.500000 0.500000 0.932931
O O12 0.500000 0.363375 0.822848
O O13 0.500000 0.000000 0.894578
O O14 0.500000 0.500000 0.716378
O O15 0.378100 0.640200 0.655540
O O16 0.750066 0.138464 0.483076
O O17 0.773207 0.000000 0.591448
O O18 0.500000 0.142351 0.433041
O O19 0.636128 0.000000 0.422637
#
# Coordination Sequence:
#
# PCOD9348587 Si02
#       8
#     8   8   4   4   4   4   8   8
#     4  11  24  40  58  79 105 140 180 225 277 329
#     4  10  19  34  55  81 109 141 181 223 268 314
#     4   9  14  22  41  71 106 134 163 211 258 305
#     4   9  18  30  48  77 116 152 175 211 268 319
#     4   9  16  26  46  77 108 136 173 217 262 313
#     4   9  16  26  41  71 116 150 167 199 260 319
#     4   9  15  25  43  72 108 141 169 205 260 313
#     4   9  17  33  57  82 106 137 178 223 267 313
#
# _framework density 21.115009000000001
#
# number of rings (size 3 to 8) (size 9 to 14) (size 15 to 20)
#    0.000    2.500    1.667    1.500    1.167    4.667 
#    1.500    0.000    0.000    0.000    0.000    7.000 
#    0.000    0.000    0.000    0.000    0.000    0.000 
#
# Total GULP energy -133878.115138 kJ/mol
# GULP energy per Si atom -5578.254797 kJ/mol
# Density = 2.106695 g / cm^3
# Si number density = 21.115009 Si / 1000 Ang^3
#
#
#
# Elastic Constant Matrix: (Units=GPa)
#
#
# Indices 1 2 3 4 5 6 
#
# 1 171.2835 -0.3377 80.8066 0.0000 0.0000 0.0000
# 2 -0.3377 34.9587 -13.7713 0.0000 0.0000 0.0000
# 3 80.8066 -13.7713 141.5906 0.0000 0.0000 0.0000
# 4 0.0000 0.0000 0.0000 -32.3957 0.0000 0.0000
# 5 0.0000 0.0000 0.0000 0.0000 28.5359 0.0000
# 6 0.0000 0.0000 0.0000 0.0000 0.0000 2.4579
#
#
#
# Elastic Compliance Matrix: (Units=1/GPa)
#
#
# Indices 1 2 3 4 5 6 
#
# 1 0.008098 -0.001812 -0.004798 0.000000 0.000000 0.000000
# 2 -0.001812 0.030150 0.003966 0.000000 0.000000 0.000000
# 3 -0.004798 0.003966 0.010187 0.000000 0.000000 0.000000
# 4 0.000000 0.000000 0.000000 -0.030868 0.000000 0.000000
# 5 0.000000 0.000000 0.000000 0.000000 0.035044 0.000000
# 6 0.000000 0.000000 0.000000 0.000000 0.000000 0.406848
#
#
# Mechanical properties :
#
#
# Convention : Reuss Voigt Hill
#
# Bulk Modulus (GPa) = 23.17579 53.46980 38.32280
# Shear Modulus (GPa) = 10.43563 18.46197 14.44880
#
# Velocity S-wave (km/s) = 2.22554 2.96015 2.61873
# Velocity P-wave (km/s) = 4.19569 6.08781 5.22806
#
# Compressibility (1/GPa) = 0.04314847
#
# Stress axis : x y z
#
# Youngs Moduli (GPa) = 123.48390 33.16726 98.16818
#
# Poissons Ratio (x) = 0.06009 0.47100
# Poissons Ratio (y) = 0.22373 -0.38938
# Poissons Ratio (z) = 0.59247 -0.13156
#
# Static dielectric constant tensor:
#      x y z
#    x 1.772380 0.000000 0.000000 
#    y 0.000000 1.815510 0.000000 
#    z 0.000000 0.000000 1.795280 
# 
# From -- ./inp_files/15308.got.cif
#   From: 2010.05.17/outbox.cif.g08.bks.cpg/sg35_8_cif.got.tgz:15308.got - 2010.06.03 17:29:28.
