data_PCOD9348602
_publ_section_title
;
Structure prediction by ZEFSAII (Michael W. Deem and Ramdas Pophale) SiO2 
 PCOD9348602
Probable space group: C M M 2
;
_chemical_formula_sum "Si O2"
_cell_formula_units_Z 64
_cell_length_a 8.485589
_cell_length_b 30.089366
_cell_length_c 12.664130
_cell_angle_alpha 90.000000
_cell_angle_beta 90.000000
_cell_angle_gamma 90.000000
_cell_volume 3233.481570
_symmetry_space_group_name_H-M "C M M 2"
_symmetry_group_IT_number 35
_symmetry_cell_setting 'orthorhombic'
loop_
_space_group_symop_operation_xyz
x,y,z
-x,-y,z
-x,y,z
x,-y,z
1/2+x,1/2+y,z
1/2-x,1/2-y,z
1/2-x,1/2+y,z
1/2+x,1/2-y,z
loop_
_atom_site_type_symbol
_atom_site_label
_atom_site_fract_x
_atom_site_fract_y
_atom_site_fract_z
Si Si1 0.182754 0.931322 0.026940
Si Si2 0.819003 0.172858 0.079261
Si Si3 0.813777 0.140392 0.701088
Si Si4 0.807626 0.950954 0.788601
Si Si5 0.683668 0.203022 0.871129
Si Si6 0.308725 0.147116 0.302861
Si Si7 0.687826 0.951895 0.252478
Si Si8 0.812334 0.300193 0.511471
O O1 0.185134 0.878214 0.039689
O O2 0.276564 0.949328 0.127306
O O3 0.000000 0.945776 0.035899
O O4 0.241798 0.944314 0.910880
O O5 0.755352 0.170951 0.197908
O O6 0.000000 0.188437 0.075375
O O7 0.714205 0.199156 0.995853
O O8 0.754213 0.090013 0.716577
O O9 0.779557 0.164920 0.811455
O O10 0.735210 0.169745 0.610877
O O11 0.000000 0.139444 0.681466
O O12 0.000000 0.949012 0.790483
O O13 0.760292 0.000000 0.752630
O O14 0.500000 0.198785 0.847108
O O15 0.750000 0.250000 0.832930
O O16 0.500000 0.146737 0.298486
O O17 0.253749 0.095206 0.300134
O O18 0.257147 0.174034 0.406018
O O19 0.500000 0.952043 0.268137
O O20 0.750057 0.000000 0.291356
O O21 0.750000 0.250000 0.518846
O O22 0.000000 0.297597 0.506961
#
# Coordination Sequence:
#
# PCOD9348602 Si02
#       8
#     8   8   8   8   8   8   8   8
#     4   9  16  29  50  77 113 154 194 231 272 328
#     4  10  19  34  56  85 119 154 192 234 286 341
#     4  11  22  40  62  86 118 150 192 243 292 343
#     4   9  17  31  54  83 116 154 192 231 280 336
#     4  12  24  38  58  84 117 154 192 234 290 353
#     4   9  20  38  58  82 115 151 191 239 291 347
#     4   9  17  30  50  79 114 152 192 232 279 335
#     4  11  24  43  65  87 110 145 195 246 300 355
#
# _framework density 19.792907
#
# number of rings (size 3 to 8) (size 9 to 14) (size 15 to 20)
#    0.000    2.000    1.250    3.000    0.000    2.750 
#    0.000    1.875    0.000    3.000    0.000    0.000 
#    0.000    0.000    0.000    0.000    0.000    0.000 
#
# Total GULP energy -178609.898524 kJ/mol
# GULP energy per Si atom -5581.559329 kJ/mol
# Density = 1.974786 g / cm^3
# Si number density = 19.792907 Si / 1000 Ang^3
#
#
#
# Elastic Constant Matrix: (Units=GPa)
#
#
# Indices 1 2 3 4 5 6 
#
# 1 17.9058 11.0252 3.9914 0.0000 0.0000 0.0000
# 2 11.0252 141.0882 59.1318 0.0000 0.0000 0.0000
# 3 3.9914 59.1318 102.5268 0.0000 0.0000 0.0000
# 4 0.0000 0.0000 0.0000 18.8673 0.0000 0.0000
# 5 0.0000 0.0000 0.0000 0.0000 20.9872 0.0000
# 6 0.0000 0.0000 0.0000 0.0000 0.0000 2.0790
#
#
#
# Elastic Compliance Matrix: (Units=1/GPa)
#
#
# Indices 1 2 3 4 5 6 
#
# 1 0.058688 -0.004785 0.000475 0.000000 0.000000 0.000000
# 2 -0.004785 0.009737 -0.005430 0.000000 0.000000 0.000000
# 3 0.000475 -0.005430 0.012867 0.000000 0.000000 0.000000
# 4 0.000000 0.000000 0.000000 0.053002 0.000000 0.000000
# 5 0.000000 0.000000 0.000000 0.000000 0.047648 0.000000
# 6 0.000000 0.000000 0.000000 0.000000 0.000000 0.481008
#
#
# Mechanical properties :
#
#
# Convention : Reuss Voigt Hill
#
# Bulk Modulus (GPa) = 16.17790 45.53527 30.85659
# Shear Modulus (GPa) = 7.11203 20.87820 13.99511
#
# Velocity S-wave (km/s) = 1.89764 3.25134 2.66198
# Velocity P-wave (km/s) = 3.60454 6.09514 5.00717
#
# Compressibility (1/GPa) = 0.06181270
#
# Stress axis : x y z
#
# Youngs Moduli (GPa) = 17.03915 102.69745 77.72074
#
# Poissons Ratio (x) = 0.49144 -0.03693
# Poissons Ratio (y) = 0.08154 0.42200
# Poissons Ratio (z) = -0.00810 0.55761
#
# Static dielectric constant tensor:
#      x y z
#    x 1.676650 0.000000 0.000000 
#    y 0.000000 1.725650 0.000000 
#    z 0.000000 0.000000 1.671340 
# 
# From -- ./inp_files/11924.got.cif
#   From: 2010.05.17/outbox.cif.g08.bks.cpg/sg35_6_cif.got.tgz:11924.got - 2010.06.03 17:29:28.
