data_PCOD9348945
_publ_section_title
;
Structure prediction by ZEFSAII (Michael W. Deem and Ramdas Pophale) SiO2 
 PCOD9348945
Probable space group: C M M 2
;
_chemical_formula_sum "Si O2"
_cell_formula_units_Z 58
_cell_length_a 31.250509
_cell_length_b 7.753983
_cell_length_c 12.839033
_cell_angle_alpha 90.000000
_cell_angle_beta 90.000000
_cell_angle_gamma 90.000000
_cell_volume 3111.102036
_symmetry_space_group_name_H-M "C M M 2"
_symmetry_group_IT_number 35
_symmetry_cell_setting 'orthorhombic'
loop_
_space_group_symop_operation_xyz
x,y,z
-x,-y,z
-x,y,z
x,-y,z
1/2+x,1/2+y,z
1/2-x,1/2-y,z
1/2-x,1/2+y,z
1/2+x,1/2-y,z
loop_
_atom_site_type_symbol
_atom_site_label
_atom_site_fract_x
_atom_site_fract_y
_atom_site_fract_z
Si Si1 0.438135 0.801844 0.693020
Si Si2 0.153896 0.797782 0.621467
Si Si3 0.201156 0.207637 0.420250
Si Si4 0.452795 0.207806 0.938986
Si Si5 0.500000 0.500000 0.624555
Si Si6 0.201146 0.205509 0.184730
Si Si7 0.798024 0.706010 0.820459
Si Si8 0.861332 0.294548 0.999478
O O1 0.388106 0.791195 0.666738
O O2 0.446001 0.763084 0.815527
O O3 0.463183 0.654082 0.631561
O O4 0.451893 0.000000 0.674712
O O5 0.169762 0.728238 0.510287
O O6 0.191090 0.777962 0.706954
O O7 0.144321 0.000000 0.610242
O O8 0.250000 0.250000 0.448287
O O9 0.194007 0.272996 0.302503
O O10 0.197348 0.000000 0.417789
O O11 0.500000 0.275866 0.968359
O O12 0.454390 0.000000 0.953297
O O13 0.409999 0.273559 0.996074
O O14 0.250000 0.250000 0.153507
O O15 0.165767 0.267197 0.103677
O O16 0.198585 0.000000 0.187831
O O17 0.801761 0.500000 0.815447
O O18 0.750000 0.750000 0.853439
O O19 0.832695 0.773736 0.903673
O O20 0.864805 0.500000 0.983289
#
# Coordination Sequence:
#
# PCOD9348945 Si02
#       8
#     8   8   8   8   2   8   8   8
#     4  11  21  36  56  82 116 151 189 236 283 342
#     4  11  21  35  54  81 111 146 188 230 283 343
#     4   9  20  36  55  78 108 141 185 236 280 329
#     4   9  17  33  55  78 107 144 181 225 280 331
#     4  12  22  36  56  86 112 154 198 232 292 330
#     4  10  20  36  55  78 105 141 184 232 281 329
#     4  11  22  34  48  73 111 152 184 222 276 339
#     4  10  20  34  52  77 108 141 181 225 279 335
#
# _framework density 18.642911999999999
#
# number of rings (size 3 to 8) (size 9 to 14) (size 15 to 20)
#    0.000    1.793    2.759    2.276    0.000    4.966 
#    1.241    0.000    0.000    0.000    1.793    0.000 
#    0.000    0.000    0.000    0.000    0.000    0.000 
#
# Total GULP energy -161577.038292 kJ/mol
# GULP energy per Si atom -5571.622010 kJ/mol
# Density = 1.860048 g / cm^3
# Si number density = 18.642912 Si / 1000 Ang^3
#
#
#
# Elastic Constant Matrix: (Units=GPa)
#
#
# Indices 1 2 3 4 5 6 
#
# 1 160.7522 10.1995 60.9817 0.0000 0.0000 0.0000
# 2 10.1995 57.0214 3.2167 0.0000 0.0000 0.0000
# 3 60.9817 3.2167 72.6160 0.0000 0.0000 0.0000
# 4 0.0000 0.0000 0.0000 9.5910 0.0000 0.0000
# 5 0.0000 0.0000 0.0000 0.0000 -51.5017 0.0000
# 6 0.0000 0.0000 0.0000 0.0000 0.0000 18.9994
#
#
#
# Elastic Compliance Matrix: (Units=1/GPa)
#
#
# Indices 1 2 3 4 5 6 
#
# 1 0.009212 -0.001214 -0.007682 0.000000 0.000000 0.000000
# 2 -0.001214 0.017741 0.000234 0.000000 0.000000 0.000000
# 3 -0.007682 0.000234 0.020212 0.000000 0.000000 0.000000
# 4 0.000000 0.000000 0.000000 0.104264 0.000000 0.000000
# 5 0.000000 0.000000 0.000000 0.000000 -0.019417 0.000000
# 6 0.000000 0.000000 0.000000 0.000000 0.000000 0.052633
#
#
# Mechanical properties :
#
#
# Convention : Reuss Voigt Hill
#
# Bulk Modulus (GPa) = 33.51211 48.79838 41.15524
# Shear Modulus (GPa) = 23.59394 9.81720 16.70557
#
# Velocity S-wave (km/s) = 3.56135 2.29725 2.99671
# Velocity P-wave (km/s) = 5.90980 5.76789 5.83928
#
# Compressibility (1/GPa) = 0.02983996
#
# Stress axis : x y z
#
# Youngs Moduli (GPa) = 108.55240 56.36568 49.47497
#
# Poissons Ratio (x) = 0.06845 0.38009
# Poissons Ratio (y) = 0.13183 -0.01157
# Poissons Ratio (z) = 0.83394 -0.01319
#
# Static dielectric constant tensor:
#      x y z
#    x 1.828680 0.000000 0.000000 
#    y 0.000000 1.676250 0.000000 
#    z 0.000000 0.000000 1.642580 
# 
# From -- ./inp_files/14472.got.cif
#   From: 2010.05.17/outbox.cif.g08.bks.cpg/sg35_8_cif.got.tgz:14472.got - 2010.06.03 17:29:28.
