data_PCOD9348190
_publ_section_title
;
Structure prediction by ZEFSAII (Michael W. Deem and Ramdas Pophale) SiO2 
 PCOD9348190
Probable space group: C M M 2
;
_chemical_formula_sum "Si O2"
_cell_formula_units_Z 64
_cell_length_a 29.529663
_cell_length_b 8.408567
_cell_length_c 16.235172
_cell_angle_alpha 90.000000
_cell_angle_beta 90.000000
_cell_angle_gamma 90.000000
_cell_volume 4031.228110
_symmetry_space_group_name_H-M "C M M 2"
_symmetry_group_IT_number 35
_symmetry_cell_setting 'orthorhombic'
loop_
_space_group_symop_operation_xyz
x,y,z
-x,-y,z
-x,y,z
x,-y,z
1/2+x,1/2+y,z
1/2-x,1/2-y,z
1/2-x,1/2+y,z
1/2+x,1/2-y,z
loop_
_atom_site_type_symbol
_atom_site_label
_atom_site_fract_x
_atom_site_fract_y
_atom_site_fract_z
Si Si1 0.643815 0.189978 0.301500
Si Si2 0.855122 0.192309 0.979654
Si Si3 0.198161 0.307334 0.461360
Si Si4 0.449039 0.308170 0.239817
Si Si5 0.050433 0.193702 0.047806
Si Si6 0.801791 0.308260 0.641296
Si Si7 0.698691 0.309538 0.142935
Si Si8 0.698186 0.809266 0.821523
O O1 0.667878 0.248377 0.385074
O O2 0.591772 0.240737 0.292849
O O3 0.670715 0.253700 0.222195
O O4 0.646546 0.000000 0.300513
O O5 0.906796 0.246923 0.994511
O O6 0.825680 0.245303 0.058797
O O7 0.855027 0.000000 0.979696
O O8 0.832383 0.249454 0.895979
O O9 0.198862 0.500000 0.460258
O O10 0.250000 0.250000 0.452014
O O11 0.180100 0.255892 0.551888
O O12 0.500000 0.259476 0.263977
O O13 0.447057 0.500000 0.242281
O O14 0.442434 0.261662 0.143692
O O15 0.000000 0.246872 0.022691
O O16 0.050169 0.000000 0.046338
O O17 0.802779 0.500000 0.641424
O O18 0.750000 0.250000 0.641003
O O19 0.819610 0.255936 0.730842
O O20 0.698644 0.500000 0.142468
O O21 0.750000 0.250000 0.146651
O O22 0.750000 0.750000 0.831248
O O23 0.699237 0.000000 0.823043
#
# Coordination Sequence:
#
# PCOD9348190 Si02
#       8
#     8   8   8   8   8   8   8   8
#     4  11  21  31  46  69  95 122 153 191 230 269
#     4  10  19  31  47  67  90 119 152 187 223 266
#     4   9  18  31  46  66  91 121 153 187 225 269
#     4   9  17  32  52  69  88 118 155 192 231 275
#     4   8  14  28  49  68  85 111 149 187 223 265
#     4   8  15  29  46  63  86 115 149 186 227 268
#     4  11  22  34  45  61  90 128 162 188 220 265
#     4  10  19  30  46  67  91 120 151 188 227 269
#
# _framework density 15.876054999999999
#
# number of rings (size 3 to 8) (size 9 to 14) (size 15 to 20)
#    0.000    2.500    1.250    2.625    0.000    4.750 
#    0.000    0.000    0.000    0.375    0.000    0.875 
#    0.000    5.000    0.000    0.000    0.000    0.000 
#
# Total GULP energy -178297.353829 kJ/mol
# GULP energy per Si atom -5571.792307 kJ/mol
# Density = 1.583992 g / cm^3
# Si number density = 15.876055 Si / 1000 Ang^3
#
#
#
# Elastic Constant Matrix: (Units=GPa)
#
#
# Indices 1 2 3 4 5 6 
#
# 1 118.1483 16.9803 79.5182 0.0000 0.0000 0.0000
# 2 16.9803 13.6678 19.8008 0.0000 0.0000 0.0000
# 3 79.5182 19.8008 158.5180 0.0000 0.0000 0.0000
# 4 0.0000 0.0000 0.0000 9.4099 0.0000 0.0000
# 5 0.0000 0.0000 0.0000 0.0000 -495.4812 0.0000
# 6 0.0000 0.0000 0.0000 0.0000 0.0000 18.8425
#
#
#
# Elastic Compliance Matrix: (Units=1/GPa)
#
#
# Indices 1 2 3 4 5 6 
#
# 1 0.013546 -0.008528 -0.005730 0.000000 0.000000 0.000000
# 2 -0.008528 0.094699 -0.007551 0.000000 0.000000 0.000000
# 3 -0.005730 -0.007551 0.010126 0.000000 0.000000 0.000000
# 4 0.000000 0.000000 0.000000 0.106271 0.000000 0.000000
# 5 0.000000 0.000000 0.000000 0.000000 -0.002018 0.000000
# 6 0.000000 0.000000 0.000000 0.000000 0.000000 0.053071
#
#
# Mechanical properties :
#
#
# Convention : Reuss Voigt Hill
#
# Bulk Modulus (GPa) = 13.37745 58.10363 35.74054
# Shear Modulus (GPa) = 14.52516 -81.84344 -33.65914
#
# Velocity S-wave (km/s) = 3.02803 -7.18773 -4.60947
# Velocity P-wave (km/s) = 4.54640 5.67510 2.40178
#
# Compressibility (1/GPa) = 0.07475268
#
# Stress axis : x y z
#
# Youngs Moduli (GPa) = 73.82246 10.55983 98.75581
#
# Poissons Ratio (x) = 0.09005 0.56586
# Poissons Ratio (y) = 0.62955 0.74572
# Poissons Ratio (z) = 0.42300 0.07974
#
# Static dielectric constant tensor:
#      x y z
#    x 1.581780 0.000000 0.000000 
#    y 0.000000 1.549540 0.000000 
#    z 0.000000 0.000000 1.553180 
# 
# From -- ./inp_files/16192.got.cif
#   From: 2010.05.17/outbox.cif.g08.bks.cpg/sg35_9_cif.got.tgz:16192.got - 2010.06.03 17:29:28.
