data_PCOD9348287
_publ_section_title
;
Structure prediction by ZEFSAII (Michael W. Deem and Ramdas Pophale) SiO2 
 PCOD9348287
Probable space group: C M M 2
;
_chemical_formula_sum "Si O2"
_cell_formula_units_Z 64
_cell_length_a 14.143118
_cell_length_b 19.588236
_cell_length_c 11.009575
_cell_angle_alpha 90.000000
_cell_angle_beta 90.000000
_cell_angle_gamma 90.000000
_cell_volume 3050.078711
_symmetry_space_group_name_H-M "C M M 2"
_symmetry_group_IT_number 35
_symmetry_cell_setting 'orthorhombic'
loop_
_space_group_symop_operation_xyz
x,y,z
-x,-y,z
-x,y,z
x,-y,z
1/2+x,1/2+y,z
1/2-x,1/2-y,z
1/2-x,1/2+y,z
1/2+x,1/2-y,z
loop_
_atom_site_type_symbol
_atom_site_label
_atom_site_fract_x
_atom_site_fract_y
_atom_site_fract_z
Si Si1 0.391366 0.076878 0.883310
Si Si2 0.393781 0.634460 0.746788
Si Si3 0.112583 0.851044 0.216458
Si Si4 0.891432 0.701936 0.312476
Si Si5 0.710490 0.099542 0.644154
Si Si6 0.894324 0.729017 0.595741
Si Si7 0.737094 0.922093 0.359067
Si Si8 0.276861 0.329300 0.980428
O O1 0.500000 0.098711 0.898975
O O2 0.365495 0.072329 0.739774
O O3 0.316741 0.128724 0.942400
O O4 0.380437 0.000000 0.933242
O O5 0.500000 0.608038 0.760946
O O6 0.313583 0.584122 0.697469
O O7 0.395247 0.696097 0.649883
O O8 0.352187 0.664995 0.870807
O O9 0.128904 0.770094 0.238286
O O10 0.158215 0.894895 0.325840
O O11 0.000000 0.862055 0.206487
O O12 0.171346 0.864311 0.094520
O O13 0.880669 0.726986 0.451641
O O14 0.828002 0.635466 0.296070
O O15 0.000000 0.682661 0.292404
O O16 0.685802 0.180381 0.648960
O O17 0.710734 0.080309 0.502649
O O18 0.000000 0.699661 0.619687
O O19 0.724814 0.000000 0.317887
O O20 0.250000 0.250000 0.998992
#
# Coordination Sequence:
#
# PCOD9348287 Si02
#       8
#     8   8   8   8   8   8   8   8
#     4  10  22  41  65  93 126 161 194 236 299 370
#     4  10  19  31  51  82 118 154 195 245 298 352
#     4  11  24  43  64  84 114 161 213 258 299 348
#     4   9  19  37  61  87 116 154 197 242 300 365
#     4  10  19  33  55  84 119 157 196 239 293 361
#     4   9  16  28  50  82 117 151 190 240 299 358
#     4  11  23  38  59  89 123 158 200 251 305 360
#     4  11  23  39  62  90 119 155 202 255 302 352
#
# _framework density 20.983065
#
# number of rings (size 3 to 8) (size 9 to 14) (size 15 to 20)
#    0.000    1.875    0.000    4.875    0.000    7.000 
#    0.000    0.625    0.000   12.000    0.000    0.000 
#    0.000    0.000    0.000    0.000    0.000    0.000 
#
# Total GULP energy -178593.994029 kJ/mol
# GULP energy per Si atom -5581.062313 kJ/mol
# Density = 2.093531 g / cm^3
# Si number density = 20.983065 Si / 1000 Ang^3
#
#
#
# Elastic Constant Matrix: (Units=GPa)
#
#
# Indices 1 2 3 4 5 6 
#
# 1 141.2685 34.5444 37.5747 0.0000 0.0000 0.0000
# 2 34.5444 71.9499 23.9848 0.0000 0.0000 0.0000
# 3 37.5747 23.9848 44.8479 0.0000 0.0000 0.0000
# 4 0.0000 0.0000 0.0000 6.4063 0.0000 0.0000
# 5 0.0000 0.0000 0.0000 0.0000 25.0801 0.0000
# 6 0.0000 0.0000 0.0000 0.0000 0.0000 10.7244
#
#
#
# Elastic Compliance Matrix: (Units=1/GPa)
#
#
# Indices 1 2 3 4 5 6 
#
# 1 0.009411 -0.002300 -0.006655 0.000000 0.000000 0.000000
# 2 -0.002300 0.017476 -0.007419 0.000000 0.000000 0.000000
# 3 -0.006655 -0.007419 0.031841 0.000000 0.000000 0.000000
# 4 0.000000 0.000000 0.000000 0.156096 0.000000 0.000000
# 5 0.000000 0.000000 0.000000 0.000000 0.039872 0.000000
# 6 0.000000 0.000000 0.000000 0.000000 0.000000 0.093245
#
#
# Mechanical properties :
#
#
# Convention : Reuss Voigt Hill
#
# Bulk Modulus (GPa) = 38.49112 50.03046 44.26079
# Shear Modulus (GPa) = 12.84191 19.23965 16.04078
#
# Velocity S-wave (km/s) = 2.47657 3.03134 2.76789
# Velocity P-wave (km/s) = 5.15380 6.01224 5.59949
#
# Compressibility (1/GPa) = 0.02598002
#
# Stress axis : x y z
#
# Youngs Moduli (GPa) = 106.25615 57.22105 31.40600
#
# Poissons Ratio (x) = 0.13161 0.20900
# Poissons Ratio (y) = 0.24440 0.23301
# Poissons Ratio (z) = 0.70712 0.42454
#
# Static dielectric constant tensor:
#      x y z
#    x 1.792680 0.000000 0.000000 
#    y 0.000000 1.686190 0.000000 
#    z 0.000000 0.000000 1.776390 
# 
# From -- ./inp_files/13235.got.cif
#   From: 2010.05.17/outbox.cif.g08.bks.cpg/sg35_7_cif.got.tgz:13235.got - 2010.06.03 17:29:28.
