data_PCOD9348793
_publ_section_title
;
Structure prediction by ZEFSAII (Michael W. Deem and Ramdas Pophale) SiO2 
 PCOD9348793
Probable space group: C M M 2
;
_chemical_formula_sum "Si O2"
_cell_formula_units_Z 64
_cell_length_a 9.124534
_cell_length_b 15.025428
_cell_length_c 21.737417
_cell_angle_alpha 90.000000
_cell_angle_beta 90.000000
_cell_angle_gamma 90.000000
_cell_volume 2980.200493
_symmetry_space_group_name_H-M "C M M 2"
_symmetry_group_IT_number 35
_symmetry_cell_setting 'orthorhombic'
loop_
_space_group_symop_operation_xyz
x,y,z
-x,-y,z
-x,y,z
x,-y,z
1/2+x,1/2+y,z
1/2-x,1/2-y,z
1/2-x,1/2+y,z
1/2+x,1/2-y,z
loop_
_atom_site_type_symbol
_atom_site_label
_atom_site_fract_x
_atom_site_fract_y
_atom_site_fract_z
Si Si1 0.676198 0.651552 0.051360
Si Si2 0.171259 0.108295 0.674087
Si Si3 0.167218 0.390997 0.551817
Si Si4 0.825171 0.346668 0.931934
Si Si5 0.667236 0.390769 0.428378
Si Si6 0.165379 0.894448 0.809802
Si Si7 0.662613 0.104536 0.308724
Si Si8 0.674708 0.346223 0.186581
O O1 0.500000 0.658362 0.042341
O O2 0.750000 0.750000 0.054986
O O3 0.702332 0.611061 0.119159
O O4 0.751818 0.607760 0.991927
O O5 0.264762 0.139781 0.616333
O O6 0.215409 0.139131 0.742680
O O7 0.000000 0.130302 0.665992
O O8 0.181379 0.000000 0.673221
O O9 0.168795 0.500000 0.552343
O O10 0.259240 0.363480 0.492349
O O11 0.000000 0.362277 0.545795
O O12 0.750000 0.250000 0.931955
O O13 0.775126 0.382287 0.865980
O O14 0.000000 0.344120 0.938136
O O15 0.500000 0.361247 0.424983
O O16 0.666643 0.500000 0.427887
O O17 0.755785 0.359028 0.368649
O O18 0.000000 0.858849 0.823704
O O19 0.149727 0.000000 0.802581
O O20 0.500000 0.143826 0.300128
O O21 0.756028 0.110752 0.246680
O O22 0.646221 0.000000 0.321141
O O23 0.500000 0.339258 0.192986
O O24 0.750000 0.250000 0.184833
#
# Coordination Sequence:
#
# PCOD9348793 Si02
#       8
#     8   8   8   8   8   8   8   8
#     4   9  17  31  51  73  96 123 158 200 243 285
#     4   8  14  25  41  61  87 121 157 192 234 283
#     4   9  15  22  35  58  88 120 155 196 238 279
#     4  11  21  33  52  75  99 127 162 202 242 288
#     4   9  16  26  41  61  88 123 161 199 239 285
#     4   9  18  33  51  71  99 132 163 199 245 293
#     4  10  20  33  49  71 101 133 163 200 246 291
#     4  10  20  34  54  77  99 126 161 200 241 288
#
# _framework density 21.475066000000002
#
# number of rings (size 3 to 8) (size 9 to 14) (size 15 to 20)
#    0.000    2.625    0.000    4.500    0.000    6.000 
#    0.000    1.875    0.000    0.750    0.000    0.875 
#    0.000    4.000    0.000    0.000    0.000    0.000 
#
# Total GULP energy -178488.221837 kJ/mol
# GULP energy per Si atom -5577.756932 kJ/mol
# Density = 2.142619 g / cm^3
# Si number density = 21.475066 Si / 1000 Ang^3
#
#
#
# Elastic Constant Matrix: (Units=GPa)
#
#
# Indices 1 2 3 4 5 6 
#
# 1 171.0088 8.9624 124.7620 0.0000 0.0000 0.0000
# 2 8.9624 32.5605 9.1021 0.0000 0.0000 0.0000
# 3 124.7620 9.1021 220.2821 0.0000 0.0000 0.0000
# 4 0.0000 0.0000 0.0000 -0.8919 0.0000 0.0000
# 5 0.0000 0.0000 0.0000 0.0000 33.7257 0.0000
# 6 0.0000 0.0000 0.0000 0.0000 0.0000 11.0428
#
#
#
# Elastic Compliance Matrix: (Units=1/GPa)
#
#
# Indices 1 2 3 4 5 6 
#
# 1 0.010010 -0.001184 -0.005621 0.000000 0.000000 0.000000
# 2 -0.001184 0.031211 -0.000619 0.000000 0.000000 0.000000
# 3 -0.005621 -0.000619 0.007749 0.000000 0.000000 0.000000
# 4 0.000000 0.000000 0.000000 -1.121255 0.000000 0.000000
# 5 0.000000 0.000000 0.000000 0.000000 0.029651 0.000000
# 6 0.000000 0.000000 0.000000 0.000000 0.000000 0.090556
#
#
# Mechanical properties :
#
#
# Convention : Reuss Voigt Hill
#
# Bulk Modulus (GPa) = 29.30630 78.83382 54.07006
# Shear Modulus (GPa) = -5.40041 27.51033 11.05496
#
# Velocity S-wave (km/s) = -1.58751 3.58304 2.27134
# Velocity P-wave (km/s) = 3.21186 7.34212 5.66669
#
# Compressibility (1/GPa) = 0.03412235
#
# Stress axis : x y z
#
# Youngs Moduli (GPa) = 99.89646 32.03999 129.05532
#
# Poissons Ratio (x) = 0.03794 0.72538
# Poissons Ratio (y) = 0.11829 0.07988
# Poissons Ratio (z) = 0.56149 0.01983
#
# Static dielectric constant tensor:
#      x y z
#    x 1.740130 0.000000 0.000000 
#    y 0.000000 1.888000 0.000000 
#    z 0.000000 0.000000 1.821060 
# 
# From -- ./inp_files/18450.got.cif
#   From: 2010.05.17/outbox.cif.g08.bks.cpg/sg35_10_cif.got.tgz:18450.got - 2010.06.03 17:29:28.
