data_PCOD9348263
_publ_section_title
;
Structure prediction by ZEFSAII (Michael W. Deem and Ramdas Pophale) SiO2 
 PCOD9348263
Probable space group: C M M 2
;
_chemical_formula_sum "Si O2"
_cell_formula_units_Z 48
_cell_length_a 19.080181
_cell_length_b 8.233226
_cell_length_c 16.050401
_cell_angle_alpha 90.000000
_cell_angle_beta 90.000000
_cell_angle_gamma 90.000000
_cell_volume 2521.380642
_symmetry_space_group_name_H-M "C M M 2"
_symmetry_group_IT_number 35
_symmetry_cell_setting 'orthorhombic'
loop_
_space_group_symop_operation_xyz
x,y,z
-x,-y,z
-x,y,z
x,-y,z
1/2+x,1/2+y,z
1/2-x,1/2-y,z
1/2-x,1/2+y,z
1/2+x,1/2-y,z
loop_
_atom_site_type_symbol
_atom_site_label
_atom_site_fract_x
_atom_site_fract_y
_atom_site_fract_z
Si Si1 0.080443 0.196415 0.199880
Si Si2 0.581320 0.198099 0.516936
Si Si3 0.330030 0.805610 0.859779
Si Si4 0.081134 0.302048 0.703070
Si Si5 0.330194 0.805387 0.358820
Si Si6 0.169508 0.805860 0.041785
O O1 0.124893 0.247736 0.279979
O O2 0.120361 0.254022 0.116564
O O3 0.000000 0.253914 0.204226
O O4 0.079092 0.000000 0.197350
O O5 0.500000 0.246447 0.503201
O O6 0.603290 0.250146 0.610093
O O7 0.631783 0.254535 0.443308
O O8 0.581790 0.000000 0.516464
O O9 0.250000 0.750000 0.852068
O O10 0.373538 0.743313 0.780701
O O11 0.332122 0.000000 0.859341
O O12 0.355468 0.748700 0.950458
O O13 0.083906 0.500000 0.703422
O O14 0.000000 0.256411 0.713611
O O15 0.250000 0.750000 0.353482
O O16 0.331188 0.000000 0.359900
O O17 0.250000 0.750000 0.053137
O O18 0.169850 0.000000 0.043267
#
# Coordination Sequence:
#
# PCOD9348263 Si02
#       6
#     8   8   8   8   8   8
#     4  10  22  39  57  78 105 136 169 210 262 314
#     4   8  15  30  51  74 101 133 170 211 254 302
#     4  10  19  31  50  75 102 133 168 208 253 299
#     4   8  15  29  49  73 101 133 169 209 252 298
#     4  11  22  35  54  80 107 138 175 214 257 305
#     4  10  20  35  54  74 100 135 171 208 253 304
#
# _framework density 19.037189999999999
#
# number of rings (size 3 to 8) (size 9 to 14) (size 15 to 20)
#    0.000    2.500    0.000    4.500    0.000    5.000 
#    0.000    0.000    0.000    4.500    0.000    9.333 
#    0.000    0.000    0.000    0.000    0.000    0.000 
#
# Total GULP energy -133915.470791 kJ/mol
# GULP energy per Si atom -5579.811283 kJ/mol
# Density = 1.899386 g / cm^3
# Si number density = 19.037190 Si / 1000 Ang^3
#
#
#
# Elastic Constant Matrix: (Units=GPa)
#
#
# Indices 1 2 3 4 5 6 
#
# 1 127.1162 13.6390 127.6185 0.0000 0.0000 0.0000
# 2 13.6390 21.4396 18.9504 0.0000 0.0000 0.0000
# 3 127.6185 18.9504 228.7319 0.0000 0.0000 0.0000
# 4 0.0000 0.0000 0.0000 -4.3287 0.0000 0.0000
# 5 0.0000 0.0000 0.0000 0.0000 50.0329 0.0000
# 6 0.0000 0.0000 0.0000 0.0000 0.0000 4.4744
#
#
#
# Elastic Compliance Matrix: (Units=1/GPa)
#
#
# Indices 1 2 3 4 5 6 
#
# 1 0.018038 -0.002783 -0.009833 0.000000 0.000000 0.000000
# 2 -0.002783 0.050758 -0.002652 0.000000 0.000000 0.000000
# 3 -0.009833 -0.002652 0.010078 0.000000 0.000000 0.000000
# 4 0.000000 0.000000 0.000000 -0.231018 0.000000 0.000000
# 5 0.000000 0.000000 0.000000 0.000000 0.019987 0.000000
# 6 0.000000 0.000000 0.000000 0.000000 0.000000 0.223494
#
#
# Mechanical properties :
#
#
# Convention : Reuss Voigt Hill
#
# Bulk Modulus (GPa) = 20.68867 77.52260 49.10563
# Shear Modulus (GPa) = 36.23570 24.50772 30.37171
#
# Velocity S-wave (km/s) = 4.36755 3.59187 3.99856
# Velocity P-wave (km/s) = 6.02703 7.61657 6.86794
#
# Compressibility (1/GPa) = 0.04833564
#
# Stress axis : x y z
#
# Youngs Moduli (GPa) = 55.43982 19.70142 99.22547
#
# Poissons Ratio (x) = 0.05483 0.97571
# Poissons Ratio (y) = 0.15430 0.26319
# Poissons Ratio (z) = 0.54516 0.05226
#
# Static dielectric constant tensor:
#      x y z
#    x 1.635450 0.000000 0.000000 
#    y 0.000000 1.663770 0.000000 
#    z 0.000000 0.000000 1.670740 
# 
# From -- ./inp_files/15144.got.cif
#   From: 2010.05.17/outbox.cif.g08.bks.cpg/sg35_8_cif.got.tgz:15144.got - 2010.06.03 17:29:28.
