data_PCOD9348892
_publ_section_title
;
Structure prediction by ZEFSAII (Michael W. Deem and Ramdas Pophale) SiO2 
 PCOD9348892
Probable space group: C M M 2
;
_chemical_formula_sum "Si O2"
_cell_formula_units_Z 56
_cell_length_a 8.850230
_cell_length_b 18.642676
_cell_length_c 18.697026
_cell_angle_alpha 90.000000
_cell_angle_beta 90.000000
_cell_angle_gamma 90.000000
_cell_volume 3084.859161
_symmetry_space_group_name_H-M "C M M 2"
_symmetry_group_IT_number 35
_symmetry_cell_setting 'orthorhombic'
loop_
_space_group_symop_operation_xyz
x,y,z
-x,-y,z
-x,y,z
x,-y,z
1/2+x,1/2+y,z
1/2-x,1/2-y,z
1/2-x,1/2+y,z
1/2+x,1/2-y,z
loop_
_atom_site_type_symbol
_atom_site_label
_atom_site_fract_x
_atom_site_fract_y
_atom_site_fract_z
Si Si1 0.319655 0.830132 0.945350
Si Si2 0.819187 0.171109 0.220454
Si Si3 0.681481 0.669715 0.799630
Si Si4 0.681252 0.584345 0.076683
Si Si5 0.179801 0.829202 0.642299
Si Si6 0.178403 0.414302 0.512630
Si Si7 0.682428 0.084206 0.351445
O O1 0.500000 0.824518 0.941871
O O2 0.250000 0.750000 0.953498
O O3 0.255180 0.862251 0.870873
O O4 0.266361 0.877657 0.011668
O O5 0.750000 0.250000 0.213631
O O6 0.779885 0.123898 0.150759
O O7 0.756571 0.132048 0.290783
O O8 0.000000 0.176077 0.224556
O O9 0.500000 0.672466 0.807877
O O10 0.750000 0.750000 0.797120
O O11 0.718032 0.638780 0.721096
O O12 0.500000 0.591839 0.065886
O O13 0.716251 0.500000 0.080885
O O14 0.250000 0.750000 0.637321
O O15 0.236507 0.875719 0.576411
O O16 0.000000 0.822290 0.639980
O O17 0.196127 0.500000 0.517855
O O18 0.227732 0.393811 0.432158
O O19 0.000000 0.398189 0.518618
O O20 0.500000 0.089367 0.347535
O O21 0.721452 0.000000 0.341656
#
# Coordination Sequence:
#
# PCOD9348892 Si02
#       7
#     8   8   8   8   8   8   8
#     4  11  21  34  56  83 109 140 180 222 266 317
#     4  11  23  38  58  84 111 141 178 219 265 315
#     4   9  17  31  51  76 106 140 178 221 270 318
#     4  10  22  40  59  80 109 142 176 218 268 318
#     4  10  20  33  53  80 108 141 181 224 269 318
#     4   9  19  36  56  78 107 143 180 220 269 321
#     4   9  19  37  59  81 107 141 179 220 269 321
#
# _framework density 18.153179000000002
#
# number of rings (size 3 to 8) (size 9 to 14) (size 15 to 20)
#    0.000    2.143    0.000    5.143    0.000    6.571 
#    0.000    2.143    0.000    0.857    0.000    0.000 
#    0.000    0.000    0.000    0.000    0.000    0.000 
#
# Total GULP energy -156263.511413 kJ/mol
# GULP energy per Si atom -5580.839693 kJ/mol
# Density = 1.811186 g / cm^3
# Si number density = 18.153179 Si / 1000 Ang^3
#
#
#
# Elastic Constant Matrix: (Units=GPa)
#
#
# Indices 1 2 3 4 5 6 
#
# 1 77.0996 48.7338 84.7130 0.0000 0.0000 0.0000
# 2 48.7338 72.8501 79.0483 0.0000 0.0000 0.0000
# 3 84.7130 79.0483 201.6984 0.0000 0.0000 0.0000
# 4 0.0000 0.0000 0.0000 74.9917 0.0000 0.0000
# 5 0.0000 0.0000 0.0000 0.0000 24.8940 0.0000
# 6 0.0000 0.0000 0.0000 0.0000 0.0000 20.2687
#
#
#
# Elastic Compliance Matrix: (Units=1/GPa)
#
#
# Indices 1 2 3 4 5 6 
#
# 1 0.027966 -0.010375 -0.007680 0.000000 0.000000 0.000000
# 2 -0.010375 0.027733 -0.006511 0.000000 0.000000 0.000000
# 3 -0.007680 -0.006511 0.010735 0.000000 0.000000 0.000000
# 4 0.000000 0.000000 0.000000 0.013335 0.000000 0.000000
# 5 0.000000 0.000000 0.000000 0.000000 0.040170 0.000000
# 6 0.000000 0.000000 0.000000 0.000000 0.000000 0.049337
#
#
# Mechanical properties :
#
#
# Convention : Reuss Voigt Hill
#
# Bulk Modulus (GPa) = 57.79722 86.29316 72.04519
# Shear Modulus (GPa) = 22.30391 33.30772 27.80582
#
# Velocity S-wave (km/s) = 3.50901 4.28812 3.91798
# Velocity P-wave (km/s) = 6.95164 8.49451 7.76151
#
# Compressibility (1/GPa) = 0.01730187
#
# Stress axis : x y z
#
# Youngs Moduli (GPa) = 35.75734 36.05855 93.15235
#
# Poissons Ratio (x) = 0.37412 0.71537
# Poissons Ratio (y) = 0.37100 0.60653
# Poissons Ratio (z) = 0.27460 0.23478
#
# Static dielectric constant tensor:
#      x y z
#    x 1.607790 0.000000 0.000000 
#    y 0.000000 1.592930 0.000000 
#    z 0.000000 0.000000 1.640220 
# 
# From -- ./inp_files/15652.got.cif
#   From: 2010.05.17/outbox.cif.g08.bks.cpg/sg35_8_cif.got.tgz:15652.got - 2010.06.03 17:29:28.
