data_PCOD9348919
_publ_section_title
;
Structure prediction by ZEFSAII (Michael W. Deem and Ramdas Pophale) SiO2 
 PCOD9348919
Probable space group: C M M 2
;
_chemical_formula_sum "Si O2"
_cell_formula_units_Z 56
_cell_length_a 29.949921
_cell_length_b 8.306101
_cell_length_c 13.191558
_cell_angle_alpha 90.000000
_cell_angle_beta 90.000000
_cell_angle_gamma 90.000000
_cell_volume 3281.625216
_symmetry_space_group_name_H-M "C M M 2"
_symmetry_group_IT_number 35
_symmetry_cell_setting 'orthorhombic'
loop_
_space_group_symop_operation_xyz
x,y,z
-x,-y,z
-x,y,z
x,-y,z
1/2+x,1/2+y,z
1/2-x,1/2-y,z
1/2-x,1/2+y,z
1/2+x,1/2-y,z
loop_
_atom_site_type_symbol
_atom_site_label
_atom_site_fract_x
_atom_site_fract_y
_atom_site_fract_z
Si Si1 0.198964 0.807093 0.295520
Si Si2 0.799968 0.192442 0.913681
Si Si3 0.856855 0.307440 0.100875
Si Si4 0.800040 0.194602 0.683751
Si Si5 0.049521 0.694599 0.181054
Si Si6 0.356854 0.303188 0.493550
Si Si7 0.049449 0.805357 0.413132
O O1 0.250000 0.750000 0.296096
O O2 0.173017 0.748406 0.195906
O O3 0.172663 0.752246 0.396568
O O4 0.198554 0.000000 0.294929
O O5 0.750000 0.250000 0.940251
O O6 0.809795 0.249753 0.798747
O O7 0.799741 0.000000 0.913102
O O8 0.834657 0.250430 0.997123
O O9 0.857351 0.500000 0.101252
O O10 0.907637 0.248494 0.118163
O O11 0.750000 0.250000 0.657986
O O12 0.834177 0.251137 0.597772
O O13 0.800585 0.000000 0.683997
O O14 0.049556 0.500000 0.179738
O O15 0.055442 0.749847 0.297164
O O16 0.000000 0.749124 0.147525
O O17 0.356705 0.500000 0.493997
O O18 0.407839 0.250089 0.476836
O O19 0.000000 0.751292 0.446887
O O20 0.049638 0.000000 0.413649
#
# Coordination Sequence:
#
# PCOD9348919 Si02
#       7
#     8   8   8   8   8   8   8
#     4  11  21  32  46  68 100 131 158 192 235 288
#     4  10  20  34  52  71  94 126 165 206 243 282
#     4  11  21  33  50  71  97 127 160 197 240 290
#     4   9  18  33  51  70  94 125 162 201 238 279
#     4   9  18  32  49  70  96 125 158 197 239 283
#     4   9  17  30  48  71  98 126 156 194 237 282
#     4   9  16  28  48  72  97 126 159 193 233 284
#
# _framework density 17.064715
#
# number of rings (size 3 to 8) (size 9 to 14) (size 15 to 20)
#    0.000    2.286    1.429    2.143    0.000    1.143 
#    0.000    1.429    0.000    0.857    0.000    2.000 
#    0.000    0.000    0.000    0.000    0.000    0.000 
#
# Total GULP energy -156175.109932 kJ/mol
# GULP energy per Si atom -5577.682498 kJ/mol
# Density = 1.702587 g / cm^3
# Si number density = 17.064715 Si / 1000 Ang^3
#
#
#
# Elastic Constant Matrix: (Units=GPa)
#
#
# Indices 1 2 3 4 5 6 
#
# 1 192.7135 19.2996 106.3939 0.0000 0.0000 0.0000
# 2 19.2996 17.4052 13.3917 0.0000 0.0000 0.0000
# 3 106.3939 13.3917 111.6950 0.0000 0.0000 0.0000
# 4 0.0000 0.0000 0.0000 2.7632 0.0000 0.0000
# 5 0.0000 0.0000 0.0000 0.0000 23.5486 0.0000
# 6 0.0000 0.0000 0.0000 0.0000 0.0000 8.1581
#
#
#
# Elastic Compliance Matrix: (Units=1/GPa)
#
#
# Indices 1 2 3 4 5 6 
#
# 1 0.011279 -0.004671 -0.010184 0.000000 0.000000 0.000000
# 2 -0.004671 0.065227 -0.003371 0.000000 0.000000 0.000000
# 3 -0.010184 -0.003371 0.019058 0.000000 0.000000 0.000000
# 4 0.000000 0.000000 0.000000 0.361898 0.000000 0.000000
# 5 0.000000 0.000000 0.000000 0.000000 0.042465 0.000000
# 6 0.000000 0.000000 0.000000 0.000000 0.000000 0.122577
#
#
# Mechanical properties :
#
#
# Convention : Reuss Voigt Hill
#
# Bulk Modulus (GPa) = 16.91696 66.66489 41.79093
# Shear Modulus (GPa) = 7.36746 19.07589 13.22167
#
# Velocity S-wave (km/s) = 2.08008 3.34706 2.78654
# Velocity P-wave (km/s) = 3.96282 7.35444 5.90727
#
# Compressibility (1/GPa) = 0.05911226
#
# Stress axis : x y z
#
# Youngs Moduli (GPa) = 88.65915 15.33097 52.47269
#
# Poissons Ratio (x) = 0.07162 0.53437
# Poissons Ratio (y) = 0.41415 0.17688
# Poissons Ratio (z) = 0.90288 0.05168
#
# Static dielectric constant tensor:
#      x y z
#    x 1.591770 0.000000 0.000000 
#    y 0.000000 1.582780 0.000000 
#    z 0.000000 0.000000 1.562700 
# 
# From -- ./inp_files/17679.got.cif
#   From: 2010.05.17/outbox.cif.g08.bks.cpg/sg35_9_cif.got.tgz:17679.got - 2010.06.03 17:29:28.
