data_PCOD9348170
_publ_section_title
;
Structure prediction by ZEFSAII (Michael W. Deem and Ramdas Pophale) SiO2 
 PCOD9348170
Probable space group: C M M 2
;
_chemical_formula_sum "Si O2"
_cell_formula_units_Z 56
_cell_length_a 9.144836
_cell_length_b 31.209206
_cell_length_c 12.903079
_cell_angle_alpha 90.000000
_cell_angle_beta 90.000000
_cell_angle_gamma 90.000000
_cell_volume 3682.578366
_symmetry_space_group_name_H-M "C M M 2"
_symmetry_group_IT_number 35
_symmetry_cell_setting 'orthorhombic'
loop_
_space_group_symop_operation_xyz
x,y,z
-x,-y,z
-x,y,z
x,-y,z
1/2+x,1/2+y,z
1/2-x,1/2-y,z
1/2-x,1/2+y,z
1/2+x,1/2-y,z
loop_
_atom_site_type_symbol
_atom_site_label
_atom_site_fract_x
_atom_site_fract_y
_atom_site_fract_z
Si Si1 0.673955 0.050834 0.967940
Si Si2 0.675135 0.617757 0.118408
Si Si3 0.832308 0.292737 0.365663
Si Si4 0.178227 0.049062 0.527195
Si Si5 0.167998 0.051966 0.756794
Si Si6 0.175472 0.119493 0.362182
Si Si7 0.168974 0.706680 0.113513
O O1 0.500000 0.056742 0.974845
O O2 0.732568 0.063581 0.853992
O O3 0.705385 0.000000 0.982053
O O4 0.755896 0.079660 0.051969
O O5 0.500000 0.619150 0.106466
O O6 0.708235 0.611524 0.240875
O O7 0.745550 0.663255 0.085815
O O8 0.750000 0.250000 0.401164
O O9 0.750264 0.336213 0.395021
O O10 0.831403 0.291864 0.239534
O O11 0.000000 0.292904 0.399561
O O12 0.220815 0.064945 0.642221
O O13 0.223415 0.080722 0.435903
O O14 0.000000 0.048018 0.528355
O O15 0.227789 0.000000 0.511690
O O16 0.000000 0.066358 0.772974
O O17 0.164412 0.000000 0.752501
O O18 0.000000 0.124055 0.370321
O O19 0.250000 0.750000 0.078170
O O20 0.000000 0.705433 0.079755
#
# Coordination Sequence:
#
# PCOD9348170 Si02
#       7
#     8   8   8   8   8   8   8
#     4  10  20  32  45  62  87 118 150 186 226 263
#     4  10  19  29  43  65  92 121 152 182 215 261
#     4   9  16  26  41  60  84 114 147 182 218 255
#     4   8  14  26  45  67  89 114 145 181 218 256
#     4   8  14  27  47  66  82 105 143 187 224 259
#     4   9  17  28  43  65  92 119 147 178 214 259
#     4   9  16  27  43  62  86 115 147 183 221 259
#
# _framework density 15.206735999999999
#
# number of rings (size 3 to 8) (size 9 to 14) (size 15 to 20)
#    0.000    3.000    0.000    2.571    0.000    5.429 
#    0.000    2.143    0.000    1.286    0.000    1.000 
#    0.000    2.286    0.000    0.000    0.000    0.000 
#
# Total GULP energy -155903.159580 kJ/mol
# GULP energy per Si atom -5567.969985 kJ/mol
# Density = 1.517212 g / cm^3
# Si number density = 15.206736 Si / 1000 Ang^3
#
#
#
# Elastic Constant Matrix: (Units=GPa)
#
#
# Indices 1 2 3 4 5 6 
#
# 1 70.3405 58.0006 45.6806 0.0000 0.0000 0.0000
# 2 58.0006 112.4791 64.5419 0.0000 0.0000 0.0000
# 3 45.6806 64.5419 73.6963 0.0000 0.0000 0.0000
# 4 0.0000 0.0000 0.0000 -1.3319 0.0000 0.0000
# 5 0.0000 0.0000 0.0000 0.0000 10.9926 0.0000
# 6 0.0000 0.0000 0.0000 0.0000 0.0000 26.2167
#
#
#
# Elastic Compliance Matrix: (Units=1/GPa)
#
#
# Indices 1 2 3 4 5 6 
#
# 1 0.027595 -0.008874 -0.009333 0.000000 0.000000 0.000000
# 2 -0.008874 0.020726 -0.012650 0.000000 0.000000 0.000000
# 3 -0.009333 -0.012650 0.030433 0.000000 0.000000 0.000000
# 4 0.000000 0.000000 0.000000 -0.750803 0.000000 0.000000
# 5 0.000000 0.000000 0.000000 0.000000 0.090970 0.000000
# 6 0.000000 0.000000 0.000000 0.000000 0.000000 0.038144
#
#
# Mechanical properties :
#
#
# Convention : Reuss Voigt Hill
#
# Bulk Modulus (GPa) = 58.68972 65.88467 62.28719
# Shear Modulus (GPa) = -10.51434 13.06166 1.27366
#
# Velocity S-wave (km/s) = -2.63235 2.93395 0.91618
# Velocity P-wave (km/s) = 5.42580 7.40928 6.49372
#
# Compressibility (1/GPa) = 0.01703876
#
# Stress axis : x y z
#
# Youngs Moduli (GPa) = 36.23864 48.24961 32.85898
#
# Poissons Ratio (x) = 0.42818 0.30666
# Poissons Ratio (y) = 0.32159 0.41568
# Poissons Ratio (z) = 0.33821 0.61038
#
# Static dielectric constant tensor:
#      x y z
#    x 1.508750 0.000000 0.000000 
#    y 0.000000 1.492520 0.000000 
#    z 0.000000 0.000000 1.498230 
# 
# From -- ./inp_files/16046.got.cif
#   From: 2010.05.17/outbox.cif.g08.bks.cpg/sg35_9_cif.got.tgz:16046.got - 2010.06.03 17:29:28.
