data_PCOD9348588
_publ_section_title
;
Structure prediction by ZEFSAII (Michael W. Deem and Ramdas Pophale) SiO2 
 PCOD9348588
Probable space group: C M M 2
;
_chemical_formula_sum "Si O2"
_cell_formula_units_Z 52
_cell_length_a 26.731419
_cell_length_b 9.444547
_cell_length_c 11.087584
_cell_angle_alpha 90.000000
_cell_angle_beta 90.000000
_cell_angle_gamma 90.000000
_cell_volume 2799.239569
_symmetry_space_group_name_H-M "C M M 2"
_symmetry_group_IT_number 35
_symmetry_cell_setting 'orthorhombic'
loop_
_space_group_symop_operation_xyz
x,y,z
-x,-y,z
-x,y,z
x,-y,z
1/2+x,1/2+y,z
1/2-x,1/2-y,z
1/2-x,1/2+y,z
1/2+x,1/2-y,z
loop_
_atom_site_type_symbol
_atom_site_label
_atom_site_fract_x
_atom_site_fract_y
_atom_site_fract_z
Si Si1 0.684210 0.844677 0.678480
Si Si2 0.592762 0.161884 0.842300
Si Si3 0.299754 0.670414 0.447842
Si Si4 0.250000 0.750000 0.896074
Si Si5 0.500000 0.673191 0.197199
Si Si6 0.608930 0.334362 0.286071
Si Si7 0.153871 0.157090 0.022126
Si Si8 0.500000 0.332053 0.911901
O O1 0.627586 0.830466 0.724953
O O2 0.696611 0.719563 0.586985
O O3 0.716988 0.838467 0.800544
O O4 0.691809 0.000000 0.621449
O O5 0.547043 0.267343 0.844167
O O6 0.577089 0.000000 0.860072
O O7 0.626098 0.218130 0.952765
O O8 0.295470 0.500000 0.435412
O O9 0.250000 0.750000 0.399069
O O10 0.351640 0.720780 0.385064
O O11 0.211332 0.831942 0.981520
O O12 0.500000 0.500000 0.198918
O O13 0.447513 0.721364 0.259132
O O14 0.500000 0.711931 0.054441
O O15 0.601300 0.500000 0.316397
O O16 0.640236 0.328859 0.161495
O O17 0.135118 0.000000 0.984358
O O18 0.500000 0.500000 0.910212
#
# Coordination Sequence:
#
# PCOD9348588 Si02
#       8
#     8   8   8   4   4   8   8   4
#     4  10  21  38  56  79 113 154 192 230 282 336
#     4  10  21  35  54  84 119 148 184 234 287 336
#     4  11  23  38  59  83 113 151 194 241 289 344
#     4  10  20  30  56  84 116 146 188 228 282 336
#     4   9  16  33  60  83 110 144 187 234 282 335
#     4   9  19  35  56  85 115 146 187 238 289 338
#     4  10  19  34  55  82 114 149 189 229 280 349
#     4  11  19  33  60  87 114 154 191 226 282 347
#
# _framework density 18.576474000000001
#
# number of rings (size 3 to 8) (size 9 to 14) (size 15 to 20)
#    0.000    2.000    2.308    1.615    1.077    3.692 
#    0.000    2.308    0.000    0.923    0.000    0.000 
#    0.000    0.000    0.000    0.000    0.000    0.000 
#
# Total GULP energy -144763.976887 kJ/mol
# GULP energy per Si atom -5567.845265 kJ/mol
# Density = 1.853419 g / cm^3
# Si number density = 18.576474 Si / 1000 Ang^3
#
#
#
# Elastic Constant Matrix: (Units=GPa)
#
#
# Indices 1 2 3 4 5 6 
#
# 1 138.0324 32.0998 38.9108 0.0000 0.0000 0.0000
# 2 32.0998 71.9541 12.6050 0.0000 0.0000 0.0000
# 3 38.9108 12.6050 39.1032 0.0000 0.0000 0.0000
# 4 0.0000 0.0000 0.0000 14.4637 0.0000 0.0000
# 5 0.0000 0.0000 0.0000 0.0000 22.8363 0.0000
# 6 0.0000 0.0000 0.0000 0.0000 0.0000 27.1426
#
#
#
# Elastic Compliance Matrix: (Units=1/GPa)
#
#
# Indices 1 2 3 4 5 6 
#
# 1 0.010675 -0.003075 -0.009631 0.000000 0.000000 0.000000
# 2 -0.003075 0.015615 -0.001974 0.000000 0.000000 0.000000
# 3 -0.009631 -0.001974 0.035793 0.000000 0.000000 0.000000
# 4 0.000000 0.000000 0.000000 0.069138 0.000000 0.000000
# 5 0.000000 0.000000 0.000000 0.000000 0.043790 0.000000
# 6 0.000000 0.000000 0.000000 0.000000 0.000000 0.036842
#
#
# Mechanical properties :
#
#
# Convention : Reuss Voigt Hill
#
# Bulk Modulus (GPa) = 30.55880 46.25787 38.40833
# Shear Modulus (GPa) = 19.83171 23.92012 21.87591
#
# Velocity S-wave (km/s) = 3.27092 3.59229 3.43536
# Velocity P-wave (km/s) = 5.54537 6.49318 6.03790
#
# Compressibility (1/GPa) = 0.03272380
#
# Stress axis : x y z
#
# Youngs Moduli (GPa) = 93.67936 64.03968 27.93826
#
# Poissons Ratio (x) = 0.19692 0.26907
# Poissons Ratio (y) = 0.28806 0.05514
# Poissons Ratio (z) = 0.90222 0.12640
#
# Static dielectric constant tensor:
#      x y z
#    x 1.735570 0.000000 0.000000 
#    y 0.000000 1.647510 0.000000 
#    z 0.000000 0.000000 1.623320 
# 
# From -- ./inp_files/14306.got.cif
#   From: 2010.05.17/outbox.cif.g08.bks.cpg/sg35_8_cif.got.tgz:14306.got - 2010.06.03 17:29:28.
