data_PCOD9348179
_publ_section_title
;
Structure prediction by ZEFSAII (Michael W. Deem and Ramdas Pophale) SiO2 
 PCOD9348179
Probable space group: C M M 2
;
_chemical_formula_sum "Si O2"
_cell_formula_units_Z 56
_cell_length_a 7.351079
_cell_length_b 18.795064
_cell_length_c 19.203488
_cell_angle_alpha 90.000000
_cell_angle_beta 90.000000
_cell_angle_gamma 90.000000
_cell_volume 2653.230721
_symmetry_space_group_name_H-M "C M M 2"
_symmetry_group_IT_number 35
_symmetry_cell_setting 'orthorhombic'
loop_
_space_group_symop_operation_xyz
x,y,z
-x,-y,z
-x,y,z
x,-y,z
1/2+x,1/2+y,z
1/2-x,1/2-y,z
1/2-x,1/2+y,z
1/2+x,1/2-y,z
loop_
_atom_site_type_symbol
_atom_site_label
_atom_site_fract_x
_atom_site_fract_y
_atom_site_fract_z
Si Si1 0.277533 0.082931 0.844940
Si Si2 0.777443 0.582243 0.117171
Si Si3 0.782973 0.666234 0.406949
Si Si4 0.785422 0.413740 0.692900
Si Si5 0.283062 0.833860 0.980606
Si Si6 0.282689 0.165953 0.252865
Si Si7 0.277593 0.082836 0.541828
O O1 0.500000 0.083964 0.843331
O O2 0.213864 0.108568 0.768506
O O3 0.215052 0.130331 0.909388
O O4 0.226696 0.000000 0.854578
O O5 0.723438 0.500000 0.113583
O O6 0.715043 0.620143 0.188109
O O7 0.000000 0.583719 0.117475
O O8 0.715789 0.626035 0.049564
O O9 0.750000 0.750000 0.415168
O O10 0.712630 0.646182 0.329967
O O11 0.713196 0.624993 0.474298
O O12 0.000000 0.654446 0.405499
O O13 0.769922 0.500000 0.692365
O O14 0.714150 0.389524 0.617687
O O15 0.000000 0.396906 0.693135
O O16 0.500000 0.844331 0.980039
O O17 0.250000 0.750000 0.983479
O O18 0.500000 0.156358 0.254841
O O19 0.250000 0.250000 0.241819
O O20 0.500000 0.085513 0.543178
O O21 0.228126 0.000000 0.535655
#
# Coordination Sequence:
#
# PCOD9348179 Si02
#       7
#     8   8   8   8   8   8   8
#     4   8  13  23  41  62  81 105 140 176 206 239
#     4   9  17  29  46  67  86 105 136 176 210 239
#     4   9  17  28  42  61  85 112 139 167 203 247
#     4   7  10  18  34  57  82 104 130 170 213 243
#     4  10  19  30  45  64  87 113 138 167 204 246
#     4   9  17  29  45  63  84 111 139 168 204 246
#     4   8  13  22  38  60  83 106 136 175 212 241
#
# _framework density 21.106345000000001
#
# number of rings (size 3 to 8) (size 9 to 14) (size 15 to 20)
#    0.000    3.429    0.000    2.571    0.000    2.286 
#    0.000    3.571    0.000    3.429    0.000    4.000 
#    0.000    3.429    0.000    0.000    0.000    0.000 
#
# Total GULP energy -156130.330420 kJ/mol
# GULP energy per Si atom -5576.083229 kJ/mol
# Density = 2.105831 g / cm^3
# Si number density = 21.106345 Si / 1000 Ang^3
#
#
#
# Elastic Constant Matrix: (Units=GPa)
#
#
# Indices 1 2 3 4 5 6 
#
# 1 78.8039 -2.7741 14.8725 0.0000 0.0000 0.0000
# 2 -2.7741 101.2525 131.4447 0.0000 0.0000 0.0000
# 3 14.8725 131.4447 295.3562 0.0000 0.0000 0.0000
# 4 0.0000 0.0000 0.0000 -2.0678 0.0000 0.0000
# 5 0.0000 0.0000 0.0000 0.0000 -1.6148 0.0000
# 6 0.0000 0.0000 0.0000 0.0000 0.0000 10.7139
#
#
#
# Elastic Compliance Matrix: (Units=1/GPa)
#
#
# Indices 1 2 3 4 5 6 
#
# 1 0.013159 0.002891 -0.001949 0.000000 0.000000 0.000000
# 2 0.002891 0.024024 -0.010837 0.000000 0.000000 0.000000
# 3 -0.001949 -0.010837 0.008307 0.000000 0.000000 0.000000
# 4 0.000000 0.000000 0.000000 -0.483616 0.000000 0.000000
# 5 0.000000 0.000000 0.000000 0.000000 -0.619265 0.000000
# 6 0.000000 0.000000 0.000000 0.000000 0.000000 0.093337
#
#
# Mechanical properties :
#
#
# Convention : Reuss Voigt Hill
#
# Bulk Modulus (GPa) = 38.91113 84.72208 61.81660
# Shear Modulus (GPa) = -5.34362 23.53089 9.09364
#
# Velocity S-wave (km/s) = -1.59288 3.34259 2.07794
# Velocity P-wave (km/s) = 3.88494 7.42462 5.92527
#
# Compressibility (1/GPa) = 0.02569959
#
# Stress axis : x y z
#
# Youngs Moduli (GPa) = 75.99141 41.62435 120.38151
#
# Poissons Ratio (x) = -0.12034 0.23465
# Poissons Ratio (y) = -0.21969 1.30462
# Poissons Ratio (z) = 0.14813 0.45110
#
# Static dielectric constant tensor:
#      x y z
#    x 1.816060 0.000000 0.000000 
#    y 0.000000 1.687310 0.000000 
#    z 0.000000 0.000000 1.792460 
# 
# From -- ./inp_files/18177.got.cif
#   From: 2010.05.17/outbox.cif.g08.bks.cpg/sg35_10_cif.got.tgz:18177.got - 2010.06.03 17:29:28.
