data_PCOD9348712
_publ_section_title
;
Structure prediction by ZEFSAII (Michael W. Deem and Ramdas Pophale) SiO2 
 PCOD9348712
Probable space group: C M M 2
;
_chemical_formula_sum "Si O2"
_cell_formula_units_Z 40
_cell_length_a 31.320749
_cell_length_b 12.554532
_cell_length_c 5.293483
_cell_angle_alpha 90.000000
_cell_angle_beta 90.000000
_cell_angle_gamma 90.000000
_cell_volume 2081.489334
_symmetry_space_group_name_H-M "C M M 2"
_symmetry_group_IT_number 35
_symmetry_cell_setting 'orthorhombic'
loop_
_space_group_symop_operation_xyz
x,y,z
-x,-y,z
-x,y,z
x,-y,z
1/2+x,1/2+y,z
1/2-x,1/2-y,z
1/2-x,1/2+y,z
1/2+x,1/2-y,z
loop_
_atom_site_type_symbol
_atom_site_label
_atom_site_fract_x
_atom_site_fract_y
_atom_site_fract_z
Si Si1 0.547041 0.743051 0.467870
Si Si2 0.700627 0.225502 0.402997
Si Si3 0.841047 0.681822 0.899729
Si Si4 0.633036 0.624937 0.601498
Si Si5 0.935510 0.620672 0.966709
O O1 0.500000 0.691724 0.468052
O O2 0.587392 0.664384 0.494867
O O3 0.551944 0.811569 0.212602
O O4 0.549896 0.821071 0.710500
O O5 0.750000 0.250000 0.439733
O O6 0.671473 0.332200 0.424694
O O7 0.818190 0.344004 0.634709
O O8 0.690774 0.175770 0.132519
O O9 0.857547 0.803697 0.850666
O O10 0.884018 0.619210 0.953440
O O11 0.633858 0.500000 0.641175
O O12 0.951100 0.500000 0.982280
#
# Coordination Sequence:
#
# PCOD9348712 Si02
#       5
#     8   8   8   8   8
#     4  11  23  39  58  87 118 152 199 248 291 344
#     4  10  19  36  62  81 117 150 189 240 289 339
#     4   9  19  37  56  86 116 151 189 243 280 347
#     4   9  21  39  61  85 118 157 192 236 293 348
#     4  11  21  39  61  84 116 157 195 239 299 350
#
# _framework density 19.217009999999998
#
# number of rings (size 3 to 8) (size 9 to 14) (size 15 to 20)
#    1.200    0.800    2.000    1.800    0.000    3.600 
#    0.000    2.000    0.000    2.400    0.000    0.000 
#    0.000    0.000    0.000    0.000    0.000    0.000 
#
# Total GULP energy -111408.637229 kJ/mol
# GULP energy per Si atom -5570.431861 kJ/mol
# Density = 1.917327 g / cm^3
# Si number density = 19.217010 Si / 1000 Ang^3
#
#
#
# Elastic Constant Matrix: (Units=GPa)
#
#
# Indices 1 2 3 4 5 6 
#
# 1 144.1016 -1.8089 16.8745 0.0000 0.0000 0.0000
# 2 -1.8089 53.9694 10.4286 0.0000 0.0000 0.0000
# 3 16.8745 10.4286 125.2508 0.0000 0.0000 0.0000
# 4 0.0000 0.0000 0.0000 8.5932 0.0000 0.0000
# 5 0.0000 0.0000 0.0000 0.0000 48.2621 0.0000
# 6 0.0000 0.0000 0.0000 0.0000 0.0000 -2.2879
#
#
#
# Elastic Compliance Matrix: (Units=1/GPa)
#
#
# Indices 1 2 3 4 5 6 
#
# 1 0.007060 0.000427 -0.000987 0.000000 0.000000 0.000000
# 2 0.000427 0.018858 -0.001628 0.000000 0.000000 0.000000
# 3 -0.000987 -0.001628 0.008252 0.000000 0.000000 0.000000
# 4 0.000000 0.000000 0.000000 0.116372 0.000000 0.000000
# 5 0.000000 0.000000 0.000000 0.000000 0.020720 0.000000
# 6 0.000000 0.000000 0.000000 0.000000 0.000000 -0.437077
#
#
# Mechanical properties :
#
#
# Convention : Reuss Voigt Hill
#
# Bulk Modulus (GPa) = 33.56109 41.59003 37.57556
# Shear Modulus (GPa) = -19.88008 30.76865 5.44428
#
# Velocity S-wave (km/s) = -3.21986 4.00573 1.68499
# Velocity P-wave (km/s) = 1.91803 6.56383 4.83543
#
# Compressibility (1/GPa) = 0.02979641
#
# Stress axis : x y z
#
# Youngs Moduli (GPa) = 141.63365 53.02826 121.17605
#
# Poissons Ratio (x) = -0.02266 0.11958
# Poissons Ratio (y) = -0.06052 0.19724
# Poissons Ratio (z) = 0.13977 0.08631
#
# Static dielectric constant tensor:
#      x y z
#    x 1.678750 0.000000 0.000000 
#    y 0.000000 1.647770 0.000000 
#    z 0.000000 0.000000 1.678960 
# 
# From -- ./inp_files/3932.got.cif
#   From: 2010.05.17/outbox.cif.g08.bks.cpg/sg35_2_cif.got.tgz:3932.got - 2010.06.03 17:29:28.
