data_PCOD9348730
_publ_section_title
;
Structure prediction by ZEFSAII (Michael W. Deem and Ramdas Pophale) SiO2 
 PCOD9348730
Probable space group: C M M 2
;
_chemical_formula_sum "Si O2"
_cell_formula_units_Z 64
_cell_length_a 9.226670
_cell_length_b 30.911247
_cell_length_c 15.382773
_cell_angle_alpha 90.000000
_cell_angle_beta 90.000000
_cell_angle_gamma 90.000000
_cell_volume 4387.288004
_symmetry_space_group_name_H-M "C M M 2"
_symmetry_group_IT_number 35
_symmetry_cell_setting 'orthorhombic'
loop_
_space_group_symop_operation_xyz
x,y,z
-x,-y,z
-x,y,z
x,-y,z
1/2+x,1/2+y,z
1/2-x,1/2-y,z
1/2-x,1/2+y,z
1/2+x,1/2-y,z
loop_
_atom_site_type_symbol
_atom_site_label
_atom_site_fract_x
_atom_site_fract_y
_atom_site_fract_z
Si Si1 0.828082 0.381608 0.508280
Si Si2 0.672127 0.448472 0.840790
Si Si3 0.834525 0.447420 0.017708
Si Si4 0.172275 0.617812 0.715549
Si Si5 0.325723 0.551007 0.384787
Si Si6 0.832657 0.793329 0.718324
Si Si7 0.666911 0.552613 0.188151
Si Si8 0.833086 0.793118 0.506857
O O1 0.805174 0.387743 0.611857
O O2 0.756804 0.420170 0.454264
O O3 0.751431 0.336623 0.482506
O O4 0.000000 0.379120 0.493475
O O5 0.500000 0.440903 0.837996
O O6 0.696763 0.500000 0.828873
O O7 0.753575 0.420799 0.768161
O O8 0.736876 0.435991 0.934874
O O9 0.835923 0.500000 0.020720
O O10 0.766278 0.432496 0.108847
O O11 0.000000 0.432891 0.006620
O O12 0.246925 0.663134 0.741932
O O13 0.000000 0.619303 0.731266
O O14 0.500000 0.555739 0.393567
O O15 0.292672 0.500000 0.394781
O O16 0.287441 0.564647 0.285833
O O17 0.750000 0.750000 0.747608
O O18 0.834172 0.792023 0.612595
O O19 0.000000 0.794358 0.747056
O O20 0.500000 0.565961 0.174301
O O21 0.667094 0.500000 0.187452
O O22 0.750000 0.750000 0.477545
O O23 0.000000 0.793878 0.478010
#
# Coordination Sequence:
#
# PCOD9348730 Si02
#       8
#     8   8   8   8   8   8   8   8
#     4  10  20  31  43  61  86 116 149 183 218 256
#     4  10  20  32  45  61  83 114 150 184 217 256
#     4   9  16  26  42  63  84 106 134 172 218 262
#     4  10  20  32  44  60  85 116 149 184 219 255
#     4   9  18  31  45  61  84 116 151 184 217 254
#     4   9  16  27  44  64  84 107 137 174 217 261
#     4   8  14  26  43  61  81 106 137 174 216 259
#     4   9  16  27  44  63  83 107 137 175 218 261
#
# _framework density 14.587599000000001
#
# number of rings (size 3 to 8) (size 9 to 14) (size 15 to 20)
#    0.000    2.750    0.000    3.000    0.000    8.000 
#    0.000    3.750    0.000    0.000    0.000    0.000 
#    0.000    1.000    0.000    5.500    0.000    6.125 
#
# Total GULP energy -178271.580671 kJ/mol
# GULP energy per Si atom -5570.986896 kJ/mol
# Density = 1.455440 g / cm^3
# Si number density = 14.587599 Si / 1000 Ang^3
#
#
#
# Elastic Constant Matrix: (Units=GPa)
#
#
# Indices 1 2 3 4 5 6 
#
# 1 118.8978 68.3451 62.5004 0.0000 0.0000 0.0000
# 2 68.3451 80.6270 50.2325 0.0000 0.0000 0.0000
# 3 62.5004 50.2325 62.1391 0.0000 0.0000 0.0000
# 4 0.0000 0.0000 0.0000 -1.4650 0.0000 0.0000
# 5 0.0000 0.0000 0.0000 0.0000 23.2440 0.0000
# 6 0.0000 0.0000 0.0000 0.0000 0.0000 25.9142
#
#
#
# Elastic Compliance Matrix: (Units=1/GPa)
#
#
# Indices 1 2 3 4 5 6 
#
# 1 0.020791 -0.009258 -0.013427 0.000000 0.000000 0.000000
# 2 -0.009258 0.029110 -0.014221 0.000000 0.000000 0.000000
# 3 -0.013427 -0.014221 0.041094 0.000000 0.000000 0.000000
# 4 0.000000 0.000000 0.000000 -0.682583 0.000000 0.000000
# 5 0.000000 0.000000 0.000000 0.000000 0.043022 0.000000
# 6 0.000000 0.000000 0.000000 0.000000 0.000000 0.038589
#
#
# Mechanical properties :
#
#
# Convention : Reuss Voigt Hill
#
# Bulk Modulus (GPa) = 58.19691 69.31332 63.75511
# Shear Modulus (GPa) = -11.61611 14.91102 1.64746
#
# Velocity S-wave (km/s) = -2.82494 3.20061 1.06386
# Velocity P-wave (km/s) = 5.41673 7.82796 6.73119
#
# Compressibility (1/GPa) = 0.01718304
#
# Stress axis : x y z
#
# Youngs Moduli (GPa) = 48.09865 34.35211 24.33431
#
# Poissons Ratio (x) = 0.31803 0.32675
# Poissons Ratio (y) = 0.44530 0.34605
# Poissons Ratio (z) = 0.64584 0.48851
#
# Static dielectric constant tensor:
#      x y z
#    x 1.487860 0.000000 0.000000 
#    y 0.000000 1.462700 0.000000 
#    z 0.000000 0.000000 1.469000 
# 
# From -- ./inp_files/16195.got.cif
#   From: 2010.05.17/outbox.cif.g08.bks.cpg/sg35_9_cif.got.tgz:16195.got - 2010.06.03 17:29:28.
