data_PCOD9348345
_publ_section_title
;
Structure prediction by ZEFSAII (Michael W. Deem and Ramdas Pophale) SiO2 
 PCOD9348345
Probable space group: C M M 2
;
_chemical_formula_sum "Si O2"
_cell_formula_units_Z 56
_cell_length_a 9.222259
_cell_length_b 15.412004
_cell_length_c 19.201029
_cell_angle_alpha 90.000000
_cell_angle_beta 90.000000
_cell_angle_gamma 90.000000
_cell_volume 2729.109313
_symmetry_space_group_name_H-M "C M M 2"
_symmetry_group_IT_number 35
_symmetry_cell_setting 'orthorhombic'
loop_
_space_group_symop_operation_xyz
x,y,z
-x,-y,z
-x,y,z
x,-y,z
1/2+x,1/2+y,z
1/2-x,1/2-y,z
1/2-x,1/2+y,z
1/2+x,1/2-y,z
loop_
_atom_site_type_symbol
_atom_site_label
_atom_site_fract_x
_atom_site_fract_y
_atom_site_fract_z
Si Si1 0.337973 0.102584 0.928840
Si Si2 0.326360 0.344014 0.641198
Si Si3 0.825916 0.156093 0.792277
Si Si4 0.326806 0.343053 0.491015
Si Si5 0.169671 0.605643 0.201492
Si Si6 0.163438 0.396883 0.354727
Si Si7 0.833750 0.106627 0.063801
O O1 0.500000 0.139694 0.919602
O O2 0.242845 0.112770 0.859745
O O3 0.352496 0.000000 0.940643
O O4 0.258053 0.137360 0.997355
O O5 0.500000 0.330520 0.641108
O O6 0.250000 0.250000 0.641420
O O7 0.292540 0.385883 0.716255
O O8 0.291414 0.386611 0.566330
O O9 0.750000 0.250000 0.790410
O O10 0.000000 0.161920 0.799099
O O11 0.500000 0.336272 0.486138
O O12 0.250000 0.250000 0.494385
O O13 0.264355 0.382731 0.420691
O O14 0.177910 0.500000 0.200194
O O15 0.215856 0.635438 0.278963
O O16 0.263752 0.636026 0.136492
O O17 0.000000 0.627753 0.192743
O O18 0.150328 0.500000 0.346853
O O19 0.000000 0.362012 0.367713
O O20 0.000000 0.133772 0.057903
O O21 0.832197 0.000000 0.063620
#
# Coordination Sequence:
#
# PCOD9348345 Si02
#       7
#     8   8   8   8   8   8   8
#     4  10  20  33  49  71 100 131 163 199 239 283
#     4   8  16  30  48  70  93 121 158 199 239 281
#     4  10  19  33  53  74  97 125 160 200 242 289
#     4  10  19  32  51  73  97 126 162 201 241 287
#     4   8  14  26  44  65  91 124 159 194 234 281
#     4   9  18  32  49  71 100 131 162 198 241 286
#     4   9  16  26  43  68  95 123 158 198 238 281
#
# _framework density 20.519514000000001
#
# number of rings (size 3 to 8) (size 9 to 14) (size 15 to 20)
#    0.000    2.857    0.000    2.571    0.000    4.571 
#    0.000    2.143    0.000    5.143    0.000    2.000 
#    0.000    0.000    0.000    0.000    0.000    0.000 
#
# Total GULP energy -155976.519045 kJ/mol
# GULP energy per Si atom -5570.589966 kJ/mol
# Density = 2.047281 g / cm^3
# Si number density = 20.519514 Si / 1000 Ang^3
#
#
#
# Elastic Constant Matrix: (Units=GPa)
#
#
# Indices 1 2 3 4 5 6 
#
# 1 109.0120 5.9444 106.0182 0.0000 0.0000 0.0000
# 2 5.9444 16.8855 11.7842 0.0000 0.0000 0.0000
# 3 106.0182 11.7842 235.8040 0.0000 0.0000 0.0000
# 4 0.0000 0.0000 0.0000 11.1515 0.0000 0.0000
# 5 0.0000 0.0000 0.0000 0.0000 40.0991 0.0000
# 6 0.0000 0.0000 0.0000 0.0000 0.0000 16.2320
#
#
#
# Elastic Compliance Matrix: (Units=1/GPa)
#
#
# Indices 1 2 3 4 5 6 
#
# 1 0.016308 -0.000647 -0.007300 0.000000 0.000000 0.000000
# 2 -0.000647 0.061388 -0.002777 0.000000 0.000000 0.000000
# 3 -0.007300 -0.002777 0.007662 0.000000 0.000000 0.000000
# 4 0.000000 0.000000 0.000000 0.089674 0.000000 0.000000
# 5 0.000000 0.000000 0.000000 0.000000 0.024938 0.000000
# 6 0.000000 0.000000 0.000000 0.000000 0.000000 0.061607
#
#
# Mechanical properties :
#
#
# Convention : Reuss Voigt Hill
#
# Bulk Modulus (GPa) = 15.64685 67.68836 41.66761
# Shear Modulus (GPa) = 16.42971 29.36018 22.89494
#
# Velocity S-wave (km/s) = 2.83271 3.78675 3.34393
# Velocity P-wave (km/s) = 4.28263 7.22345 5.93798
#
# Compressibility (1/GPa) = 0.06391063
#
# Stress axis : x y z
#
# Youngs Moduli (GPa) = 61.32033 16.28976 130.52150
#
# Poissons Ratio (x) = 0.01053 0.95277
# Poissons Ratio (y) = 0.03965 0.36247
# Poissons Ratio (z) = 0.44762 0.04524
#
# Static dielectric constant tensor:
#      x y z
#    x 1.696660 0.000000 0.000000 
#    y 0.000000 1.774780 0.000000 
#    z 0.000000 0.000000 1.789530 
# 
# From -- ./inp_files/15588.got.cif
#   From: 2010.05.17/outbox.cif.g08.bks.cpg/sg35_8_cif.got.tgz:15588.got - 2010.06.03 17:29:28.
