data_PCOD9348316
_publ_section_title
;
Structure prediction by ZEFSAII (Michael W. Deem and Ramdas Pophale) SiO2 
 PCOD9348316
Probable space group: C M M 2
;
_chemical_formula_sum "Si O2"
_cell_formula_units_Z 64
_cell_length_a 8.713479
_cell_length_b 29.224300
_cell_length_c 16.139667
_cell_angle_alpha 90.000000
_cell_angle_beta 90.000000
_cell_angle_gamma 90.000000
_cell_volume 4109.890738
_symmetry_space_group_name_H-M "C M M 2"
_symmetry_group_IT_number 35
_symmetry_cell_setting 'orthorhombic'
loop_
_space_group_symop_operation_xyz
x,y,z
-x,-y,z
-x,y,z
x,-y,z
1/2+x,1/2+y,z
1/2-x,1/2-y,z
1/2-x,1/2+y,z
1/2+x,1/2-y,z
loop_
_atom_site_type_symbol
_atom_site_label
_atom_site_fract_x
_atom_site_fract_y
_atom_site_fract_z
Si Si1 0.314821 0.699003 0.237920
Si Si2 0.815455 0.698386 0.919837
Si Si3 0.815539 0.301205 0.737920
Si Si4 0.683754 0.643274 0.402101
Si Si5 0.184545 0.698386 0.556003
Si Si6 0.184840 0.447933 0.140953
Si Si7 0.816246 0.856726 0.073739
Si Si8 0.315160 0.052067 0.334887
O O1 0.500000 0.701028 0.237920
O O2 0.250000 0.750000 0.237920
O O3 0.266366 0.671816 0.320400
O O4 0.266366 0.671816 0.155440
O O5 0.750000 0.750000 0.928205
O O6 0.770338 0.679694 0.828019
O O7 0.000000 0.700712 0.924539
O O8 0.752426 0.667081 0.992901
O O9 0.750000 0.250000 0.737920
O O10 0.770338 0.320306 0.647821
O O11 0.000000 0.299279 0.737920
O O12 0.500000 0.644673 0.406088
O O13 0.752426 0.667081 0.482939
O O14 0.739658 0.591570 0.388677
O O15 0.250000 0.750000 0.547635
O O16 0.000000 0.700712 0.551301
O O17 0.227854 0.500000 0.118275
O O18 0.260342 0.408430 0.087163
O O19 0.227159 0.441159 0.237920
O O20 0.000000 0.444529 0.135836
O O21 0.000000 0.855327 0.069752
O O22 0.500000 0.055471 0.340004
O O23 0.272146 0.000000 0.357565
#
# Coordination Sequence:
#
# PCOD9348316 Si02
#       8
#     8   8   8   8   8   8   8   8
#     4  10  22  34  43  60  91 129 164 193 225 268
#     4  10  19  32  49  71  97 128 162 200 240 284
#     4   8  16  30  48  68  93 122 157 198 242 283
#     4  11  21  33  47  69  97 129 164 197 236 283
#     4  10  19  32  49  71  97 128 162 200 240 284
#     4   9  18  33  52  72  93 121 159 201 243 284
#     4  11  21  33  47  69  97 129 164 197 236 283
#     4   9  18  33  52  72  93 121 159 201 243 284
#
# _framework density 15.572191
#
# number of rings (size 3 to 8) (size 9 to 14) (size 15 to 20)
#    0.000    2.250    1.250    3.000    0.000    5.500 
#    0.000    1.250    0.000    0.000    0.000    0.875 
#    0.000    7.000    0.000    0.000    0.000    0.000 
#
# Total GULP energy -178407.873553 kJ/mol
# GULP energy per Si atom -5575.246049 kJ/mol
# Density = 1.553675 g / cm^3
# Si number density = 15.572191 Si / 1000 Ang^3
#
#
#
# Elastic Constant Matrix: (Units=GPa)
#
#
# Indices 1 2 3 4 5 6 
#
# 1 32.7311 34.2235 42.8642 0.0000 0.0000 0.0000
# 2 34.2235 111.4544 78.3514 0.0000 0.0000 0.0000
# 3 42.8642 78.3514 159.7083 0.0000 0.0000 0.0000
# 4 0.0000 0.0000 0.0000 7.2961 0.0000 0.0000
# 5 0.0000 0.0000 0.0000 0.0000 19.2998 0.0000
# 6 0.0000 0.0000 0.0000 0.0000 0.0000 26.8985
#
#
#
# Elastic Compliance Matrix: (Units=1/GPa)
#
#
# Indices 1 2 3 4 5 6 
#
# 1 0.053072 -0.009591 -0.009539 0.000000 0.000000 0.000000
# 2 -0.009591 0.015429 -0.004995 0.000000 0.000000 0.000000
# 3 -0.009539 -0.004995 0.011272 0.000000 0.000000 0.000000
# 4 0.000000 0.000000 0.000000 0.137059 0.000000 0.000000
# 5 0.000000 0.000000 0.000000 0.000000 0.051814 0.000000
# 6 0.000000 0.000000 0.000000 0.000000 0.000000 0.037177
#
#
# Mechanical properties :
#
#
# Convention : Reuss Voigt Hill
#
# Bulk Modulus (GPa) = 31.72247 68.30800 50.01523
# Shear Modulus (GPa) = 13.71441 20.59586 17.15514
#
# Velocity S-wave (km/s) = 2.97088 3.64071 3.32272
# Velocity P-wave (km/s) = 5.67306 7.85071 6.84899
#
# Compressibility (1/GPa) = 0.03152340
#
# Stress axis : x y z
#
# Youngs Moduli (GPa) = 18.84233 64.81402 88.71408
#
# Poissons Ratio (x) = 0.62161 0.84624
# Poissons Ratio (y) = 0.18071 0.44314
# Poissons Ratio (z) = 0.17974 0.32376
#
# Static dielectric constant tensor:
#      x y z
#    x 1.525160 0.000000 0.000000 
#    y 0.000000 1.488430 0.000000 
#    z 0.000000 0.000000 1.538190 
# 
# From -- ./inp_files/15954.got.cif
#   From: 2010.05.17/outbox.cif.g08.bks.cpg/sg35_8_cif.got.tgz:15954.got - 2010.06.03 17:29:28.
