data_PCOD9348003
_publ_section_title
;
Structure prediction by ZEFSAII (Michael W. Deem and Ramdas Pophale) SiO2 
 PCOD9348003
Probable space group: P N N 2
;
_chemical_formula_sum "Si O2"
_cell_formula_units_Z 20
_cell_length_a 7.797714
_cell_length_b 15.800409
_cell_length_c 6.982195
_cell_angle_alpha 90.000000
_cell_angle_beta 90.000000
_cell_angle_gamma 90.000000
_cell_volume 860.255791
_symmetry_space_group_name_H-M "P N N 2"
_symmetry_group_IT_number 34
_symmetry_cell_setting 'orthorhombic'
loop_
_space_group_symop_operation_xyz
x,y,z
-x,-y,z
1/2-x,1/2+y,1/2+z
1/2+x,1/2-y,1/2+z
loop_
_atom_site_type_symbol
_atom_site_label
_atom_site_fract_x
_atom_site_fract_y
_atom_site_fract_z
Si Si1 0.347425 0.093593 0.096420
Si Si2 0.500000 0.500000 0.217270
Si Si3 0.211347 0.460964 0.935842
Si Si4 0.523987 0.329525 0.444837
Si Si5 0.000000 0.500000 0.255423
Si Si6 0.695277 0.192522 0.178329
O O1 0.524127 0.146423 0.097513
O O2 0.337571 0.028131 0.271505
O O3 0.175141 0.148562 0.095202
O O4 0.362265 0.039921 0.899886
O O5 0.472190 0.418096 0.347578
O O6 0.345322 0.508265 0.068770
O O7 0.270159 0.376675 0.828601
O O8 0.072397 0.433870 0.098623
O O9 0.619713 0.272147 0.289258
O O10 0.350838 0.290247 0.533151
#
# Coordination Sequence:
#
# PCOD9348003 Si02
#       6
#     4   2   4   4   2   4
#     4  12  25  50  78 109 158 201 260 323 398 482
#     4  12  26  48  78 110 154 212 266 316 404 482
#     4  12  24  46  80 108 149 202 261 321 398 470
#     4  12  30  48  79 112 163 206 267 328 400 474
#     4  12  20  44  80 106 140 204 250 318 388 478
#     4  12  28  49  73 119 153 205 263 331 391 471
#
# _framework density 23.248899999999999
#
# number of rings (size 3 to 8) (size 9 to 14) (size 15 to 20)
#    0.000    0.000    6.000    3.600    8.400    1.600 
#    0.000    0.000    0.000    0.000    0.000    0.000 
#    0.000    0.000    0.000    0.000    0.000    0.000 
#
# Total GULP energy -111723.379055 kJ/mol
# GULP energy per Si atom -5586.168953 kJ/mol
# Density = 2.319598 g / cm^3
# Si number density = 23.248900 Si / 1000 Ang^3
#
#
#
# Elastic Constant Matrix: (Units=GPa)
#
#
# Indices 1 2 3 4 5 6 
#
# 1 132.6454 46.6262 61.9888 0.0000 0.0000 0.0000
# 2 46.6262 91.0989 36.0916 0.0000 0.0000 0.0000
# 3 61.9888 36.0916 128.5619 0.0000 0.0000 0.0000
# 4 0.0000 0.0000 0.0000 17.8811 0.0000 0.0000
# 5 0.0000 0.0000 0.0000 0.0000 19.9498 0.0000
# 6 0.0000 0.0000 0.0000 0.0000 0.0000 27.2728
#
#
#
# Elastic Compliance Matrix: (Units=1/GPa)
#
#
# Indices 1 2 3 4 5 6 
#
# 1 0.010845 -0.003914 -0.004130 0.000000 0.000000 0.000000
# 2 -0.003914 0.013764 -0.001977 0.000000 0.000000 0.000000
# 3 -0.004130 -0.001977 0.010325 0.000000 0.000000 0.000000
# 4 0.000000 0.000000 0.000000 0.055925 0.000000 0.000000
# 5 0.000000 0.000000 0.000000 0.000000 0.050126 0.000000
# 6 0.000000 0.000000 0.000000 0.000000 0.000000 0.036667
#
#
# Mechanical properties :
#
#
# Convention : Reuss Voigt Hill
#
# Bulk Modulus (GPa) = 67.15439 71.30217 69.22828
# Shear Modulus (GPa) = 24.67227 26.86070 25.76648
#
# Velocity S-wave (km/s) = 3.26118 3.40274 3.33271
# Velocity P-wave (km/s) = 6.56719 6.79513 6.68213
#
# Compressibility (1/GPa) = 0.01489106
#
# Stress axis : x y z
#
# Youngs Moduli (GPa) = 92.20819 72.65547 96.85492
#
# Poissons Ratio (x) = 0.28440 0.40004
# Poissons Ratio (y) = 0.36094 0.19143
# Poissons Ratio (z) = 0.38084 0.14360
#
# Static dielectric constant tensor:
#      x y z
#    x 2.148820 0.000000 0.000000 
#    y 0.000000 1.901580 0.000000 
#    z 0.000000 0.000000 1.867140 
# 
# From -- ./inp_files/436.got.cif
#   From: 2010.05.17/outbox.cif.g08.bks.cpg/sg34_1_cif.got.tgz:436.got - 2010.06.03 17:23:11.
