data_PCOD9348576
_publ_section_title
;
Structure prediction by ZEFSAII (Michael W. Deem and Ramdas Pophale) SiO2 
 PCOD9348576
Probable space group: C M M 2
;
_chemical_formula_sum "Si O2"
_cell_formula_units_Z 48
_cell_length_a 32.218735
_cell_length_b 14.019237
_cell_length_c 4.827301
_cell_angle_alpha 90.000000
_cell_angle_beta 90.000000
_cell_angle_gamma 90.000000
_cell_volume 2180.405365
_symmetry_space_group_name_H-M "C M M 2"
_symmetry_group_IT_number 35
_symmetry_cell_setting 'orthorhombic'
loop_
_space_group_symop_operation_xyz
x,y,z
-x,-y,z
-x,y,z
x,-y,z
1/2+x,1/2+y,z
1/2-x,1/2-y,z
1/2-x,1/2+y,z
1/2+x,1/2-y,z
loop_
_atom_site_type_symbol
_atom_site_label
_atom_site_fract_x
_atom_site_fract_y
_atom_site_fract_z
Si Si1 0.674137 0.608909 0.457560
Si Si2 0.305861 0.106682 0.337944
Si Si3 0.591680 0.699087 0.721675
Si Si4 0.952283 0.111136 0.238135
Si Si5 0.137293 0.611664 0.810880
Si Si6 0.226822 0.839291 0.969228
O O1 0.669320 0.500000 0.355128
O O2 0.632215 0.649828 0.586748
O O3 0.707345 0.607323 0.709418
O O4 0.690315 0.671904 0.197628
O O5 0.325780 0.151913 0.611206
O O6 0.298579 0.000000 0.442604
O O7 0.342923 0.110555 0.114897
O O8 0.264041 0.126161 0.169223
O O9 0.555801 0.677964 0.500929
O O10 0.601468 0.810007 0.779757
O O11 0.578809 0.645241 0.000398
O O12 0.000000 0.118409 0.143852
O O13 0.944724 0.000000 0.311645
O O14 0.126583 0.500000 0.744181
O O15 0.250000 0.750000 0.836462
#
# Coordination Sequence:
#
# PCOD9348576 Si02
#       6
#     8   8   8   8   8   8
#     4  12  24  37  56  85 119 157 197 247 306 352
#     4  10  19  34  53  76 111 157 206 250 287 330
#     4  12  23  41  65  91 123 155 192 241 297 356
#     4  11  24  43  68  95 121 152 189 231 287 361
#     4  10  21  37  60  88 118 158 206 249 290 337
#     4  12  23  37  54  78 114 157 206 252 295 343
#
# _framework density 22.014257000000001
#
# number of rings (size 3 to 8) (size 9 to 14) (size 15 to 20)
#    0.000    0.833    0.000    9.000    0.000    2.667 
#    0.000    0.000    0.000    3.000    0.000    0.000 
#    0.000    0.000    0.000    0.000    0.000    0.000 
#
# Total GULP energy -134066.923788 kJ/mol
# GULP energy per Si atom -5586.121825 kJ/mol
# Density = 2.196415 g / cm^3
# Si number density = 22.014257 Si / 1000 Ang^3
#
#
#
# Elastic Constant Matrix: (Units=GPa)
#
#
# Indices 1 2 3 4 5 6 
#
# 1 74.5398 47.9129 10.2650 0.0000 0.0000 0.0000
# 2 47.9129 85.8378 -4.3613 0.0000 0.0000 0.0000
# 3 10.2650 -4.3613 82.2987 0.0000 0.0000 0.0000
# 4 0.0000 0.0000 0.0000 21.8135 0.0000 0.0000
# 5 0.0000 0.0000 0.0000 0.0000 38.6823 0.0000
# 6 0.0000 0.0000 0.0000 0.0000 0.0000 17.7164
#
#
#
# Elastic Compliance Matrix: (Units=1/GPa)
#
#
# Indices 1 2 3 4 5 6 
#
# 1 0.021819 -0.012351 -0.003376 0.000000 0.000000 0.000000
# 2 -0.012351 0.018672 0.002530 0.000000 0.000000 0.000000
# 3 -0.003376 0.002530 0.012706 0.000000 0.000000 0.000000
# 4 0.000000 0.000000 0.000000 0.045843 0.000000 0.000000
# 5 0.000000 0.000000 0.000000 0.000000 0.025852 0.000000
# 6 0.000000 0.000000 0.000000 0.000000 0.000000 0.056445
#
#
# Mechanical properties :
#
#
# Convention : Reuss Voigt Hill
#
# Bulk Modulus (GPa) = 37.30736 38.92327 38.11532
# Shear Modulus (GPa) = 23.07708 28.23310 25.65509
#
# Velocity S-wave (km/s) = 3.24123 3.58507 3.41748
# Velocity P-wave (km/s) = 5.56696 5.90392 5.73792
#
# Compressibility (1/GPa) = 0.02680436
#
# Stress axis : x y z
#
# Youngs Moduli (GPa) = 45.83090 53.55527 78.70289
#
# Poissons Ratio (x) = 0.66144 0.26570
# Poissons Ratio (y) = 0.56604 -0.19912
# Poissons Ratio (z) = 0.15472 -0.13549
#
# Static dielectric constant tensor:
#      x y z
#    x 1.817840 0.000000 0.000000 
#    y 0.000000 1.884220 0.000000 
#    z 0.000000 0.000000 1.822270 
# 
# From -- ./inp_files/3691.got.cif
#   From: 2010.05.17/outbox.cif.g08.bks.cpg/sg35_2_cif.got.tgz:3691.got - 2010.06.03 17:29:28.
