data_PCOD9348668
_publ_section_title
;
Structure prediction by ZEFSAII (Michael W. Deem and Ramdas Pophale) SiO2 
 PCOD9348668
Probable space group: C M M 2
;
_chemical_formula_sum "Si O2"
_cell_formula_units_Z 40
_cell_length_a 8.583112
_cell_length_b 15.931515
_cell_length_c 14.919394
_cell_angle_alpha 90.000000
_cell_angle_beta 90.000000
_cell_angle_gamma 90.000000
_cell_volume 2040.107440
_symmetry_space_group_name_H-M "C M M 2"
_symmetry_group_IT_number 35
_symmetry_cell_setting 'orthorhombic'
loop_
_space_group_symop_operation_xyz
x,y,z
-x,-y,z
-x,y,z
x,-y,z
1/2+x,1/2+y,z
1/2-x,1/2-y,z
1/2-x,1/2+y,z
1/2+x,1/2-y,z
loop_
_atom_site_type_symbol
_atom_site_label
_atom_site_fract_x
_atom_site_fract_y
_atom_site_fract_z
Si Si1 0.690026 0.000000 0.748111
Si Si2 0.311790 0.838441 0.634565
Si Si3 0.814777 0.398560 0.245832
Si Si4 0.313257 0.000000 0.954320
Si Si5 0.189557 0.402015 0.443965
Si Si6 0.316163 0.659908 0.060283
O O1 0.739467 0.083084 0.694750
O O2 0.740166 0.000000 0.851093
O O3 0.500000 0.000000 0.747295
O O4 0.500000 0.837687 0.634126
O O5 0.250000 0.750000 0.668343
O O6 0.257606 0.853122 0.531881
O O7 0.796254 0.500000 0.240238
O O8 0.760043 0.372496 0.345397
O O9 0.727337 0.355841 0.164222
O O10 0.000000 0.381659 0.237217
O O11 0.500000 0.000000 0.956247
O O12 0.255364 0.917125 0.004984
O O13 0.233183 0.500000 0.454208
O O14 0.000000 0.400277 0.442591
O O15 0.500000 0.659334 0.049473
O O16 0.250000 0.750000 0.032076
#
# Coordination Sequence:
#
# PCOD9348668 Si02
#       6
#     4   8   8   4   8   8
#     4   9  20  39  64  85 110 150 191 233 288 355
#     4  10  19  35  58  86 117 151 193 235 280 339
#     4   9  17  32  57  87 119 157 198 239 286 343
#     4  11  23  43  66  89 116 150 195 249 306 359
#     4   8  14  28  54  83 113 155 198 230 272 337
#     4  12  25  41  62  89 120 157 198 244 297 354
#
# _framework density 19.606809999999999
#
# number of rings (size 3 to 8) (size 9 to 14) (size 15 to 20)
#    0.000    2.200    2.000    3.300    0.000    1.600 
#    0.000    7.500    0.000    1.200    0.000    0.000 
#    0.000    0.000    0.000    0.000    0.000    0.000 
#
# Total GULP energy -111680.831160 kJ/mol
# GULP energy per Si atom -5584.041558 kJ/mol
# Density = 1.956218 g / cm^3
# Si number density = 19.606810 Si / 1000 Ang^3
#
#
#
# Elastic Constant Matrix: (Units=GPa)
#
#
# Indices 1 2 3 4 5 6 
#
# 1 49.6479 36.1039 32.0162 0.0000 0.0000 0.0000
# 2 36.1039 154.7091 85.5456 0.0000 0.0000 0.0000
# 3 32.0162 85.5456 141.4367 0.0000 0.0000 0.0000
# 4 0.0000 0.0000 0.0000 -3.4937 0.0000 0.0000
# 5 0.0000 0.0000 0.0000 0.0000 7.0265 0.0000
# 6 0.0000 0.0000 0.0000 0.0000 0.0000 26.1602
#
#
#
# Elastic Compliance Matrix: (Units=1/GPa)
#
#
# Indices 1 2 3 4 5 6 
#
# 1 0.025202 -0.004097 -0.003227 0.000000 0.000000 0.000000
# 2 -0.004097 0.010378 -0.005349 0.000000 0.000000 0.000000
# 3 -0.003227 -0.005349 0.011036 0.000000 0.000000 0.000000
# 4 0.000000 0.000000 0.000000 -0.286228 0.000000 0.000000
# 5 0.000000 0.000000 0.000000 0.000000 0.142319 0.000000
# 6 0.000000 0.000000 0.000000 0.000000 0.000000 0.038226
#
#
# Mechanical properties :
#
#
# Convention : Reuss Voigt Hill
#
# Bulk Modulus (GPa) = 47.01556 72.56945 59.79250
# Shear Modulus (GPa) = -187.75580 18.74713 -84.50434
#
# Velocity S-wave (km/s) = -9.79635 3.09553 -6.57214
# Velocity P-wave (km/s) = 10.19444 7.06181 5.19892
#
# Compressibility (1/GPa) = 0.02126956
#
# Stress axis : x y z
#
# Youngs Moduli (GPa) = 39.67922 96.35962 90.61067
#
# Poissons Ratio (x) = 0.39479 0.29238
# Poissons Ratio (y) = 0.16257 0.48471
# Poissons Ratio (z) = 0.12804 0.51547
#
# Static dielectric constant tensor:
#      x y z
#    x 1.660210 0.000000 0.000000 
#    y 0.000000 1.667570 0.000000 
#    z 0.000000 0.000000 1.693450 
# 
# From -- ./inp_files/14740.got.cif
#   From: 2010.05.17/outbox.cif.g08.bks.cpg/sg35_8_cif.got.tgz:14740.got - 2010.06.03 17:29:28.
