data_PCOD9348035
_publ_section_title
;
Structure prediction by ZEFSAII (Michael W. Deem and Ramdas Pophale) SiO2 
 PCOD9348035
Probable space group: P N N 2
;
_chemical_formula_sum "Si O2"
_cell_formula_units_Z 12
_cell_length_a 10.238698
_cell_length_b 5.333902
_cell_length_c 8.149359
_cell_angle_alpha 90.000000
_cell_angle_beta 90.000000
_cell_angle_gamma 90.000000
_cell_volume 445.054519
_symmetry_space_group_name_H-M "P N N 2"
_symmetry_group_IT_number 34
_symmetry_cell_setting 'orthorhombic'
loop_
_space_group_symop_operation_xyz
x,y,z
-x,-y,z
1/2-x,1/2+y,1/2+z
1/2+x,1/2-y,1/2+z
loop_
_atom_site_type_symbol
_atom_site_label
_atom_site_fract_x
_atom_site_fract_y
_atom_site_fract_z
Si Si1 0.085393 0.252965 0.188960
Si Si2 0.532931 0.241391 0.216974
Si Si3 0.692874 0.985112 0.004415
O O1 0.175295 0.355002 0.340506
O O2 0.000000 0.500000 0.162585
O O3 0.179731 0.172441 0.040233
O O4 0.000000 0.000000 0.225965
O O5 0.500000 0.500000 0.291623
O O6 0.500000 0.000000 0.321776
O O7 0.429216 0.198695 0.061321
O O8 0.676123 0.198170 0.146289
#
# Coordination Sequence:
#
# PCOD9348035 Si02
#       3
#     4   4   4
#     4  12  26  43  78 113 164 202 269 317 414 458
#     4   8  17  35  66  97 139 192 248 301 404 417
#     4   9  23  41  71 107 154 203 252 330 384 480
#
# _framework density 26.962986999999998
#
# number of rings (size 3 to 8) (size 9 to 14) (size 15 to 20)
#    2.000    0.000    3.333    1.000    4.667    0.000 
#    0.000    1.667    7.333    0.000    0.000    0.000 
#    0.000    0.000    0.000    0.000    0.000    0.000 
#
# Total GULP energy -66858.596525 kJ/mol
# GULP energy per Si atom -5571.549710 kJ/mol
# Density = 2.690162 g / cm^3
# Si number density = 26.962987 Si / 1000 Ang^3
#
#
#
# Elastic Constant Matrix: (Units=GPa)
#
#
# Indices 1 2 3 4 5 6 
#
# 1 119.2891 84.2897 33.3121 0.0000 0.0000 0.0000
# 2 84.2897 256.2114 48.3166 0.0000 0.0000 0.0000
# 3 33.3121 48.3166 122.4392 0.0000 0.0000 0.0000
# 4 0.0000 0.0000 0.0000 0.7184 0.0000 0.0000
# 5 0.0000 0.0000 0.0000 0.0000 23.2608 0.0000
# 6 0.0000 0.0000 0.0000 0.0000 0.0000 54.3209
#
#
#
# Elastic Compliance Matrix: (Units=1/GPa)
#
#
# Indices 1 2 3 4 5 6 
#
# 1 0.011251 -0.003375 -0.001729 0.000000 0.000000 0.000000
# 2 -0.003375 0.005229 -0.001145 0.000000 0.000000 0.000000
# 3 -0.001729 -0.001145 0.009090 0.000000 0.000000 0.000000
# 4 0.000000 0.000000 0.000000 1.391900 0.000000 0.000000
# 5 0.000000 0.000000 0.000000 0.000000 0.042991 0.000000
# 6 0.000000 0.000000 0.000000 0.000000 0.000000 0.018409
#
#
# Mechanical properties :
#
#
# Convention : Reuss Voigt Hill
#
# Bulk Modulus (GPa) = 76.50741 92.19740 84.35241
# Shear Modulus (GPa) = 3.34286 37.79477 20.56881
#
# Velocity S-wave (km/s) = 1.11467 3.74803 2.76498
# Velocity P-wave (km/s) = 5.48573 7.28001 6.44561
#
# Compressibility (1/GPa) = 0.01307063
#
# Stress axis : x y z
#
# Youngs Moduli (GPa) = 88.88241 191.22556 110.01458
#
# Poissons Ratio (x) = 0.64544 0.19022
# Poissons Ratio (y) = 0.30000 0.12600
# Poissons Ratio (z) = 0.15368 0.21901
#
# Static dielectric constant tensor:
#      x y z
#    x 2.249130 0.000000 0.000000 
#    y 0.000000 2.137920 0.000000 
#    z 0.000000 0.000000 2.113530 
# 
# From -- ./inp_files/4598.got.cif
#   From: 2010.05.17/outbox.cif.g08.bks.cpg/sg34_3_cif.got.tgz:4598.got - 2010.06.03 17:23:11.
