data_PCOD9348711
_publ_section_title
;
Structure prediction by ZEFSAII (Michael W. Deem and Ramdas Pophale) SiO2 
 PCOD9348711
Probable space group: C M M 2
;
_chemical_formula_sum "Si O2"
_cell_formula_units_Z 48
_cell_length_a 8.830422
_cell_length_b 15.255395
_cell_length_c 19.398206
_cell_angle_alpha 90.000000
_cell_angle_beta 90.000000
_cell_angle_gamma 90.000000
_cell_volume 2613.162895
_symmetry_space_group_name_H-M "C M M 2"
_symmetry_group_IT_number 35
_symmetry_cell_setting 'orthorhombic'
loop_
_space_group_symop_operation_xyz
x,y,z
-x,-y,z
-x,y,z
x,-y,z
1/2+x,1/2+y,z
1/2-x,1/2-y,z
1/2-x,1/2+y,z
1/2+x,1/2-y,z
loop_
_atom_site_type_symbol
_atom_site_label
_atom_site_fract_x
_atom_site_fract_y
_atom_site_fract_z
Si Si1 0.182603 0.500000 0.232540
Si Si2 0.823449 0.894661 0.853035
Si Si3 0.179486 0.341858 0.994715
Si Si4 0.317159 0.000000 0.447326
Si Si5 0.182444 0.842567 0.698763
Si Si6 0.816861 0.000000 0.599297
Si Si7 0.817368 0.651457 0.341125
Si Si8 0.680532 0.500000 0.080973
O O1 0.221396 0.411901 0.276087
O O2 0.262505 0.500000 0.159244
O O3 0.000000 0.500000 0.224359
O O4 0.771870 0.865153 0.777289
O O5 0.000000 0.868078 0.862977
O O6 0.818952 0.000000 0.855217
O O7 0.724723 0.857953 0.915089
O O8 0.250000 0.250000 0.016317
O O9 0.254084 0.416951 0.040451
O O10 0.000000 0.342841 0.002279
O O11 0.271845 0.911487 0.405587
O O12 0.500000 0.000000 0.448599
O O13 0.252000 0.000000 0.523670
O O14 0.250000 0.750000 0.678984
O O15 0.000000 0.840352 0.699083
O O16 0.229546 0.916331 0.644680
O O17 0.000000 0.000000 0.594274
O O18 0.750000 0.750000 0.340439
O O19 0.000000 0.659751 0.342454
O O20 0.500000 0.500000 0.077617
#
# Coordination Sequence:
#
# PCOD9348711 Si02
#       8
#     4   8   8   4   8   4   8   4
#     4   9  20  40  61  85 119 156 188 229 282 338
#     4  10  19  36  61  83 111 150 192 244 300 351
#     4  12  25  41  61  87 117 154 199 246 296 353
#     4   9  20  38  57  83 117 152 186 227 280 334
#     4  10  21  37  56  80 110 149 192 238 291 345
#     4  10  21  38  56  78 112 152 191 232 284 340
#     4   9  19  37  62  88 117 150 187 229 277 333
#     4  12  25  42  62  88 122 158 195 240 290 346
#
# _framework density 18.368545000000001
#
# number of rings (size 3 to 8) (size 9 to 14) (size 15 to 20)
#    0.000    1.833    1.667    3.750    0.000    5.333 
#    0.000    6.667    0.000    0.000    0.000    0.000 
#    0.000    0.000    0.000    0.000    0.000    0.000 
#
# Total GULP energy -134023.621927 kJ/mol
# GULP energy per Si atom -5584.317580 kJ/mol
# Density = 1.832674 g / cm^3
# Si number density = 18.368545 Si / 1000 Ang^3
#
#
#
# Elastic Constant Matrix: (Units=GPa)
#
#
# Indices 1 2 3 4 5 6 
#
# 1 73.9930 64.1066 66.3694 0.0000 0.0000 0.0000
# 2 64.1066 195.4145 98.6394 0.0000 0.0000 0.0000
# 3 66.3694 98.6394 162.0137 0.0000 0.0000 0.0000
# 4 0.0000 0.0000 0.0000 54.4196 0.0000 0.0000
# 5 0.0000 0.0000 0.0000 0.0000 35.0934 0.0000
# 6 0.0000 0.0000 0.0000 0.0000 0.0000 33.7320
#
#
#
# Elastic Compliance Matrix: (Units=1/GPa)
#
#
# Indices 1 2 3 4 5 6 
#
# 1 0.023444 -0.004105 -0.007105 0.000000 0.000000 0.000000
# 2 -0.004105 0.008106 -0.003254 0.000000 0.000000 0.000000
# 3 -0.007105 -0.003254 0.011064 0.000000 0.000000 0.000000
# 4 0.000000 0.000000 0.000000 0.018376 0.000000 0.000000
# 5 0.000000 0.000000 0.000000 0.000000 0.028495 0.000000
# 6 0.000000 0.000000 0.000000 0.000000 0.000000 0.029645
#
#
# Mechanical properties :
#
#
# Convention : Reuss Voigt Hill
#
# Bulk Modulus (GPa) = 73.06007 98.85024 85.95515
# Shear Modulus (GPa) = 32.76118 38.13604 35.44861
#
# Velocity S-wave (km/s) = 4.22779 4.56143 4.39778
# Velocity P-wave (km/s) = 7.98080 9.03737 8.52547
#
# Compressibility (1/GPa) = 0.01368737
#
# Stress axis : x y z
#
# Youngs Moduli (GPa) = 42.65542 123.36005 90.38352
#
# Poissons Ratio (x) = 0.50633 0.64216
# Poissons Ratio (y) = 0.17508 0.29411
# Poissons Ratio (z) = 0.30306 0.40141
#
# Static dielectric constant tensor:
#      x y z
#    x 1.617860 0.000000 0.000000 
#    y 0.000000 1.618450 0.000000 
#    z 0.000000 0.000000 1.617950 
# 
# From -- ./inp_files/17965.got.cif
#   From: 2010.05.17/outbox.cif.g08.bks.cpg/sg35_9_cif.got.tgz:17965.got - 2010.06.03 17:29:28.
