data_PCOD9348222
_publ_section_title
;
Structure prediction by ZEFSAII (Michael W. Deem and Ramdas Pophale) SiO2 
 PCOD9348222
Probable space group: C M M 2
;
_chemical_formula_sum "Si O2"
_cell_formula_units_Z 48
_cell_length_a 8.117125
_cell_length_b 27.528496
_cell_length_c 11.951922
_cell_angle_alpha 90.000000
_cell_angle_beta 90.000000
_cell_angle_gamma 90.000000
_cell_volume 2670.683780
_symmetry_space_group_name_H-M "C M M 2"
_symmetry_group_IT_number 35
_symmetry_cell_setting 'orthorhombic'
loop_
_space_group_symop_operation_xyz
x,y,z
-x,-y,z
-x,y,z
x,-y,z
1/2+x,1/2+y,z
1/2-x,1/2-y,z
1/2-x,1/2+y,z
1/2+x,1/2-y,z
loop_
_atom_site_type_symbol
_atom_site_label
_atom_site_fract_x
_atom_site_fract_y
_atom_site_fract_z
Si Si1 0.195878 0.195776 0.856390
Si Si2 0.701203 0.055187 0.228783
Si Si3 0.187261 0.618993 0.425349
Si Si4 0.696282 0.195442 0.599497
Si Si5 0.689256 0.696690 0.265567
Si Si6 0.303702 0.142211 0.065637
O O1 0.250000 0.250000 0.894261
O O2 0.259107 0.190343 0.729491
O O3 0.000000 0.194475 0.855278
O O4 0.261875 0.153642 0.937679
O O5 0.500000 0.056004 0.233595
O O6 0.760635 0.075160 0.350550
O O7 0.747017 0.091889 0.127578
O O8 0.753924 0.000000 0.209596
O O9 0.263742 0.649286 0.528671
O O10 0.191167 0.660567 0.330683
O O11 0.000000 0.605177 0.456082
O O12 0.500000 0.194396 0.585870
O O13 0.750000 0.250000 0.563289
O O14 0.500000 0.689380 0.299809
O O15 0.750000 0.750000 0.287811
O O16 0.710373 0.683497 0.136135
O O17 0.500000 0.147085 0.079378
#
# Coordination Sequence:
#
# PCOD9348222 Si02
#       6
#     8   8   8   8   8   8
#     4  11  21  33  49  70  98 132 167 200 236 282
#     4   8  15  30  53  77  97 120 154 200 250 291
#     4   9  18  31  48  71  97 125 159 198 239 284
#     4  10  19  31  47  69  98 132 166 199 235 279
#     4  11  20  29  43  65  95 127 158 192 234 284
#     4  10  19  32  49  70  96 124 158 199 241 287
#
# _framework density 17.972925
#
# number of rings (size 3 to 8) (size 9 to 14) (size 15 to 20)
#    0.000    2.167    0.000    7.000    0.000    2.667 
#    0.000    0.000    0.000   13.500    0.000    4.667 
#    0.000    0.000    0.000    0.000    0.000    0.000 
#
# Total GULP energy -133649.098124 kJ/mol
# GULP energy per Si atom -5568.712422 kJ/mol
# Density = 1.793202 g / cm^3
# Si number density = 17.972925 Si / 1000 Ang^3
#
#
#
# Elastic Constant Matrix: (Units=GPa)
#
#
# Indices 1 2 3 4 5 6 
#
# 1 56.1988 6.0261 4.6176 0.0000 0.0000 0.0000
# 2 6.0261 90.4122 48.8765 0.0000 0.0000 0.0000
# 3 4.6176 48.8765 96.5519 0.0000 0.0000 0.0000
# 4 0.0000 0.0000 0.0000 25.3602 0.0000 0.0000
# 5 0.0000 0.0000 0.0000 0.0000 18.1906 0.0000
# 6 0.0000 0.0000 0.0000 0.0000 0.0000 9.2510
#
#
#
# Elastic Compliance Matrix: (Units=1/GPa)
#
#
# Indices 1 2 3 4 5 6 
#
# 1 0.017931 -0.001007 -0.000348 0.000000 0.000000 0.000000
# 2 -0.001007 0.015284 -0.007689 0.000000 0.000000 0.000000
# 3 -0.000348 -0.007689 0.014266 0.000000 0.000000 0.000000
# 4 0.000000 0.000000 0.000000 0.039432 0.000000 0.000000
# 5 0.000000 0.000000 0.000000 0.000000 0.054973 0.000000
# 6 0.000000 0.000000 0.000000 0.000000 0.000000 0.108096
#
#
# Mechanical properties :
#
#
# Convention : Reuss Voigt Hill
#
# Bulk Modulus (GPa) = 34.02152 40.24480 37.13316
# Shear Modulus (GPa) = 17.99416 22.80321 20.39869
#
# Velocity S-wave (km/s) = 3.16758 3.56582 3.37258
# Velocity P-wave (km/s) = 5.68757 6.27646 5.98926
#
# Compressibility (1/GPa) = 0.02939316
#
# Stress axis : x y z
#
# Youngs Moduli (GPa) = 55.77081 65.42693 70.09629
#
# Poissons Ratio (x) = 0.06589 0.02437
# Poissons Ratio (y) = 0.05617 0.53897
# Poissons Ratio (z) = 0.01939 0.50307
#
# Static dielectric constant tensor:
#      x y z
#    x 1.657370 0.000000 0.000000 
#    y 0.000000 1.610990 0.000000 
#    z 0.000000 0.000000 1.660930 
# 
# From -- ./inp_files/11460.got.cif
#   From: 2010.05.17/outbox.cif.g08.bks.cpg/sg35_6_cif.got.tgz:11460.got - 2010.06.03 17:29:28.
