data_PCOD9348864
_publ_section_title
;
Structure prediction by ZEFSAII (Michael W. Deem and Ramdas Pophale) SiO2 
 PCOD9348864
Probable space group: C M M 2
;
_chemical_formula_sum "Si O2"
_cell_formula_units_Z 64
_cell_length_a 8.242286
_cell_length_b 30.367768
_cell_length_c 12.808853
_cell_angle_alpha 90.000000
_cell_angle_beta 90.000000
_cell_angle_gamma 90.000000
_cell_volume 3206.053716
_symmetry_space_group_name_H-M "C M M 2"
_symmetry_group_IT_number 35
_symmetry_cell_setting 'orthorhombic'
loop_
_space_group_symop_operation_xyz
x,y,z
-x,-y,z
-x,y,z
x,-y,z
1/2+x,1/2+y,z
1/2-x,1/2-y,z
1/2-x,1/2+y,z
1/2+x,1/2-y,z
loop_
_atom_site_type_symbol
_atom_site_label
_atom_site_fract_x
_atom_site_fract_y
_atom_site_fract_z
Si Si1 0.311301 0.568376 0.223060
Si Si2 0.688232 0.669102 0.293352
Si Si3 0.198558 0.951150 0.989505
Si Si4 0.196039 0.047874 0.452502
Si Si5 0.695342 0.296096 0.084685
Si Si6 0.191168 0.643024 0.515747
Si Si7 0.196379 0.139872 0.903276
Si Si8 0.693566 0.800544 0.710461
O O1 0.500000 0.553972 0.220719
O O2 0.310481 0.620794 0.239952
O O3 0.241335 0.550589 0.332205
O O4 0.244391 0.555935 0.109736
O O5 0.500000 0.680463 0.313877
O O6 0.760106 0.699344 0.202526
O O7 0.774425 0.665057 0.403594
O O8 0.250371 0.910700 0.916369
O O9 0.000000 0.949364 0.992471
O O10 0.245815 0.000000 0.954796
O O11 0.243990 0.092864 0.510162
O O12 0.000000 0.048812 0.447441
O O13 0.244879 0.000000 0.496383
O O14 0.500000 0.297614 0.091259
O O15 0.750000 0.250000 0.037866
O O16 0.746490 0.335365 0.009565
O O17 0.258538 0.674092 0.607361
O O18 0.000000 0.639431 0.530691
O O19 0.259349 0.168676 0.807769
O O20 0.000000 0.140404 0.898155
O O21 0.500000 0.798767 0.703755
O O22 0.750000 0.750000 0.719807
#
# Coordination Sequence:
#
# PCOD9348864 Si02
#       8
#     8   8   8   8   8   8   8   8
#     4   8  12  23  45  75 110 146 181 218 259 307
#     4   9  17  32  53  77 111 148 181 221 272 329
#     4   9  15  25  48  82 115 147 184 224 266 315
#     4   9  17  30  53  85 117 152 192 229 267 318
#     4  10  20  33  51  79 112 145 179 220 277 341
#     4  10  22  38  56  81 112 145 185 232 285 337
#     4  10  20  36  58  84 115 146 183 231 280 330
#     4  11  25  44  64  83 104 138 187 239 290 340
#
# _framework density 19.962235
#
# number of rings (size 3 to 8) (size 9 to 14) (size 15 to 20)
#    0.000    2.500    1.250    2.250    0.000    6.250 
#    0.000    3.125    0.000    2.625    0.000    0.000 
#    0.000    0.000    0.000    0.000    0.000    0.000 
#
# Total GULP energy -178360.786406 kJ/mol
# GULP energy per Si atom -5573.774575 kJ/mol
# Density = 1.991680 g / cm^3
# Si number density = 19.962235 Si / 1000 Ang^3
#
#
#
# Elastic Constant Matrix: (Units=GPa)
#
#
# Indices 1 2 3 4 5 6 
#
# 1 13.9558 19.8808 14.3047 0.0000 0.0000 0.0000
# 2 19.8808 165.8324 79.6885 0.0000 0.0000 0.0000
# 3 14.3047 79.6885 109.2908 0.0000 0.0000 0.0000
# 4 0.0000 0.0000 0.0000 18.8343 0.0000 0.0000
# 5 0.0000 0.0000 0.0000 0.0000 28.1588 0.0000
# 6 0.0000 0.0000 0.0000 0.0000 0.0000 7.2603
#
#
#
# Elastic Compliance Matrix: (Units=1/GPa)
#
#
# Indices 1 2 3 4 5 6 
#
# 1 0.088854 -0.007795 -0.005946 0.000000 0.000000 0.000000
# 2 -0.007795 0.009966 -0.006247 0.000000 0.000000 0.000000
# 3 -0.005946 -0.006247 0.014483 0.000000 0.000000 0.000000
# 4 0.000000 0.000000 0.000000 0.053095 0.000000 0.000000
# 5 0.000000 0.000000 0.000000 0.000000 0.035513 0.000000
# 6 0.000000 0.000000 0.000000 0.000000 0.000000 0.137736
#
#
# Mechanical properties :
#
#
# Convention : Reuss Voigt Hill
#
# Bulk Modulus (GPa) = 13.63739 57.42521 35.53130
# Shear Modulus (GPa) = 12.37424 22.53100 17.45262
#
# Velocity S-wave (km/s) = 2.49244 3.36323 2.96003
# Velocity P-wave (km/s) = 3.88966 6.62655 5.43326
#
# Compressibility (1/GPa) = 0.07332779
#
# Stress axis : x y z
#
# Youngs Moduli (GPa) = 11.25441 100.33678 69.04689
#
# Poissons Ratio (x) = 0.78211 0.41057
# Poissons Ratio (y) = 0.08773 0.43132
# Poissons Ratio (z) = 0.06692 0.62677
#
# Static dielectric constant tensor:
#      x y z
#    x 1.690210 0.000000 0.000000 
#    y 0.000000 1.748000 0.000000 
#    z 0.000000 0.000000 1.712060 
# 
# From -- ./inp_files/11930.got.cif
#   From: 2010.05.17/outbox.cif.g08.bks.cpg/sg35_6_cif.got.tgz:11930.got - 2010.06.03 17:29:28.
