data_PCOD9348446
_publ_section_title
;
Structure prediction by ZEFSAII (Michael W. Deem and Ramdas Pophale) SiO2 
 PCOD9348446
Probable space group: C M M 2
;
_chemical_formula_sum "Si O2"
_cell_formula_units_Z 64
_cell_length_a 30.005079
_cell_length_b 8.459922
_cell_length_c 12.668489
_cell_angle_alpha 90.000000
_cell_angle_beta 90.000000
_cell_angle_gamma 90.000000
_cell_volume 3215.777203
_symmetry_space_group_name_H-M "C M M 2"
_symmetry_group_IT_number 35
_symmetry_cell_setting 'orthorhombic'
loop_
_space_group_symop_operation_xyz
x,y,z
-x,-y,z
-x,y,z
x,-y,z
1/2+x,1/2+y,z
1/2-x,1/2-y,z
1/2-x,1/2+y,z
1/2+x,1/2-y,z
loop_
_atom_site_type_symbol
_atom_site_label
_atom_site_fract_x
_atom_site_fract_y
_atom_site_fract_z
Si Si1 0.550336 0.182481 0.782570
Si Si2 0.203269 0.809500 0.164205
Si Si3 0.684035 0.683631 0.932032
Si Si4 0.080339 0.818160 0.990386
Si Si5 0.949038 0.310207 0.419484
Si Si6 0.393506 0.810086 0.215630
Si Si7 0.890111 0.815702 0.609026
Si Si8 0.702550 0.308121 0.697137
O O1 0.500000 0.207766 0.744093
O O2 0.583921 0.292422 0.719095
O O3 0.562462 0.000000 0.763637
O O4 0.552580 0.219132 0.906498
O O5 0.250000 0.750000 0.210869
O O6 0.157454 0.752043 0.217480
O O7 0.202314 0.000000 0.162208
O O8 0.201243 0.746327 0.042393
O O9 0.698481 0.500000 0.930562
O O10 0.697162 0.752023 0.818639
O O11 0.630846 0.685876 0.945390
O O12 0.083942 0.750554 0.107731
O O13 0.065439 0.000000 0.992493
O O14 0.951612 0.500000 0.413390
O O15 0.922628 0.255448 0.315253
O O16 0.919462 0.267680 0.520524
O O17 0.000000 0.249813 0.426068
O O18 0.392156 0.000000 0.213955
O O19 0.839982 0.755262 0.628948
O O20 0.887644 0.000000 0.582458
O O21 0.701161 0.500000 0.699947
O O22 0.750000 0.250000 0.656644
#
# Coordination Sequence:
#
# PCOD9348446 Si02
#       8
#     8   8   8   8   8   8   8   8
#     4  11  23  37  56  85 120 158 198 239 293 362
#     4  10  19  32  54  84 120 161 202 245 292 348
#     4   8  15  30  50  76 114 154 190 233 280 334
#     4  10  19  35  57  84 121 158 193 242 296 348
#     4  10  23  44  67  88 113 149 196 250 303 358
#     4  10  21  38  60  87 119 156 197 245 303 360
#     4  11  23  40  62  87 119 153 194 249 300 351
#     4  10  20  35  54  82 117 154 193 235 285 342
#
# _framework density 19.901876000000001
#
# number of rings (size 3 to 8) (size 9 to 14) (size 15 to 20)
#    0.000    2.000    1.250    3.375    0.000    5.250 
#    0.000    2.500    0.000    1.500    0.000    0.000 
#    0.000    0.000    0.000    0.000    0.000    0.000 
#
# Total GULP energy -178595.816494 kJ/mol
# GULP energy per Si atom -5581.119265 kJ/mol
# Density = 1.985658 g / cm^3
# Si number density = 19.901876 Si / 1000 Ang^3
#
#
#
# Elastic Constant Matrix: (Units=GPa)
#
#
# Indices 1 2 3 4 5 6 
#
# 1 132.3050 19.5950 61.6380 0.0000 0.0000 0.0000
# 2 19.5950 24.8296 5.4510 0.0000 0.0000 0.0000
# 3 61.6380 5.4510 98.0547 0.0000 0.0000 0.0000
# 4 0.0000 0.0000 0.0000 63.8390 0.0000 0.0000
# 5 0.0000 0.0000 0.0000 0.0000 11.9250 0.0000
# 6 0.0000 0.0000 0.0000 0.0000 0.0000 21.2824
#
#
#
# Elastic Compliance Matrix: (Units=1/GPa)
#
#
# Indices 1 2 3 4 5 6 
#
# 1 0.012063 -0.007952 -0.007141 0.000000 0.000000 0.000000
# 2 -0.007952 0.046014 0.002441 0.000000 0.000000 0.000000
# 3 -0.007141 0.002441 0.014551 0.000000 0.000000 0.000000
# 4 0.000000 0.000000 0.000000 0.015664 0.000000 0.000000
# 5 0.000000 0.000000 0.000000 0.000000 0.083857 0.000000
# 6 0.000000 0.000000 0.000000 0.000000 0.000000 0.046987
#
#
# Mechanical properties :
#
#
# Convention : Reuss Voigt Hill
#
# Bulk Modulus (GPa) = 21.13072 47.61749 34.37411
# Shear Modulus (GPa) = 19.21480 30.64296 24.92888
#
# Velocity S-wave (km/s) = 3.11058 3.92816 3.54303
# Velocity P-wave (km/s) = 4.85196 6.67473 5.83496
#
# Compressibility (1/GPa) = 0.04732447
#
# Stress axis : x y z
#
# Youngs Moduli (GPa) = 82.90020 21.73235 68.72204
#
# Poissons Ratio (x) = 0.17282 0.49072
# Poissons Ratio (y) = 0.65922 -0.16773
# Poissons Ratio (z) = 0.59196 -0.05304
#
# Static dielectric constant tensor:
#      x y z
#    x 1.715720 0.000000 0.000000 
#    y 0.000000 1.682450 0.000000 
#    z 0.000000 0.000000 1.701290 
# 
# From -- ./inp_files/14596.got.cif
#   From: 2010.05.17/outbox.cif.g08.bks.cpg/sg35_8_cif.got.tgz:14596.got - 2010.06.03 17:29:28.
