data_PCOD9348062
_publ_section_title
;
Structure prediction by ZEFSAII (Michael W. Deem and Ramdas Pophale) SiO2 
 PCOD9348062
Probable space group: C M M 2
;
_chemical_formula_sum "Si O2"
_cell_formula_units_Z 48
_cell_length_a 10.207131
_cell_length_b 16.855199
_cell_length_c 14.898336
_cell_angle_alpha 90.000000
_cell_angle_beta 90.000000
_cell_angle_gamma 90.000000
_cell_volume 2563.157761
_symmetry_space_group_name_H-M "C M M 2"
_symmetry_group_IT_number 35
_symmetry_cell_setting 'orthorhombic'
loop_
_space_group_symop_operation_xyz
x,y,z
-x,-y,z
-x,y,z
x,-y,z
1/2+x,1/2+y,z
1/2-x,1/2-y,z
1/2-x,1/2+y,z
1/2+x,1/2-y,z
loop_
_atom_site_type_symbol
_atom_site_label
_atom_site_fract_x
_atom_site_fract_y
_atom_site_fract_z
Si Si1 0.500000 0.093921 0.805681
Si Si2 0.000000 0.151887 0.007969
Si Si3 0.843569 0.672247 0.508121
Si Si4 0.253065 0.847169 0.121111
Si Si5 0.245645 0.345297 0.696381
Si Si6 0.500000 0.156081 0.005355
Si Si7 0.156814 0.671945 0.308938
Si Si8 0.500000 0.405740 0.800779
O O1 0.373886 0.128279 0.757187
O O2 0.500000 0.121525 0.907313
O O3 0.500000 0.000000 0.799351
O O4 0.875813 0.127308 0.068147
O O5 0.000000 0.247925 0.001519
O O6 0.000000 0.122654 0.904970
O O7 0.750000 0.750000 0.503466
O O8 0.786598 0.626788 0.594592
O O9 0.835907 0.634661 0.408563
O O10 0.000000 0.690446 0.523533
O O11 0.250000 0.750000 0.124609
O O12 0.283997 0.873326 0.222947
O O13 0.373820 0.870310 0.059668
O O14 0.250000 0.250000 0.693511
O O15 0.375392 0.375767 0.744525
O O16 0.250000 0.750000 0.313970
O O17 0.000000 0.689775 0.292355
O O18 0.500000 0.500000 0.802746
#
# Coordination Sequence:
#
# PCOD9348062 Si02
#       8
#     4   4   8   8   8   4   8   4
#     4  12  24  38  57  84 114 148 195 246 295 344
#     4  10  20  34  53  76 108 146 195 230 281 336
#     4   9  18  31  52  83 116 148 186 235 291 343
#     4   9  17  28  47  76 107 144 179 227 279 335
#     4  11  22  39  61  86 114 154 195 239 291 346
#     4  10  18  32  51  76 106 144 185 232 281 334
#     4   9  16  27  45  77 117 147 174 226 290 338
#     4  12  26  42  59  84 118 156 197 246 301 350
#
# _framework density 18.726901000000002
#
# number of rings (size 3 to 8) (size 9 to 14) (size 15 to 20)
#    0.000    2.000    1.667    3.000    7.000    1.333 
#    0.000    0.000    0.000    0.000    0.000    7.000 
#    0.000    0.000    0.000    0.000    0.000    0.000 
#
# Total GULP energy -133682.951720 kJ/mol
# GULP energy per Si atom -5570.122988 kJ/mol
# Density = 1.868428 g / cm^3
# Si number density = 18.726901 Si / 1000 Ang^3
#
#
#
# Elastic Constant Matrix: (Units=GPa)
#
#
# Indices 1 2 3 4 5 6 
#
# 1 180.7207 21.4203 97.5264 0.0000 0.0000 0.0000
# 2 21.4203 32.7399 29.0865 0.0000 0.0000 0.0000
# 3 97.5264 29.0865 224.9192 0.0000 0.0000 0.0000
# 4 0.0000 0.0000 0.0000 -11.9408 0.0000 0.0000
# 5 0.0000 0.0000 0.0000 0.0000 39.3521 0.0000
# 6 0.0000 0.0000 0.0000 0.0000 0.0000 8.6606
#
#
#
# Elastic Compliance Matrix: (Units=1/GPa)
#
#
# Indices 1 2 3 4 5 6 
#
# 1 0.007366 -0.002239 -0.002904 0.000000 0.000000 0.000000
# 2 -0.002239 0.035189 -0.003580 0.000000 0.000000 0.000000
# 3 -0.002904 -0.003580 0.006168 0.000000 0.000000 0.000000
# 4 0.000000 0.000000 0.000000 -0.083746 0.000000 0.000000
# 5 0.000000 0.000000 0.000000 0.000000 0.025412 0.000000
# 6 0.000000 0.000000 0.000000 0.000000 0.000000 0.115466
#
#
# Mechanical properties :
#
#
# Convention : Reuss Voigt Hill
#
# Bulk Modulus (GPa) = 31.97239 81.60515 56.78877
# Shear Modulus (GPa) = 37.38962 26.57081 31.98021
#
# Velocity S-wave (km/s) = 4.47315 3.77086 4.13693
# Velocity P-wave (km/s) = 6.61731 7.91392 7.29448
#
# Compressibility (1/GPa) = 0.03127699
#
# Stress axis : x y z
#
# Youngs Moduli (GPa) = 135.75533 28.41799 162.11710
#
# Poissons Ratio (x) = 0.06363 0.47087
# Poissons Ratio (y) = 0.30396 0.58034
# Poissons Ratio (z) = 0.39430 0.10173
#
# Static dielectric constant tensor:
#      x y z
#    x 1.583840 0.000000 0.000000 
#    y 0.000000 1.608040 0.000000 
#    z 0.000000 0.000000 1.692380 
# 
# From -- ./inp_files/15356.got.cif
#   From: 2010.05.17/outbox.cif.g08.bks.cpg/sg35_8_cif.got.tgz:15356.got - 2010.06.03 17:29:28.
