data_PCOD9348030
_publ_section_title
;
Structure prediction by ZEFSAII (Michael W. Deem and Ramdas Pophale) SiO2 
 PCOD9348030
Probable space group: P N N 2
;
_chemical_formula_sum "Si O2"
_cell_formula_units_Z 16
_cell_length_a 5.507768
_cell_length_b 22.449542
_cell_length_c 5.086442
_cell_angle_alpha 90.000000
_cell_angle_beta 90.000000
_cell_angle_gamma 90.000000
_cell_volume 628.922628
_symmetry_space_group_name_H-M "P N N 2"
_symmetry_group_IT_number 34
_symmetry_cell_setting 'orthorhombic'
loop_
_space_group_symop_operation_xyz
x,y,z
-x,-y,z
1/2-x,1/2+y,1/2+z
1/2+x,1/2-y,1/2+z
loop_
_atom_site_type_symbol
_atom_site_label
_atom_site_fract_x
_atom_site_fract_y
_atom_site_fract_z
Si Si1 0.527080 0.599398 0.251830
Si Si2 0.238302 0.674801 0.603555
Si Si3 0.754267 0.993285 0.469376
Si Si4 0.906135 0.690123 0.101475
O O1 0.435773 0.624181 0.530869
O O2 0.648758 0.655909 0.107710
O O3 0.716751 0.545510 0.191368
O O4 0.294330 0.568661 0.116142
O O5 0.366570 0.739100 0.593554
O O6 0.043299 0.674474 0.368776
O O7 0.077694 0.671624 0.862704
O O8 0.500000 0.000000 0.331904
O O9 0.000000 0.000000 0.299942
#
# Coordination Sequence:
#
# PCOD9348030 Si02
#       4
#     4   4   4   4
#     4   9  22  38  72  98 144 190 245 302 370 436
#     4  12  25  42  67 104 147 188 240 293 369 441
#     4   8  18  40  70 102 140 188 250 302 364 434
#     4  12  25  42  67 104 147 188 240 293 369 441
#
# _framework density 25.440329999999999
#
# number of rings (size 3 to 8) (size 9 to 14) (size 15 to 20)
#    1.500    0.000    2.500    3.000    0.000    0.000 
#    0.000    0.000    0.000   61.500    0.000    0.000 
#    0.000    0.000    0.000    0.000    0.000    0.000 
#
# Total GULP energy -89375.343334 kJ/mol
# GULP energy per Si atom -5585.958958 kJ/mol
# Density = 2.538243 g / cm^3
# Si number density = 25.440330 Si / 1000 Ang^3
#
#
#
# Elastic Constant Matrix: (Units=GPa)
#
#
# Indices 1 2 3 4 5 6 
#
# 1 150.9268 26.3004 33.8194 0.0000 0.0000 0.0000
# 2 26.3004 146.1957 28.1816 0.0000 0.0000 0.0000
# 3 33.8194 28.1816 109.8270 0.0000 0.0000 0.0000
# 4 0.0000 0.0000 0.0000 26.9945 0.0000 0.0000
# 5 0.0000 0.0000 0.0000 0.0000 36.4855 0.0000
# 6 0.0000 0.0000 0.0000 0.0000 0.0000 45.5626
#
#
#
# Elastic Compliance Matrix: (Units=1/GPa)
#
#
# Indices 1 2 3 4 5 6 
#
# 1 0.007232 -0.000917 -0.001992 0.000000 0.000000 0.000000
# 2 -0.000917 0.007312 -0.001594 0.000000 0.000000 0.000000
# 3 -0.001992 -0.001594 0.010128 0.000000 0.000000 0.000000
# 4 0.000000 0.000000 0.000000 0.037045 0.000000 0.000000
# 5 0.000000 0.000000 0.000000 0.000000 0.027408 0.000000
# 6 0.000000 0.000000 0.000000 0.000000 0.000000 0.021948
#
#
# Mechanical properties :
#
#
# Convention : Reuss Voigt Hill
#
# Bulk Modulus (GPa) = 63.83064 64.83913 64.33489
# Shear Modulus (GPa) = 39.90433 43.05173 41.47803
#
# Velocity S-wave (km/s) = 3.96478 4.11818 4.04221
# Velocity P-wave (km/s) = 6.79000 6.93935 6.86508
#
# Compressibility (1/GPa) = 0.01566646
#
# Stress axis : x y z
#
# Youngs Moduli (GPa) = 138.27792 136.75426 98.74087
#
# Poissons Ratio (x) = 0.12541 0.19665
# Poissons Ratio (y) = 0.12681 0.15739
# Poissons Ratio (z) = 0.27539 0.21798
#
# Static dielectric constant tensor:
#      x y z
#    x 2.088180 0.000000 0.000000 
#    y 0.000000 1.989260 0.000000 
#    z 0.000000 0.000000 1.944130 
# 
# From -- ./inp_files/139.got.cif
#   From: 2010.05.17/outbox.cif.g08.bks.cpg/sg34_1_cif.got.tgz:139.got - 2010.06.03 17:23:11.
