data_PCOD9348837
_publ_section_title
;
Structure prediction by ZEFSAII (Michael W. Deem and Ramdas Pophale) SiO2 
 PCOD9348837
Probable space group: C M M 2
;
_chemical_formula_sum "Si O2"
_cell_formula_units_Z 40
_cell_length_a 18.769079
_cell_length_b 8.715513
_cell_length_c 13.664029
_cell_angle_alpha 90.000000
_cell_angle_beta 90.000000
_cell_angle_gamma 90.000000
_cell_volume 2235.191269
_symmetry_space_group_name_H-M "C M M 2"
_symmetry_group_IT_number 35
_symmetry_cell_setting 'orthorhombic'
loop_
_space_group_symop_operation_xyz
x,y,z
-x,-y,z
-x,y,z
x,-y,z
1/2+x,1/2+y,z
1/2-x,1/2-y,z
1/2-x,1/2+y,z
1/2+x,1/2-y,z
loop_
_atom_site_type_symbol
_atom_site_label
_atom_site_fract_x
_atom_site_fract_y
_atom_site_fract_z
Si Si1 0.669478 0.316351 0.136720
Si Si2 0.330376 0.183334 0.939289
Si Si3 0.669981 0.816147 0.722783
Si Si4 0.582328 0.685602 0.542008
Si Si5 0.829787 0.814954 0.352108
O O1 0.672335 0.500000 0.128699
O O2 0.750000 0.250000 0.138953
O O3 0.640073 0.274366 0.244118
O O4 0.634955 0.250293 0.037832
O O5 0.250000 0.250000 0.937121
O O6 0.359706 0.222746 0.831617
O O7 0.327050 0.000000 0.947967
O O8 0.750000 0.750000 0.714526
O O9 0.622449 0.750559 0.636210
O O10 0.673986 0.000000 0.716078
O O11 0.500000 0.732307 0.540904
O O12 0.585286 0.500000 0.545288
O O13 0.622196 0.735804 0.442774
O O14 0.750000 0.750000 0.361850
O O15 0.825019 0.000000 0.354632
#
# Coordination Sequence:
#
# PCOD9348837 Si02
#       5
#     8   8   8   8   8
#     4   9  15  24  41  66  95 123 152 190 235 283
#     4   9  16  26  42  67  97 125 153 190 236 282
#     4  10  20  33  51  75 101 129 163 203 244 288
#     4  10  21  36  52  70  96 130 166 205 248 292
#     4   9  18  31  48  72  98 125 158 197 240 284
#
# _framework density 17.89556
#
# number of rings (size 3 to 8) (size 9 to 14) (size 15 to 20)
#    0.000    2.600    0.000    3.600    0.000    6.000 
#    0.000    0.000    0.000    1.200    0.000    2.800 
#    0.000    0.000    0.000    0.000    0.000    0.000 
#
# Total GULP energy -111408.560805 kJ/mol
# GULP energy per Si atom -5570.428040 kJ/mol
# Density = 1.785483 g / cm^3
# Si number density = 17.895560 Si / 1000 Ang^3
#
#
#
# Elastic Constant Matrix: (Units=GPa)
#
#
# Indices 1 2 3 4 5 6 
#
# 1 59.1580 18.6684 73.4655 0.0000 0.0000 0.0000
# 2 18.6684 37.6296 52.8481 0.0000 0.0000 0.0000
# 3 73.4655 52.8481 238.3160 0.0000 0.0000 0.0000
# 4 0.0000 0.0000 0.0000 0.4892 0.0000 0.0000
# 5 0.0000 0.0000 0.0000 0.0000 -4.6161 0.0000
# 6 0.0000 0.0000 0.0000 0.0000 0.0000 13.6084
#
#
#
# Elastic Compliance Matrix: (Units=1/GPa)
#
#
# Indices 1 2 3 4 5 6 
#
# 1 0.027554 -0.002528 -0.007933 0.000000 0.000000 0.000000
# 2 -0.002528 0.038827 -0.007831 0.000000 0.000000 0.000000
# 3 -0.007933 -0.007831 0.008378 0.000000 0.000000 0.000000
# 4 0.000000 0.000000 0.000000 2.044092 0.000000 0.000000
# 5 0.000000 0.000000 0.000000 0.000000 -0.216632 0.000000
# 6 0.000000 0.000000 0.000000 0.000000 0.000000 0.073484
#
#
# Mechanical properties :
#
#
# Convention : Reuss Voigt Hill
#
# Bulk Modulus (GPa) = 26.19536 69.45196 47.82366
# Shear Modulus (GPa) = 2.46912 14.57107 8.52010
#
# Velocity S-wave (km/s) = 1.17590 2.85656 2.18434
# Velocity P-wave (km/s) = 4.06366 7.05506 5.75705
#
# Compressibility (1/GPa) = 0.03817470
#
# Stress axis : x y z
#
# Youngs Moduli (GPa) = 36.29277 25.75548 119.35619
#
# Poissons Ratio (x) = 0.06510 0.94690
# Poissons Ratio (y) = 0.09174 0.93466
# Poissons Ratio (z) = 0.28793 0.20169
#
# Static dielectric constant tensor:
#      x y z
#    x 1.559100 0.000000 0.000000 
#    y 0.000000 1.606790 0.000000 
#    z 0.000000 0.000000 1.686440 
# 
# From -- ./inp_files/11024.got.cif
#   From: 2010.05.17/outbox.cif.g08.bks.cpg/sg35_6_cif.got.tgz:11024.got - 2010.06.03 17:29:28.
