data_PCOD9348042
_publ_section_title
;
Structure prediction by ZEFSAII (Michael W. Deem and Ramdas Pophale) SiO2 
 PCOD9348042
Probable space group: P N N 2
;
_chemical_formula_sum "Si O2"
_cell_formula_units_Z 20
_cell_length_a 30.292505
_cell_length_b 4.997259
_cell_length_c 5.500205
_cell_angle_alpha 90.000000
_cell_angle_beta 90.000000
_cell_angle_gamma 90.000000
_cell_volume 832.618246
_symmetry_space_group_name_H-M "P N N 2"
_symmetry_group_IT_number 34
_symmetry_cell_setting 'orthorhombic'
loop_
_space_group_symop_operation_xyz
x,y,z
-x,-y,z
1/2-x,1/2+y,1/2+z
1/2+x,1/2-y,1/2+z
loop_
_atom_site_type_symbol
_atom_site_label
_atom_site_fract_x
_atom_site_fract_y
_atom_site_fract_z
Si Si1 0.500000 0.500000 0.709250
Si Si2 0.800964 0.588484 0.604748
Si Si3 0.927889 0.750000 0.857124
Si Si4 0.300964 0.588486 0.609497
Si Si5 0.632552 0.750000 0.357124
Si Si6 0.500000 0.000000 0.004998
O O1 0.539319 0.369449 0.557072
O O2 0.481138 0.250000 0.857124
O O3 0.750000 0.499998 0.607122
O O4 0.809052 0.749999 0.357122
O O5 0.806592 0.750000 0.857122
O O6 0.835275 0.347789 0.641594
O O7 0.960681 0.630550 0.657177
O O8 0.897641 0.500652 0.934148
O O9 0.897641 0.999349 0.780101
O O10 0.335274 0.347789 0.572652
#
# Coordination Sequence:
#
# PCOD9348042 Si02
#       6
#     2   4   4   4   4   2
#     4  12  26  52  86 116 158 218 262 338 426 512
#     4  12  27  50  81 115 166 227 283 343 414 486
#     4  12  27  54  80 120 170 200 282 338 423 494
#     4  12  27  50  81 115 166 227 283 343 414 486
#     4  12  27  50  78 122 162 224 272 358 399 508
#     4  12  26  52  86 116 158 218 262 338 426 512
#
# _framework density 24.020612
#
# number of rings (size 3 to 8) (size 9 to 14) (size 15 to 20)
#    0.000    0.000    4.000    6.000    0.000    1.600 
#   14.400    0.000    0.000    0.000    0.000    0.000 
#    0.000    0.000    0.000    0.000    0.000    0.000 
#
# Total GULP energy -112099.911977 kJ/mol
# GULP energy per Si atom -5604.995599 kJ/mol
# Density = 2.396594 g / cm^3
# Si number density = 24.020612 Si / 1000 Ang^3
#
#
#
# Elastic Constant Matrix: (Units=GPa)
#
#
# Indices 1 2 3 4 5 6 
#
# 1 191.7583 114.6775 70.4023 0.0000 0.0000 0.0000
# 2 114.6775 224.1072 108.3391 0.0000 0.0000 0.0000
# 3 70.4023 108.3391 177.3926 0.0000 0.0000 0.0000
# 4 0.0000 0.0000 0.0000 65.3363 0.0000 0.0000
# 5 0.0000 0.0000 0.0000 0.0000 66.2081 0.0000
# 6 0.0000 0.0000 0.0000 0.0000 0.0000 78.8371
#
#
#
# Elastic Compliance Matrix: (Units=1/GPa)
#
#
# Indices 1 2 3 4 5 6 
#
# 1 0.007617 -0.003457 -0.000912 0.000000 0.000000 0.000000
# 2 -0.003457 0.007900 -0.003453 0.000000 0.000000 0.000000
# 3 -0.000912 -0.003453 0.008108 0.000000 0.000000 0.000000
# 4 0.000000 0.000000 0.000000 0.015305 0.000000 0.000000
# 5 0.000000 0.000000 0.000000 0.000000 0.015104 0.000000
# 6 0.000000 0.000000 0.000000 0.000000 0.000000 0.012684
#
#
# Mechanical properties :
#
#
# Convention : Reuss Voigt Hill
#
# Bulk Modulus (GPa) = 125.28330 131.12174 128.20252
# Shear Modulus (GPa) = 58.80762 62.06558 60.43660
#
# Velocity S-wave (km/s) = 4.95331 5.08867 5.02145
# Velocity P-wave (km/s) = 9.21865 9.44626 9.33315
#
# Compressibility (1/GPa) = 0.00798191
#
# Stress axis : x y z
#
# Youngs Moduli (GPa) = 131.28572 126.57629 123.33602
#
# Poissons Ratio (x) = 0.43756 0.11245
# Poissons Ratio (y) = 0.45384 0.42588
# Poissons Ratio (z) = 0.11970 0.43707
#
# Static dielectric constant tensor:
#      x y z
#    x 1.914130 0.000000 0.000000 
#    y 0.000000 1.939020 0.000000 
#    z 0.000000 0.000000 1.929040 
# 
# From -- ./inp_files/1789.got.cif
#   From: 2010.05.17/outbox.cif.g08.bks.cpg/sg34_1_cif.got.tgz:1789.got - 2010.06.03 17:23:11.
