data_PCOD9348522
_publ_section_title
;
Structure prediction by ZEFSAII (Michael W. Deem and Ramdas Pophale) SiO2 
 PCOD9348522
Probable space group: C M M 2
;
_chemical_formula_sum "Si O2"
_cell_formula_units_Z 48
_cell_length_a 15.635634
_cell_length_b 8.770073
_cell_length_c 17.675274
_cell_angle_alpha 90.000000
_cell_angle_beta 90.000000
_cell_angle_gamma 90.000000
_cell_volume 2423.733464
_symmetry_space_group_name_H-M "C M M 2"
_symmetry_group_IT_number 35
_symmetry_cell_setting 'orthorhombic'
loop_
_space_group_symop_operation_xyz
x,y,z
-x,-y,z
-x,y,z
x,-y,z
1/2+x,1/2+y,z
1/2-x,1/2-y,z
1/2-x,1/2+y,z
1/2+x,1/2-y,z
loop_
_atom_site_type_symbol
_atom_site_label
_atom_site_fract_x
_atom_site_fract_y
_atom_site_fract_z
Si Si1 0.099681 0.674757 0.228630
Si Si2 0.500000 0.181610 0.465741
Si Si3 0.653721 0.683682 0.073351
Si Si4 0.000000 0.317916 0.644534
Si Si5 0.154465 0.816730 0.909238
Si Si6 0.653444 0.316069 0.741474
Si Si7 0.338761 0.319480 0.379278
O O1 0.130840 0.500000 0.228078
O O2 0.108214 0.745888 0.145735
O O3 0.148504 0.769576 0.292081
O O4 0.000000 0.674464 0.250127
O O5 0.500000 0.213179 0.555065
O O6 0.416877 0.251610 0.426473
O O7 0.500000 0.000000 0.453901
O O8 0.655268 0.500000 0.079329
O O9 0.750000 0.750000 0.075102
O O10 0.615237 0.726341 0.990660
O O11 0.915060 0.248171 0.682681
O O12 0.000000 0.500000 0.655738
O O13 0.250000 0.750000 0.910319
O O14 0.120234 0.773627 0.826583
O O15 0.158914 0.000000 0.909720
O O16 0.657662 0.500000 0.736420
O O17 0.750000 0.250000 0.732358
O O18 0.337856 0.500000 0.384710
O O19 0.250000 0.250000 0.407160
#
# Coordination Sequence:
#
# PCOD9348522 Si02
#       7
#     8   4   8   4   8   8   8
#     4  11  23  39  58  82 121 163 205 256 307 358
#     4  11  25  47  69  94 129 160 199 255 308 367
#     4  10  19  33  54  81 115 154 204 254 303 359
#     4  11  25  43  65  94 127 164 203 249 308 371
#     4   8  16  31  53  81 113 155 200 252 305 355
#     4  10  20  38  64  92 126 165 209 257 310 368
#     4  12  25  43  70  98 126 163 206 249 306 369
#
# _framework density 19.804158000000001
#
# number of rings (size 3 to 8) (size 9 to 14) (size 15 to 20)
#    0.000    1.667    0.833    4.000    0.000    4.333 
#    1.500    0.000    0.000    0.000    0.000    0.000 
#    0.000    0.000    0.000    0.000    0.000    0.000 
#
# Total GULP energy -134026.797662 kJ/mol
# GULP energy per Si atom -5584.449903 kJ/mol
# Density = 1.975908 g / cm^3
# Si number density = 19.804158 Si / 1000 Ang^3
#
#
#
# Elastic Constant Matrix: (Units=GPa)
#
#
# Indices 1 2 3 4 5 6 
#
# 1 115.2124 52.1021 70.6971 0.0000 0.0000 0.0000
# 2 52.1021 108.2660 81.4374 0.0000 0.0000 0.0000
# 3 70.6971 81.4374 146.4915 0.0000 0.0000 0.0000
# 4 0.0000 0.0000 0.0000 30.3882 0.0000 0.0000
# 5 0.0000 0.0000 0.0000 0.0000 35.1726 0.0000
# 6 0.0000 0.0000 0.0000 0.0000 0.0000 29.1254
#
#
#
# Elastic Compliance Matrix: (Units=1/GPa)
#
#
# Indices 1 2 3 4 5 6 
#
# 1 0.012740 -0.002589 -0.004709 0.000000 0.000000 0.000000
# 2 -0.002589 0.016401 -0.007868 0.000000 0.000000 0.000000
# 3 -0.004709 -0.007868 0.013473 0.000000 0.000000 0.000000
# 4 0.000000 0.000000 0.000000 0.032907 0.000000 0.000000
# 5 0.000000 0.000000 0.000000 0.000000 0.028431 0.000000
# 6 0.000000 0.000000 0.000000 0.000000 0.000000 0.034334
#
#
# Mechanical properties :
#
#
# Convention : Reuss Voigt Hill
#
# Bulk Modulus (GPa) = 81.42279 86.49367 83.95823
# Shear Modulus (GPa) = 28.94979 29.98614 29.46796
#
# Velocity S-wave (km/s) = 3.82750 3.89541 3.86160
# Velocity P-wave (km/s) = 7.79335 8.00010 7.89740
#
# Compressibility (1/GPa) = 0.01228157
#
# Stress axis : x y z
#
# Youngs Moduli (GPa) = 78.49283 60.97300 74.22217
#
# Poissons Ratio (x) = 0.15784 0.34953
# Poissons Ratio (y) = 0.20320 0.58399
# Poissons Ratio (z) = 0.36964 0.47974
#
# Static dielectric constant tensor:
#      x y z
#    x 1.679540 0.000000 0.000000 
#    y 0.000000 1.665440 0.000000 
#    z 0.000000 0.000000 1.719890 
# 
# From -- ./inp_files/18791.got.cif
#   From: 2010.05.17/outbox.cif.g08.bks.cpg/sg35_10_cif.got.tgz:18791.got - 2010.06.03 17:29:28.
