data_PCOD9348891
_publ_section_title
;
Structure prediction by ZEFSAII (Michael W. Deem and Ramdas Pophale) SiO2 
 PCOD9348891
Probable space group: C M M 2
;
_chemical_formula_sum "Si O2"
_cell_formula_units_Z 64
_cell_length_a 8.784648
_cell_length_b 19.340591
_cell_length_c 21.281049
_cell_angle_alpha 90.000000
_cell_angle_beta 90.000000
_cell_angle_gamma 90.000000
_cell_volume 3615.656270
_symmetry_space_group_name_H-M "C M M 2"
_symmetry_group_IT_number 35
_symmetry_cell_setting 'orthorhombic'
loop_
_space_group_symop_operation_xyz
x,y,z
-x,-y,z
-x,y,z
x,-y,z
1/2+x,1/2+y,z
1/2-x,1/2-y,z
1/2-x,1/2+y,z
1/2+x,1/2-y,z
loop_
_atom_site_type_symbol
_atom_site_label
_atom_site_fract_x
_atom_site_fract_y
_atom_site_fract_z
Si Si1 0.183241 0.674262 0.207410
Si Si2 0.181875 0.325524 0.350154
Si Si3 0.681964 0.581820 0.458623
Si Si4 0.681845 0.172950 0.709931
Si Si5 0.815860 0.419126 0.090181
Si Si6 0.683504 0.419016 0.599684
Si Si7 0.181953 0.827789 0.978281
Si Si8 0.182639 0.672511 0.848913
O O1 0.250000 0.750000 0.192799
O O2 0.228988 0.655166 0.278717
O O3 0.227834 0.618188 0.155497
O O4 0.000000 0.679716 0.206285
O O5 0.250000 0.250000 0.362657
O O6 0.239237 0.377404 0.402941
O O7 0.000000 0.321934 0.351610
O O8 0.500000 0.591901 0.454434
O O9 0.711353 0.500000 0.453387
O O10 0.730228 0.603428 0.529161
O O11 0.500000 0.178093 0.706064
O O12 0.750000 0.250000 0.705206
O O13 0.744738 0.126119 0.654335
O O14 0.718627 0.143182 0.779751
O O15 0.774494 0.500000 0.089428
O O16 0.000000 0.414559 0.084128
O O17 0.740051 0.376190 0.034124
O O18 0.500000 0.414036 0.602626
O O19 0.723212 0.500000 0.606783
O O20 0.250000 0.750000 0.985794
O O21 0.242422 0.857546 0.911612
O O22 0.000000 0.822879 0.977476
O O23 0.250000 0.750000 0.846538
O O24 0.000000 0.674633 0.856448
#
# Coordination Sequence:
#
# PCOD9348891 Si02
#       8
#     8   8   8   8   8   8   8   8
#     4   9  19  35  55  78 103 135 173 211 254 306
#     4  10  20  34  54  80 108 136 170 213 258 305
#     4   9  19  36  55  75 102 137 175 214 259 310
#     4  10  20  33  53  80 107 135 170 214 259 306
#     4  10  21  37  55  76 106 140 171 210 260 307
#     4   9  19  36  55  74 101 138 176 214 258 309
#     4  11  21  34  55  80 105 135 174 215 255 305
#     4   9  17  31  51  76 104 134 170 211 257 306
#
# _framework density 17.700796
#
# number of rings (size 3 to 8) (size 9 to 14) (size 15 to 20)
#    0.000    2.375    0.000    4.125    0.000    5.750 
#    0.000    3.125    0.000    0.750    0.000    0.000 
#    0.000    0.000    0.000    0.000    0.000    0.000 
#
# Total GULP energy -178478.616756 kJ/mol
# GULP energy per Si atom -5577.456774 kJ/mol
# Density = 1.766051 g / cm^3
# Si number density = 17.700796 Si / 1000 Ang^3
#
#
#
# Elastic Constant Matrix: (Units=GPa)
#
#
# Indices 1 2 3 4 5 6 
#
# 1 56.1569 43.5012 64.6617 0.0000 0.0000 0.0000
# 2 43.5012 79.9098 92.3652 0.0000 0.0000 0.0000
# 3 64.6617 92.3652 176.2122 0.0000 0.0000 0.0000
# 4 0.0000 0.0000 0.0000 -53.3317 0.0000 0.0000
# 5 0.0000 0.0000 0.0000 0.0000 20.2190 0.0000
# 6 0.0000 0.0000 0.0000 0.0000 0.0000 25.8246
#
#
#
# Elastic Compliance Matrix: (Units=1/GPa)
#
#
# Indices 1 2 3 4 5 6 
#
# 1 0.033900 -0.010341 -0.007019 0.000000 0.000000 0.000000
# 2 -0.010341 0.034906 -0.014502 0.000000 0.000000 0.000000
# 3 -0.007019 -0.014502 0.015852 0.000000 0.000000 0.000000
# 4 0.000000 0.000000 0.000000 -0.018751 0.000000 0.000000
# 5 0.000000 0.000000 0.000000 0.000000 0.049459 0.000000
# 6 0.000000 0.000000 0.000000 0.000000 0.000000 0.038723
#
#
# Mechanical properties :
#
#
# Convention : Reuss Voigt Hill
#
# Bulk Modulus (GPa) = 47.77007 79.25945 63.51476
# Shear Modulus (GPa) = 22.24279 5.99242 14.11760
#
# Velocity S-wave (km/s) = 3.54870 1.84194 2.82719
# Velocity P-wave (km/s) = 6.62096 7.02839 6.82771
#
# Compressibility (1/GPa) = 0.02093361
#
# Stress axis : x y z
#
# Youngs Moduli (GPa) = 29.49829 28.64834 63.08270
#
# Poissons Ratio (x) = 0.29626 0.44279
# Poissons Ratio (y) = 0.30505 0.91482
# Poissons Ratio (z) = 0.20706 0.41546
#
# Static dielectric constant tensor:
#      x y z
#    x 1.594310 0.000000 0.000000 
#    y 0.000000 1.579360 0.000000 
#    z 0.000000 0.000000 1.629750 
# 
# From -- ./inp_files/18448.got.cif
#   From: 2010.05.17/outbox.cif.g08.bks.cpg/sg35_10_cif.got.tgz:18448.got - 2010.06.03 17:29:28.
