data_PCOD9348199
_publ_section_title
;
Structure prediction by ZEFSAII (Michael W. Deem and Ramdas Pophale) SiO2 
 PCOD9348199
Probable space group: C M M 2
;
_chemical_formula_sum "Si O2"
_cell_formula_units_Z 64
_cell_length_a 7.852809
_cell_length_b 18.945840
_cell_length_c 21.950100
_cell_angle_alpha 90.000000
_cell_angle_beta 90.000000
_cell_angle_gamma 90.000000
_cell_volume 3265.693358
_symmetry_space_group_name_H-M "C M M 2"
_symmetry_group_IT_number 35
_symmetry_cell_setting 'orthorhombic'
loop_
_space_group_symop_operation_xyz
x,y,z
-x,-y,z
-x,y,z
x,-y,z
1/2+x,1/2+y,z
1/2-x,1/2-y,z
1/2-x,1/2+y,z
1/2+x,1/2-y,z
loop_
_atom_site_type_symbol
_atom_site_label
_atom_site_fract_x
_atom_site_fract_y
_atom_site_fract_z
Si Si1 0.203601 0.420037 0.309830
Si Si2 0.792281 0.417695 0.543016
Si Si3 0.294503 0.666619 0.927348
Si Si4 0.794441 0.668025 0.425948
Si Si5 0.703532 0.667378 0.191140
Si Si6 0.294744 0.666815 0.058244
Si Si7 0.795968 0.579806 0.677847
Si Si8 0.702393 0.667907 0.795729
O O1 0.271447 0.500000 0.308787
O O2 0.269808 0.374682 0.366961
O O3 0.234674 0.379091 0.247106
O O4 0.000000 0.424696 0.317626
O O5 0.745031 0.500000 0.534110
O O6 0.731720 0.368849 0.488045
O O7 0.735510 0.395384 0.610965
O O8 0.000000 0.415790 0.542107
O O9 0.500000 0.659968 0.927871
O O10 0.250000 0.750000 0.927161
O O11 0.230698 0.639973 0.861548
O O12 0.231880 0.637763 0.992840
O O13 0.750000 0.750000 0.422749
O O14 0.000000 0.663113 0.426097
O O15 0.500000 0.663516 0.190231
O O16 0.750000 0.750000 0.198933
O O17 0.767944 0.641699 0.124419
O O18 0.500000 0.659857 0.058212
O O19 0.250000 0.750000 0.057864
O O20 0.731235 0.500000 0.687099
O O21 0.757082 0.626960 0.735804
O O22 0.000000 0.576178 0.673377
O O23 0.500000 0.663335 0.798679
O O24 0.750000 0.750000 0.790530
#
# Coordination Sequence:
#
# PCOD9348199 Si02
#       8
#     8   8   8   8   8   8   8   8
#     4  10  21  36  53  72  96 129 166 202 240 283
#     4   8  15  31  54  74  92 121 161 198 233 280
#     4   8  14  25  41  63  91 122 156 195 238 283
#     4  10  20  34  53  76 100 125 156 195 238 284
#     4  10  19  31  50  75 101 128 159 199 244 289
#     4   8  14  25  42  65  92 121 155 194 237 284
#     4   9  18  33  52  72  96 128 164 201 241 286
#     4  10  19  30  47  71  99 129 162 202 245 288
#
# _framework density 19.597676
#
# number of rings (size 3 to 8) (size 9 to 14) (size 15 to 20)
#    0.000    2.875    0.000    2.250    0.000    5.000 
#    0.000    1.875    0.000    2.625    0.000    5.250 
#    0.000    0.000    0.000    0.000    0.000    0.000 
#
# Total GULP energy -178242.111326 kJ/mol
# GULP energy per Si atom -5570.065979 kJ/mol
# Density = 1.955307 g / cm^3
# Si number density = 19.597676 Si / 1000 Ang^3
#
#
#
# Elastic Constant Matrix: (Units=GPa)
#
#
# Indices 1 2 3 4 5 6 
#
# 1 22.4162 2.9872 10.2457 0.0000 0.0000 0.0000
# 2 2.9872 85.7816 104.5756 0.0000 0.0000 0.0000
# 3 10.2457 104.5756 259.6429 0.0000 0.0000 0.0000
# 4 0.0000 0.0000 0.0000 -21.4628 0.0000 0.0000
# 5 0.0000 0.0000 0.0000 0.0000 16.5917 0.0000
# 6 0.0000 0.0000 0.0000 0.0000 0.0000 17.0403
#
#
#
# Elastic Compliance Matrix: (Units=1/GPa)
#
#
# Indices 1 2 3 4 5 6 
#
# 1 0.045491 0.001187 -0.002273 0.000000 0.000000 0.000000
# 2 0.001187 0.022934 -0.009284 0.000000 0.000000 0.000000
# 3 -0.002273 -0.009284 0.007680 0.000000 0.000000 0.000000
# 4 0.000000 0.000000 0.000000 -0.046592 0.000000 0.000000
# 5 0.000000 0.000000 0.000000 0.000000 0.060271 0.000000
# 6 0.000000 0.000000 0.000000 0.000000 0.000000 0.058685
#
#
# Mechanical properties :
#
#
# Convention : Reuss Voigt Hill
#
# Bulk Modulus (GPa) = 18.06169 67.05087 42.55628
# Shear Modulus (GPa) = 26.64325 19.10265 22.87295
#
# Velocity S-wave (km/s) = 3.69115 3.12547 3.42003
# Velocity P-wave (km/s) = 5.23473 6.87842 6.11208
#
# Compressibility (1/GPa) = 0.05536579
#
# Stress axis : x y z
#
# Youngs Moduli (GPa) = 21.98218 43.60307 130.20115
#
# Poissons Ratio (x) = -0.05176 0.29598
# Poissons Ratio (y) = -0.02610 1.20878
# Poissons Ratio (z) = 0.04997 0.40481
#
# Static dielectric constant tensor:
#      x y z
#    x 1.724320 0.000000 0.000000 
#    y 0.000000 1.633230 0.000000 
#    z 0.000000 0.000000 1.759460 
# 
# From -- ./inp_files/18696.got.cif
#   From: 2010.05.17/outbox.cif.g08.bks.cpg/sg35_10_cif.got.tgz:18696.got - 2010.06.03 17:29:28.
