data_PCOD9348542
_publ_section_title
;
Structure prediction by ZEFSAII (Michael W. Deem and Ramdas Pophale) SiO2 
 PCOD9348542
Probable space group: C M M 2
;
_chemical_formula_sum "Si O2"
_cell_formula_units_Z 56
_cell_length_a 8.626500
_cell_length_b 18.726557
_cell_length_c 18.847057
_cell_angle_alpha 90.000000
_cell_angle_beta 90.000000
_cell_angle_gamma 90.000000
_cell_volume 3044.641113
_symmetry_space_group_name_H-M "C M M 2"
_symmetry_group_IT_number 35
_symmetry_cell_setting 'orthorhombic'
loop_
_space_group_symop_operation_xyz
x,y,z
-x,-y,z
-x,y,z
x,-y,z
1/2+x,1/2+y,z
1/2-x,1/2-y,z
1/2-x,1/2+y,z
1/2+x,1/2-y,z
loop_
_atom_site_type_symbol
_atom_site_label
_atom_site_fract_x
_atom_site_fract_y
_atom_site_fract_z
Si Si1 0.313983 0.584030 0.730980
Si Si2 0.813268 0.831079 0.179305
Si Si3 0.815664 0.170024 0.446457
Si Si4 0.184958 0.416046 0.578711
Si Si5 0.312322 0.330488 0.869426
Si Si6 0.686045 0.916974 0.312726
Si Si7 0.813252 0.169287 0.023482
O O1 0.500000 0.592805 0.723898
O O2 0.282440 0.500000 0.740332
O O3 0.235378 0.607055 0.657577
O O4 0.260373 0.625721 0.800822
O O5 0.750000 0.750000 0.186029
O O6 0.747419 0.879226 0.241845
O O7 0.766960 0.859979 0.100688
O O8 0.000000 0.828875 0.183635
O O9 0.750000 0.250000 0.444546
O O10 0.764478 0.130758 0.518496
O O11 0.750142 0.125182 0.380444
O O12 0.000000 0.172686 0.441880
O O13 0.228549 0.500000 0.570783
O O14 0.000000 0.410840 0.571382
O O15 0.500000 0.328928 0.868087
O O16 0.250000 0.250000 0.865029
O O17 0.265243 0.361788 0.946891
O O18 0.500000 0.913603 0.313850
O O19 0.733214 0.000000 0.315362
O O20 0.750000 0.250000 0.022952
O O21 0.000000 0.171078 0.023622
#
# Coordination Sequence:
#
# PCOD9348542 Si02
#       7
#     8   8   8   8   8   8   8
#     4   9  18  33  52  74 103 141 182 220 262 316
#     4  10  19  33  55  81 109 141 181 226 270 319
#     4  12  25  41  62  86 112 140 175 218 263 314
#     4  10  21  38  59  82 110 143 179 220 267 318
#     4   9  17  30  49  74 103 136 176 221 268 315
#     4  11  24  41  59  80 110 145 179 217 264 317
#     4   8  15  28  47  73 103 136 174 217 266 316
#
# _framework density 18.392972
#
# number of rings (size 3 to 8) (size 9 to 14) (size 15 to 20)
#    0.000    2.143    0.000    3.429    0.000    5.429 
#    0.000    2.143    0.000    2.571    0.000    2.000 
#    0.000    0.000    0.000    0.000    0.000    0.000 
#
# Total GULP energy -156215.907527 kJ/mol
# GULP energy per Si atom -5579.139555 kJ/mol
# Density = 1.835111 g / cm^3
# Si number density = 18.392972 Si / 1000 Ang^3
#
#
#
# Elastic Constant Matrix: (Units=GPa)
#
#
# Indices 1 2 3 4 5 6 
#
# 1 50.2478 39.7799 53.9537 0.0000 0.0000 0.0000
# 2 39.7799 92.4233 92.5677 0.0000 0.0000 0.0000
# 3 53.9537 92.5677 205.8832 0.0000 0.0000 0.0000
# 4 0.0000 0.0000 0.0000 104.7693 0.0000 0.0000
# 5 0.0000 0.0000 0.0000 0.0000 -1.9857 0.0000
# 6 0.0000 0.0000 0.0000 0.0000 0.0000 24.1969
#
#
#
# Elastic Compliance Matrix: (Units=1/GPa)
#
#
# Indices 1 2 3 4 5 6 
#
# 1 0.031881 -0.009740 -0.003975 0.000000 0.000000 0.000000
# 2 -0.009740 0.022660 -0.007635 0.000000 0.000000 0.000000
# 3 -0.003975 -0.007635 0.009332 0.000000 0.000000 0.000000
# 4 0.000000 0.000000 0.000000 0.009545 0.000000 0.000000
# 5 0.000000 0.000000 0.000000 0.000000 -0.503590 0.000000
# 6 0.000000 0.000000 0.000000 0.000000 0.000000 0.041328
#
#
# Mechanical properties :
#
#
# Convention : Reuss Voigt Hill
#
# Bulk Modulus (GPa) = 47.23626 80.12854 63.68240
# Shear Modulus (GPa) = -14.74554 36.21295 10.73371
#
# Velocity S-wave (km/s) = -2.83449 4.44198 2.41835
# Velocity P-wave (km/s) = 3.87621 8.36467 6.51892
#
# Compressibility (1/GPa) = 0.02117018
#
# Stress axis : x y z
#
# Youngs Moduli (GPa) = 31.36650 44.13158 107.15934
#
# Poissons Ratio (x) = 0.42986 0.42600
# Poissons Ratio (y) = 0.30552 0.81821
# Poissons Ratio (z) = 0.12469 0.33696
#
# Static dielectric constant tensor:
#      x y z
#    x 1.620040 0.000000 0.000000 
#    y 0.000000 1.609040 0.000000 
#    z 0.000000 0.000000 1.656710 
# 
# From -- ./inp_files/18248.got.cif
#   From: 2010.05.17/outbox.cif.g08.bks.cpg/sg35_10_cif.got.tgz:18248.got - 2010.06.03 17:29:28.
