data_PCOD9348175
_publ_section_title
;
Structure prediction by ZEFSAII (Michael W. Deem and Ramdas Pophale) SiO2 
 PCOD9348175
Probable space group: C M M 2
;
_chemical_formula_sum "Si O2"
_cell_formula_units_Z 64
_cell_length_a 8.517070
_cell_length_b 29.615577
_cell_length_c 16.095258
_cell_angle_alpha 90.000000
_cell_angle_beta 90.000000
_cell_angle_gamma 90.000000
_cell_volume 4059.834760
_symmetry_space_group_name_H-M "C M M 2"
_symmetry_group_IT_number 35
_symmetry_cell_setting 'orthorhombic'
loop_
_space_group_symop_operation_xyz
x,y,z
-x,-y,z
-x,y,z
x,-y,z
1/2+x,1/2+y,z
1/2-x,1/2-y,z
1/2-x,1/2+y,z
1/2+x,1/2-y,z
loop_
_atom_site_type_symbol
_atom_site_label
_atom_site_fract_x
_atom_site_fract_y
_atom_site_fract_z
Si Si1 0.312056 0.698666 0.987180
Si Si2 0.311278 0.354786 0.472055
Si Si3 0.187858 0.698641 0.813532
Si Si4 0.809015 0.050110 0.407446
Si Si5 0.812497 0.698982 0.311806
Si Si6 0.191007 0.949905 0.213695
Si Si7 0.688329 0.198613 0.629887
Si Si8 0.309498 0.645491 0.151185
O O1 0.500000 0.700677 0.986585
O O2 0.250000 0.750000 0.995765
O O3 0.255814 0.678949 0.898685
O O4 0.259432 0.669062 0.065670
O O5 0.500000 0.353830 0.470221
O O6 0.257445 0.406669 0.459797
O O7 0.249701 0.326571 0.393369
O O8 0.253025 0.332013 0.556351
O O9 0.250000 0.750000 0.812940
O O10 0.233044 0.680812 0.722238
O O11 0.000000 0.698898 0.819290
O O12 0.764432 0.056550 0.310575
O O13 0.000000 0.049762 0.409020
O O14 0.756052 0.000000 0.433786
O O15 0.750000 0.750000 0.311477
O O16 0.751936 0.673305 0.230007
O O17 0.000000 0.699299 0.312599
O O18 0.242445 0.906511 0.161720
O O19 0.000000 0.950330 0.211968
O O20 0.244069 0.000000 0.187340
O O21 0.500000 0.200168 0.625537
O O22 0.750000 0.250000 0.620966
O O23 0.500000 0.646404 0.153858
#
# Coordination Sequence:
#
# PCOD9348175 Si02
#       8
#     8   8   8   8   8   8   8   8
#     4  10  19  29  45  67  94 122 153 192 229 273
#     4  11  20  32  50  70  94 123 155 192 231 276
#     4   9  17  30  48  66  89 119 152 191 230 272
#     4   8  14  26  47  71  91 116 152 192 231 272
#     4  12  24  35  46  62  91 129 163 193 224 267
#     4   8  13  25  47  70  91 117 152 193 232 272
#     4  10  20  33  48  69  95 123 157 193 231 276
#     4  10  19  32  48  70  95 122 157 193 231 275
#
# _framework density 15.764188000000001
#
# number of rings (size 3 to 8) (size 9 to 14) (size 15 to 20)
#    0.000    2.250    1.250    4.875    0.000    3.500 
#    0.000    0.000    0.000    2.625    0.000    0.875 
#    0.000    5.000    0.000    0.000    0.000    0.000 
#
# Total GULP energy -178385.461114 kJ/mol
# GULP energy per Si atom -5574.545660 kJ/mol
# Density = 1.572831 g / cm^3
# Si number density = 15.764188 Si / 1000 Ang^3
#
#
#
# Elastic Constant Matrix: (Units=GPa)
#
#
# Indices 1 2 3 4 5 6 
#
# 1 35.1816 23.0608 32.3894 0.0000 0.0000 0.0000
# 2 23.0608 129.0583 80.7833 0.0000 0.0000 0.0000
# 3 32.3894 80.7833 154.3658 0.0000 0.0000 0.0000
# 4 0.0000 0.0000 0.0000 4.5346 0.0000 0.0000
# 5 0.0000 0.0000 0.0000 0.0000 19.9714 0.0000
# 6 0.0000 0.0000 0.0000 0.0000 0.0000 12.5156
#
#
#
# Elastic Compliance Matrix: (Units=1/GPa)
#
#
# Indices 1 2 3 4 5 6 
#
# 1 0.035771 -0.002519 -0.006188 0.000000 0.000000 0.000000
# 2 -0.002519 0.011700 -0.005595 0.000000 0.000000 0.000000
# 3 -0.006188 -0.005595 0.010704 0.000000 0.000000 0.000000
# 4 0.000000 0.000000 0.000000 0.220525 0.000000 0.000000
# 5 0.000000 0.000000 0.000000 0.000000 0.050072 0.000000
# 6 0.000000 0.000000 0.000000 0.000000 0.000000 0.079900
#
#
# Mechanical properties :
#
#
# Convention : Reuss Voigt Hill
#
# Bulk Modulus (GPa) = 33.81328 65.67476 49.74402
# Shear Modulus (GPa) = 11.18238 19.56248 15.37243
#
# Velocity S-wave (km/s) = 2.66626 3.52653 3.12612
# Velocity P-wave (km/s) = 5.56548 7.63761 6.68235
#
# Compressibility (1/GPa) = 0.02957418
#
# Stress axis : x y z
#
# Youngs Moduli (GPa) = 27.95533 85.46700 93.42129
#
# Poissons Ratio (x) = 0.21527 0.57804
# Poissons Ratio (y) = 0.07041 0.52266
# Poissons Ratio (z) = 0.17297 0.47816
#
# Static dielectric constant tensor:
#      x y z
#    x 1.546730 0.000000 0.000000 
#    y 0.000000 1.524080 0.000000 
#    z 0.000000 0.000000 1.532140 
# 
# From -- ./inp_files/18548.got.cif
#   From: 2010.05.17/outbox.cif.g08.bks.cpg/sg35_10_cif.got.tgz:18548.got - 2010.06.03 17:29:28.
