data_PCOD9348479
_publ_section_title
;
Structure prediction by ZEFSAII (Michael W. Deem and Ramdas Pophale) SiO2 
 PCOD9348479
Probable space group: C M M 2
;
_chemical_formula_sum "Si O2"
_cell_formula_units_Z 64
_cell_length_a 8.696224
_cell_length_b 19.688715
_cell_length_c 21.092277
_cell_angle_alpha 90.000000
_cell_angle_beta 90.000000
_cell_angle_gamma 90.000000
_cell_volume 3611.366429
_symmetry_space_group_name_H-M "C M M 2"
_symmetry_group_IT_number 35
_symmetry_cell_setting 'orthorhombic'
loop_
_space_group_symop_operation_xyz
x,y,z
-x,-y,z
-x,y,z
x,-y,z
1/2+x,1/2+y,z
1/2-x,1/2-y,z
1/2-x,1/2+y,z
1/2+x,1/2-y,z
loop_
_atom_site_type_symbol
_atom_site_label
_atom_site_fract_x
_atom_site_fract_y
_atom_site_fract_z
Si Si1 0.685510 0.675251 0.361990
Si Si2 0.183971 0.674695 0.223807
Si Si3 0.678174 0.417419 0.615719
Si Si4 0.185214 0.175645 0.999881
Si Si5 0.317062 0.921061 0.748473
Si Si6 0.687564 0.421907 0.476840
Si Si7 0.816047 0.175753 0.855017
Si Si8 0.813769 0.079186 0.114591
O O1 0.500000 0.677167 0.358054
O O2 0.750000 0.750000 0.376078
O O3 0.752590 0.655840 0.293420
O O4 0.732394 0.624299 0.417882
O O5 0.250000 0.750000 0.208935
O O6 0.241689 0.620681 0.172593
O O7 0.000000 0.678363 0.224909
O O8 0.500000 0.397043 0.622585
O O9 0.681692 0.500000 0.613208
O O10 0.768114 0.396342 0.678424
O O11 0.737736 0.395849 0.546380
O O12 0.250000 0.250000 0.016682
O O13 0.232644 0.159494 0.927542
O O14 0.000000 0.179931 0.000941
O O15 0.231810 0.118702 0.050302
O O16 0.500000 0.918085 0.753817
O O17 0.242700 0.877572 0.803965
O O18 0.268120 0.000000 0.753666
O O19 0.500000 0.422599 0.479246
O O20 0.737531 0.500000 0.468386
O O21 0.750000 0.250000 0.840078
O O22 0.000000 0.178129 0.853554
O O23 0.000000 0.082288 0.119552
O O24 0.769447 0.000000 0.113945
#
# Coordination Sequence:
#
# PCOD9348479 Si02
#       8
#     8   8   8   8   8   8   8   8
#     4  10  19  33  53  76 103 134 168 208 256 307
#     4  11  22  37  56  77 103 137 178 216 254 305
#     4   8  14  28  50  73  97 129 171 214 255 303
#     4   9  19  35  56  79 102 134 173 211 252 305
#     4  10  20  33  50  75 106 138 174 216 260 306
#     4   8  15  29  51  76  98 126 169 215 255 300
#     4  10  20  35  55  78 105 136 172 213 258 307
#     4  10  21  37  56  80 110 139 168 208 257 304
#
# _framework density 17.721823000000001
#
# number of rings (size 3 to 8) (size 9 to 14) (size 15 to 20)
#    0.000    2.500    0.000    4.125    0.000    4.000 
#    0.000    4.375    0.000    4.125    0.000    0.000 
#    0.000    0.000    0.000    0.000    0.000    0.000 
#
# Total GULP energy -178483.624485 kJ/mol
# GULP energy per Si atom -5577.613265 kJ/mol
# Density = 1.768149 g / cm^3
# Si number density = 17.721823 Si / 1000 Ang^3
#
#
#
# Elastic Constant Matrix: (Units=GPa)
#
#
# Indices 1 2 3 4 5 6 
#
# 1 47.8009 40.0880 48.8141 0.0000 0.0000 0.0000
# 2 40.0880 106.3463 114.9078 0.0000 0.0000 0.0000
# 3 48.8141 114.9078 165.8391 0.0000 0.0000 0.0000
# 4 0.0000 0.0000 0.0000 38.1583 0.0000 0.0000
# 5 0.0000 0.0000 0.0000 0.0000 11.0139 0.0000
# 6 0.0000 0.0000 0.0000 0.0000 0.0000 23.8947
#
#
#
# Elastic Compliance Matrix: (Units=1/GPa)
#
#
# Indices 1 2 3 4 5 6 
#
# 1 0.031285 -0.007333 -0.004127 0.000000 0.000000 0.000000
# 2 -0.007333 0.039133 -0.024956 0.000000 0.000000 0.000000
# 3 -0.004127 -0.024956 0.024537 0.000000 0.000000 0.000000
# 4 0.000000 0.000000 0.000000 0.026207 0.000000 0.000000
# 5 0.000000 0.000000 0.000000 0.000000 0.090794 0.000000
# 6 0.000000 0.000000 0.000000 0.000000 0.000000 0.041850
#
#
# Mechanical properties :
#
#
# Convention : Reuss Voigt Hill
#
# Bulk Modulus (GPa) = 45.20653 80.84512 63.02582
# Shear Modulus (GPa) = 14.96946 22.35846 18.66396
#
# Velocity S-wave (km/s) = 2.90951 3.55580 3.24877
# Velocity P-wave (km/s) = 6.07053 7.91052 7.05080
#
# Compressibility (1/GPa) = 0.02212070
#
# Stress axis : x y z
#
# Youngs Moduli (GPa) = 31.96400 25.55398 40.75546
#
# Poissons Ratio (x) = 0.18740 0.16821
# Poissons Ratio (y) = 0.23441 1.01710
# Poissons Ratio (z) = 0.13193 0.63773
#
# Static dielectric constant tensor:
#      x y z
#    x 1.598020 0.000000 0.000000 
#    y 0.000000 1.578440 0.000000 
#    z 0.000000 0.000000 1.613740 
# 
# From -- ./inp_files/18412.got.cif
#   From: 2010.05.17/outbox.cif.g08.bks.cpg/sg35_10_cif.got.tgz:18412.got - 2010.06.03 17:29:28.
