data_PCOD9348460
_publ_section_title
;
Structure prediction by ZEFSAII (Michael W. Deem and Ramdas Pophale) SiO2 
 PCOD9348460
Probable space group: C M M 2
;
_chemical_formula_sum "Si O2"
_cell_formula_units_Z 48
_cell_length_a 30.003555
_cell_length_b 13.295804
_cell_length_c 5.535403
_cell_angle_alpha 90.000000
_cell_angle_beta 90.000000
_cell_angle_gamma 90.000000
_cell_volume 2208.190640
_symmetry_space_group_name_H-M "C M M 2"
_symmetry_group_IT_number 35
_symmetry_cell_setting 'orthorhombic'
loop_
_space_group_symop_operation_xyz
x,y,z
-x,-y,z
-x,y,z
x,-y,z
1/2+x,1/2+y,z
1/2-x,1/2-y,z
1/2-x,1/2+y,z
1/2+x,1/2-y,z
loop_
_atom_site_type_symbol
_atom_site_label
_atom_site_fract_x
_atom_site_fract_y
_atom_site_fract_z
Si Si1 0.253051 0.868165 0.187500
Si Si2 0.902496 0.620683 0.687503
Si Si3 0.797257 0.659866 0.687500
Si Si4 0.666846 0.373551 0.687500
Si Si5 0.051791 0.622404 0.187503
Si Si6 0.146911 0.891256 0.187500
O O1 0.250000 0.750000 0.187500
O O2 0.277871 0.888401 0.440192
O O3 0.201606 0.900983 0.187500
O O4 0.277871 0.888401 0.934808
O O5 0.908855 0.500000 0.687503
O O6 0.849858 0.639904 0.687501
O O7 0.924682 0.656459 0.436078
O O8 0.924682 0.656459 0.938929
O O9 0.794918 0.785327 0.687500
O O10 0.675874 0.500000 0.687500
O O11 0.639408 0.348021 0.448387
O O12 0.639408 0.348021 0.926612
O O13 0.053584 0.500000 0.187503
O O14 0.000000 0.651657 0.187501
O O15 0.125598 0.000000 0.187500
#
# Coordination Sequence:
#
# PCOD9348460 Si02
#       6
#     8   8   8   8   8   8
#     4  12  21  33  49  65  89 125 172 205 250 304
#     4  10  21  34  49  77 109 132 160 195 240 299
#     4  12  22  33  51  68  98 129 156 207 257 290
#     4  10  19  33  48  65  85 115 160 210 246 275
#     4   9  17  33  56  77 102 136 165 190 224 281
#     4  10  20  32  47  64  82 111 163 214 244 281
#
# _framework density 21.737254
#
# number of rings (size 3 to 8) (size 9 to 14) (size 15 to 20)
#    0.000    1.500    3.333    3.000    0.000    3.333 
#    0.000    0.000    0.000    0.000    0.000    0.000 
#    0.000    4.000    0.000    0.000    0.000    0.000 
#
# Total GULP energy -133619.255998 kJ/mol
# GULP energy per Si atom -5567.469000 kJ/mol
# Density = 2.168778 g / cm^3
# Si number density = 21.737254 Si / 1000 Ang^3
#
#
#
# Elastic Constant Matrix: (Units=GPa)
#
#
# Indices 1 2 3 4 5 6 
#
# 1 107.2753 -5.0887 68.6917 0.0000 0.0000 0.0000
# 2 -5.0887 102.5953 7.3858 0.0000 0.0000 0.0000
# 3 68.6917 7.3858 274.7196 0.0000 0.0000 0.0000
# 4 0.0000 0.0000 0.0000 -6.3058 0.0000 0.0000
# 5 0.0000 0.0000 0.0000 0.0000 310.8310 0.0000
# 6 0.0000 0.0000 0.0000 0.0000 0.0000 14.9513
#
#
#
# Elastic Compliance Matrix: (Units=1/GPa)
#
#
# Indices 1 2 3 4 5 6 
#
# 1 0.011157 0.000756 -0.002810 0.000000 0.000000 0.000000
# 2 0.000756 0.009817 -0.000453 0.000000 0.000000 0.000000
# 3 -0.002810 -0.000453 0.004355 0.000000 0.000000 0.000000
# 4 0.000000 0.000000 0.000000 -0.158584 0.000000 0.000000
# 5 0.000000 0.000000 0.000000 0.000000 0.003217 0.000000
# 6 0.000000 0.000000 0.000000 0.000000 0.000000 0.066884
#
#
# Mechanical properties :
#
#
# Convention : Reuss Voigt Hill
#
# Bulk Modulus (GPa) = 49.22588 69.61865 59.42227
# Shear Modulus (GPa) = -97.33738 91.46872 -2.93433
#
# Velocity S-wave (km/s) = -6.69898 6.49389 -1.16312
# Velocity P-wave (km/s) = 6.09426 9.39810 5.05887
#
# Compressibility (1/GPa) = 0.02031452
#
# Stress axis : x y z
#
# Youngs Moduli (GPa) = 89.62971 101.86288 229.62727
#
# Poissons Ratio (x) = -0.07698 0.64526
# Poissons Ratio (y) = -0.06773 0.10400
# Poissons Ratio (z) = 0.25186 0.04613
#
# Static dielectric constant tensor:
#      x y z
#    x 1.758970 0.000000 0.000000 
#    y 0.000000 1.878850 0.000000 
#    z 0.000000 0.000000 1.945020 
# 
# From -- ./inp_files/2032.got.cif
#   From: 2010.05.17/outbox.cif.g08.bks.cpg/sg35_2_cif.got.tgz:2032.got - 2010.06.03 17:29:28.
