data_PCOD9348970
_publ_section_title
;
Structure prediction by ZEFSAII (Michael W. Deem and Ramdas Pophale) SiO2 
 PCOD9348970
Probable space group: C M M 2
;
_chemical_formula_sum "Si O2"
_cell_formula_units_Z 48
_cell_length_a 19.406697
_cell_length_b 7.948019
_cell_length_c 17.766832
_cell_angle_alpha 90.000000
_cell_angle_beta 90.000000
_cell_angle_gamma 90.000000
_cell_volume 2740.441386
_symmetry_space_group_name_H-M "C M M 2"
_symmetry_group_IT_number 35
_symmetry_cell_setting 'orthorhombic'
loop_
_space_group_symop_operation_xyz
x,y,z
-x,-y,z
-x,y,z
x,-y,z
1/2+x,1/2+y,z
1/2-x,1/2-y,z
1/2-x,1/2+y,z
1/2+x,1/2-y,z
loop_
_atom_site_type_symbol
_atom_site_label
_atom_site_fract_x
_atom_site_fract_y
_atom_site_fract_z
Si Si1 0.915868 0.000000 0.972520
Si Si2 0.830026 0.202505 0.552874
Si Si3 0.582243 0.190490 0.694547
Si Si4 0.915956 0.694392 0.078629
Si Si5 0.916319 0.000000 0.799983
Si Si6 0.922413 0.298559 0.244970
Si Si7 0.170989 0.799938 0.384399
O O1 0.892460 0.000000 0.886114
O O2 0.894449 0.831493 0.017163
O O3 0.000000 0.000000 0.972444
O O4 0.750000 0.250000 0.564649
O O5 0.877359 0.280713 0.617061
O O6 0.848849 0.261947 0.468217
O O7 0.836611 0.000000 0.556529
O O8 0.500000 0.209949 0.681914
O O9 0.604199 0.333499 0.753806
O O10 0.594210 0.000000 0.721872
O O11 0.894132 0.500000 0.065071
O O12 0.895107 0.753767 0.162670
O O13 0.000000 0.691798 0.079963
O O14 0.000000 0.000000 0.802122
O O15 0.927097 0.500000 0.239259
O O16 0.875983 0.258254 0.316081
O O17 0.000000 0.230712 0.255316
O O18 0.250000 0.750000 0.371305
O O19 0.167342 0.000000 0.387406
#
# Coordination Sequence:
#
# PCOD9348970 Si02
#       7
#     4   8   8   8   4   8   8
#     4   9  16  26  46  71  99 135 165 203 256 301
#     4  10  20  35  53  74 102 133 174 221 256 302
#     4  10  20  34  53  76 106 140 171 209 259 311
#     4   8  15  27  43  68 101 133 167 207 248 296
#     4   9  18  32  48  73 107 135 166 211 256 307
#     4   9  18  32  49  71 103 136 169 214 256 297
#     4  10  21  34  50  72 101 135 171 215 255 298
#
# _framework density 17.515426999999999
#
# number of rings (size 3 to 8) (size 9 to 14) (size 15 to 20)
#    0.000    2.667    0.833    2.000    1.167    3.667 
#    0.000    6.667    0.000    0.000    0.000    1.167 
#    0.000    0.000    0.000    0.000    0.000    0.000 
#
# Total GULP energy -133745.763677 kJ/mol
# GULP energy per Si atom -5572.740153 kJ/mol
# Density = 1.747556 g / cm^3
# Si number density = 17.515427 Si / 1000 Ang^3
#
#
#
# Elastic Constant Matrix: (Units=GPa)
#
#
# Indices 1 2 3 4 5 6 
#
# 1 23.9450 24.6910 51.9903 0.0000 0.0000 0.0000
# 2 24.6910 95.8188 75.4990 0.0000 0.0000 0.0000
# 3 51.9903 75.4990 180.6167 0.0000 0.0000 0.0000
# 4 0.0000 0.0000 0.0000 15.1473 0.0000 0.0000
# 5 0.0000 0.0000 0.0000 0.0000 -11.3409 0.0000
# 6 0.0000 0.0000 0.0000 0.0000 0.0000 19.2713
#
#
#
# Elastic Compliance Matrix: (Units=1/GPa)
#
#
# Indices 1 2 3 4 5 6 
#
# 1 0.113079 -0.005206 -0.030373 0.000000 0.000000 0.000000
# 2 -0.005206 0.015802 -0.005107 0.000000 0.000000 0.000000
# 3 -0.030373 -0.005107 0.016414 0.000000 0.000000 0.000000
# 4 0.000000 0.000000 0.000000 0.066018 0.000000 0.000000
# 5 0.000000 0.000000 0.000000 0.000000 -0.088177 0.000000
# 6 0.000000 0.000000 0.000000 0.000000 0.000000 0.051891
#
#
# Mechanical properties :
#
#
# Convention : Reuss Voigt Hill
#
# Bulk Modulus (GPa) = 15.64405 67.19346 41.41876
# Shear Modulus (GPa) = 18.00464 14.49558 16.25011
#
# Velocity S-wave (km/s) = 3.20961 2.87991 3.04922
# Velocity P-wave (km/s) = 4.76303 7.03592 6.00794
#
# Compressibility (1/GPa) = 0.06392205
#
# Stress axis : x y z
#
# Youngs Moduli (GPa) = 8.84339 63.28488 60.92336
#
# Poissons Ratio (x) = 0.32949 1.85044
# Poissons Ratio (y) = 0.04604 0.31111
# Poissons Ratio (z) = 0.26860 0.32316
#
# Static dielectric constant tensor:
#      x y z
#    x 1.559630 0.000000 0.000000 
#    y 0.000000 1.621760 0.000000 
#    z 0.000000 0.000000 1.607420 
# 
# From -- ./inp_files/17104.got.cif
#   From: 2010.05.17/outbox.cif.g08.bks.cpg/sg35_9_cif.got.tgz:17104.got - 2010.06.03 17:29:28.
