data_PCOD9348204
_publ_section_title
;
Structure prediction by ZEFSAII (Michael W. Deem and Ramdas Pophale) SiO2 
 PCOD9348204
Probable space group: C M M 2
;
_chemical_formula_sum "Si O2"
_cell_formula_units_Z 48
_cell_length_a 9.352943
_cell_length_b 33.761129
_cell_length_c 9.324327
_cell_angle_alpha 90.000000
_cell_angle_beta 90.000000
_cell_angle_gamma 90.000000
_cell_volume 2944.304648
_symmetry_space_group_name_H-M "C M M 2"
_symmetry_group_IT_number 35
_symmetry_cell_setting 'orthorhombic'
loop_
_space_group_symop_operation_xyz
x,y,z
-x,-y,z
-x,y,z
x,-y,z
1/2+x,1/2+y,z
1/2-x,1/2-y,z
1/2-x,1/2+y,z
1/2+x,1/2-y,z
loop_
_atom_site_type_symbol
_atom_site_label
_atom_site_fract_x
_atom_site_fract_y
_atom_site_fract_z
Si Si1 0.328871 0.955908 0.223810
Si Si2 0.328562 0.878047 0.043433
Si Si3 0.836894 0.917251 0.470486
Si Si4 0.172510 0.869119 0.742145
Si Si5 0.328347 0.290175 0.562526
Si Si6 0.163922 0.835934 0.285007
O O1 0.500000 0.954756 0.237245
O O2 0.289689 0.920713 0.114261
O O3 0.260365 0.946123 0.377859
O O4 0.286022 0.000000 0.176390
O O5 0.500000 0.875395 0.033864
O O6 0.266104 0.845101 0.152381
O O7 0.254394 0.873739 0.890275
O O8 0.789576 0.903829 0.628565
O O9 0.839274 0.876100 0.380452
O O10 0.000000 0.931966 0.477214
O O11 0.206866 0.827133 0.666045
O O12 0.000000 0.870400 0.761442
O O13 0.500000 0.285507 0.566000
O O14 0.250000 0.250000 0.603515
O O15 0.289888 0.302776 0.399201
O O16 0.000000 0.828444 0.238023
#
# Coordination Sequence:
#
# PCOD9348204 Si02
#       6
#     8   8   8   8   8   8
#     4   9  18  32  48  68  96 125 153 193 243 284
#     4  10  19  30  48  73  96 124 163 197 227 275
#     4   8  15  29  49  69  88 116 156 193 224 271
#     4   9  18  33  50  69  97 129 156 189 238 285
#     4   9  18  32  51  73  95 122 156 195 240 285
#     4   8  15  30  49  67  90 121 153 187 232 278
#
# _framework density 16.302661000000001
#
# number of rings (size 3 to 8) (size 9 to 14) (size 15 to 20)
#    0.000    3.167    0.000    2.500    0.000    3.000 
#    0.000    5.000    0.000    3.000    0.000    0.000 
#    0.000    0.000    0.000    0.000    0.000    0.000 
#
# Total GULP energy -133605.606377 kJ/mol
# GULP energy per Si atom -5566.900266 kJ/mol
# Density = 1.626556 g / cm^3
# Si number density = 16.302661 Si / 1000 Ang^3
#
#
#
# Elastic Constant Matrix: (Units=GPa)
#
#
# Indices 1 2 3 4 5 6 
#
# 1 36.5462 32.5296 56.2538 0.0000 0.0000 0.0000
# 2 32.5296 76.0519 43.3237 0.0000 0.0000 0.0000
# 3 56.2538 43.3237 137.1387 0.0000 0.0000 0.0000
# 4 0.0000 0.0000 0.0000 14.1856 0.0000 0.0000
# 5 0.0000 0.0000 0.0000 0.0000 24.6672 0.0000
# 6 0.0000 0.0000 0.0000 0.0000 0.0000 22.6835
#
#
#
# Elastic Compliance Matrix: (Units=1/GPa)
#
#
# Indices 1 2 3 4 5 6 
#
# 1 0.100214 -0.023715 -0.033616 0.000000 0.000000 0.000000
# 2 -0.023715 0.021647 0.002889 0.000000 0.000000 0.000000
# 3 -0.033616 0.002889 0.020168 0.000000 0.000000 0.000000
# 4 0.000000 0.000000 0.000000 0.070494 0.000000 0.000000
# 5 0.000000 0.000000 0.000000 0.000000 0.040540 0.000000
# 6 0.000000 0.000000 0.000000 0.000000 0.000000 0.044085
#
#
# Mechanical properties :
#
#
# Convention : Reuss Voigt Hill
#
# Bulk Modulus (GPa) = 30.16929 57.10566 43.63747
# Shear Modulus (GPa) = 11.98815 20.14923 16.06869
#
# Velocity S-wave (km/s) = 2.71467 3.51942 3.14291
# Velocity P-wave (km/s) = 5.32652 7.18467 6.32422
#
# Compressibility (1/GPa) = 0.03314629
#
# Stress axis : x y z
#
# Youngs Moduli (GPa) = 9.97863 46.19670 49.58335
#
# Poissons Ratio (x) = 1.09556 1.66677
# Poissons Ratio (y) = 0.23664 -0.14327
# Poissons Ratio (z) = 0.33544 -0.13348
#
# Static dielectric constant tensor:
#      x y z
#    x 1.542130 0.000000 0.000000 
#    y 0.000000 1.559100 0.000000 
#    z 0.000000 0.000000 1.538530 
# 
# From -- ./inp_files/5321.got.cif
#   From: 2010.05.17/outbox.cif.g08.bks.cpg/sg35_3_cif.got.tgz:5321.got - 2010.06.03 17:29:28.
