data_PCOD9348626
_publ_section_title
;
Structure prediction by ZEFSAII (Michael W. Deem and Ramdas Pophale) SiO2 
 PCOD9348626
Probable space group: C M M 2
;
_chemical_formula_sum "Si O2"
_cell_formula_units_Z 56
_cell_length_a 14.109004
_cell_length_b 22.017627
_cell_length_c 9.558138
_cell_angle_alpha 90.000000
_cell_angle_beta 90.000000
_cell_angle_gamma 90.000000
_cell_volume 2969.204863
_symmetry_space_group_name_H-M "C M M 2"
_symmetry_group_IT_number 35
_symmetry_cell_setting 'orthorhombic'
loop_
_space_group_symop_operation_xyz
x,y,z
-x,-y,z
-x,y,z
x,-y,z
1/2+x,1/2+y,z
1/2-x,1/2-y,z
1/2-x,1/2+y,z
1/2+x,1/2-y,z
loop_
_atom_site_type_symbol
_atom_site_label
_atom_site_fract_x
_atom_site_fract_y
_atom_site_fract_z
Si Si1 0.781950 0.318943 0.215070
Si Si2 0.892659 0.154847 0.052132
Si Si3 0.388565 0.791410 0.944450
Si Si4 0.614231 0.000000 0.245837
Si Si5 0.893962 0.072750 0.784321
Si Si6 0.191514 0.387061 0.741178
Si Si7 0.111917 0.615061 0.434549
Si Si8 0.615275 0.000000 0.922626
O O1 0.750000 0.250000 0.215200
O O2 0.687906 0.354520 0.167466
O O3 0.828336 0.332472 0.362383
O O4 0.857764 0.324478 0.088752
O O5 0.000000 0.160305 0.107909
O O6 0.872505 0.219262 0.971371
O O7 0.889880 0.101173 0.939689
O O8 0.500000 0.800209 0.918451
O O9 0.330966 0.823971 0.820663
O O10 0.640739 0.058028 0.337791
O O11 0.500000 0.000000 0.238360
O O12 0.646479 0.000000 0.085275
O O13 0.802740 0.102221 0.711700
O O14 0.000000 0.087327 0.729099
O O15 0.884047 0.000000 0.785994
O O16 0.136307 0.392642 0.595974
O O17 0.155495 0.440712 0.844009
O O18 0.000000 0.624663 0.419150
O O19 0.500000 0.000000 0.915489
#
# Coordination Sequence:
#
# PCOD9348626 Si02
#       8
#     8   8   8   4   8   8   8   4
#     4  10  20  37  57  84 114 161 199 240 289 351
#     4   9  19  37  61  87 114 149 201 259 294 334
#     4  10  19  34  60  89 118 150 196 246 298 353
#     4   9  21  37  57  83 116 158 191 234 291 357
#     4  10  21  38  59  85 116 153 198 250 300 342
#     4  12  22  36  60  89 119 159 193 246 303 360
#     4  11  23  39  57  86 128 159 188 236 307 369
#     4  11  21  35  58  91 120 152 206 244 286 355
#
# _framework density 18.860268999999999
#
# number of rings (size 3 to 8) (size 9 to 14) (size 15 to 20)
#    0.000    1.714    2.143    3.000    0.000    2.286 
#    2.571    0.714    0.000    0.000    0.000    0.000 
#    0.000    0.000    0.000    0.000    0.000    0.000 
#
# Total GULP energy -156213.232277 kJ/mol
# GULP energy per Si atom -5579.044010 kJ/mol
# Density = 1.881734 g / cm^3
# Si number density = 18.860269 Si / 1000 Ang^3
#
#
#
# Elastic Constant Matrix: (Units=GPa)
#
#
# Indices 1 2 3 4 5 6 
#
# 1 114.9977 26.6787 18.3281 0.0000 0.0000 0.0000
# 2 26.6787 27.5427 17.3896 0.0000 0.0000 0.0000
# 3 18.3281 17.3896 92.6822 0.0000 0.0000 0.0000
# 4 0.0000 0.0000 0.0000 7.0160 0.0000 0.0000
# 5 0.0000 0.0000 0.0000 0.0000 31.9218 0.0000
# 6 0.0000 0.0000 0.0000 0.0000 0.0000 25.3651
#
#
#
# Elastic Compliance Matrix: (Units=1/GPa)
#
#
# Indices 1 2 3 4 5 6 
#
# 1 0.011220 -0.010739 -0.000204 0.000000 0.000000 0.000000
# 2 -0.010739 0.051465 -0.007533 0.000000 0.000000 0.000000
# 3 -0.000204 -0.007533 0.012243 0.000000 0.000000 0.000000
# 4 0.000000 0.000000 0.000000 0.142531 0.000000 0.000000
# 5 0.000000 0.000000 0.000000 0.000000 0.031327 0.000000
# 6 0.000000 0.000000 0.000000 0.000000 0.000000 0.039424
#
#
# Mechanical properties :
#
#
# Convention : Reuss Voigt Hill
#
# Bulk Modulus (GPa) = 26.33155 40.00171 33.16663
# Shear Modulus (GPa) = 14.80082 24.38235 19.59159
#
# Velocity S-wave (km/s) = 2.80440 3.59944 3.22650
# Velocity P-wave (km/s) = 4.94751 6.20727 5.61285
#
# Compressibility (1/GPa) = 0.03797726
#
# Stress axis : x y z
#
# Youngs Moduli (GPa) = 89.12901 19.43064 81.67834
#
# Poissons Ratio (x) = 0.20867 0.01665
# Poissons Ratio (y) = 0.95716 0.61524
# Poissons Ratio (z) = 0.01816 0.14636
#
# Static dielectric constant tensor:
#      x y z
#    x 1.704360 0.000000 0.000000 
#    y 0.000000 1.775760 0.000000 
#    z 0.000000 0.000000 1.610240 
# 
# From -- ./inp_files/7684.got.cif
#   From: 2010.05.17/outbox.cif.g08.bks.cpg/sg35_4_cif.got.tgz:7684.got - 2010.06.03 17:29:28.
