data_PCOD9348503
_publ_section_title
;
Structure prediction by ZEFSAII (Michael W. Deem and Ramdas Pophale) SiO2 
 PCOD9348503
Probable space group: C M M 2
;
_chemical_formula_sum "Si O2"
_cell_formula_units_Z 64
_cell_length_a 8.711774
_cell_length_b 19.344063
_cell_length_c 21.375561
_cell_angle_alpha 90.000000
_cell_angle_beta 90.000000
_cell_angle_gamma 90.000000
_cell_volume 3602.233162
_symmetry_space_group_name_H-M "C M M 2"
_symmetry_group_IT_number 35
_symmetry_cell_setting 'orthorhombic'
loop_
_space_group_symop_operation_xyz
x,y,z
-x,-y,z
-x,y,z
x,-y,z
1/2+x,1/2+y,z
1/2-x,1/2-y,z
1/2-x,1/2+y,z
1/2+x,1/2-y,z
loop_
_atom_site_type_symbol
_atom_site_label
_atom_site_fract_x
_atom_site_fract_y
_atom_site_fract_z
Si Si1 0.815876 0.673607 0.679610
Si Si2 0.184918 0.673772 0.822009
Si Si3 0.184754 0.828077 0.049709
Si Si4 0.316958 0.418679 0.569620
Si Si5 0.684497 0.672584 0.187320
Si Si6 0.685829 0.080021 0.937879
Si Si7 0.816348 0.580946 0.435880
Si Si8 0.815352 0.827894 0.324237
O O1 0.750000 0.750000 0.668350
O O2 0.770739 0.654333 0.750962
O O3 0.751118 0.622698 0.627617
O O4 0.000000 0.675102 0.676301
O O5 0.250000 0.750000 0.835720
O O6 0.233907 0.618913 0.874132
O O7 0.000000 0.678124 0.823634
O O8 0.250000 0.750000 0.043075
O O9 0.229552 0.856027 0.119246
O O10 0.000000 0.824701 0.045940
O O11 0.249005 0.877037 0.995974
O O12 0.500000 0.410673 0.567789
O O13 0.280364 0.500000 0.576390
O O14 0.247386 0.395525 0.503200
O O15 0.500000 0.675514 0.187319
O O16 0.750000 0.750000 0.187541
O O17 0.729737 0.642897 0.255073
O O18 0.500000 0.081810 0.940478
O O19 0.734055 0.000000 0.938800
O O20 0.773430 0.500000 0.428323
O O21 0.748754 0.625639 0.379726
O O22 0.000000 0.585941 0.436101
O O23 0.750000 0.750000 0.329132
O O24 0.000000 0.825101 0.327679
#
# Coordination Sequence:
#
# PCOD9348503 Si02
#       8
#     8   8   8   8   8   8   8   8
#     4  10  20  35  56  81 108 136 169 211 258 306
#     4   9  19  35  55  77 102 135 172 211 255 306
#     4  10  19  33  54  78 103 134 174 215 258 309
#     4  10  21  37  56  78 105 137 173 213 257 306
#     4   8  16  30  49  74 102 132 167 210 257 306
#     4  10  21  36  52  74 106 140 174 214 259 305
#     4  10  21  37  55  76 104 138 176 215 255 304
#     4  10  19  33  54  79 106 135 170 213 261 309
#
# _framework density 17.766756000000001
#
# number of rings (size 3 to 8) (size 9 to 14) (size 15 to 20)
#    0.000    2.375    0.000    2.250    0.000    5.750 
#    0.000    4.375    0.000    3.750    0.000    0.000 
#    0.000    0.000    0.000    0.000    0.000    0.000 
#
# Total GULP energy -178453.597173 kJ/mol
# GULP energy per Si atom -5576.674912 kJ/mol
# Density = 1.772632 g / cm^3
# Si number density = 17.766756 Si / 1000 Ang^3
#
#
#
# Elastic Constant Matrix: (Units=GPa)
#
#
# Indices 1 2 3 4 5 6 
#
# 1 30.2031 33.7710 51.4011 0.0000 0.0000 0.0000
# 2 33.7710 88.1003 105.5394 0.0000 0.0000 0.0000
# 3 51.4011 105.5394 203.2589 0.0000 0.0000 0.0000
# 4 0.0000 0.0000 0.0000 -40.6755 0.0000 0.0000
# 5 0.0000 0.0000 0.0000 0.0000 16.5090 0.0000
# 6 0.0000 0.0000 0.0000 0.0000 0.0000 25.6000
#
#
#
# Elastic Compliance Matrix: (Units=1/GPa)
#
#
# Indices 1 2 3 4 5 6 
#
# 1 0.063700 -0.013547 -0.009075 0.000000 0.000000 0.000000
# 2 -0.013547 0.032911 -0.013663 0.000000 0.000000 0.000000
# 3 -0.009075 -0.013663 0.014309 0.000000 0.000000 0.000000
# 4 0.000000 0.000000 0.000000 -0.024585 0.000000 0.000000
# 5 0.000000 0.000000 0.000000 0.000000 0.060573 0.000000
# 6 0.000000 0.000000 0.000000 0.000000 0.000000 0.039062
#
#
# Mechanical properties :
#
#
# Convention : Reuss Voigt Hill
#
# Bulk Modulus (GPa) = 26.07467 78.10949 52.09208
# Shear Modulus (GPa) = 18.42825 9.01009 13.71917
#
# Velocity S-wave (km/s) = 3.22410 2.25440 2.78183
# Velocity P-wave (km/s) = 5.34488 7.12992 6.30093
#
# Compressibility (1/GPa) = 0.03835140
#
# Stress axis : x y z
#
# Youngs Moduli (GPa) = 15.69850 30.38539 69.88657
#
# Poissons Ratio (x) = 0.41162 0.63422
# Poissons Ratio (y) = 0.21266 0.95483
# Poissons Ratio (z) = 0.14246 0.41514
#
# Static dielectric constant tensor:
#      x y z
#    x 1.606250 0.000000 0.000000 
#    y 0.000000 1.567760 0.000000 
#    z 0.000000 0.000000 1.627610 
# 
# From -- ./inp_files/18316.got.cif
#   From: 2010.05.17/outbox.cif.g08.bks.cpg/sg35_10_cif.got.tgz:18316.got - 2010.06.03 17:29:28.
