data_PCOD9348927
_publ_section_title
;
Structure prediction by ZEFSAII (Michael W. Deem and Ramdas Pophale) SiO2 
 PCOD9348927
Probable space group: C M M 2
;
_chemical_formula_sum "Si O2"
_cell_formula_units_Z 56
_cell_length_a 9.373540
_cell_length_b 15.454909
_cell_length_c 18.899177
_cell_angle_alpha 90.000000
_cell_angle_beta 90.000000
_cell_angle_gamma 90.000000
_cell_volume 2737.871000
_symmetry_space_group_name_H-M "C M M 2"
_symmetry_group_IT_number 35
_symmetry_cell_setting 'orthorhombic'
loop_
_space_group_symop_operation_xyz
x,y,z
-x,-y,z
-x,y,z
x,-y,z
1/2+x,1/2+y,z
1/2-x,1/2-y,z
1/2-x,1/2+y,z
1/2+x,1/2-y,z
loop_
_atom_site_type_symbol
_atom_site_label
_atom_site_fract_x
_atom_site_fract_y
_atom_site_fract_z
Si Si1 0.171679 0.662376 0.610850
Si Si2 0.833977 0.894606 0.165302
Si Si3 0.173228 0.599820 0.455878
Si Si4 0.334502 0.893897 0.302660
Si Si5 0.336444 0.893599 0.870676
Si Si6 0.165886 0.105596 0.008839
Si Si7 0.340385 0.600011 0.737446
O O1 0.250000 0.750000 0.631273
O O2 0.212378 0.643818 0.529363
O O3 0.242909 0.599805 0.667639
O O4 0.000000 0.663218 0.615939
O O5 0.749288 0.863713 0.233799
O O6 0.783535 0.866896 0.087224
O O7 0.000000 0.871745 0.171510
O O8 0.825703 0.000000 0.166228
O O9 0.218639 0.500000 0.461416
O O10 0.222912 0.634960 0.379741
O O11 0.000000 0.600478 0.452345
O O12 0.500000 0.869589 0.296242
O O13 0.329785 0.000000 0.304735
O O14 0.500000 0.865420 0.865861
O O15 0.245356 0.861596 0.803649
O O16 0.337778 0.000000 0.870394
O O17 0.262662 0.866015 0.943821
O O18 0.000000 0.130920 0.999653
O O19 0.167081 0.000000 0.008837
O O20 0.500000 0.636964 0.726021
O O21 0.359331 0.500000 0.756798
#
# Coordination Sequence:
#
# PCOD9348927 Si02
#       7
#     8   8   8   8   8   8   8
#     4  11  22  36  53  72  97 126 158 197 242 291
#     4   8  13  20  30  48  78 115 149 180 221 270
#     4   8  15  29  49  70  91 120 157 194 234 281
#     4   8  13  22  37  57  80 108 146 187 223 265
#     4   9  16  25  39  61  87 116 153 193 231 273
#     4   8  13  21  32  48  77 117 153 183 220 268
#     4  10  20  34  52  73  97 125 159 198 240 287
#
# _framework density 20.453849000000002
#
# number of rings (size 3 to 8) (size 9 to 14) (size 15 to 20)
#    0.000    3.143    0.000    3.429    0.000    3.714 
#    0.000    4.286    0.000    3.429    0.000    0.000 
#    0.000    1.143    0.000    6.000    0.000   11.286 
#
# Total GULP energy -155991.071035 kJ/mol
# GULP energy per Si atom -5571.109680 kJ/mol
# Density = 2.040730 g / cm^3
# Si number density = 20.453849 Si / 1000 Ang^3
#
#
#
# Elastic Constant Matrix: (Units=GPa)
#
#
# Indices 1 2 3 4 5 6 
#
# 1 100.4957 7.7713 89.1989 0.0000 0.0000 0.0000
# 2 7.7713 21.5037 2.8389 0.0000 0.0000 0.0000
# 3 89.1989 2.8389 182.2123 0.0000 0.0000 0.0000
# 4 0.0000 0.0000 0.0000 -27.5840 0.0000 0.0000
# 5 0.0000 0.0000 0.0000 0.0000 40.1141 0.0000
# 6 0.0000 0.0000 0.0000 0.0000 0.0000 5.9204
#
#
#
# Elastic Compliance Matrix: (Units=1/GPa)
#
#
# Indices 1 2 3 4 5 6 
#
# 1 0.018204 -0.005414 -0.008827 0.000000 0.000000 0.000000
# 2 -0.005414 0.048209 0.001899 0.000000 0.000000 0.000000
# 3 -0.008827 0.001899 0.009780 0.000000 0.000000 0.000000
# 4 0.000000 0.000000 0.000000 -0.036253 0.000000 0.000000
# 5 0.000000 0.000000 0.000000 0.000000 0.024929 0.000000
# 6 0.000000 0.000000 0.000000 0.000000 0.000000 0.168906
#
#
# Mechanical properties :
#
#
# Convention : Reuss Voigt Hill
#
# Bulk Modulus (GPa) = 19.41378 55.98110 37.69744
# Shear Modulus (GPa) = 18.14031 17.31695 17.72863
#
# Velocity S-wave (km/s) = 2.98130 2.91286 2.94728
# Velocity P-wave (km/s) = 4.62201 6.22430 5.48201
#
# Compressibility (1/GPa) = 0.05150981
#
# Stress axis : x y z
#
# Youngs Moduli (GPa) = 54.93218 20.74285 102.25222
#
# Poissons Ratio (x) = 0.11229 0.90260
# Poissons Ratio (y) = 0.29738 -0.19418
# Poissons Ratio (z) = 0.48490 -0.03939
#
# Static dielectric constant tensor:
#      x y z
#    x 1.696820 0.000000 0.000000 
#    y 0.000000 1.853290 0.000000 
#    z 0.000000 0.000000 1.741020 
# 
# From -- ./inp_files/18193.got.cif
#   From: 2010.05.17/outbox.cif.g08.bks.cpg/sg35_10_cif.got.tgz:18193.got - 2010.06.03 17:29:28.
