data_PCOD9348764
_publ_section_title
;
Structure prediction by ZEFSAII (Michael W. Deem and Ramdas Pophale) SiO2 
 PCOD9348764
Probable space group: C M M 2
;
_chemical_formula_sum "Si O2"
_cell_formula_units_Z 64
_cell_length_a 25.597382
_cell_length_b 15.245087
_cell_length_c 8.158608
_cell_angle_alpha 90.000000
_cell_angle_beta 90.000000
_cell_angle_gamma 90.000000
_cell_volume 3183.768809
_symmetry_space_group_name_H-M "C M M 2"
_symmetry_group_IT_number 35
_symmetry_cell_setting 'orthorhombic'
loop_
_space_group_symop_operation_xyz
x,y,z
-x,-y,z
-x,y,z
x,-y,z
1/2+x,1/2+y,z
1/2-x,1/2-y,z
1/2-x,1/2+y,z
1/2+x,1/2-y,z
loop_
_atom_site_type_symbol
_atom_site_label
_atom_site_fract_x
_atom_site_fract_y
_atom_site_fract_z
Si Si1 0.940833 0.781693 0.206460
Si Si2 0.284949 0.163316 0.128889
Si Si3 0.193721 0.904134 0.954618
Si Si4 0.143275 0.602523 0.662173
Si Si5 0.627101 0.244771 0.924686
Si Si6 0.150074 0.101398 0.331161
Si Si7 0.243381 0.602567 0.475476
Si Si8 0.941103 0.403783 0.374164
O O1 0.900229 0.837354 0.316176
O O2 0.938847 0.680076 0.258440
O O3 0.000000 0.813390 0.226483
O O4 0.922408 0.785298 0.017128
O O5 0.250000 0.250000 0.156595
O O6 0.255022 0.112564 0.983545
O O7 0.284325 0.111855 0.297853
O O8 0.339960 0.196724 0.068172
O O9 0.172628 0.902470 0.143804
O O10 0.184048 0.000000 0.883817
O O11 0.164312 0.824859 0.866788
O O12 0.146654 0.500000 0.716881
O O13 0.119842 0.670918 0.790498
O O14 0.201188 0.634914 0.606244
O O15 0.104270 0.602807 0.507730
O O16 0.197716 0.137053 0.444227
O O17 0.138281 0.000000 0.375580
O O18 0.250214 0.500000 0.509496
O O19 0.935755 0.500000 0.292520
O O20 0.000000 0.401844 0.448749
#
# Coordination Sequence:
#
# PCOD9348764 Si02
#       8
#     8   8   8   8   8   8   8   8
#     4  10  20  34  55  81 105 136 183 231 273 322
#     4   9  16  28  48  72  96 129 169 208 254 308
#     4   8  15  30  50  71  99 135 172 207 252 316
#     4  10  21  34  50  77 109 141 179 222 273 333
#     4  10  20  32  48  76 109 136 169 218 272 318
#     4   8  15  30  53  80 108 136 168 213 267 320
#     4   9  17  31  51  73 101 140 178 208 254 326
#     4   9  19  37  56  71  94 134 182 226 267 316
#
# _framework density 20.101963000000001
#
# number of rings (size 3 to 8) (size 9 to 14) (size 15 to 20)
#    0.000    2.875    0.000    2.625    0.000    2.250 
#    0.000    5.625    0.000    2.250    0.000    3.500 
#    0.000    0.000    0.000    0.000    0.000    0.000 
#
# Total GULP energy -178348.376374 kJ/mol
# GULP energy per Si atom -5573.386762 kJ/mol
# Density = 2.005621 g / cm^3
# Si number density = 20.101963 Si / 1000 Ang^3
#
#
#
# Elastic Constant Matrix: (Units=GPa)
#
#
# Indices 1 2 3 4 5 6 
#
# 1 110.3213 30.7167 10.8721 0.0000 0.0000 0.0000
# 2 30.7167 81.4109 10.0774 0.0000 0.0000 0.0000
# 3 10.8721 10.0774 26.0494 0.0000 0.0000 0.0000
# 4 0.0000 0.0000 0.0000 14.8404 0.0000 0.0000
# 5 0.0000 0.0000 0.0000 0.0000 9.6975 0.0000
# 6 0.0000 0.0000 0.0000 0.0000 0.0000 26.6918
#
#
#
# Elastic Compliance Matrix: (Units=1/GPa)
#
#
# Indices 1 2 3 4 5 6 
#
# 1 0.010339 -0.003536 -0.002947 0.000000 0.000000 0.000000
# 2 -0.003536 0.014111 -0.003983 0.000000 0.000000 0.000000
# 3 -0.002947 -0.003983 0.041160 0.000000 0.000000 0.000000
# 4 0.000000 0.000000 0.000000 0.067384 0.000000 0.000000
# 5 0.000000 0.000000 0.000000 0.000000 0.103119 0.000000
# 6 0.000000 0.000000 0.000000 0.000000 0.000000 0.037465
#
#
# Mechanical properties :
#
#
# Convention : Reuss Voigt Hill
#
# Bulk Modulus (GPa) = 22.38301 35.67934 29.03117
# Shear Modulus (GPa) = 16.16018 21.32029 18.74024
#
# Velocity S-wave (km/s) = 2.83841 3.26023 3.05660
# Velocity P-wave (km/s) = 4.67985 5.65330 5.18945
#
# Compressibility (1/GPa) = 0.04467674
#
# Stress axis : x y z
#
# Youngs Moduli (GPa) = 96.71648 70.86842 24.29568
#
# Poissons Ratio (x) = 0.25061 0.07161
# Poissons Ratio (y) = 0.34202 0.09677
# Poissons Ratio (z) = 0.28505 0.28226
#
# Static dielectric constant tensor:
#      x y z
#    x 1.750050 0.000000 0.000000 
#    y 0.000000 1.744140 0.000000 
#    z 0.000000 0.000000 1.729740 
# 
# From -- ./inp_files/7834.got.cif
#   From: 2010.05.17/outbox.cif.g08.bks.cpg/sg35_4_cif.got.tgz:7834.got - 2010.06.03 17:29:28.
