data_PCOD9348104
_publ_section_title
;
Structure prediction by ZEFSAII (Michael W. Deem and Ramdas Pophale) SiO2 
 PCOD9348104
Probable space group: C M M 2
;
_chemical_formula_sum "Si O2"
_cell_formula_units_Z 64
_cell_length_a 16.407981
_cell_length_b 15.451677
_cell_length_c 12.196635
_cell_angle_alpha 90.000000
_cell_angle_beta 90.000000
_cell_angle_gamma 90.000000
_cell_volume 3092.222905
_symmetry_space_group_name_H-M "C M M 2"
_symmetry_group_IT_number 35
_symmetry_cell_setting 'orthorhombic'
loop_
_space_group_symop_operation_xyz
x,y,z
-x,-y,z
-x,y,z
x,-y,z
1/2+x,1/2+y,z
1/2-x,1/2-y,z
1/2-x,1/2+y,z
1/2+x,1/2-y,z
loop_
_atom_site_type_symbol
_atom_site_label
_atom_site_fract_x
_atom_site_fract_y
_atom_site_fract_z
Si Si1 0.773124 0.896124 0.581030
Si Si2 0.703190 0.159292 0.067045
Si Si3 0.363740 0.593994 0.028022
Si Si4 0.328164 0.686610 0.806194
Si Si5 0.590672 0.146204 0.859629
Si Si6 0.910210 0.766588 0.194867
Si Si7 0.092955 0.599096 0.613320
Si Si8 0.404087 0.601689 0.390766
O O1 0.813912 0.857666 0.690263
O O2 0.678913 0.862338 0.568314
O O3 0.836545 0.880447 0.483020
O O4 0.766254 0.000000 0.593888
O O5 0.750000 0.250000 0.041615
O O6 0.648608 0.187094 0.169180
O O7 0.776054 0.094563 0.088275
O O8 0.650256 0.132253 0.962017
O O9 0.402492 0.500000 0.036667
O O10 0.340748 0.617790 0.903092
O O11 0.410259 0.672782 0.085674
O O12 0.250000 0.750000 0.817675
O O13 0.401562 0.753879 0.821659
O O14 0.500000 0.125349 0.896402
O O15 0.607069 0.097994 0.745353
O O16 0.888578 0.832276 0.291605
O O17 0.000000 0.732924 0.215568
O O18 0.088841 0.500000 0.574107
O O19 0.000000 0.636128 0.595814
O O20 0.500000 0.612975 0.425007
O O21 0.396808 0.500000 0.358066
#
# Coordination Sequence:
#
# PCOD9348104 Si02
#       8
#     8   8   8   8   8   8   8   8
#     4  10  20  34  56  78 108 150 183 226 284 335
#     4  10  18  33  50  76 108 143 182 221 270 322
#     4  11  21  33  54  82 112 146 183 226 275 331
#     4  12  19  34  49  76 111 146 183 222 273 329
#     4  11  19  30  50  74 108 146 179 222 273 325
#     4  10  19  35  59  83 109 141 181 231 282 334
#     4   9  18  31  50  79 110 146 192 231 269 330
#     4   9  19  36  56  81 112 145 186 232 283 343
#
# _framework density 20.697084
#
# number of rings (size 3 to 8) (size 9 to 14) (size 15 to 20)
#    0.000    1.750    5.000    1.125    0.000    2.750 
#    0.000    1.875    0.000    3.375    0.000    3.500 
#    0.000    4.000    0.000    0.625    0.000    0.000 
#
# Total GULP energy -178249.445299 kJ/mol
# GULP energy per Si atom -5570.295166 kJ/mol
# Density = 2.064998 g / cm^3
# Si number density = 20.697084 Si / 1000 Ang^3
#
#
#
# Elastic Constant Matrix: (Units=GPa)
#
#
# Indices 1 2 3 4 5 6 
#
# 1 116.6219 4.6656 45.7752 0.0000 0.0000 0.0000
# 2 4.6656 37.4727 5.4290 0.0000 0.0000 0.0000
# 3 45.7752 5.4290 72.1994 0.0000 0.0000 0.0000
# 4 0.0000 0.0000 0.0000 19.8550 0.0000 0.0000
# 5 0.0000 0.0000 0.0000 0.0000 28.1187 0.0000
# 6 0.0000 0.0000 0.0000 0.0000 0.0000 13.9044
#
#
#
# Elastic Compliance Matrix: (Units=1/GPa)
#
#
# Indices 1 2 3 4 5 6 
#
# 1 0.011421 -0.000377 -0.007213 0.000000 0.000000 0.000000
# 2 -0.000377 0.026992 -0.001791 0.000000 0.000000 0.000000
# 3 -0.007213 -0.001791 0.018558 0.000000 0.000000 0.000000
# 4 0.000000 0.000000 0.000000 0.050365 0.000000 0.000000
# 5 0.000000 0.000000 0.000000 0.000000 0.035564 0.000000
# 6 0.000000 0.000000 0.000000 0.000000 0.000000 0.071920
#
#
# Mechanical properties :
#
#
# Convention : Reuss Voigt Hill
#
# Bulk Modulus (GPa) = 26.17060 37.55929 31.86494
# Shear Modulus (GPa) = 20.29906 23.73725 22.01815
#
# Velocity S-wave (km/s) = 3.13512 3.39025 3.26518
# Velocity P-wave (km/s) = 5.07714 5.78892 5.44467
#
# Compressibility (1/GPa) = 0.03821081
#
# Stress axis : x y z
#
# Youngs Moduli (GPa) = 87.55958 37.04742 53.88508
#
# Poissons Ratio (x) = 0.01397 0.38865
# Poissons Ratio (y) = 0.03301 0.09649
# Poissons Ratio (z) = 0.63153 0.06634
#
# Static dielectric constant tensor:
#      x y z
#    x 1.844990 0.000000 0.000000 
#    y 0.000000 1.788840 0.000000 
#    z 0.000000 0.000000 1.733940 
# 
# From -- ./inp_files/13654.got.cif
#   From: 2010.05.17/outbox.cif.g08.bks.cpg/sg35_7_cif.got.tgz:13654.got - 2010.06.03 17:29:28.
