data_PCOD9348129
_publ_section_title
;
Structure prediction by ZEFSAII (Michael W. Deem and Ramdas Pophale) SiO2 
 PCOD9348129
Probable space group: C M M 2
;
_chemical_formula_sum "Si O2"
_cell_formula_units_Z 64
_cell_length_a 7.980893
_cell_length_b 32.097313
_cell_length_c 12.270431
_cell_angle_alpha 90.000000
_cell_angle_beta 90.000000
_cell_angle_gamma 90.000000
_cell_volume 3143.257664
_symmetry_space_group_name_H-M "C M M 2"
_symmetry_group_IT_number 35
_symmetry_cell_setting 'orthorhombic'
loop_
_space_group_symop_operation_xyz
x,y,z
-x,-y,z
-x,y,z
x,-y,z
1/2+x,1/2+y,z
1/2-x,1/2-y,z
1/2-x,1/2+y,z
1/2+x,1/2-y,z
loop_
_atom_site_type_symbol
_atom_site_label
_atom_site_fract_x
_atom_site_fract_y
_atom_site_fract_z
Si Si1 0.300234 0.125989 0.345480
Si Si2 0.201965 0.795763 0.733896
Si Si3 0.298917 0.625156 0.596315
Si Si4 0.699014 0.795773 0.206439
Si Si5 0.298250 0.675887 0.969239
Si Si6 0.704514 0.420464 0.971328
Si Si7 0.297481 0.546322 0.204885
Si Si8 0.794905 0.046567 0.735764
O O1 0.500000 0.129201 0.347067
O O2 0.239592 0.126040 0.469208
O O3 0.231759 0.165685 0.277421
O O4 0.254397 0.083353 0.284398
O O5 0.250000 0.750000 0.694739
O O6 0.263864 0.833620 0.658719
O O7 0.263341 0.802882 0.858018
O O8 0.000000 0.797897 0.735972
O O9 0.500000 0.624998 0.609128
O O10 0.236963 0.583206 0.655666
O O11 0.500000 0.798025 0.210772
O O12 0.750000 0.750000 0.245516
O O13 0.749838 0.801890 0.080749
O O14 0.500000 0.675254 0.964448
O O15 0.241391 0.627743 0.972296
O O16 0.500000 0.420698 0.971610
O O17 0.759624 0.442763 0.082048
O O18 0.756287 0.442299 0.859310
O O19 0.500000 0.545820 0.203277
O O20 0.239657 0.500000 0.236443
O O21 0.000000 0.046696 0.734491
O O22 0.740473 0.000000 0.705900
#
# Coordination Sequence:
#
# PCOD9348129 Si02
#       8
#     8   8   8   8   8   8   8   8
#     4  11  25  42  58  80 112 152 193 237 290 339
#     4  10  21  36  56  84 115 148 184 227 282 338
#     4  10  21  38  58  81 110 146 190 237 279 326
#     4  11  24  40  59  84 113 147 190 235 287 344
#     4  10  18  33  59  87 118 151 182 224 282 341
#     4   9  15  28  54  87 119 147 177 222 280 332
#     4  10  20  35  60  91 117 148 191 233 276 332
#     4   9  16  29  54  87 117 143 177 225 277 327
#
# _framework density 20.361041
#
# number of rings (size 3 to 8) (size 9 to 14) (size 15 to 20)
#    0.000    2.000    2.500    1.500    0.000    6.250 
#    0.000    3.750    0.000    0.750    0.000    0.000 
#    0.000    0.000    0.000    0.000    0.000    0.000 
#
# Total GULP energy -178740.979269 kJ/mol
# GULP energy per Si atom -5585.655602 kJ/mol
# Density = 2.031470 g / cm^3
# Si number density = 20.361041 Si / 1000 Ang^3
#
#
#
# Elastic Constant Matrix: (Units=GPa)
#
#
# Indices 1 2 3 4 5 6 
#
# 1 14.5536 9.8877 3.2461 0.0000 0.0000 0.0000
# 2 9.8877 211.0988 96.2866 0.0000 0.0000 0.0000
# 3 3.2461 96.2866 156.1784 0.0000 0.0000 0.0000
# 4 0.0000 0.0000 0.0000 -3.8024 0.0000 0.0000
# 5 0.0000 0.0000 0.0000 0.0000 -0.5662 0.0000
# 6 0.0000 0.0000 0.0000 0.0000 0.0000 17.9899
#
#
#
# Elastic Compliance Matrix: (Units=1/GPa)
#
#
# Indices 1 2 3 4 5 6 
#
# 1 0.071042 -0.003692 0.000800 0.000000 0.000000 0.000000
# 2 -0.003692 0.006782 -0.004105 0.000000 0.000000 0.000000
# 3 0.000800 -0.004105 0.008917 0.000000 0.000000 0.000000
# 4 0.000000 0.000000 0.000000 -0.262992 0.000000 0.000000
# 5 0.000000 0.000000 0.000000 0.000000 -1.766180 0.000000
# 6 0.000000 0.000000 0.000000 0.000000 0.000000 0.055587
#
#
# Mechanical properties :
#
#
# Convention : Reuss Voigt Hill
#
# Bulk Modulus (GPa) = 13.74636 66.74128 40.24382
# Shear Modulus (GPa) = -2.70475 20.88495 9.09010
#
# Velocity S-wave (km/s) = -1.15381 3.20618 2.11522
# Velocity P-wave (km/s) = 2.23404 6.82321 5.07677
#
# Compressibility (1/GPa) = 0.07274652
#
# Stress axis : x y z
#
# Youngs Moduli (GPa) = 14.07624 147.44295 112.14666
#
# Poissons Ratio (x) = 0.54442 -0.08970
# Poissons Ratio (y) = 0.05197 0.46032
# Poissons Ratio (z) = -0.01126 0.60520
#
# Static dielectric constant tensor:
#      x y z
#    x 1.742840 0.000000 0.000000 
#    y 0.000000 1.727420 0.000000 
#    z 0.000000 0.000000 1.691010 
# 
# From -- ./inp_files/11889.got.cif
#   From: 2010.05.17/outbox.cif.g08.bks.cpg/sg35_6_cif.got.tgz:11889.got - 2010.06.03 17:29:28.
