data_PCOD9348225
_publ_section_title
;
Structure prediction by ZEFSAII (Michael W. Deem and Ramdas Pophale) SiO2 
 PCOD9348225
Probable space group: C M M 2
;
_chemical_formula_sum "Si O2"
_cell_formula_units_Z 58
_cell_length_a 7.516895
_cell_length_b 26.469781
_cell_length_c 14.117675
_cell_angle_alpha 90.000000
_cell_angle_beta 90.000000
_cell_angle_gamma 90.000000
_cell_volume 2809.001763
_symmetry_space_group_name_H-M "C M M 2"
_symmetry_group_IT_number 35
_symmetry_cell_setting 'orthorhombic'
loop_
_space_group_symop_operation_xyz
x,y,z
-x,-y,z
-x,y,z
x,-y,z
1/2+x,1/2+y,z
1/2-x,1/2-y,z
1/2-x,1/2+y,z
1/2+x,1/2-y,z
loop_
_atom_site_type_symbol
_atom_site_label
_atom_site_fract_x
_atom_site_fract_y
_atom_site_fract_z
Si Si1 0.796059 0.415147 0.275810
Si Si2 0.784363 0.944595 0.861026
Si Si3 0.704319 0.158504 0.770222
Si Si4 0.500000 0.500000 0.320340
Si Si5 0.287629 0.191330 0.571252
Si Si6 0.712755 0.191362 0.358507
Si Si7 0.795781 0.909710 0.064692
Si Si8 0.287972 0.193456 0.971658
O O1 0.657194 0.455453 0.316118
O O2 0.734797 0.356987 0.295934
O O3 0.798657 0.421169 0.162176
O O4 0.000000 0.421445 0.311393
O O5 0.709299 0.899846 0.798650
O O6 0.000000 0.940030 0.860905
O O7 0.735243 0.000000 0.827796
O O8 0.726453 0.936430 0.969742
O O9 0.500000 0.176631 0.763658
O O10 0.784378 0.165237 0.666208
O O11 0.782133 0.186069 0.863458
O O12 0.500000 0.181609 0.566577
O O13 0.250000 0.250000 0.587738
O O14 0.217165 0.181368 0.465550
O O15 0.500000 0.189748 0.361603
O O16 0.750000 0.250000 0.331137
O O17 0.788881 0.850421 0.037474
O O18 0.000000 0.925820 0.078098
O O19 0.500000 0.185212 0.969619
O O20 0.250000 0.250000 0.003928
#
# Coordination Sequence:
#
# PCOD9348225 Si02
#       8
#     8   8   8   2   8   8   8   8
#     4  11  24  42  64  94 125 161 208 256 310 368
#     4   9  19  33  52  73 103 139 183 232 283 334
#     4   9  18  31  49  74 107 142 184 231 278 342
#     4  12  26  44  68  90 124 166 210 258 308 362
#     4   9  17  32  54  83 112 144 183 230 286 348
#     4   9  20  37  62  91 121 154 195 249 312 374
#     4  10  20  35  56  80 109 147 191 243 300 351
#     4  10  19  31  47  74 110 151 191 235 291 358
#
# _framework density 20.647904
#
# number of rings (size 3 to 8) (size 9 to 14) (size 15 to 20)
#    0.000    2.345    0.690    1.448    1.931    2.483 
#    0.000    1.379    1.517    0.000    0.000    0.000 
#    0.000    0.000    0.000    0.000    0.000    0.000 
#
# Total GULP energy -161452.189332 kJ/mol
# GULP energy per Si atom -5567.316874 kJ/mol
# Density = 2.060091 g / cm^3
# Si number density = 20.647904 Si / 1000 Ang^3
#
#
#
# Elastic Constant Matrix: (Units=GPa)
#
#
# Indices 1 2 3 4 5 6 
#
# 1 87.1047 11.9477 6.3070 0.0000 0.0000 0.0000
# 2 11.9477 73.1620 5.5797 0.0000 0.0000 0.0000
# 3 6.3070 5.5797 43.3632 0.0000 0.0000 0.0000
# 4 0.0000 0.0000 0.0000 -0.2787 0.0000 0.0000
# 5 0.0000 0.0000 0.0000 0.0000 0.6666 0.0000
# 6 0.0000 0.0000 0.0000 0.0000 0.0000 30.2493
#
#
#
# Elastic Compliance Matrix: (Units=1/GPa)
#
#
# Indices 1 2 3 4 5 6 
#
# 1 0.011838 -0.001820 -0.001488 0.000000 0.000000 0.000000
# 2 -0.001820 0.014083 -0.001548 0.000000 0.000000 0.000000
# 3 -0.001488 -0.001548 0.023477 0.000000 0.000000 0.000000
# 4 0.000000 0.000000 0.000000 -3.588251 0.000000 0.000000
# 5 0.000000 0.000000 0.000000 0.000000 1.500227 0.000000
# 6 0.000000 0.000000 0.000000 0.000000 0.000000 0.033059
#
#
# Mechanical properties :
#
#
# Convention : Reuss Voigt Hill
#
# Bulk Modulus (GPa) = 25.19647 27.92210 26.55928
# Shear Modulus (GPa) = -2.52191 18.11379 7.79594
#
# Velocity S-wave (km/s) = -1.10636 2.96509 1.94521
# Velocity P-wave (km/s) = 3.25536 5.02739 4.23509
#
# Compressibility (1/GPa) = 0.03968810
#
# Stress axis : x y z
#
# Youngs Moduli (GPa) = 84.47546 71.00518 42.59572
#
# Poissons Ratio (x) = 0.12921 0.06337
# Poissons Ratio (y) = 0.15372 0.06592
# Poissons Ratio (z) = 0.12567 0.10988
#
# Static dielectric constant tensor:
#      x y z
#    x 1.837850 0.000000 0.000000 
#    y 0.000000 1.729040 0.000000 
#    z 0.000000 0.000000 1.759870 
# 
# From -- ./inp_files/15898.got.cif
#   From: 2010.05.17/outbox.cif.g08.bks.cpg/sg35_8_cif.got.tgz:15898.got - 2010.06.03 17:29:28.
