data_PCOD9348397
_publ_section_title
;
Structure prediction by ZEFSAII (Michael W. Deem and Ramdas Pophale) SiO2 
 PCOD9348397
Probable space group: C M M 2
;
_chemical_formula_sum "Si O2"
_cell_formula_units_Z 64
_cell_length_a 7.928563
_cell_length_b 30.700286
_cell_length_c 12.740518
_cell_angle_alpha 90.000000
_cell_angle_beta 90.000000
_cell_angle_gamma 90.000000
_cell_volume 3101.158678
_symmetry_space_group_name_H-M "C M M 2"
_symmetry_group_IT_number 35
_symmetry_cell_setting 'orthorhombic'
loop_
_space_group_symop_operation_xyz
x,y,z
-x,-y,z
-x,y,z
x,-y,z
1/2+x,1/2+y,z
1/2-x,1/2-y,z
1/2-x,1/2+y,z
1/2+x,1/2-y,z
loop_
_atom_site_type_symbol
_atom_site_label
_atom_site_fract_x
_atom_site_fract_y
_atom_site_fract_z
Si Si1 0.300972 0.199128 0.615660
Si Si2 0.701031 0.952915 0.352288
Si Si3 0.799436 0.164198 0.047170
Si Si4 0.300569 0.204272 0.248192
Si Si5 0.204375 0.856346 0.818581
Si Si6 0.294735 0.452669 0.881382
Si Si7 0.207616 0.639711 0.423450
Si Si8 0.795898 0.929532 0.117629
O O1 0.500000 0.199936 0.600939
O O2 0.250000 0.250000 0.617235
O O3 0.262089 0.172763 0.721929
O O4 0.232292 0.168950 0.520850
O O5 0.500000 0.953670 0.369079
O O6 0.765956 0.910170 0.412767
O O7 0.728943 0.947532 0.227015
O O8 0.771486 0.000000 0.384496
O O9 0.762887 0.201458 0.129519
O O10 0.735790 0.120060 0.102064
O O11 0.000000 0.159392 0.038720
O O12 0.736816 0.165489 0.928306
O O13 0.500000 0.201416 0.245670
O O14 0.250000 0.250000 0.297871
O O15 0.235202 0.165011 0.319052
O O16 0.260044 0.907407 0.826031
O O17 0.000000 0.856869 0.816062
O O18 0.500000 0.451903 0.877981
O O19 0.238791 0.500000 0.839363
O O20 0.249303 0.450544 0.005437
O O21 0.000000 0.639078 0.424752
O O22 0.000000 0.931411 0.124136
#
# Coordination Sequence:
#
# PCOD9348397 Si02
#       8
#     8   8   8   8   8   8   8   8
#     4  11  23  41  63  82 103 135 183 235 283 332
#     4  10  19  32  52  78 110 147 182 215 260 320
#     4   9  18  33  52  78 112 147 178 216 267 322
#     4  11  21  34  54  78 108 141 177 220 269 330
#     4   9  19  36  57  82 112 143 182 226 271 323
#     4   8  14  27  50  79 112 150 185 217 260 315
#     4   9  20  38  56  78 108 141 178 222 270 321
#     4   9  16  28  49  77 110 146 184 222 257 304
#
# _framework density 20.637447999999999
#
# number of rings (size 3 to 8) (size 9 to 14) (size 15 to 20)
#    0.000    2.500    1.250    3.000    0.000    1.750 
#    0.000    5.625    0.000    1.875    0.000    0.000 
#    0.000    0.000    0.000    0.000    0.000    0.000 
#
# Total GULP energy -178361.612343 kJ/mol
# GULP energy per Si atom -5573.800386 kJ/mol
# Density = 2.059048 g / cm^3
# Si number density = 20.637448 Si / 1000 Ang^3
#
#
#
# Elastic Constant Matrix: (Units=GPa)
#
#
# Indices 1 2 3 4 5 6 
#
# 1 13.1877 5.8100 2.5362 0.0000 0.0000 0.0000
# 2 5.8100 192.4181 83.9897 0.0000 0.0000 0.0000
# 3 2.5362 83.9897 116.4409 0.0000 0.0000 0.0000
# 4 0.0000 0.0000 0.0000 15.2595 0.0000 0.0000
# 5 0.0000 0.0000 0.0000 0.0000 22.9072 0.0000
# 6 0.0000 0.0000 0.0000 0.0000 0.0000 24.8959
#
#
#
# Elastic Compliance Matrix: (Units=1/GPa)
#
#
# Indices 1 2 3 4 5 6 
#
# 1 0.076850 -0.002320 0.000000 0.000000 0.000000 0.000000
# 2 -0.002320 0.007655 -0.005471 0.000000 0.000000 0.000000
# 3 0.000000 -0.005471 0.012535 0.000000 0.000000 0.000000
# 4 0.000000 0.000000 0.000000 0.065533 0.000000 0.000000
# 5 0.000000 0.000000 0.000000 0.000000 0.043654 0.000000
# 6 0.000000 0.000000 0.000000 0.000000 0.000000 0.040167
#
#
# Mechanical properties :
#
#
# Convention : Reuss Voigt Hill
#
# Bulk Modulus (GPa) = 12.27648 56.30204 34.28926
# Shear Modulus (GPa) = 17.29322 27.92656 22.60989
#
# Velocity S-wave (km/s) = 2.89788 3.68258 3.31354
# Velocity P-wave (km/s) = 4.14229 6.73962 5.59379
#
# Compressibility (1/GPa) = 0.08145656
#
# Stress axis : x y z
#
# Youngs Moduli (GPa) = 13.01230 130.62902 79.77967
#
# Poissons Ratio (x) = 0.30311 0.00001
# Poissons Ratio (y) = 0.03019 0.43650
# Poissons Ratio (z) = 0.00000 0.71471
#
# Static dielectric constant tensor:
#      x y z
#    x 1.733250 0.000000 0.000000 
#    y 0.000000 1.805310 0.000000 
#    z 0.000000 0.000000 1.733790 
# 
# From -- ./inp_files/11976.got.cif
#   From: 2010.05.17/outbox.cif.g08.bks.cpg/sg35_6_cif.got.tgz:11976.got - 2010.06.03 17:29:28.
