data_PCOD9348466
_publ_section_title
;
Structure prediction by ZEFSAII (Michael W. Deem and Ramdas Pophale) SiO2 
 PCOD9348466
Probable space group: C M M 2
;
_chemical_formula_sum "Si O2"
_cell_formula_units_Z 48
_cell_length_a 18.590938
_cell_length_b 7.962149
_cell_length_c 17.829064
_cell_angle_alpha 90.000000
_cell_angle_beta 90.000000
_cell_angle_gamma 90.000000
_cell_volume 2639.126132
_symmetry_space_group_name_H-M "C M M 2"
_symmetry_group_IT_number 35
_symmetry_cell_setting 'orthorhombic'
loop_
_space_group_symop_operation_xyz
x,y,z
-x,-y,z
-x,y,z
x,-y,z
1/2+x,1/2+y,z
1/2-x,1/2-y,z
1/2-x,1/2+y,z
1/2+x,1/2-y,z
loop_
_atom_site_type_symbol
_atom_site_label
_atom_site_fract_x
_atom_site_fract_y
_atom_site_fract_z
Si Si1 0.417409 0.698388 0.840420
Si Si2 0.082507 0.295429 0.546488
Si Si3 0.912069 0.000000 0.101378
Si Si4 0.912357 0.685326 0.002116
Si Si5 0.912209 0.000000 0.274158
Si Si6 0.832799 0.700958 0.692691
Si Si7 0.912247 0.693501 0.378803
O O1 0.500000 0.753839 0.826887
O O2 0.418626 0.500000 0.856527
O O3 0.371800 0.731720 0.766661
O O4 0.389657 0.785943 0.916010
O O5 0.081397 0.500000 0.547317
O O6 0.129364 0.236617 0.616391
O O7 0.109195 0.251693 0.463101
O O8 0.000000 0.238321 0.555253
O O9 0.888471 0.165189 0.056106
O O10 0.889161 0.000000 0.187756
O O11 0.000000 0.000000 0.101123
O O12 0.891034 0.500000 0.027954
O O13 0.000000 0.692083 0.000536
O O14 0.889470 0.831949 0.318488
O O15 0.000000 0.000000 0.274697
O O16 0.839415 0.500000 0.694000
O O17 0.750000 0.750000 0.692965
O O18 0.889460 0.500000 0.364626
O O19 0.000000 0.690821 0.379712
#
# Coordination Sequence:
#
# PCOD9348466 Si02
#       7
#     8   8   4   8   4   8   8
#     4  10  19  33  52  73  98 130 172 217 254 300
#     4   8  15  30  51  69  90 128 173 211 247 296
#     4   9  16  26  38  61  99 129 157 200 244 297
#     4   9  16  27  44  65  91 128 167 202 244 294
#     4   9  16  24  38  63  95 129 157 194 250 297
#     4  11  22  35  49  70 102 136 167 213 260 305
#     4   8  14  26  42  62  89 122 162 202 240 292
#
# _framework density 18.187836999999998
#
# number of rings (size 3 to 8) (size 9 to 14) (size 15 to 20)
#    0.000    2.833    0.833    2.500    0.000    2.333 
#    3.000    3.333    0.000    0.000    0.000    0.000 
#    0.000    1.333    0.667    0.000    0.000    0.000 
#
# Total GULP energy -133783.801584 kJ/mol
# GULP energy per Si atom -5574.325066 kJ/mol
# Density = 1.814644 g / cm^3
# Si number density = 18.187837 Si / 1000 Ang^3
#
#
#
# Elastic Constant Matrix: (Units=GPa)
#
#
# Indices 1 2 3 4 5 6 
#
# 1 29.7010 12.2442 36.5057 0.0000 0.0000 0.0000
# 2 12.2442 103.5710 74.6439 0.0000 0.0000 0.0000
# 3 36.5057 74.6439 173.9248 0.0000 0.0000 0.0000
# 4 0.0000 0.0000 0.0000 20.7081 0.0000 0.0000
# 5 0.0000 0.0000 0.0000 0.0000 -3.6108 0.0000
# 6 0.0000 0.0000 0.0000 0.0000 0.0000 8.2296
#
#
#
# Elastic Compliance Matrix: (Units=1/GPa)
#
#
# Indices 1 2 3 4 5 6 
#
# 1 0.045714 0.002187 -0.010534 0.000000 0.000000 0.000000
# 2 0.002187 0.014084 -0.006503 0.000000 0.000000 0.000000
# 3 -0.010534 -0.006503 0.010752 0.000000 0.000000 0.000000
# 4 0.000000 0.000000 0.000000 0.048290 0.000000 0.000000
# 5 0.000000 0.000000 0.000000 0.000000 -0.276948 0.000000
# 6 0.000000 0.000000 0.000000 0.000000 0.000000 0.121512
#
#
# Mechanical properties :
#
#
# Convention : Reuss Voigt Hill
#
# Bulk Modulus (GPa) = 24.47987 61.55383 43.01685
# Shear Modulus (GPa) = 743.96183 17.31893 380.64038
#
# Velocity S-wave (km/s) = 20.24677 3.08916 14.48231
# Velocity P-wave (km/s) = 23.66567 6.82941 17.41702
#
# Compressibility (1/GPa) = 0.04084989
#
# Stress axis : x y z
#
# Youngs Moduli (GPa) = 21.87494 71.00419 93.00825
#
# Poissons Ratio (x) = -0.15532 0.97974
# Poissons Ratio (y) = -0.04785 0.60488
# Poissons Ratio (z) = 0.23043 0.46177
#
# Static dielectric constant tensor:
#      x y z
#    x 1.582890 0.000000 0.000000 
#    y 0.000000 1.647900 0.000000 
#    z 0.000000 0.000000 1.619300 
# 
# From -- ./inp_files/17082.got.cif
#   From: 2010.05.17/outbox.cif.g08.bks.cpg/sg35_9_cif.got.tgz:17082.got - 2010.06.03 17:29:28.
