data_PCOD9348124
_publ_section_title
;
Structure prediction by ZEFSAII (Michael W. Deem and Ramdas Pophale) SiO2 
 PCOD9348124
Probable space group: C M M 2
;
_chemical_formula_sum "Si O2"
_cell_formula_units_Z 56
_cell_length_a 8.145331
_cell_length_b 22.689790
_cell_length_c 14.566790
_cell_angle_alpha 90.000000
_cell_angle_beta 90.000000
_cell_angle_gamma 90.000000
_cell_volume 2692.173674
_symmetry_space_group_name_H-M "C M M 2"
_symmetry_group_IT_number 35
_symmetry_cell_setting 'orthorhombic'
loop_
_space_group_symop_operation_xyz
x,y,z
-x,-y,z
-x,y,z
x,-y,z
1/2+x,1/2+y,z
1/2-x,1/2-y,z
1/2-x,1/2+y,z
1/2+x,1/2-y,z
loop_
_atom_site_type_symbol
_atom_site_label
_atom_site_fract_x
_atom_site_fract_y
_atom_site_fract_z
Si Si1 0.810148 0.814820 0.394930
Si Si2 0.698737 0.883328 0.911259
Si Si3 0.307312 0.315594 0.744141
Si Si4 0.805843 0.934215 0.306173
Si Si5 0.695272 0.068133 0.099783
Si Si6 0.692526 0.127986 0.565697
Si Si7 0.200589 0.500000 0.590210
Si Si8 0.699867 0.000000 0.802174
O O1 0.750000 0.750000 0.368306
O O2 0.733722 0.874852 0.351946
O O3 0.785435 0.825035 0.503506
O O4 0.000000 0.815898 0.370800
O O5 0.500000 0.881829 0.911257
O O6 0.763591 0.830760 0.848934
O O7 0.752343 0.942016 0.856573
O O8 0.751407 0.890198 0.016763
O O9 0.500000 0.321919 0.729473
O O10 0.250000 0.250000 0.722556
O O11 0.283647 0.141280 0.673054
O O12 0.783741 0.926134 0.196774
O O13 0.000000 0.936562 0.327708
O O14 0.736231 0.000000 0.328747
O O15 0.500000 0.077170 0.114858
O O16 0.714232 0.000000 0.068537
O O17 0.500000 0.131806 0.544510
O O18 0.754079 0.061547 0.546408
O O19 0.253863 0.500000 0.696653
O O20 0.000000 0.500000 0.589563
O O21 0.500000 0.000000 0.801357
#
# Coordination Sequence:
#
# PCOD9348124 Si02
#       8
#     8   8   8   8   8   8   4   4
#     4  11  24  42  63  87 116 154 198 245 298 356
#     4  10  18  33  57  84 116 152 188 231 278 331
#     4  12  25  40  56  78 110 153 200 243 286 339
#     4   9  20  39  61  86 120 156 190 240 303 355
#     4   9  17  31  57  90 119 149 188 232 282 344
#     4  11  22  39  62  87 117 152 191 236 288 347
#     4   9  18  32  56  87 116 151 187 228 282 340
#     4   9  14  28  54  81 112 147 181 220 270 324
#
# _framework density 20.801034999999999
#
# number of rings (size 3 to 8) (size 9 to 14) (size 15 to 20)
#    0.000    1.857    2.143    2.571    1.000    1.714 
#    0.000    2.857    0.000    1.714    0.000    0.000 
#    0.000    0.000    0.000    0.000    0.000    0.000 
#
# Total GULP energy -156295.917838 kJ/mol
# GULP energy per Si atom -5581.997066 kJ/mol
# Density = 2.075369 g / cm^3
# Si number density = 20.801035 Si / 1000 Ang^3
#
#
#
# Elastic Constant Matrix: (Units=GPa)
#
#
# Indices 1 2 3 4 5 6 
#
# 1 26.0132 15.9774 -3.3921 0.0000 0.0000 0.0000
# 2 15.9774 132.7801 33.9618 0.0000 0.0000 0.0000
# 3 -3.3921 33.9618 61.8867 0.0000 0.0000 0.0000
# 4 0.0000 0.0000 0.0000 32.7146 0.0000 0.0000
# 5 0.0000 0.0000 0.0000 0.0000 24.3347 0.0000
# 6 0.0000 0.0000 0.0000 0.0000 0.0000 15.7175
#
#
#
# Elastic Compliance Matrix: (Units=1/GPa)
#
#
# Indices 1 2 3 4 5 6 
#
# 1 0.043404 -0.006783 0.006102 0.000000 0.000000 0.000000
# 2 -0.006783 0.009821 -0.005761 0.000000 0.000000 0.000000
# 3 0.006102 -0.005761 0.019655 0.000000 0.000000 0.000000
# 4 0.000000 0.000000 0.000000 0.030567 0.000000 0.000000
# 5 0.000000 0.000000 0.000000 0.000000 0.041094 0.000000
# 6 0.000000 0.000000 0.000000 0.000000 0.000000 0.063623
#
#
# Mechanical properties :
#
#
# Convention : Reuss Voigt Hill
#
# Bulk Modulus (GPa) = 16.66849 34.86381 25.76615
# Shear Modulus (GPa) = 20.74273 26.16222 23.45247
#
# Velocity S-wave (km/s) = 3.16127 3.55031 3.36142
# Velocity P-wave (km/s) = 4.62120 5.79683 5.24208
#
# Compressibility (1/GPa) = 0.05999343
#
# Stress axis : x y z
#
# Youngs Moduli (GPa) = 23.03933 101.82144 50.87844
#
# Poissons Ratio (x) = 0.69070 -0.31044
# Poissons Ratio (y) = 0.15629 0.29313
# Poissons Ratio (z) = -0.14058 0.58663
#
# Static dielectric constant tensor:
#      x y z
#    x 1.744860 0.000000 0.000000 
#    y 0.000000 1.722480 0.000000 
#    z 0.000000 0.000000 1.735140 
# 
# From -- ./inp_files/15766.got.cif
#   From: 2010.05.17/outbox.cif.g08.bks.cpg/sg35_8_cif.got.tgz:15766.got - 2010.06.03 17:29:28.
