data_PCOD9348655
_publ_section_title
;
Structure prediction by ZEFSAII (Michael W. Deem and Ramdas Pophale) SiO2 
 PCOD9348655
Probable space group: C M M 2
;
_chemical_formula_sum "Si O2"
_cell_formula_units_Z 48
_cell_length_a 15.622900
_cell_length_b 8.557747
_cell_length_c 19.427332
_cell_angle_alpha 90.000000
_cell_angle_beta 90.000000
_cell_angle_gamma 90.000000
_cell_volume 2597.372618
_symmetry_space_group_name_H-M "C M M 2"
_symmetry_group_IT_number 35
_symmetry_cell_setting 'orthorhombic'
loop_
_space_group_symop_operation_xyz
x,y,z
-x,-y,z
-x,y,z
x,-y,z
1/2+x,1/2+y,z
1/2-x,1/2-y,z
1/2-x,1/2+y,z
1/2+x,1/2-y,z
loop_
_atom_site_type_symbol
_atom_site_label
_atom_site_fract_x
_atom_site_fract_y
_atom_site_fract_z
Si Si1 0.844382 0.187850 0.082280
Si Si2 0.000000 0.311601 0.830866
Si Si3 0.000000 0.688208 0.489952
Si Si4 0.343964 0.811917 0.733704
Si Si5 0.500000 0.809785 0.331311
Si Si6 0.155353 0.813206 0.580506
Si Si7 0.000000 0.188487 0.985247
Si Si8 0.655624 0.812121 0.234845
O O1 0.750000 0.250000 0.064548
O O2 0.915955 0.238313 0.027772
O O3 0.865764 0.250465 0.158486
O O4 0.842118 0.000000 0.084949
O O5 0.916054 0.263015 0.787997
O O6 0.000000 0.500000 0.833060
O O7 0.000000 0.249115 0.907904
O O8 0.000000 0.740270 0.410412
O O9 0.083636 0.750278 0.529116
O O10 0.000000 0.500000 0.492266
O O11 0.250000 0.750000 0.752783
O O12 0.364204 0.746748 0.657761
O O13 0.341991 0.000000 0.729768
O O14 0.584174 0.760566 0.289288
O O15 0.500000 0.000000 0.331340
O O16 0.250000 0.750000 0.562915
O O17 0.156525 0.000000 0.580462
O O18 0.000000 0.000000 0.983893
O O19 0.750000 0.750000 0.252373
O O20 0.657796 0.000000 0.232647
#
# Coordination Sequence:
#
# PCOD9348655 Si02
#       8
#     8   4   4   8   4   8   4   8
#     4  10  20  36  56  81 107 139 179 223 269 318
#     4  10  23  38  55  79 111 146 181 218 270 328
#     4  11  22  39  58  81 116 153 186 231 280 332
#     4  10  20  37  59  84 110 143 183 228 275 325
#     4   9  21  37  55  79 111 147 182 219 272 328
#     4  11  22  38  60  87 113 146 189 233 279 332
#     4  10  23  38  54  77 110 144 179 220 268 320
#     4  10  19  35  57  82 107 139 180 224 269 320
#
# _framework density 18.480215000000001
#
# number of rings (size 3 to 8) (size 9 to 14) (size 15 to 20)
#    0.000    1.833    0.000    6.250    0.000    4.667 
#    0.000    9.583    0.000    0.000    0.000    0.000 
#    0.000    0.000    0.000    0.000    0.000    0.000 
#
# Total GULP energy -134100.285314 kJ/mol
# GULP energy per Si atom -5587.511888 kJ/mol
# Density = 1.843815 g / cm^3
# Si number density = 18.480215 Si / 1000 Ang^3
#
#
#
# Elastic Constant Matrix: (Units=GPa)
#
#
# Indices 1 2 3 4 5 6 
#
# 1 169.9061 48.4690 155.5529 0.0000 0.0000 0.0000
# 2 48.4690 80.4318 47.6613 0.0000 0.0000 0.0000
# 3 155.5529 47.6613 174.3292 0.0000 0.0000 0.0000
# 4 0.0000 0.0000 0.0000 27.5015 0.0000 0.0000
# 5 0.0000 0.0000 0.0000 0.0000 -72.4001 0.0000
# 6 0.0000 0.0000 0.0000 0.0000 0.0000 27.9275
#
#
#
# Elastic Compliance Matrix: (Units=1/GPa)
#
#
# Indices 1 2 3 4 5 6 
#
# 1 0.032697 -0.002882 -0.028388 0.000000 0.000000 0.000000
# 2 -0.002882 0.015091 -0.001554 0.000000 0.000000 0.000000
# 3 -0.028388 -0.001554 0.031491 0.000000 0.000000 0.000000
# 4 0.000000 0.000000 0.000000 0.036362 0.000000 0.000000
# 5 0.000000 0.000000 0.000000 0.000000 -0.013812 0.000000
# 6 0.000000 0.000000 0.000000 0.000000 0.000000 0.035807
#
#
# Mechanical properties :
#
#
# Convention : Reuss Voigt Hill
#
# Bulk Modulus (GPa) = 73.35929 103.11481 88.23705
# Shear Modulus (GPa) = 24.05840 8.13803 16.09821
#
# Velocity S-wave (km/s) = 3.61202 2.10076 2.95465
# Velocity P-wave (km/s) = 7.56161 7.86148 7.71300
#
# Compressibility (1/GPa) = 0.01363154
#
# Stress axis : x y z
#
# Youngs Moduli (GPa) = 30.58343 66.26665 31.75471
#
# Poissons Ratio (x) = 0.19099 0.90145
# Poissons Ratio (y) = 0.08814 0.04935
# Poissons Ratio (z) = 0.86820 0.10298
#
# Static dielectric constant tensor:
#      x y z
#    x 1.627240 0.000000 0.000000 
#    y 0.000000 1.628310 0.000000 
#    z 0.000000 0.000000 1.604150 
# 
# From -- ./inp_files/17140.got.cif
#   From: 2010.05.17/outbox.cif.g08.bks.cpg/sg35_9_cif.got.tgz:17140.got - 2010.06.03 17:29:28.
