data_PCOD9348986
_publ_section_title
;
Structure prediction by ZEFSAII (Michael W. Deem and Ramdas Pophale) SiO2 
 PCOD9348986
Probable space group: C M M 2
;
_chemical_formula_sum "Si O2"
_cell_formula_units_Z 64
_cell_length_a 8.966535
_cell_length_b 18.793527
_cell_length_c 21.396357
_cell_angle_alpha 90.000000
_cell_angle_beta 90.000000
_cell_angle_gamma 90.000000
_cell_volume 3605.560405
_symmetry_space_group_name_H-M "C M M 2"
_symmetry_group_IT_number 35
_symmetry_cell_setting 'orthorhombic'
loop_
_space_group_symop_operation_xyz
x,y,z
-x,-y,z
-x,y,z
x,-y,z
1/2+x,1/2+y,z
1/2-x,1/2-y,z
1/2-x,1/2+y,z
1/2+x,1/2-y,z
loop_
_atom_site_type_symbol
_atom_site_label
_atom_site_fract_x
_atom_site_fract_y
_atom_site_fract_z
Si Si1 0.822834 0.584754 0.312730
Si Si2 0.320544 0.671868 0.200153
Si Si3 0.827484 0.413219 0.569856
Si Si4 0.180012 0.171967 0.959157
Si Si5 0.178742 0.916207 0.698560
Si Si6 0.670949 0.413424 0.442485
Si Si7 0.820289 0.172416 0.818979
Si Si8 0.818505 0.081318 0.078239
O O1 0.792996 0.500000 0.305076
O O2 0.737977 0.628743 0.259970
O O3 0.765519 0.606260 0.381532
O O4 0.000000 0.595572 0.307962
O O5 0.500000 0.676710 0.201730
O O6 0.250000 0.750000 0.198834
O O7 0.275352 0.628167 0.138028
O O8 0.820334 0.500000 0.569986
O O9 0.755078 0.389526 0.635030
O O10 0.741017 0.388952 0.507925
O O11 0.000000 0.392904 0.566407
O O12 0.250000 0.250000 0.967861
O O13 0.218810 0.146344 0.888977
O O14 0.000000 0.178326 0.962283
O O15 0.228958 0.119390 0.014147
O O16 0.227554 0.876361 0.761305
O O17 0.000000 0.908753 0.691997
O O18 0.211290 0.000000 0.704970
O O19 0.500000 0.390241 0.436149
O O20 0.671410 0.500000 0.444384
O O21 0.750000 0.250000 0.812024
O O22 0.000000 0.177584 0.816750
O O23 0.000000 0.079510 0.077662
O O24 0.766048 0.000000 0.082964
#
# Coordination Sequence:
#
# PCOD9348986 Si02
#       8
#     8   8   8   8   8   8   8   8
#     4  10  20  34  53  78 106 134 168 212 258 304
#     4  11  22  36  54  75 102 137 175 212 253 304
#     4   9  16  26  42  67  98 130 164 203 249 299
#     4   9  17  31  51  73  98 129 165 204 247 297
#     4   9  17  29  45  67  95 126 163 207 251 295
#     4   9  16  27  46  72 101 133 167 204 249 300
#     4   9  18  31  48  70  96 129 166 204 247 296
#     4   9  18  32  52  78 104 130 164 208 254 299
#
# _framework density 17.750361000000002
#
# number of rings (size 3 to 8) (size 9 to 14) (size 15 to 20)
#    0.000    2.625    0.000    2.250    0.000    5.250 
#    0.000    3.125    0.000    2.625    0.000    7.000 
#    0.000    0.000    0.000    0.000    0.000    0.000 
#
# Total GULP energy -178434.913817 kJ/mol
# GULP energy per Si atom -5576.091057 kJ/mol
# Density = 1.770996 g / cm^3
# Si number density = 17.750361 Si / 1000 Ang^3
#
#
#
# Elastic Constant Matrix: (Units=GPa)
#
#
# Indices 1 2 3 4 5 6 
#
# 1 50.9112 37.8310 58.2244 0.0000 0.0000 0.0000
# 2 37.8310 66.5182 77.6946 0.0000 0.0000 0.0000
# 3 58.2244 77.6946 189.9714 0.0000 0.0000 0.0000
# 4 0.0000 0.0000 0.0000 -21.5063 0.0000 0.0000
# 5 0.0000 0.0000 0.0000 0.0000 16.9781 0.0000
# 6 0.0000 0.0000 0.0000 0.0000 0.0000 18.9341
#
#
#
# Elastic Compliance Matrix: (Units=1/GPa)
#
#
# Indices 1 2 3 4 5 6 
#
# 1 0.036483 -0.014721 -0.005161 0.000000 0.000000 0.000000
# 2 -0.014721 0.034723 -0.009689 0.000000 0.000000 0.000000
# 3 -0.005161 -0.009689 0.010809 0.000000 0.000000 0.000000
# 4 0.000000 0.000000 0.000000 -0.046498 0.000000 0.000000
# 5 0.000000 0.000000 0.000000 0.000000 0.058899 0.000000
# 6 0.000000 0.000000 0.000000 0.000000 0.000000 0.052815
#
#
# Mechanical properties :
#
#
# Convention : Reuss Voigt Hill
#
# Bulk Modulus (GPa) = 43.72112 72.76677 58.24394
# Shear Modulus (GPa) = 23.36474 11.79122 17.57798
#
# Velocity S-wave (km/s) = 3.63202 2.58016 3.15030
# Velocity P-wave (km/s) = 6.50179 7.06823 6.79092
#
# Compressibility (1/GPa) = 0.02287224
#
# Stress axis : x y z
#
# Youngs Moduli (GPa) = 27.40967 28.79954 92.51957
#
# Poissons Ratio (x) = 0.42395 0.47752
# Poissons Ratio (y) = 0.40349 0.89644
# Poissons Ratio (z) = 0.14147 0.27904
#
# Static dielectric constant tensor:
#      x y z
#    x 1.594470 0.000000 0.000000 
#    y 0.000000 1.582430 0.000000 
#    z 0.000000 0.000000 1.606090 
# 
# From -- ./inp_files/18408.got.cif
#   From: 2010.05.17/outbox.cif.g08.bks.cpg/sg35_10_cif.got.tgz:18408.got - 2010.06.03 17:29:28.
