data_PCOD9348417
_publ_section_title
;
Structure prediction by ZEFSAII (Michael W. Deem and Ramdas Pophale) SiO2 
 PCOD9348417
Probable space group: C M M 2
;
_chemical_formula_sum "Si O2"
_cell_formula_units_Z 64
_cell_length_a 17.517309
_cell_length_b 18.446527
_cell_length_c 9.858715
_cell_angle_alpha 90.000000
_cell_angle_beta 90.000000
_cell_angle_gamma 90.000000
_cell_volume 3185.681216
_symmetry_space_group_name_H-M "C M M 2"
_symmetry_group_IT_number 35
_symmetry_cell_setting 'orthorhombic'
loop_
_space_group_symop_operation_xyz
x,y,z
-x,-y,z
-x,y,z
x,-y,z
1/2+x,1/2+y,z
1/2-x,1/2-y,z
1/2-x,1/2+y,z
1/2+x,1/2-y,z
loop_
_atom_site_type_symbol
_atom_site_label
_atom_site_fract_x
_atom_site_fract_y
_atom_site_fract_z
Si Si1 0.181703 0.921513 0.185930
Si Si2 0.248248 0.084478 0.708384
Si Si3 0.664278 0.264102 0.096109
Si Si4 0.910692 0.713771 0.356366
Si Si5 0.195997 0.582742 0.411335
Si Si6 0.914434 0.142444 0.728799
Si Si7 0.086344 0.129604 0.422655
Si Si8 0.167393 0.718989 0.785132
O O1 0.157694 0.851512 0.100163
O O2 0.261467 0.911200 0.266100
O O3 0.126347 0.921273 0.316167
O O4 0.180412 0.000000 0.117007
O O5 0.249397 0.093046 0.543234
O O6 0.167707 0.110278 0.775896
O O7 0.319061 0.134409 0.756965
O O8 0.259017 0.000000 0.737696
O O9 0.750000 0.250000 0.149087
O O10 0.605429 0.225636 0.196414
O O11 0.660029 0.233354 0.945456
O O12 0.866385 0.645184 0.413364
O O13 0.878273 0.789684 0.414629
O O14 0.000000 0.706929 0.385128
O O15 0.167034 0.500000 0.421842
O O16 0.917786 0.108809 0.578395
O O17 0.897840 0.229406 0.722657
O O18 0.000000 0.131001 0.789957
O O19 0.000000 0.138566 0.372895
O O20 0.250000 0.750000 0.737927
#
# Coordination Sequence:
#
# PCOD9348417 Si02
#       8
#     8   8   8   8   8   8   8   8
#     4  10  19  32  53  79 107 140 178 221 272 326
#     4  10  20  36  57  83 114 149 187 229 280 335
#     4  10  19  36  55  76 106 144 191 230 265 321
#     4  10  20  33  52  79 108 142 183 230 279 329
#     4  10  19  32  53  80 109 142 179 223 280 333
#     4  10  19  33  55  83 114 147 186 233 280 328
#     4   9  18  30  49  79 111 142 177 218 274 332
#     4   9  20  36  54  78 110 146 196 233 266 321
#
# _framework density 20.089894000000001
#
# number of rings (size 3 to 8) (size 9 to 14) (size 15 to 20)
#    0.000    2.250    2.500    0.750    0.000    1.250 
#    0.000    7.500    0.000    1.125    0.000    0.000 
#    0.000    0.000    0.000    0.000    0.000    0.000 
#
# Total GULP energy -178147.698705 kJ/mol
# GULP energy per Si atom -5567.115585 kJ/mol
# Density = 2.004417 g / cm^3
# Si number density = 20.089894 Si / 1000 Ang^3
#
#
#
# Elastic Constant Matrix: (Units=GPa)
#
#
# Indices 1 2 3 4 5 6 
#
# 1 46.1032 30.2716 -3.2867 0.0000 0.0000 0.0000
# 2 30.2716 134.8412 16.2104 0.0000 0.0000 0.0000
# 3 -3.2867 16.2104 45.2293 0.0000 0.0000 0.0000
# 4 0.0000 0.0000 0.0000 15.4028 0.0000 0.0000
# 5 0.0000 0.0000 0.0000 0.0000 14.6422 0.0000
# 6 0.0000 0.0000 0.0000 0.0000 0.0000 7.0418
#
#
#
# Elastic Compliance Matrix: (Units=1/GPa)
#
#
# Indices 1 2 3 4 5 6 
#
# 1 0.026179 -0.006381 0.004189 0.000000 0.000000 0.000000
# 2 -0.006381 0.009305 -0.003799 0.000000 0.000000 0.000000
# 3 0.004189 -0.003799 0.023775 0.000000 0.000000 0.000000
# 4 0.000000 0.000000 0.000000 0.064923 0.000000 0.000000
# 5 0.000000 0.000000 0.000000 0.000000 0.068296 0.000000
# 6 0.000000 0.000000 0.000000 0.000000 0.000000 0.142009
#
#
# Mechanical properties :
#
#
# Convention : Reuss Voigt Hill
#
# Bulk Modulus (GPa) = 21.15102 34.72937 27.94019
# Shear Modulus (GPa) = 13.80350 19.61593 16.70972
#
# Velocity S-wave (km/s) = 2.62408 3.12814 2.88713
# Velocity P-wave (km/s) = 4.44208 5.51104 5.00518
#
# Compressibility (1/GPa) = 0.04727904
#
# Stress axis : x y z
#
# Youngs Moduli (GPa) = 38.19894 107.46609 42.06019
#
# Poissons Ratio (x) = 0.68571 -0.17620
# Poissons Ratio (y) = 0.24374 0.15977
# Poissons Ratio (z) = -0.16002 0.40823
#
# Static dielectric constant tensor:
#      x y z
#    x 1.736820 0.000000 0.000000 
#    y 0.000000 1.758550 0.000000 
#    z 0.000000 0.000000 1.758330 
# 
# From -- ./inp_files/13660.got.cif
#   From: 2010.05.17/outbox.cif.g08.bks.cpg/sg35_7_cif.got.tgz:13660.got - 2010.06.03 17:29:28.
