data_PCOD9348705
_publ_section_title
;
Structure prediction by ZEFSAII (Michael W. Deem and Ramdas Pophale) SiO2 
 PCOD9348705
Probable space group: C M M 2
;
_chemical_formula_sum "Si O2"
_cell_formula_units_Z 64
_cell_length_a 15.246415
_cell_length_b 21.845565
_cell_length_c 10.036076
_cell_angle_alpha 90.000000
_cell_angle_beta 90.000000
_cell_angle_gamma 90.000000
_cell_volume 3342.681208
_symmetry_space_group_name_H-M "C M M 2"
_symmetry_group_IT_number 35
_symmetry_cell_setting 'orthorhombic'
loop_
_space_group_symop_operation_xyz
x,y,z
-x,-y,z
-x,y,z
x,-y,z
1/2+x,1/2+y,z
1/2-x,1/2-y,z
1/2-x,1/2+y,z
1/2+x,1/2-y,z
loop_
_atom_site_type_symbol
_atom_site_label
_atom_site_fract_x
_atom_site_fract_y
_atom_site_fract_z
Si Si1 0.726248 0.570063 0.817450
Si Si2 0.898104 0.351542 0.798491
Si Si3 0.597853 0.742155 0.002175
Si Si4 0.602011 0.779163 0.527463
Si Si5 0.197494 0.875593 0.089529
Si Si6 0.893268 0.142546 0.609167
Si Si7 0.395247 0.430567 0.340165
Si Si8 0.826623 0.699239 0.243747
O O1 0.720718 0.500000 0.771766
O O2 0.824786 0.596843 0.810823
O O3 0.660780 0.612064 0.729338
O O4 0.702478 0.575130 0.973524
O O5 0.892806 0.325137 0.649895
O O6 0.000000 0.369270 0.825390
O O7 0.876927 0.294662 0.897251
O O8 0.500000 0.720744 0.966925
O O9 0.663266 0.685493 0.014549
O O10 0.599532 0.773072 0.147927
O O11 0.500000 0.768960 0.492890
O O12 0.633944 0.712663 0.578628
O O13 0.646603 0.805962 0.396110
O O14 0.133913 0.894843 0.208689
O O15 0.287224 0.859011 0.166709
O O16 0.871358 0.104963 0.474934
O O17 0.000000 0.140491 0.631820
O O18 0.500000 0.433491 0.339999
O O19 0.360199 0.500000 0.339407
O O20 0.750000 0.750000 0.243059
#
# Coordination Sequence:
#
# PCOD9348705 Si02
#       8
#     8   8   8   8   8   8   8   8
#     4  12  26  42  62  86 121 169 214 259 303 355
#     4  10  23  41  62  88 116 155 203 255 315 369
#     4  10  19  36  59  85 120 154 188 242 307 366
#     4  10  21  37  60  91 122 152 189 245 314 376
#     4  11  22  36  56  91 122 157 205 251 304 367
#     4  10  22  40  63  94 128 162 202 247 307 377
#     4  10  21  38  57  81 122 171 210 246 292 360
#     4  10  20  32  53  89 121 152 183 236 300 369
#
# _framework density 19.146307
#
# number of rings (size 3 to 8) (size 9 to 14) (size 15 to 20)
#    0.000    1.625    1.250    3.750    3.500    5.000 
#    0.000    0.000    0.000    0.000    0.000    0.000 
#    0.000    0.000    0.000    0.000    0.000    0.000 
#
# Total GULP energy -178623.546214 kJ/mol
# GULP energy per Si atom -5581.985819 kJ/mol
# Density = 1.910273 g / cm^3
# Si number density = 19.146307 Si / 1000 Ang^3
#
#
#
# Elastic Constant Matrix: (Units=GPa)
#
#
# Indices 1 2 3 4 5 6 
#
# 1 48.5404 13.8768 29.6115 0.0000 0.0000 0.0000
# 2 13.8768 39.4298 20.5078 0.0000 0.0000 0.0000
# 3 29.6115 20.5078 117.9996 0.0000 0.0000 0.0000
# 4 0.0000 0.0000 0.0000 20.7185 0.0000 0.0000
# 5 0.0000 0.0000 0.0000 0.0000 17.5010 0.0000
# 6 0.0000 0.0000 0.0000 0.0000 0.0000 9.9087
#
#
#
# Elastic Compliance Matrix: (Units=1/GPa)
#
#
# Indices 1 2 3 4 5 6 
#
# 1 0.025651 -0.006244 -0.005352 0.000000 0.000000 0.000000
# 2 -0.006244 0.029402 -0.003543 0.000000 0.000000 0.000000
# 3 -0.005352 -0.003543 0.010433 0.000000 0.000000 0.000000
# 4 0.000000 0.000000 0.000000 0.048266 0.000000 0.000000
# 5 0.000000 0.000000 0.000000 0.000000 0.057140 0.000000
# 6 0.000000 0.000000 0.000000 0.000000 0.000000 0.100921
#
#
# Mechanical properties :
#
#
# Convention : Reuss Voigt Hill
#
# Bulk Modulus (GPa) = 28.40216 37.10690 32.75453
# Shear Modulus (GPa) = 15.93234 19.09057 17.51146
#
# Velocity S-wave (km/s) = 2.88781 3.16110 3.02754
# Velocity P-wave (km/s) = 5.09762 5.72243 5.41904
#
# Compressibility (1/GPa) = 0.03520859
#
# Stress axis : x y z
#
# Youngs Moduli (GPa) = 38.98436 34.01155 95.84613
#
# Poissons Ratio (x) = 0.21237 0.51296
# Poissons Ratio (y) = 0.24342 0.33958
# Poissons Ratio (z) = 0.20864 0.12050
#
# Static dielectric constant tensor:
#      x y z
#    x 1.711880 0.000000 0.000000 
#    y 0.000000 1.661670 0.000000 
#    z 0.000000 0.000000 1.667640 
# 
# From -- ./inp_files/7860.got.cif
#   From: 2010.05.17/outbox.cif.g08.bks.cpg/sg35_4_cif.got.tgz:7860.got - 2010.06.03 17:29:28.
