data_PCOD9348032
_publ_section_title
;
Structure prediction by ZEFSAII (Michael W. Deem and Ramdas Pophale) SiO2 
 PCOD9348032
Probable space group: P N N 2
;
_chemical_formula_sum "Si O2"
_cell_formula_units_Z 16
_cell_length_a 4.907447
_cell_length_b 19.912074
_cell_length_c 6.141904
_cell_angle_alpha 90.000000
_cell_angle_beta 90.000000
_cell_angle_gamma 90.000000
_cell_volume 600.171184
_symmetry_space_group_name_H-M "P N N 2"
_symmetry_group_IT_number 34
_symmetry_cell_setting 'orthorhombic'
loop_
_space_group_symop_operation_xyz
x,y,z
-x,-y,z
1/2-x,1/2+y,1/2+z
1/2+x,1/2-y,1/2+z
loop_
_atom_site_type_symbol
_atom_site_label
_atom_site_fract_x
_atom_site_fract_y
_atom_site_fract_z
Si Si1 0.570369 0.321438 0.672990
Si Si2 0.000000 0.500000 0.622662
Si Si3 0.500000 0.500000 0.956787
Si Si4 0.459691 0.729851 0.111503
Si Si5 0.321585 0.399597 0.338287
O O1 0.814966 0.285356 0.550387
O O2 0.507544 0.389944 0.553021
O O3 0.294566 0.276810 0.677531
O O4 0.658207 0.318438 0.923514
O O5 0.928431 0.561112 0.452976
O O6 0.755653 0.489990 0.796235
O O7 0.419431 0.441938 0.131501
O O8 0.645347 0.677883 0.254099
#
# Coordination Sequence:
#
# PCOD9348032 Si02
#       5
#     4   2   2   4   4
#     4  12  25  46  74 112 155 203 253 320 394 477
#     4  12  30  54  82 118 160 220 276 340 400 486
#     4  12  30  54  82 118 160 220 276 340 400 486
#     4  12  25  46  74 112 155 203 253 320 394 477
#     4  12  28  52  84 114 168 206 274 330 414 474
#
# _framework density 26.65906
#
# number of rings (size 3 to 8) (size 9 to 14) (size 15 to 20)
#    0.000    0.000    5.000    3.000    0.000   16.000 
#    0.000    0.000    0.000    0.000    0.000    0.000 
#    0.000    0.000    0.000    0.000    0.000    0.000 
#
# Total GULP energy -89119.952395 kJ/mol
# GULP energy per Si atom -5569.997025 kJ/mol
# Density = 2.659838 g / cm^3
# Si number density = 26.659060 Si / 1000 Ang^3
#
#
#
# Elastic Constant Matrix: (Units=GPa)
#
#
# Indices 1 2 3 4 5 6 
#
# 1 167.5421 28.9586 24.6865 0.0000 0.0000 0.0000
# 2 28.9586 88.5036 33.2968 0.0000 0.0000 0.0000
# 3 24.6865 33.2968 106.9132 0.0000 0.0000 0.0000
# 4 0.0000 0.0000 0.0000 107.9586 0.0000 0.0000
# 5 0.0000 0.0000 0.0000 0.0000 35.9153 0.0000
# 6 0.0000 0.0000 0.0000 0.0000 0.0000 50.0189
#
#
#
# Elastic Compliance Matrix: (Units=1/GPa)
#
#
# Indices 1 2 3 4 5 6 
#
# 1 0.006408 -0.001744 -0.000936 0.000000 0.000000 0.000000
# 2 -0.001744 0.013273 -0.003731 0.000000 0.000000 0.000000
# 3 -0.000936 -0.003731 0.010732 0.000000 0.000000 0.000000
# 4 0.000000 0.000000 0.000000 0.009263 0.000000 0.000000
# 5 0.000000 0.000000 0.000000 0.000000 0.027843 0.000000
# 6 0.000000 0.000000 0.000000 0.000000 0.000000 0.019992
#
#
# Mechanical properties :
#
#
# Convention : Reuss Voigt Hill
#
# Bulk Modulus (GPa) = 56.85241 59.64918 58.25080
# Shear Modulus (GPa) = 47.08158 57.17969 52.13064
#
# Velocity S-wave (km/s) = 4.20701 4.63628 4.42685
# Velocity P-wave (km/s) = 6.70602 7.14727 6.93016
#
# Compressibility (1/GPa) = 0.01758940
#
# Stress axis : x y z
#
# Youngs Moduli (GPa) = 156.05157 75.33824 93.18293
#
# Poissons Ratio (x) = 0.13143 0.08725
# Poissons Ratio (y) = 0.27223 0.34767
# Poissons Ratio (z) = 0.14612 0.28109
#
# Static dielectric constant tensor:
#      x y z
#    x 2.073550 0.000000 0.000000 
#    y 0.000000 2.142170 0.000000 
#    z 0.000000 0.000000 2.339010 
# 
# From -- ./inp_files/120.got.cif
#   From: 2010.05.17/outbox.cif.g08.bks.cpg/sg34_1_cif.got.tgz:120.got - 2010.06.03 17:23:11.
