data_PCOD9348822
_publ_section_title
;
Structure prediction by ZEFSAII (Michael W. Deem and Ramdas Pophale) SiO2 
 PCOD9348822
Probable space group: C M M 2
;
_chemical_formula_sum "Si O2"
_cell_formula_units_Z 56
_cell_length_a 9.030445
_cell_length_b 15.078973
_cell_length_c 18.945218
_cell_angle_alpha 90.000000
_cell_angle_beta 90.000000
_cell_angle_gamma 90.000000
_cell_volume 2579.767234
_symmetry_space_group_name_H-M "C M M 2"
_symmetry_group_IT_number 35
_symmetry_cell_setting 'orthorhombic'
loop_
_space_group_symop_operation_xyz
x,y,z
-x,-y,z
-x,y,z
x,-y,z
1/2+x,1/2+y,z
1/2-x,1/2-y,z
1/2-x,1/2+y,z
1/2+x,1/2-y,z
loop_
_atom_site_type_symbol
_atom_site_label
_atom_site_fract_x
_atom_site_fract_y
_atom_site_fract_z
Si Si1 0.177989 0.651324 0.504960
Si Si2 0.335189 0.604220 0.801874
Si Si3 0.176981 0.152612 0.365980
Si Si4 0.669661 0.608742 0.084837
Si Si5 0.676764 0.153279 0.659975
Si Si6 0.169408 0.608766 0.941020
Si Si7 0.665048 0.104721 0.224122
O O1 0.250000 0.750000 0.508562
O O2 0.252970 0.608562 0.436245
O O3 0.206441 0.611162 0.582646
O O4 0.000000 0.657264 0.495275
O O5 0.500000 0.643588 0.794619
O O6 0.351326 0.500000 0.816348
O O7 0.246597 0.610632 0.729050
O O8 0.247730 0.640281 0.869352
O O9 0.250000 0.250000 0.364979
O O10 0.231200 0.113648 0.292112
O O11 0.000000 0.155122 0.371146
O O12 0.500000 0.637723 0.089073
O O13 0.669411 0.500000 0.085686
O O14 0.760870 0.640332 0.152915
O O15 0.743606 0.635580 0.011263
O O16 0.500000 0.158920 0.667093
O O17 0.750000 0.250000 0.658209
O O18 0.167717 0.500000 0.940459
O O19 0.000000 0.638359 0.943652
O O20 0.500000 0.142410 0.237335
O O21 0.648862 0.000000 0.212329
#
# Coordination Sequence:
#
# PCOD9348822 Si02
#       7
#     8   8   8   8   8   8   8
#     4   9  17  31  51  74  98 127 166 208 248 293
#     4  10  20  33  50  74 104 135 168 209 254 297
#     4  11  21  34  54  77 102 132 168 208 250 298
#     4   9  16  27  45  70  99 130 166 206 247 292
#     4  10  20  34  54  77 101 131 167 207 250 299
#     4   9  16  27  45  69  97 130 168 207 247 292
#     4  10  20  34  52  75 104 135 168 208 253 298
#
# _framework density 21.707386
#
# number of rings (size 3 to 8) (size 9 to 14) (size 15 to 20)
#    0.000    2.286    0.000    4.714    0.000    6.857 
#    0.000    0.714    0.000    1.714    0.000    6.000 
#    0.000    0.000    0.000    0.000    0.000    0.000 
#
# Total GULP energy -156295.788950 kJ/mol
# GULP energy per Si atom -5581.992463 kJ/mol
# Density = 2.165798 g / cm^3
# Si number density = 21.707386 Si / 1000 Ang^3
#
#
#
# Elastic Constant Matrix: (Units=GPa)
#
#
# Indices 1 2 3 4 5 6 
#
# 1 196.0148 8.2353 112.3478 0.0000 0.0000 0.0000
# 2 8.2353 31.8813 6.6784 0.0000 0.0000 0.0000
# 3 112.3478 6.6784 216.8497 0.0000 0.0000 0.0000
# 4 0.0000 0.0000 0.0000 -189.8127 0.0000 0.0000
# 5 0.0000 0.0000 0.0000 0.0000 29.5090 0.0000
# 6 0.0000 0.0000 0.0000 0.0000 0.0000 13.6473
#
#
#
# Elastic Compliance Matrix: (Units=1/GPa)
#
#
# Indices 1 2 3 4 5 6 
#
# 1 0.007295 -0.001100 -0.003745 0.000000 0.000000 0.000000
# 2 -0.001100 0.031736 -0.000408 0.000000 0.000000 0.000000
# 3 -0.003745 -0.000408 0.006564 0.000000 0.000000 0.000000
# 4 0.000000 0.000000 0.000000 -0.005268 0.000000 0.000000
# 5 0.000000 0.000000 0.000000 0.000000 0.033888 0.000000
# 6 0.000000 0.000000 0.000000 0.000000 0.000000 0.073275
#
#
# Mechanical properties :
#
#
# Convention : Reuss Voigt Hill
#
# Bulk Modulus (GPa) = 28.49864 77.69654 53.09759
# Shear Modulus (GPa) = 29.46534 -8.16567 10.64984
#
# Velocity S-wave (km/s) = 3.68827 -1.94161 2.21737
# Velocity P-wave (km/s) = 5.59418 5.55373 5.57399
#
# Compressibility (1/GPa) = 0.03508940
#
# Stress axis : x y z
#
# Youngs Moduli (GPa) = 137.08847 31.51019 152.33475
#
# Poissons Ratio (x) = 0.03465 0.57055
# Poissons Ratio (y) = 0.15076 0.06210
# Poissons Ratio (z) = 0.51345 0.01284
#
# Static dielectric constant tensor:
#      x y z
#    x 1.756940 0.000000 0.000000 
#    y 0.000000 2.063980 0.000000 
#    z 0.000000 0.000000 1.811240 
# 
# From -- ./inp_files/15608.got.cif
#   From: 2010.05.17/outbox.cif.g08.bks.cpg/sg35_8_cif.got.tgz:15608.got - 2010.06.03 17:29:28.
