data_PCOD9348119
_publ_section_title
;
Structure prediction by ZEFSAII (Michael W. Deem and Ramdas Pophale) SiO2 
 PCOD9348119
Probable space group: C M M 2
;
_chemical_formula_sum "Si O2"
_cell_formula_units_Z 64
_cell_length_a 16.473037
_cell_length_b 17.802029
_cell_length_c 10.611315
_cell_angle_alpha 90.000000
_cell_angle_beta 90.000000
_cell_angle_gamma 90.000000
_cell_volume 3111.805077
_symmetry_space_group_name_H-M "C M M 2"
_symmetry_group_IT_number 35
_symmetry_cell_setting 'orthorhombic'
loop_
_space_group_symop_operation_xyz
x,y,z
-x,-y,z
-x,y,z
x,-y,z
1/2+x,1/2+y,z
1/2-x,1/2-y,z
1/2-x,1/2+y,z
1/2+x,1/2-y,z
loop_
_atom_site_type_symbol
_atom_site_label
_atom_site_fract_x
_atom_site_fract_y
_atom_site_fract_z
Si Si1 0.266701 0.414330 0.910110
Si Si2 0.621496 0.145758 0.247644
Si Si3 0.090315 0.196217 0.845792
Si Si4 0.793589 0.913329 0.210613
Si Si5 0.907268 0.583066 0.513340
Si Si6 0.092612 0.808032 0.353245
Si Si7 0.841360 0.261452 0.602694
Si Si8 0.091230 0.354500 0.960116
O O1 0.273525 0.500000 0.866111
O O2 0.335043 0.361076 0.851441
O O3 0.172597 0.388259 0.897001
O O4 0.288625 0.411990 0.059373
O O5 0.718227 0.136985 0.254756
O O6 0.589911 0.095590 0.362323
O O7 0.596346 0.231100 0.273125
O O8 0.595576 0.123145 0.107388
O O9 0.097438 0.236964 0.711299
O O10 0.099776 0.264241 0.945858
O O11 0.000000 0.162947 0.862285
O O12 0.871841 0.875447 0.271243
O O13 0.783578 0.000000 0.250186
O O14 0.875729 0.500000 0.542102
O O15 0.856836 0.652211 0.566958
O O16 0.000000 0.589148 0.559458
O O17 0.143299 0.788735 0.478642
O O18 0.000000 0.821788 0.390100
O O19 0.750000 0.250000 0.647700
O O20 0.000000 0.374135 0.912475
#
# Coordination Sequence:
#
# PCOD9348119 Si02
#       8
#     8   8   8   8   8   8   8   8
#     4  10  22  39  59  85 117 154 196 242 296 357
#     4  10  18  33  55  85 118 148 188 230 278 341
#     4  11  23  41  63  84 111 150 199 250 293 342
#     4  10  21  36  55  81 115 153 191 236 289 344
#     4  10  20  35  58  87 118 149 181 223 277 338
#     4  11  21  34  55  83 115 149 189 237 286 342
#     4  11  22  39  61  84 113 151 195 240 287 345
#     4  10  20  35  59  89 119 153 192 238 293 350
#
# _framework density 20.566839000000002
#
# number of rings (size 3 to 8) (size 9 to 14) (size 15 to 20)
#    0.000    1.625    0.000    7.125    0.000    4.750 
#    0.000    4.375    0.000    2.250    0.000    0.000 
#    0.000    0.000    0.000    0.000    0.000    0.000 
#
# Total GULP energy -178722.055348 kJ/mol
# GULP energy per Si atom -5585.064230 kJ/mol
# Density = 2.052003 g / cm^3
# Si number density = 20.566839 Si / 1000 Ang^3
#
#
#
# Elastic Constant Matrix: (Units=GPa)
#
#
# Indices 1 2 3 4 5 6 
#
# 1 124.4112 56.1520 14.7472 0.0000 0.0000 0.0000
# 2 56.1520 94.2734 21.2672 0.0000 0.0000 0.0000
# 3 14.7472 21.2672 35.3654 0.0000 0.0000 0.0000
# 4 0.0000 0.0000 0.0000 15.2303 0.0000 0.0000
# 5 0.0000 0.0000 0.0000 0.0000 22.0019 0.0000
# 6 0.0000 0.0000 0.0000 0.0000 0.0000 16.6289
#
#
#
# Elastic Compliance Matrix: (Units=1/GPa)
#
#
# Indices 1 2 3 4 5 6 
#
# 1 0.011010 -0.006389 -0.000749 0.000000 0.000000 0.000000
# 2 -0.006389 0.015980 -0.006945 0.000000 0.000000 0.000000
# 3 -0.000749 -0.006945 0.032765 0.000000 0.000000 0.000000
# 4 0.000000 0.000000 0.000000 0.065659 0.000000 0.000000
# 5 0.000000 0.000000 0.000000 0.000000 0.045451 0.000000
# 6 0.000000 0.000000 0.000000 0.000000 0.000000 0.060136
#
#
# Mechanical properties :
#
#
# Convention : Reuss Voigt Hill
#
# Bulk Modulus (GPa) = 31.65736 48.70922 40.18329
# Shear Modulus (GPa) = 18.53931 21.56446 20.05189
#
# Velocity S-wave (km/s) = 3.00562 3.24158 3.12583
# Velocity P-wave (km/s) = 5.24126 6.14371 5.71034
#
# Compressibility (1/GPa) = 0.03158824
#
# Stress axis : x y z
#
# Youngs Moduli (GPa) = 90.82394 62.57912 30.52015
#
# Poissons Ratio (x) = 0.39982 0.02286
# Poissons Ratio (y) = 0.58028 0.21197
# Poissons Ratio (z) = 0.06804 0.43463
#
# Static dielectric constant tensor:
#      x y z
#    x 1.641410 0.000000 0.000000 
#    y 0.000000 1.704350 0.000000 
#    z 0.000000 0.000000 1.746170 
# 
# From -- ./inp_files/13187.got.cif
#   From: 2010.05.17/outbox.cif.g08.bks.cpg/sg35_7_cif.got.tgz:13187.got - 2010.06.03 17:29:28.
