data_PCOD9348288
_publ_section_title
;
Structure prediction by ZEFSAII (Michael W. Deem and Ramdas Pophale) SiO2 
 PCOD9348288
Probable space group: C M M 2
;
_chemical_formula_sum "Si O2"
_cell_formula_units_Z 40
_cell_length_a 8.056865
_cell_length_b 16.171284
_cell_length_c 14.998691
_cell_angle_alpha 90.000000
_cell_angle_beta 90.000000
_cell_angle_gamma 90.000000
_cell_volume 1954.177232
_symmetry_space_group_name_H-M "C M M 2"
_symmetry_group_IT_number 35
_symmetry_cell_setting 'orthorhombic'
loop_
_space_group_symop_operation_xyz
x,y,z
-x,-y,z
-x,y,z
x,-y,z
1/2+x,1/2+y,z
1/2-x,1/2-y,z
1/2-x,1/2+y,z
1/2+x,1/2-y,z
loop_
_atom_site_type_symbol
_atom_site_label
_atom_site_fract_x
_atom_site_fract_y
_atom_site_fract_z
Si Si1 0.199995 0.839158 0.860800
Si Si2 0.200802 0.000000 0.969059
Si Si3 0.196247 0.346015 0.290154
Si Si4 0.801207 0.845367 0.487111
Si Si5 0.200965 0.500000 0.174576
Si Si6 0.298520 0.405948 0.677331
O O1 0.250000 0.750000 0.896753
O O2 0.258971 0.917044 0.918664
O O3 0.261434 0.849552 0.758593
O O4 0.000000 0.843087 0.858534
O O5 0.000000 0.000000 0.964412
O O6 0.252476 0.000000 0.071420
O O7 0.250000 0.250000 0.278244
O O8 0.236205 0.373920 0.391355
O O9 0.263385 0.416145 0.223249
O O10 0.000000 0.344352 0.279954
O O11 0.750000 0.750000 0.494370
O O12 0.738008 0.887406 0.577702
O O13 0.000000 0.852593 0.484378
O O14 0.000000 0.500000 0.181819
O O15 0.500000 0.398545 0.673686
O O16 0.260259 0.500000 0.701775
#
# Coordination Sequence:
#
# PCOD9348288 Si02
#       6
#     8   4   8   8   4   8
#     4  10  20  37  60  84 113 149 186 227 275 328
#     4  10  22  40  61  84 110 144 187 230 277 338
#     4  10  21  39  59  82 113 149 185 228 279 331
#     4  10  19  31  52  80 111 148 187 227 268 319
#     4  10  24  42  61  82 112 146 179 232 293 334
#     4   9  17  31  52  79 113 150 188 225 265 321
#
# _framework density 20.468971
#
# number of rings (size 3 to 8) (size 9 to 14) (size 15 to 20)
#    0.000    2.200    1.000    3.000    1.400    3.200 
#    0.000    5.000    0.000    2.400    0.000    0.000 
#    0.000    0.000    0.000    0.000    0.000    0.000 
#
# Total GULP energy -111595.025571 kJ/mol
# GULP energy per Si atom -5579.751279 kJ/mol
# Density = 2.042238 g / cm^3
# Si number density = 20.468971 Si / 1000 Ang^3
#
#
#
# Elastic Constant Matrix: (Units=GPa)
#
#
# Indices 1 2 3 4 5 6 
#
# 1 18.8607 10.5430 7.1043 0.0000 0.0000 0.0000
# 2 10.5430 141.5704 94.6149 0.0000 0.0000 0.0000
# 3 7.1043 94.6149 151.5931 0.0000 0.0000 0.0000
# 4 0.0000 0.0000 0.0000 19.7997 0.0000 0.0000
# 5 0.0000 0.0000 0.0000 0.0000 -43.5291 0.0000
# 6 0.0000 0.0000 0.0000 0.0000 0.0000 20.5545
#
#
#
# Elastic Compliance Matrix: (Units=1/GPa)
#
#
# Indices 1 2 3 4 5 6 
#
# 1 0.055324 -0.004096 -0.000036 0.000000 0.000000 0.000000
# 2 -0.004096 0.012422 -0.007561 0.000000 0.000000 0.000000
# 3 -0.000036 -0.007561 0.011317 0.000000 0.000000 0.000000
# 4 0.000000 0.000000 0.000000 0.050506 0.000000 0.000000
# 5 0.000000 0.000000 0.000000 0.000000 -0.022973 0.000000
# 6 0.000000 0.000000 0.000000 0.000000 0.000000 0.048651
#
#
# Mechanical properties :
#
#
# Convention : Reuss Voigt Hill
#
# Bulk Modulus (GPa) = 17.96085 59.61650 38.78868
# Shear Modulus (GPa) = 25.35604 12.68249 19.01926
#
# Velocity S-wave (km/s) = 3.52341 2.49187 3.05154
# Velocity P-wave (km/s) = 5.03451 6.12109 5.60420
#
# Compressibility (1/GPa) = 0.05567664
#
# Stress axis : x y z
#
# Youngs Moduli (GPa) = 18.07546 80.50346 88.35947
#
# Poissons Ratio (x) = 0.32972 0.00322
# Poissons Ratio (y) = 0.07403 0.66808
# Poissons Ratio (z) = 0.00066 0.60869
#
# Static dielectric constant tensor:
#      x y z
#    x 1.806660 0.000000 0.000000 
#    y 0.000000 1.732130 0.000000 
#    z 0.000000 0.000000 1.732190 
# 
# From -- ./inp_files/14745.got.cif
#   From: 2010.05.17/outbox.cif.g08.bks.cpg/sg35_8_cif.got.tgz:14745.got - 2010.06.03 17:29:28.
