data_PCOD9348373
_publ_section_title
;
Structure prediction by ZEFSAII (Michael W. Deem and Ramdas Pophale) SiO2 
 PCOD9348373
Probable space group: C M M 2
;
_chemical_formula_sum "Si O2"
_cell_formula_units_Z 56
_cell_length_a 12.938700
_cell_length_b 13.537803
_cell_length_c 17.129944
_cell_angle_alpha 90.000000
_cell_angle_beta 90.000000
_cell_angle_gamma 90.000000
_cell_volume 3000.507914
_symmetry_space_group_name_H-M "C M M 2"
_symmetry_group_IT_number 35
_symmetry_cell_setting 'orthorhombic'
loop_
_space_group_symop_operation_xyz
x,y,z
-x,-y,z
-x,y,z
x,-y,z
1/2+x,1/2+y,z
1/2-x,1/2-y,z
1/2-x,1/2+y,z
1/2+x,1/2-y,z
loop_
_atom_site_type_symbol
_atom_site_label
_atom_site_fract_x
_atom_site_fract_y
_atom_site_fract_z
Si Si1 0.874460 0.613988 0.472430
Si Si2 0.119833 0.620670 0.641298
Si Si3 0.625540 0.886011 0.810166
Si Si4 0.678811 0.610789 0.048935
Si Si5 0.617328 0.186485 0.304256
Si Si6 0.178812 0.110789 0.233661
Si Si7 0.382672 0.186484 0.978340
O O1 0.841837 0.500000 0.460602
O O2 0.834807 0.649491 0.557096
O O3 0.850126 0.673453 0.394495
O O4 0.000000 0.613115 0.478432
O O5 0.119050 0.500000 0.641298
O O6 0.165193 0.649491 0.725500
O O7 0.000000 0.653384 0.641298
O O8 0.500000 0.886885 0.804164
O O9 0.658163 0.000000 0.821994
O O10 0.649874 0.826547 0.888101
O O11 0.648456 0.500000 0.025809
O O12 0.660934 0.622012 0.141298
O O13 0.623777 0.699600 0.003939
O O14 0.800066 0.627917 0.030311
O O15 0.500000 0.150167 0.295765
O O16 0.699933 0.127918 0.252286
O O17 0.623777 0.300401 0.278657
O O18 0.148457 0.000000 0.256787
O O19 0.500000 0.150166 0.986831
#
# Coordination Sequence:
#
# PCOD9348373 Si02
#       7
#     8   8   8   8   8   8   8
#     4   8  13  22  40  68  98 125 154 190 232 276
#     4   7  10  18  34  61  97 127 150 183 227 274
#     4   8  13  22  40  68  98 125 154 190 232 276
#     4  10  22  37  50  68  96 128 160 196 242 292
#     4  10  19  32  52  75  96 122 159 200 239 280
#     4  10  22  37  50  68  96 128 160 196 242 292
#     4  10  19  32  52  75  96 122 159 200 239 280
#
# _framework density 18.663506000000002
#
# number of rings (size 3 to 8) (size 9 to 14) (size 15 to 20)
#    0.000    3.000    0.000    4.286    0.000    4.571 
#    0.000    2.857    0.000    3.429    0.000    3.000 
#    0.000    5.714    0.000    0.000    0.000    3.429 
#
# Total GULP energy -155929.525514 kJ/mol
# GULP energy per Si atom -5568.911625 kJ/mol
# Density = 1.862103 g / cm^3
# Si number density = 18.663506 Si / 1000 Ang^3
#
#
#
# Elastic Constant Matrix: (Units=GPa)
#
#
# Indices 1 2 3 4 5 6 
#
# 1 31.0534 -10.0400 -6.1368 0.0000 0.0000 0.0000
# 2 -10.0400 82.4247 61.4439 0.0000 0.0000 0.0000
# 3 -6.1368 61.4439 127.8918 0.0000 0.0000 0.0000
# 4 0.0000 0.0000 0.0000 21.6213 0.0000 0.0000
# 5 0.0000 0.0000 0.0000 0.0000 38.9713 0.0000
# 6 0.0000 0.0000 0.0000 0.0000 0.0000 7.2921
#
#
#
# Elastic Compliance Matrix: (Units=1/GPa)
#
#
# Indices 1 2 3 4 5 6 
#
# 1 0.033548 0.004497 -0.000551 0.000000 0.000000 0.000000
# 2 0.004497 0.019505 -0.009155 0.000000 0.000000 0.000000
# 3 -0.000551 -0.009155 0.012191 0.000000 0.000000 0.000000
# 4 0.000000 0.000000 0.000000 0.046251 0.000000 0.000000
# 5 0.000000 0.000000 0.000000 0.000000 0.025660 0.000000
# 6 0.000000 0.000000 0.000000 0.000000 0.000000 0.137134
#
#
# Mechanical properties :
#
#
# Convention : Reuss Voigt Hill
#
# Bulk Modulus (GPa) = 18.23959 36.87825 27.55892
# Shear Modulus (GPa) = 16.50270 26.65046 21.57658
#
# Velocity S-wave (km/s) = 2.97681 3.78292 3.40381
# Velocity P-wave (km/s) = 4.64858 6.23563 5.49965
#
# Compressibility (1/GPa) = 0.05482581
#
# Stress axis : x y z
#
# Youngs Moduli (GPa) = 29.80833 51.26981 82.02732
#
# Poissons Ratio (x) = -0.23056 0.04517
# Poissons Ratio (y) = -0.13405 0.75096
# Poissons Ratio (z) = 0.01642 0.46937
#
# Static dielectric constant tensor:
#      x y z
#    x 1.678530 0.000000 0.000000 
#    y 0.000000 1.645920 0.000000 
#    z 0.000000 0.000000 1.686510 
# 
# From -- ./inp_files/16800.got.cif
#   From: 2010.05.17/outbox.cif.g08.bks.cpg/sg35_9_cif.got.tgz:16800.got - 2010.06.03 17:29:28.
