data_PCOD9348555
_publ_section_title
;
Structure prediction by ZEFSAII (Michael W. Deem and Ramdas Pophale) SiO2 
 PCOD9348555
Probable space group: C M M 2
;
_chemical_formula_sum "Si O2"
_cell_formula_units_Z 40
_cell_length_a 15.968694
_cell_length_b 8.476215
_cell_length_c 14.882728
_cell_angle_alpha 90.000000
_cell_angle_beta 90.000000
_cell_angle_gamma 90.000000
_cell_volume 2014.438010
_symmetry_space_group_name_H-M "C M M 2"
_symmetry_group_IT_number 35
_symmetry_cell_setting 'orthorhombic'
loop_
_space_group_symop_operation_xyz
x,y,z
-x,-y,z
-x,y,z
x,-y,z
1/2+x,1/2+y,z
1/2-x,1/2-y,z
1/2-x,1/2+y,z
1/2+x,1/2-y,z
loop_
_atom_site_type_symbol
_atom_site_label
_atom_site_fract_x
_atom_site_fract_y
_atom_site_fract_z
Si Si1 0.161872 0.689352 0.546590
Si Si2 0.500000 0.811633 0.855566
Si Si3 0.405800 0.808595 0.360978
Si Si4 0.500000 0.311706 0.652451
Si Si5 0.655319 0.809871 0.167362
Si Si6 0.846031 0.188108 0.973432
O O1 0.160387 0.500000 0.547625
O O2 0.250000 0.750000 0.583164
O O3 0.152135 0.745327 0.442651
O O4 0.082604 0.751002 0.601419
O O5 0.500000 0.753248 0.753403
O O6 0.415553 0.750293 0.904358
O O7 0.500000 0.000000 0.859157
O O8 0.500000 0.764720 0.385846
O O9 0.387448 0.755649 0.259777
O O10 0.400849 0.000000 0.358407
O O11 0.500000 0.500000 0.653492
O O12 0.750000 0.750000 0.174492
O O13 0.652008 0.000000 0.162581
O O14 0.624235 0.742265 0.072889
O O15 0.750000 0.250000 0.959992
O O16 0.842575 0.000000 0.969999
#
# Coordination Sequence:
#
# PCOD9348555 Si02
#       6
#     8   4   8   4   8   8
#     4  11  22  41  67  94 128 169 211 259 315 372
#     4  12  26  46  71  96 123 162 205 258 324 380
#     4   9  18  33  56  87 124 167 212 258 308 365
#     4  12  26  46  67  96 127 158 207 262 316 380
#     4  10  19  33  56  85 122 167 212 257 307 365
#     4  11  23  42  65  95 131 168 211 260 311 372
#
# _framework density 19.856656000000001
#
# number of rings (size 3 to 8) (size 9 to 14) (size 15 to 20)
#    0.000    1.400    1.000    6.600    1.400    0.800 
#    0.000    7.000    0.000    0.000    0.000    0.000 
#    0.000    0.000    0.000    0.000    0.000    0.000 
#
# Total GULP energy -111725.067862 kJ/mol
# GULP energy per Si atom -5586.253393 kJ/mol
# Density = 1.981146 g / cm^3
# Si number density = 19.856656 Si / 1000 Ang^3
#
#
#
# Elastic Constant Matrix: (Units=GPa)
#
#
# Indices 1 2 3 4 5 6 
#
# 1 138.1429 45.9849 86.9449 0.0000 0.0000 0.0000
# 2 45.9849 127.7218 52.1911 0.0000 0.0000 0.0000
# 3 86.9449 52.1911 155.0328 0.0000 0.0000 0.0000
# 4 0.0000 0.0000 0.0000 19.0644 0.0000 0.0000
# 5 0.0000 0.0000 0.0000 0.0000 -62.5698 0.0000
# 6 0.0000 0.0000 0.0000 0.0000 0.0000 33.4068
#
#
#
# Elastic Compliance Matrix: (Units=1/GPa)
#
#
# Indices 1 2 3 4 5 6 
#
# 1 0.011515 -0.001747 -0.005869 0.000000 0.000000 0.000000
# 2 -0.001747 0.009344 -0.002166 0.000000 0.000000 0.000000
# 3 -0.005869 -0.002166 0.010471 0.000000 0.000000 0.000000
# 4 0.000000 0.000000 0.000000 0.052454 0.000000 0.000000
# 5 0.000000 0.000000 0.000000 0.000000 -0.015982 0.000000
# 6 0.000000 0.000000 0.000000 0.000000 0.000000 0.029934
#
#
# Mechanical properties :
#
#
# Convention : Reuss Voigt Hill
#
# Bulk Modulus (GPa) = 85.00061 87.90437 86.45249
# Shear Modulus (GPa) = 41.24714 13.69872 27.47293
#
# Velocity S-wave (km/s) = 4.56263 2.62941 3.72366
# Velocity P-wave (km/s) = 8.40576 7.32011 7.88165
#
# Compressibility (1/GPa) = 0.01176462
#
# Stress axis : x y z
#
# Youngs Moduli (GPa) = 86.84634 107.02600 95.50289
#
# Poissons Ratio (x) = 0.18701 0.56054
# Poissons Ratio (y) = 0.15175 0.20681
# Poissons Ratio (z) = 0.50973 0.23177
#
# Static dielectric constant tensor:
#      x y z
#    x 1.709840 0.000000 0.000000 
#    y 0.000000 1.676060 0.000000 
#    z 0.000000 0.000000 1.714960 
# 
# From -- ./inp_files/14812.got.cif
#   From: 2010.05.17/outbox.cif.g08.bks.cpg/sg35_8_cif.got.tgz:14812.got - 2010.06.03 17:29:28.
