data_PCOD9348147
_publ_section_title
;
Structure prediction by ZEFSAII (Michael W. Deem and Ramdas Pophale) SiO2 
 PCOD9348147
Probable space group: C M M 2
;
_chemical_formula_sum "Si O2"
_cell_formula_units_Z 64
_cell_length_a 19.129049
_cell_length_b 19.720955
_cell_length_c 8.330403
_cell_angle_alpha 90.000000
_cell_angle_beta 90.000000
_cell_angle_gamma 90.000000
_cell_volume 3142.587173
_symmetry_space_group_name_H-M "C M M 2"
_symmetry_group_IT_number 35
_symmetry_cell_setting 'orthorhombic'
loop_
_space_group_symop_operation_xyz
x,y,z
-x,-y,z
-x,y,z
x,-y,z
1/2+x,1/2+y,z
1/2-x,1/2-y,z
1/2-x,1/2+y,z
1/2+x,1/2-y,z
loop_
_atom_site_type_symbol
_atom_site_label
_atom_site_fract_x
_atom_site_fract_y
_atom_site_fract_z
Si Si1 0.575431 0.110859 0.799930
Si Si2 0.079032 0.247423 0.976999
Si Si3 0.311217 0.802966 0.212222
Si Si4 0.856831 0.123807 0.818752
Si Si5 0.917025 0.849807 0.484579
Si Si6 0.420078 0.187752 0.465360
Si Si7 0.782883 0.577070 0.958948
Si Si8 0.584024 0.423984 0.162274
O O1 0.500000 0.075918 0.813918
O O2 0.581827 0.141162 0.622064
O O3 0.643532 0.074681 0.866141
O O4 0.571796 0.178253 0.907406
O O5 0.129406 0.256870 0.126487
O O6 0.000000 0.221264 0.008388
O O7 0.121055 0.201348 0.852421
O O8 0.250000 0.750000 0.254295
O O9 0.355521 0.834372 0.356161
O O10 0.286408 0.864226 0.095918
O O11 0.883433 0.112194 0.638083
O O12 0.776630 0.103574 0.837692
O O13 0.890994 0.091182 0.980517
O O14 0.908831 0.768212 0.497837
O O15 0.892231 0.876407 0.310102
O O16 0.000000 0.862760 0.494160
O O17 0.500000 0.182218 0.396752
O O18 0.766762 0.500000 0.014895
O O19 0.500000 0.421380 0.159339
O O20 0.606067 0.500000 0.203278
#
# Coordination Sequence:
#
# PCOD9348147 Si02
#       8
#     8   8   8   8   8   8   8   8
#     4   9  20  40  66  91 120 157 205 269 334 396
#     4  10  18  34  61  92 122 159 207 260 320 383
#     4  11  22  38  61  94 130 172 211 267 329 391
#     4  12  21  38  64  90 129 176 217 263 327 400
#     4  10  21  37  63  97 131 169 216 274 334 388
#     4  10  20  38  64  98 128 154 206 273 340 403
#     4  11  26  44  61  90 131 174 223 270 325 395
#     4  10  22  37  54  83 126 178 232 273 308 375
#
# _framework density 20.365386000000001
#
# number of rings (size 3 to 8) (size 9 to 14) (size 15 to 20)
#    0.000    1.625    2.500    2.625    0.000    3.750 
#    0.000    1.875    0.000    0.750    0.000    0.000 
#    0.000    0.000    0.000    0.000    0.000    0.000 
#
# Total GULP energy -178351.630875 kJ/mol
# GULP energy per Si atom -5573.488465 kJ/mol
# Density = 2.031903 g / cm^3
# Si number density = 20.365386 Si / 1000 Ang^3
#
#
#
# Elastic Constant Matrix: (Units=GPa)
#
#
# Indices 1 2 3 4 5 6 
#
# 1 100.0841 22.1128 21.4473 0.0000 0.0000 0.0000
# 2 22.1128 94.5950 17.6041 0.0000 0.0000 0.0000
# 3 21.4473 17.6041 75.1769 0.0000 0.0000 0.0000
# 4 0.0000 0.0000 0.0000 2.0045 0.0000 0.0000
# 5 0.0000 0.0000 0.0000 0.0000 21.5731 0.0000
# 6 0.0000 0.0000 0.0000 0.0000 0.0000 34.8476
#
#
#
# Elastic Compliance Matrix: (Units=1/GPa)
#
#
# Indices 1 2 3 4 5 6 
#
# 1 0.011021 -0.002082 -0.002657 0.000000 0.000000 0.000000
# 2 -0.002082 0.011446 -0.002086 0.000000 0.000000 0.000000
# 3 -0.002657 -0.002086 0.014548 0.000000 0.000000 0.000000
# 4 0.000000 0.000000 0.000000 0.498868 0.000000 0.000000
# 5 0.000000 0.000000 0.000000 0.000000 0.046354 0.000000
# 6 0.000000 0.000000 0.000000 0.000000 0.000000 0.028696
#
#
# Mechanical properties :
#
#
# Convention : Reuss Voigt Hill
#
# Bulk Modulus (GPa) = 42.79768 43.57604 43.18686
# Shear Modulus (GPa) = 7.90673 25.59782 16.75227
#
# Velocity S-wave (km/s) = 1.97253 3.54916 2.87119
# Velocity P-wave (km/s) = 5.12331 6.18377 5.67835
#
# Compressibility (1/GPa) = 0.02336575
#
# Stress axis : x y z
#
# Youngs Moduli (GPa) = 90.73689 87.36418 68.73580
#
# Poissons Ratio (x) = 0.18188 0.18261
# Poissons Ratio (y) = 0.18890 0.14341
# Poissons Ratio (z) = 0.24106 0.18228
#
# Static dielectric constant tensor:
#      x y z
#    x 1.777360 0.000000 0.000000 
#    y 0.000000 1.804760 0.000000 
#    z 0.000000 0.000000 1.808650 
# 
# From -- ./inp_files/8795.got.cif
#   From: 2010.05.17/outbox.cif.g08.bks.cpg/sg35_5_cif.got.tgz:8795.got - 2010.06.03 17:29:28.
