data_PCOD9348635
_publ_section_title
;
Structure prediction by ZEFSAII (Michael W. Deem and Ramdas Pophale) SiO2 
 PCOD9348635
Probable space group: C M M 2
;
_chemical_formula_sum "Si O2"
_cell_formula_units_Z 40
_cell_length_a 23.788654
_cell_length_b 10.417699
_cell_length_c 7.962136
_cell_angle_alpha 90.000000
_cell_angle_beta 90.000000
_cell_angle_gamma 90.000000
_cell_volume 1973.200724
_symmetry_space_group_name_H-M "C M M 2"
_symmetry_group_IT_number 35
_symmetry_cell_setting 'orthorhombic'
loop_
_space_group_symop_operation_xyz
x,y,z
-x,-y,z
-x,y,z
x,-y,z
1/2+x,1/2+y,z
1/2-x,1/2-y,z
1/2-x,1/2+y,z
1/2+x,1/2-y,z
loop_
_atom_site_type_symbol
_atom_site_label
_atom_site_fract_x
_atom_site_fract_y
_atom_site_fract_z
Si Si1 0.500000 0.232233 0.021981
Si Si2 0.371607 0.000000 0.413596
Si Si3 0.875918 0.222353 0.954973
Si Si4 0.816412 0.237267 0.294055
Si Si5 0.298597 0.642674 0.657201
Si Si6 0.000000 0.500000 0.285508
Si Si7 0.500000 0.000000 0.770539
Si Si8 0.625165 0.000000 0.787887
O O1 0.500000 0.133601 0.179541
O O2 0.558872 0.304390 0.998574
O O3 0.500000 0.130889 0.872241
O O4 0.346195 0.873374 0.327988
O O5 0.439126 0.000000 0.376029
O O6 0.346281 0.000000 0.604958
O O7 0.848270 0.158530 0.792213
O O8 0.869189 0.374505 0.904552
O O9 0.842249 0.185750 0.122101
O O10 0.750000 0.250000 0.268435
O O11 0.822210 0.160355 0.468551
O O12 0.275242 0.500000 0.677047
O O13 0.250000 0.750000 0.683393
O O14 0.437390 0.000000 0.706980
#
# Coordination Sequence:
#
# PCOD9348635 Si02
#       8
#     4   4   8   8   8   2   2   4
#     4   9  18  34  61  97 136 179 222 287 336 415
#     4  12  21  40  66 105 143 185 226 303 351 403
#     4  11  21  42  65  97 139 180 230 281 353 415
#     4  11  25  40  63  95 140 186 227 286 350 424
#     4  11  27  47  70 100 135 178 235 293 351 427
#     4  11  19  36  68 106 154 174 242 298 356 398
#     4   7  15  28  48  94 130 168 208 270 332 398
#     4  10  19  34  64  98 139 177 224 278 350 413
#
# _framework density 20.271633999999999
#
# number of rings (size 3 to 8) (size 9 to 14) (size 15 to 20)
#    0.000    1.400    4.000    2.100    7.000    0.800 
#    3.600    1.500    0.000    0.000    0.000    0.000 
#    0.000    0.000    0.000    0.000    0.000    0.000 
#
# Total GULP energy -111410.973831 kJ/mol
# GULP energy per Si atom -5570.548692 kJ/mol
# Density = 2.022549 g / cm^3
# Si number density = 20.271634 Si / 1000 Ang^3
#
#
#
# Elastic Constant Matrix: (Units=GPa)
#
#
# Indices 1 2 3 4 5 6 
#
# 1 163.7530 32.9821 83.9982 0.0000 0.0000 0.0000
# 2 32.9821 80.8853 6.0527 0.0000 0.0000 0.0000
# 3 83.9982 6.0527 146.3942 0.0000 0.0000 0.0000
# 4 0.0000 0.0000 0.0000 -57.7021 0.0000 0.0000
# 5 0.0000 0.0000 0.0000 0.0000 38.3828 0.0000
# 6 0.0000 0.0000 0.0000 0.0000 0.0000 18.1952
#
#
#
# Elastic Compliance Matrix: (Units=1/GPa)
#
#
# Indices 1 2 3 4 5 6 
#
# 1 0.009546 -0.003493 -0.005333 0.000000 0.000000 0.000000
# 2 -0.003493 0.013680 0.001439 0.000000 0.000000 0.000000
# 3 -0.005333 0.001439 0.009831 0.000000 0.000000 0.000000
# 4 0.000000 0.000000 0.000000 -0.017330 0.000000 0.000000
# 5 0.000000 0.000000 0.000000 0.000000 0.026053 0.000000
# 6 0.000000 0.000000 0.000000 0.000000 0.000000 0.054960
#
#
# Mechanical properties :
#
#
# Convention : Reuss Voigt Hill
#
# Bulk Modulus (GPa) = 54.69741 70.78871 62.74306
# Shear Modulus (GPa) = 42.51390 17.64181 30.07786
#
# Velocity S-wave (km/s) = 4.58450 2.95324 3.85611
# Velocity P-wave (km/s) = 7.42053 6.82823 7.13053
#
# Compressibility (1/GPa) = 0.01828240
#
# Stress axis : x y z
#
# Youngs Moduli (GPa) = 104.75727 73.09938 101.71651
#
# Poissons Ratio (x) = 0.25537 0.54243
# Poissons Ratio (y) = 0.36596 -0.14636
# Poissons Ratio (z) = 0.55865 -0.10518
#
# Static dielectric constant tensor:
#      x y z
#    x 1.967800 0.000000 0.000000 
#    y 0.000000 1.732990 0.000000 
#    z 0.000000 0.000000 1.730510 
# 
# From -- ./inp_files/9130.got.cif
#   From: 2010.05.17/outbox.cif.g08.bks.cpg/sg35_5_cif.got.tgz:9130.got - 2010.06.03 17:29:28.
