data_PCOD9348913
_publ_section_title
;
Structure prediction by ZEFSAII (Michael W. Deem and Ramdas Pophale) SiO2 
 PCOD9348913
Probable space group: C M M 2
;
_chemical_formula_sum "Si O2"
_cell_formula_units_Z 64
_cell_length_a 8.765245
_cell_length_b 29.141646
_cell_length_c 16.025383
_cell_angle_alpha 90.000000
_cell_angle_beta 90.000000
_cell_angle_gamma 90.000000
_cell_volume 4093.422343
_symmetry_space_group_name_H-M "C M M 2"
_symmetry_group_IT_number 35
_symmetry_cell_setting 'orthorhombic'
loop_
_space_group_symop_operation_xyz
x,y,z
-x,-y,z
-x,y,z
x,-y,z
1/2+x,1/2+y,z
1/2-x,1/2-y,z
1/2-x,1/2+y,z
1/2+x,1/2-y,z
loop_
_atom_site_type_symbol
_atom_site_label
_atom_site_fract_x
_atom_site_fract_y
_atom_site_fract_z
Si Si1 0.182636 0.798091 0.195300
Si Si2 0.316438 0.608999 0.945274
Si Si3 0.815135 0.553804 0.424177
Si Si4 0.823471 0.444305 0.608813
Si Si5 0.682385 0.798814 0.009523
Si Si6 0.816781 0.052790 0.782720
Si Si7 0.318196 0.054494 0.101905
Si Si8 0.682338 0.603554 0.264486
O O1 0.250000 0.750000 0.227187
O O2 0.255770 0.805949 0.103964
O O3 0.216278 0.842547 0.250918
O O4 0.000000 0.794086 0.185416
O O5 0.500000 0.612649 0.946754
O O6 0.267321 0.583861 0.860134
O O7 0.243068 0.658902 0.955739
O O8 0.262635 0.578783 0.023958
O O9 0.773542 0.500000 0.412912
O O10 0.765626 0.569499 0.517076
O O11 0.746165 0.583566 0.350360
O O12 0.000000 0.555892 0.422169
O O13 0.819212 0.500000 0.606956
O O14 0.736502 0.430098 0.692132
O O15 0.000000 0.430554 0.616236
O O16 0.500000 0.797361 0.010796
O O17 0.750000 0.750000 0.981463
O O18 0.000000 0.051679 0.783505
O O19 0.762292 0.000000 0.793727
O O20 0.500000 0.062174 0.096358
O O21 0.256410 0.076259 0.187319
O O22 0.289721 0.000000 0.100923
O O23 0.500000 0.597810 0.260933
#
# Coordination Sequence:
#
# PCOD9348913 Si02
#       8
#     8   8   8   8   8   8   8   8
#     4  10  20  34  51  71  94 123 160 204 248 292
#     4  11  21  34  50  71  99 131 166 202 244 292
#     4   9  18  32  49  70  98 131 166 202 240 285
#     4   8  15  29  48  69  94 125 161 203 245 284
#     4  11  21  34  53  73  95 125 162 205 250 292
#     4   9  18  31  48  71  99 131 164 200 242 287
#     4  11  23  35  47  66  95 133 172 203 236 284
#     4  11  22  33  48  71  98 128 163 201 245 292
#
# _framework density 15.634840000000001
#
# number of rings (size 3 to 8) (size 9 to 14) (size 15 to 20)
#    0.000    2.000    1.250    4.875    0.000    6.250 
#    0.000    2.500    0.000    0.000    0.000    0.875 
#    0.000    4.000    0.000    0.000    0.000    0.000 
#
# Total GULP energy -178541.970181 kJ/mol
# GULP energy per Si atom -5579.436568 kJ/mol
# Density = 1.559925 g / cm^3
# Si number density = 15.634840 Si / 1000 Ang^3
#
#
#
# Elastic Constant Matrix: (Units=GPa)
#
#
# Indices 1 2 3 4 5 6 
#
# 1 61.2538 51.5020 42.6728 0.0000 0.0000 0.0000
# 2 51.5020 108.3934 72.5407 0.0000 0.0000 0.0000
# 3 42.6728 72.5407 137.7671 0.0000 0.0000 0.0000
# 4 0.0000 0.0000 0.0000 5.7143 0.0000 0.0000
# 5 0.0000 0.0000 0.0000 0.0000 27.1481 0.0000
# 6 0.0000 0.0000 0.0000 0.0000 0.0000 25.3145
#
#
#
# Elastic Compliance Matrix: (Units=1/GPa)
#
#
# Indices 1 2 3 4 5 6 
#
# 1 0.027756 -0.011479 -0.002553 0.000000 0.000000 0.000000
# 2 -0.011479 0.018993 -0.006445 0.000000 0.000000 0.000000
# 3 -0.002553 -0.006445 0.011443 0.000000 0.000000 0.000000
# 4 0.000000 0.000000 0.000000 0.174998 0.000000 0.000000
# 5 0.000000 0.000000 0.000000 0.000000 0.036835 0.000000
# 6 0.000000 0.000000 0.000000 0.000000 0.000000 0.039503
#
#
# Mechanical properties :
#
#
# Convention : Reuss Voigt Hill
#
# Bulk Modulus (GPa) = 58.01354 71.20504 64.60929
# Shear Modulus (GPa) = 14.03591 21.01531 17.52561
#
# Velocity S-wave (km/s) = 2.99947 3.67022 3.35167
# Velocity P-wave (km/s) = 7.01296 7.97509 7.50945
#
# Compressibility (1/GPa) = 0.01723736
#
# Stress axis : x y z
#
# Youngs Moduli (GPa) = 36.02844 52.65011 87.38976
#
# Poissons Ratio (x) = 0.60440 0.22309
# Poissons Ratio (y) = 0.41359 0.56324
# Poissons Ratio (z) = 0.09197 0.33934
#
# Static dielectric constant tensor:
#      x y z
#    x 1.528180 0.000000 0.000000 
#    y 0.000000 1.517510 0.000000 
#    z 0.000000 0.000000 1.508360 
# 
# From -- ./inp_files/16255.got.cif
#   From: 2010.05.17/outbox.cif.g08.bks.cpg/sg35_9_cif.got.tgz:16255.got - 2010.06.03 17:29:28.
