data_PCOD9348471
_publ_section_title
;
Structure prediction by ZEFSAII (Michael W. Deem and Ramdas Pophale) SiO2 
 PCOD9348471
Probable space group: C M M 2
;
_chemical_formula_sum "Si O2"
_cell_formula_units_Z 56
_cell_length_a 19.984674
_cell_length_b 8.391336
_cell_length_c 18.336189
_cell_angle_alpha 90.000000
_cell_angle_beta 90.000000
_cell_angle_gamma 90.000000
_cell_volume 3074.944320
_symmetry_space_group_name_H-M "C M M 2"
_symmetry_group_IT_number 35
_symmetry_cell_setting 'orthorhombic'
loop_
_space_group_symop_operation_xyz
x,y,z
-x,-y,z
-x,y,z
x,-y,z
1/2+x,1/2+y,z
1/2-x,1/2-y,z
1/2-x,1/2+y,z
1/2+x,1/2-y,z
loop_
_atom_site_type_symbol
_atom_site_label
_atom_site_fract_x
_atom_site_fract_y
_atom_site_fract_z
Si Si1 0.422834 0.805039 0.195210
Si Si2 0.423052 0.194454 0.773929
Si Si3 0.175000 0.690288 0.323682
Si Si4 0.324049 0.311585 0.485427
Si Si5 0.324820 0.192493 0.066539
Si Si6 0.578160 0.192217 0.610008
Si Si7 0.675486 0.807332 0.900405
O O1 0.500000 0.752140 0.195412
O O2 0.380149 0.753233 0.265730
O O3 0.380591 0.754623 0.124157
O O4 0.423859 0.000000 0.195361
O O5 0.500000 0.243235 0.784864
O O6 0.401874 0.242733 0.692197
O O7 0.375892 0.250096 0.839086
O O8 0.422400 0.000000 0.774383
O O9 0.176807 0.500000 0.320614
O O10 0.250000 0.750000 0.306326
O O11 0.158534 0.741014 0.406112
O O12 0.321143 0.500000 0.477987
O O13 0.250000 0.250000 0.504697
O O14 0.376025 0.263135 0.547415
O O15 0.250000 0.250000 0.085786
O O16 0.323771 0.000000 0.067428
O O17 0.339783 0.244725 0.983445
O O18 0.500000 0.234302 0.600201
O O19 0.582791 0.000000 0.606743
O O20 0.750000 0.750000 0.883120
O O21 0.674352 0.000000 0.900174
#
# Coordination Sequence:
#
# PCOD9348471 Si02
#       7
#     8   8   8   8   8   8   8
#     4   9  18  31  48  73 100 125 159 201 241 283
#     4   8  15  29  49  72  97 127 164 202 239 284
#     4  10  19  33  53  73  96 128 163 199 243 294
#     4  11  22  36  54  76 102 129 164 208 250 296
#     4   9  17  30  49  71  97 129 162 198 239 284
#     4   9  18  34  54  74 100 134 168 203 248 300
#     4   9  17  29  47  72  99 127 161 200 241 283
#
# _framework density 18.211711999999999
#
# number of rings (size 3 to 8) (size 9 to 14) (size 15 to 20)
#    0.000    2.714    0.000    3.857    0.000    2.000 
#    0.000    7.143    0.000    4.714    0.000    4.000 
#    0.000    0.000    0.000    0.000    0.000    0.000 
#
# Total GULP energy -156158.580596 kJ/mol
# GULP energy per Si atom -5577.092164 kJ/mol
# Density = 1.817026 g / cm^3
# Si number density = 18.211712 Si / 1000 Ang^3
#
#
#
# Elastic Constant Matrix: (Units=GPa)
#
#
# Indices 1 2 3 4 5 6 
#
# 1 139.2065 22.0192 127.7376 0.0000 0.0000 0.0000
# 2 22.0192 22.0637 23.5907 0.0000 0.0000 0.0000
# 3 127.7376 23.5907 153.1553 0.0000 0.0000 0.0000
# 4 0.0000 0.0000 0.0000 10.4510 0.0000 0.0000
# 5 0.0000 0.0000 0.0000 0.0000 2.8125 0.0000
# 6 0.0000 0.0000 0.0000 0.0000 0.0000 25.5952
#
#
#
# Elastic Compliance Matrix: (Units=1/GPa)
#
#
# Indices 1 2 3 4 5 6 
#
# 1 0.030893 -0.003928 -0.025161 0.000000 0.000000 0.000000
# 2 -0.003928 0.054759 -0.005158 0.000000 0.000000 0.000000
# 3 -0.025161 -0.005158 0.028309 0.000000 0.000000 0.000000
# 4 0.000000 0.000000 0.000000 0.095684 0.000000 0.000000
# 5 0.000000 0.000000 0.000000 0.000000 0.355550 0.000000
# 6 0.000000 0.000000 0.000000 0.000000 0.000000 0.039070
#
#
# Mechanical properties :
#
#
# Convention : Reuss Voigt Hill
#
# Bulk Modulus (GPa) = 21.99441 73.45783 47.72612
# Shear Modulus (GPa) = 7.26834 17.17693 12.22264
#
# Velocity S-wave (km/s) = 1.99992 3.07446 2.59345
# Velocity P-wave (km/s) = 4.17567 7.28190 5.93558
#
# Compressibility (1/GPa) = 0.04546609
#
# Stress axis : x y z
#
# Youngs Moduli (GPa) = 32.37013 18.26184 35.32467
#
# Poissons Ratio (x) = 0.07174 0.88879
# Poissons Ratio (y) = 0.12716 0.18221
# Poissons Ratio (z) = 0.81445 0.09420
#
# Static dielectric constant tensor:
#      x y z
#    x 1.596180 0.000000 0.000000 
#    y 0.000000 1.634470 0.000000 
#    z 0.000000 0.000000 1.631550 
# 
# From -- ./inp_files/17398.got.cif
#   From: 2010.05.17/outbox.cif.g08.bks.cpg/sg35_9_cif.got.tgz:17398.got - 2010.06.03 17:29:28.
