data_PCOD9348770
_publ_section_title
;
Structure prediction by ZEFSAII (Michael W. Deem and Ramdas Pophale) SiO2 
 PCOD9348770
Probable space group: C M M 2
;
_chemical_formula_sum "Si O2"
_cell_formula_units_Z 64
_cell_length_a 9.287032
_cell_length_b 18.621337
_cell_length_c 21.123746
_cell_angle_alpha 90.000000
_cell_angle_beta 90.000000
_cell_angle_gamma 90.000000
_cell_volume 3653.076261
_symmetry_space_group_name_H-M "C M M 2"
_symmetry_group_IT_number 35
_symmetry_cell_setting 'orthorhombic'
loop_
_space_group_symop_operation_xyz
x,y,z
-x,-y,z
-x,y,z
x,-y,z
1/2+x,1/2+y,z
1/2-x,1/2-y,z
1/2-x,1/2+y,z
1/2+x,1/2-y,z
loop_
_atom_site_type_symbol
_atom_site_label
_atom_site_fract_x
_atom_site_fract_y
_atom_site_fract_z
Si Si1 0.671124 0.584473 0.759710
Si Si2 0.167678 0.412603 0.242762
Si Si3 0.672825 0.584086 0.509370
Si Si4 0.173101 0.173724 0.633275
Si Si5 0.670800 0.825983 0.012051
Si Si6 0.170581 0.673993 0.864726
Si Si7 0.833256 0.086643 0.117481
Si Si8 0.668187 0.912888 0.383283
O O1 0.500000 0.594302 0.771842
O O2 0.697497 0.500000 0.751562
O O3 0.706748 0.626949 0.695427
O O4 0.761080 0.616988 0.817270
O O5 0.171113 0.500000 0.243170
O O6 0.264889 0.388874 0.184286
O O7 0.215289 0.388693 0.313059
O O8 0.000000 0.392378 0.233670
O O9 0.500000 0.586701 0.503949
O O10 0.712668 0.500000 0.518665
O O11 0.716053 0.630474 0.570083
O O12 0.742480 0.611101 0.444036
O O13 0.250000 0.250000 0.636410
O O14 0.000000 0.183171 0.631510
O O15 0.500000 0.819060 0.022984
O O16 0.750000 0.750000 0.021282
O O17 0.741256 0.881577 0.060236
O O18 0.692099 0.846620 0.938362
O O19 0.250000 0.750000 0.854421
O O20 0.000000 0.682286 0.853860
O O21 0.000000 0.108362 0.112498
O O22 0.827121 0.000000 0.115950
O O23 0.500000 0.894533 0.390577
O O24 0.677777 0.000000 0.382749
#
# Coordination Sequence:
#
# PCOD9348770 Si02
#       8
#     8   8   8   8   8   8   8   8
#     4  10  21  37  57  80 107 138 170 209 257 305
#     4   8  14  26  44  67  98 134 168 205 254 308
#     4   9  17  30  49  72  98 128 163 206 254 303
#     4  10  21  36  53  74 101 135 173 208 248 301
#     4  10  21  37  56  76 102 137 174 212 256 307
#     4  10  21  37  57  80 105 135 172 212 254 305
#     4  10  20  32  49  76 107 137 173 217 259 303
#     4   8  14  25  43  69  99 129 163 205 253 303
#
# _framework density 17.519480000000001
#
# number of rings (size 3 to 8) (size 9 to 14) (size 15 to 20)
#    0.000    2.625    0.000    2.625    0.000    7.000 
#    0.000    5.000    0.000    3.000    0.000    1.750 
#    0.000    0.000    0.000    0.000    0.000    0.000 
#
# Total GULP energy -178444.205600 kJ/mol
# GULP energy per Si atom -5576.381425 kJ/mol
# Density = 1.747961 g / cm^3
# Si number density = 17.519480 Si / 1000 Ang^3
#
#
#
# Elastic Constant Matrix: (Units=GPa)
#
#
# Indices 1 2 3 4 5 6 
#
# 1 79.7977 47.3416 86.0393 0.0000 0.0000 0.0000
# 2 47.3416 62.3471 68.7013 0.0000 0.0000 0.0000
# 3 86.0393 68.7013 145.4287 0.0000 0.0000 0.0000
# 4 0.0000 0.0000 0.0000 -37.3460 0.0000 0.0000
# 5 0.0000 0.0000 0.0000 0.0000 41.3754 0.0000
# 6 0.0000 0.0000 0.0000 0.0000 0.0000 26.4083
#
#
#
# Elastic Compliance Matrix: (Units=1/GPa)
#
#
# Indices 1 2 3 4 5 6 
#
# 1 0.036503 -0.008177 -0.017733 0.000000 0.000000 0.000000
# 2 -0.008177 0.035285 -0.011831 0.000000 0.000000 0.000000
# 3 -0.017733 -0.011831 0.022957 0.000000 0.000000 0.000000
# 4 0.000000 0.000000 0.000000 -0.026777 0.000000 0.000000
# 5 0.000000 0.000000 0.000000 0.000000 0.024169 0.000000
# 6 0.000000 0.000000 0.000000 0.000000 0.000000 0.037867
#
#
# Mechanical properties :
#
#
# Convention : Reuss Voigt Hill
#
# Bulk Modulus (GPa) = 51.91538 76.85977 64.38757
# Shear Modulus (GPa) = 23.59505 11.78696 17.69101
#
# Velocity S-wave (km/s) = 3.67384 2.59664 3.18117
# Velocity P-wave (km/s) = 6.90604 7.27711 7.09400
#
# Compressibility (1/GPa) = 0.01926212
#
# Stress axis : x y z
#
# Youngs Moduli (GPa) = 27.39472 28.34045 43.55998
#
# Poissons Ratio (x) = 0.23174 0.77247
# Poissons Ratio (y) = 0.22401 0.51536
# Poissons Ratio (z) = 0.48580 0.33530
#
# Static dielectric constant tensor:
#      x y z
#    x 1.581130 0.000000 0.000000 
#    y 0.000000 1.575760 0.000000 
#    z 0.000000 0.000000 1.596690 
# 
# From -- ./inp_files/18328.got.cif
#   From: 2010.05.17/outbox.cif.g08.bks.cpg/sg35_10_cif.got.tgz:18328.got - 2010.06.03 17:29:28.
