data_PCOD9348682
_publ_section_title
;
Structure prediction by ZEFSAII (Michael W. Deem and Ramdas Pophale) SiO2 
 PCOD9348682
Probable space group: C M M 2
;
_chemical_formula_sum "Si O2"
_cell_formula_units_Z 64
_cell_length_a 31.893663
_cell_length_b 17.427518
_cell_length_c 5.384474
_cell_angle_alpha 90.000000
_cell_angle_beta 90.000000
_cell_angle_gamma 90.000000
_cell_volume 2992.838109
_symmetry_space_group_name_H-M "C M M 2"
_symmetry_group_IT_number 35
_symmetry_cell_setting 'orthorhombic'
loop_
_space_group_symop_operation_xyz
x,y,z
-x,-y,z
-x,y,z
x,-y,z
1/2+x,1/2+y,z
1/2-x,1/2-y,z
1/2-x,1/2+y,z
1/2+x,1/2-y,z
loop_
_atom_site_type_symbol
_atom_site_label
_atom_site_fract_x
_atom_site_fract_y
_atom_site_fract_z
Si Si1 0.705252 0.910282 0.540080
Si Si2 0.953029 0.800048 0.249121
Si Si3 0.248340 0.594247 0.032113
Si Si4 0.622394 0.916686 0.258522
Si Si5 0.107157 0.715160 0.900323
Si Si6 0.339056 0.355817 0.855583
Si Si7 0.047111 0.362599 0.528030
Si Si8 0.117511 0.911604 0.368008
O O1 0.731703 0.879435 0.303010
O O2 0.656212 0.907404 0.477477
O O3 0.716767 0.000000 0.543210
O O4 0.715630 0.883555 0.815657
O O5 0.927567 0.774831 0.005276
O O6 0.956051 0.720446 0.397749
O O7 0.923667 0.858945 0.395664
O O8 0.000000 0.828227 0.199792
O O9 0.253264 0.500000 0.040938
O O10 0.291068 0.632115 0.933035
O O11 0.627191 0.838886 0.107242
O O12 0.574361 0.915979 0.349125
O O13 0.632031 0.000000 0.138706
O O14 0.143718 0.769894 0.798780
O O15 0.078850 0.655349 0.749343
O O16 0.361967 0.386824 0.105584
O O17 0.351766 0.400106 0.603395
O O18 0.000000 0.388331 0.589939
O O19 0.105738 0.000000 0.352820
#
# Coordination Sequence:
#
# PCOD9348682 Si02
#       8
#     8   8   8   8   8   8   8   8
#     4   9  20  37  60  89 122 163 205 248 315 379
#     4   9  19  36  56  82 118 163 209 251 306 379
#     4  10  19  35  60  89 121 164 213 256 299 363
#     4  10  23  41  63  89 123 161 205 266 323 389
#     4  10  21  38  63  86 122 166 210 253 325 390
#     4  11  22  38  61  90 129 170 214 265 312 371
#     4  10  20  38  63  88 116 159 207 254 313 385
#     4  11  21  35  57  90 127 168 214 267 314 356
#
# _framework density 21.384385000000002
#
# number of rings (size 3 to 8) (size 9 to 14) (size 15 to 20)
#    0.000    2.000    1.250    2.250    1.750    2.500 
#    0.000    0.625    0.000    1.500    0.000    0.000 
#    0.000    0.000    0.000    0.000    0.000    0.000 
#
# Total GULP energy -178348.258455 kJ/mol
# GULP energy per Si atom -5573.383077 kJ/mol
# Density = 2.133571 g / cm^3
# Si number density = 21.384385 Si / 1000 Ang^3
#
#
#
# Elastic Constant Matrix: (Units=GPa)
#
#
# Indices 1 2 3 4 5 6 
#
# 1 88.3460 13.7576 2.4835 0.0000 0.0000 0.0000
# 2 13.7576 53.6770 -1.5672 0.0000 0.0000 0.0000
# 3 2.4835 -1.5672 64.3105 0.0000 0.0000 0.0000
# 4 0.0000 0.0000 0.0000 4.2569 0.0000 0.0000
# 5 0.0000 0.0000 0.0000 0.0000 20.3429 0.0000
# 6 0.0000 0.0000 0.0000 0.0000 0.0000 17.3173
#
#
#
# Elastic Compliance Matrix: (Units=1/GPa)
#
#
# Indices 1 2 3 4 5 6 
#
# 1 0.011808 -0.003042 -0.000530 0.000000 0.000000 0.000000
# 2 -0.003042 0.019427 0.000591 0.000000 0.000000 0.000000
# 3 -0.000530 0.000591 0.015584 0.000000 0.000000 0.000000
# 4 0.000000 0.000000 0.000000 0.234914 0.000000 0.000000
# 5 0.000000 0.000000 0.000000 0.000000 0.049157 0.000000
# 6 0.000000 0.000000 0.000000 0.000000 0.000000 0.057746
#
#
# Mechanical properties :
#
#
# Convention : Reuss Voigt Hill
#
# Bulk Modulus (GPa) = 24.47570 26.18682 25.33126
# Shear Modulus (GPa) = 12.24840 21.16073 16.70457
#
# Velocity S-wave (km/s) = 2.39586 3.14911 2.79795
# Velocity P-wave (km/s) = 4.37310 5.04925 4.72329
#
# Compressibility (1/GPa) = 0.04085685
#
# Stress axis : x y z
#
# Youngs Moduli (GPa) = 84.69036 51.47523 64.16665
#
# Poissons Ratio (x) = 0.15658 0.03402
# Poissons Ratio (y) = 0.25761 -0.03791
# Poissons Ratio (z) = 0.04490 -0.03042
#
# Static dielectric constant tensor:
#      x y z
#    x 1.821290 0.000000 0.000000 
#    y 0.000000 1.770010 0.000000 
#    z 0.000000 0.000000 1.889650 
# 
# From -- ./inp_files/2744.got.cif
#   From: 2010.05.17/outbox.cif.g08.bks.cpg/sg35_2_cif.got.tgz:2744.got - 2010.06.03 17:29:28.
