data_PCOD9348563
_publ_section_title
;
Structure prediction by ZEFSAII (Michael W. Deem and Ramdas Pophale) SiO2 
 PCOD9348563
Probable space group: C M M 2
;
_chemical_formula_sum "Si O2"
_cell_formula_units_Z 48
_cell_length_a 11.658404
_cell_length_b 14.522054
_cell_length_c 12.999991
_cell_angle_alpha 90.000000
_cell_angle_beta 90.000000
_cell_angle_gamma 90.000000
_cell_volume 2200.950118
_symmetry_space_group_name_H-M "C M M 2"
_symmetry_group_IT_number 35
_symmetry_cell_setting 'orthorhombic'
loop_
_space_group_symop_operation_xyz
x,y,z
-x,-y,z
-x,y,z
x,-y,z
1/2+x,1/2+y,z
1/2-x,1/2-y,z
1/2-x,1/2+y,z
1/2+x,1/2-y,z
loop_
_atom_site_type_symbol
_atom_site_label
_atom_site_fract_x
_atom_site_fract_y
_atom_site_fract_z
Si Si1 0.771236 0.887971 0.416190
Si Si2 0.867631 0.691639 0.007360
Si Si3 0.874310 0.389976 0.231529
Si Si4 0.750079 0.389578 0.814937
Si Si5 0.128187 0.387801 0.609911
Si Si6 0.500000 0.387335 0.773538
Si Si7 0.000000 0.887277 0.531050
O O1 0.728716 0.856820 0.304505
O O2 0.675062 0.862055 0.499110
O O3 0.889432 0.856650 0.466919
O O4 0.778783 0.000000 0.413460
O O5 0.750000 0.750000 0.016940
O O6 0.863248 0.631827 0.111611
O O7 0.000000 0.728774 0.004741
O O8 0.839980 0.638287 0.901917
O O9 0.876696 0.500000 0.243235
O O10 0.000000 0.354399 0.265982
O O11 0.745413 0.500000 0.814056
O O12 0.791844 0.357957 0.703202
O O13 0.618477 0.356057 0.826849
O O14 0.128085 0.500000 0.612076
O O15 0.000000 0.355435 0.626966
O O16 0.500000 0.500000 0.776642
O O17 0.500000 0.362247 0.652032
O O18 0.000000 0.000000 0.533011
#
# Coordination Sequence:
#
# PCOD9348563 Si02
#       7
#     8   8   8   8   8   4   4
#     4   9  15  25  44  76 112 143 174 214 270 328
#     4  11  25  43  61  80 109 149 191 237 289 341
#     4   9  18  35  59  84 109 141 185 234 278 322
#     4  10  19  33  57  86 114 146 188 232 278 329
#     4   9  15  23  42  76 112 139 170 218 273 327
#     4   9  16  28  49  83 123 155 177 217 278 336
#     4   9  14  24  41  73 121 155 170 199 268 340
#
# _framework density 21.808762999999999
#
# number of rings (size 3 to 8) (size 9 to 14) (size 15 to 20)
#    0.000    2.500    1.667    1.500    1.167    3.667 
#    1.500    0.000    0.000    1.000    0.000    0.000 
#    0.000    0.000    0.000    0.000    0.000    0.000 
#
# Total GULP energy -133886.532042 kJ/mol
# GULP energy per Si atom -5578.605502 kJ/mol
# Density = 2.175912 g / cm^3
# Si number density = 21.808763 Si / 1000 Ang^3
#
#
#
# Elastic Constant Matrix: (Units=GPa)
#
#
# Indices 1 2 3 4 5 6 
#
# 1 146.7051 15.9716 30.2900 0.0000 0.0000 0.0000
# 2 15.9716 47.5739 0.8543 0.0000 0.0000 0.0000
# 3 30.2900 0.8543 101.2843 0.0000 0.0000 0.0000
# 4 0.0000 0.0000 0.0000 -220.0762 0.0000 0.0000
# 5 0.0000 0.0000 0.0000 0.0000 41.0462 0.0000
# 6 0.0000 0.0000 0.0000 0.0000 0.0000 13.3738
#
#
#
# Elastic Compliance Matrix: (Units=1/GPa)
#
#
# Indices 1 2 3 4 5 6 
#
# 1 0.007550 -0.002494 -0.002237 0.000000 0.000000 0.000000
# 2 -0.002494 0.021847 0.000562 0.000000 0.000000 0.000000
# 3 -0.002237 0.000562 0.010537 0.000000 0.000000 0.000000
# 4 0.000000 0.000000 0.000000 -0.004544 0.000000 0.000000
# 5 0.000000 0.000000 0.000000 0.000000 0.024363 0.000000
# 6 0.000000 0.000000 0.000000 0.000000 0.000000 0.074773
#
#
# Mechanical properties :
#
#
# Convention : Reuss Voigt Hill
#
# Bulk Modulus (GPa) = 31.65019 43.31057 37.48038
# Shear Modulus (GPa) = 32.59506 -16.56808 8.01349
#
# Velocity S-wave (km/s) = 3.87018 -2.75925 1.91896
# Velocity P-wave (km/s) = 5.87496 3.12267 4.70459
#
# Compressibility (1/GPa) = 0.03159538
#
# Stress axis : x y z
#
# Youngs Moduli (GPa) = 132.45403 45.77232 94.90013
#
# Poissons Ratio (x) = 0.11418 0.21227
# Poissons Ratio (y) = 0.33040 -0.05331
# Poissons Ratio (z) = 0.29627 -0.02571
#
# Static dielectric constant tensor:
#      x y z
#    x 1.811790 0.000000 0.000000 
#    y 0.000000 1.869780 0.000000 
#    z 0.000000 0.000000 1.755730 
# 
# From -- ./inp_files/12369.got.cif
#   From: 2010.05.17/outbox.cif.g08.bks.cpg/sg35_7_cif.got.tgz:12369.got - 2010.06.03 17:29:28.
