data_PCOD9348741
_publ_section_title
;
Structure prediction by ZEFSAII (Michael W. Deem and Ramdas Pophale) SiO2 
 PCOD9348741
Probable space group: C M M 2
;
_chemical_formula_sum "Si O2"
_cell_formula_units_Z 64
_cell_length_a 8.673468
_cell_length_b 28.126391
_cell_length_c 14.699552
_cell_angle_alpha 90.000000
_cell_angle_beta 90.000000
_cell_angle_gamma 90.000000
_cell_volume 3586.004988
_symmetry_space_group_name_H-M "C M M 2"
_symmetry_group_IT_number 35
_symmetry_cell_setting 'orthorhombic'
loop_
_space_group_symop_operation_xyz
x,y,z
-x,-y,z
-x,y,z
x,-y,z
1/2+x,1/2+y,z
1/2-x,1/2-y,z
1/2-x,1/2+y,z
1/2+x,1/2-y,z
loop_
_atom_site_type_symbol
_atom_site_label
_atom_site_fract_x
_atom_site_fract_y
_atom_site_fract_z
Si Si1 0.685777 0.054216 0.597440
Si Si2 0.322731 0.879097 0.230058
Si Si3 0.184425 0.802660 0.093654
Si Si4 0.673138 0.056738 0.918983
Si Si5 0.329595 0.556652 0.099084
Si Si6 0.684600 0.610557 0.757971
Si Si7 0.185819 0.197353 0.886029
Si Si8 0.187546 0.553468 0.384408
O O1 0.500000 0.056341 0.605823
O O2 0.758492 0.095640 0.658337
O O3 0.724810 0.059273 0.490700
O O4 0.732690 0.000000 0.624859
O O5 0.500000 0.865601 0.243913
O O6 0.240877 0.837516 0.173409
O O7 0.303699 0.923704 0.162320
O O8 0.257637 0.902350 0.322965
O O9 0.250000 0.750000 0.109076
O O10 0.000000 0.801465 0.094124
O O11 0.234304 0.816438 0.989812
O O12 0.500000 0.075622 0.933148
O O13 0.738743 0.071431 0.822761
O O14 0.665022 0.000000 0.924719
O O15 0.790761 0.072400 0.997116
O O16 0.500000 0.574242 0.126225
O O17 0.331859 0.500000 0.102318
O O18 0.500000 0.608218 0.760861
O O19 0.732336 0.659880 0.807757
O O20 0.250000 0.250000 0.868757
O O21 0.000000 0.199107 0.886124
O O22 0.240041 0.500000 0.355629
O O23 0.000000 0.553168 0.376960
#
# Coordination Sequence:
#
# PCOD9348741 Si02
#       8
#     8   8   8   8   8   8   8   8
#     4   9  18  34  54  75 101 136 177 215 251 297
#     4  11  20  31  52  78 101 131 172 213 257 310
#     4  10  20  36  55  76 104 136 171 212 259 309
#     4  10  20  32  46  67  96 132 172 206 239 292
#     4  10  20  32  45  66 100 137 168 203 250 301
#     4  11  21  32  49  75 104 131 162 205 259 311
#     4   9  20  36  53  73  99 131 166 205 249 300
#     4   8  16  32  53  76 103 135 173 217 257 295
#
# _framework density 17.847158
#
# number of rings (size 3 to 8) (size 9 to 14) (size 15 to 20)
#    0.000    2.250    0.000    4.125    0.000    6.250 
#    0.000    1.250    0.000    2.250    0.000    1.750 
#    0.000    0.000    0.000    0.000    0.000    0.000 
#
# Total GULP energy -178330.605285 kJ/mol
# GULP energy per Si atom -5572.831415 kJ/mol
# Density = 1.780654 g / cm^3
# Si number density = 17.847158 Si / 1000 Ang^3
#
#
#
# Elastic Constant Matrix: (Units=GPa)
#
#
# Indices 1 2 3 4 5 6 
#
# 1 33.5637 29.6913 18.7242 0.0000 0.0000 0.0000
# 2 29.6913 106.3536 58.9978 0.0000 0.0000 0.0000
# 3 18.7242 58.9978 92.5985 0.0000 0.0000 0.0000
# 4 0.0000 0.0000 0.0000 32.7055 0.0000 0.0000
# 5 0.0000 0.0000 0.0000 0.0000 18.5322 0.0000
# 6 0.0000 0.0000 0.0000 0.0000 0.0000 25.9031
#
#
#
# Elastic Compliance Matrix: (Units=1/GPa)
#
#
# Indices 1 2 3 4 5 6 
#
# 1 0.039699 -0.010254 -0.001494 0.000000 0.000000 0.000000
# 2 -0.010254 0.017191 -0.008880 0.000000 0.000000 0.000000
# 3 -0.001494 -0.008880 0.016759 0.000000 0.000000 0.000000
# 4 0.000000 0.000000 0.000000 0.030576 0.000000 0.000000
# 5 0.000000 0.000000 0.000000 0.000000 0.053960 0.000000
# 6 0.000000 0.000000 0.000000 0.000000 0.000000 0.038605
#
#
# Mechanical properties :
#
#
# Convention : Reuss Voigt Hill
#
# Bulk Modulus (GPa) = 30.87080 49.70469 40.28775
# Shear Modulus (GPa) = 20.09297 23.76834 21.93065
#
# Velocity S-wave (km/s) = 3.35899 3.65330 3.50923
# Velocity P-wave (km/s) = 5.69022 6.76063 6.24839
#
# Compressibility (1/GPa) = 0.03239307
#
# Stress axis : x y z
#
# Youngs Moduli (GPa) = 25.18978 58.16981 59.66961
#
# Poissons Ratio (x) = 0.59647 0.08916
# Poissons Ratio (y) = 0.25830 0.52984
# Poissons Ratio (z) = 0.03764 0.51652
#
# Static dielectric constant tensor:
#      x y z
#    x 1.629750 0.000000 0.000000 
#    y 0.000000 1.625620 0.000000 
#    z 0.000000 0.000000 1.627340 
# 
# From -- ./inp_files/16251.got.cif
#   From: 2010.05.17/outbox.cif.g08.bks.cpg/sg35_9_cif.got.tgz:16251.got - 2010.06.03 17:29:28.
