data_PCOD9348227
_publ_section_title
;
Structure prediction by ZEFSAII (Michael W. Deem and Ramdas Pophale) SiO2 
 PCOD9348227
Probable space group: C M M 2
;
_chemical_formula_sum "Si O2"
_cell_formula_units_Z 64
_cell_length_a 29.266584
_cell_length_b 8.916927
_cell_length_c 15.958370
_cell_angle_alpha 90.000000
_cell_angle_beta 90.000000
_cell_angle_gamma 90.000000
_cell_volume 4164.623792
_symmetry_space_group_name_H-M "C M M 2"
_symmetry_group_IT_number 35
_symmetry_cell_setting 'orthorhombic'
loop_
_space_group_symop_operation_xyz
x,y,z
-x,-y,z
-x,y,z
x,-y,z
1/2+x,1/2+y,z
1/2-x,1/2-y,z
1/2-x,1/2+y,z
1/2+x,1/2-y,z
loop_
_atom_site_type_symbol
_atom_site_label
_atom_site_fract_x
_atom_site_fract_y
_atom_site_fract_z
Si Si1 0.605172 0.680389 0.072650
Si Si2 0.946425 0.180512 0.905028
Si Si3 0.797651 0.680134 0.326363
Si Si4 0.446549 0.679241 0.555862
Si Si5 0.105527 0.680134 0.400379
Si Si6 0.053201 0.319320 0.230408
Si Si7 0.555458 0.827491 0.730571
Si Si8 0.797627 0.180076 0.141670
O O1 0.600745 0.500000 0.077059
O O2 0.577804 0.749543 0.150307
O O3 0.658554 0.716544 0.085045
O O4 0.583226 0.729369 0.984795
O O5 0.930394 0.250935 0.817489
O O6 0.000000 0.220090 0.918610
O O7 0.944178 0.000000 0.898323
O O8 0.793816 0.500000 0.318349
O O9 0.750000 0.750000 0.357035
O O10 0.841310 0.714703 0.383664
O O11 0.805711 0.750132 0.234067
O O12 0.500000 0.723878 0.543247
O O13 0.444720 0.500000 0.557125
O O14 0.416337 0.743364 0.480900
O O15 0.431043 0.742466 0.645900
O O16 0.101051 0.500000 0.408724
O O17 0.078155 0.725893 0.316389
O O18 0.056241 0.500000 0.224786
O O19 0.000000 0.276930 0.232698
O O20 0.500000 0.823562 0.731574
O O21 0.570008 0.000000 0.727384
O O22 0.750000 0.250000 0.111028
O O23 0.793544 0.000000 0.148956
#
# Coordination Sequence:
#
# PCOD9348227 Si02
#       8
#     8   8   8   8   8   8   8   8
#     4  10  20  32  47  68  94 126 161 197 237 280
#     4   9  17  30  47  67  94 125 156 192 233 278
#     4  10  19  32  50  69  91 121 157 199 243 282
#     4  10  20  32  48  71  97 126 160 197 236 279
#     4  10  20  33  48  67  94 128 161 194 236 282
#     4  10  20  32  45  63  93 131 164 193 228 273
#     4   9  17  30  48  69  93 122 156 194 235 279
#     4  10  19  31  48  68  91 121 158 200 243 283
#
# _framework density 15.367535
#
# number of rings (size 3 to 8) (size 9 to 14) (size 15 to 20)
#    0.000    2.250    1.250    3.000    0.000    6.000 
#    0.000    1.250    0.000    0.000    0.000    0.875 
#    0.000    4.000    0.000    0.000    0.000    0.000 
#
# Total GULP energy -178474.877682 kJ/mol
# GULP energy per Si atom -5577.339928 kJ/mol
# Density = 1.533256 g / cm^3
# Si number density = 15.367535 Si / 1000 Ang^3
#
#
#
# Elastic Constant Matrix: (Units=GPa)
#
#
# Indices 1 2 3 4 5 6 
#
# 1 115.7308 46.7049 79.9343 0.0000 0.0000 0.0000
# 2 46.7049 43.5304 49.0638 0.0000 0.0000 0.0000
# 3 79.9343 49.0638 147.9635 0.0000 0.0000 0.0000
# 4 0.0000 0.0000 0.0000 25.6589 0.0000 0.0000
# 5 0.0000 0.0000 0.0000 0.0000 7.7934 0.0000
# 6 0.0000 0.0000 0.0000 0.0000 0.0000 20.5631
#
#
#
# Elastic Compliance Matrix: (Units=1/GPa)
#
#
# Indices 1 2 3 4 5 6 
#
# 1 0.017367 -0.012868 -0.005115 0.000000 0.000000 0.000000
# 2 -0.012868 0.046217 -0.008374 0.000000 0.000000 0.000000
# 3 -0.005115 -0.008374 0.012298 0.000000 0.000000 0.000000
# 4 0.000000 0.000000 0.000000 0.038973 0.000000 0.000000
# 5 0.000000 0.000000 0.000000 0.000000 0.128313 0.000000
# 6 0.000000 0.000000 0.000000 0.000000 0.000000 0.048631
#
#
# Mechanical properties :
#
#
# Convention : Reuss Voigt Hill
#
# Bulk Modulus (GPa) = 43.16163 73.18117 58.17140
# Shear Modulus (GPa) = 14.19506 19.57119 16.88312
#
# Velocity S-wave (km/s) = 3.04255 3.57254 3.31814
# Velocity P-wave (km/s) = 6.36318 8.04621 7.25367
#
# Compressibility (1/GPa) = 0.02316873
#
# Stress axis : x y z
#
# Youngs Moduli (GPa) = 57.58131 21.63716 81.31149
#
# Poissons Ratio (x) = 0.27843 0.41592
# Poissons Ratio (y) = 0.74095 0.68087
# Poissons Ratio (z) = 0.29454 0.18118
#
# Static dielectric constant tensor:
#      x y z
#    x 1.511160 0.000000 0.000000 
#    y 0.000000 1.517010 0.000000 
#    z 0.000000 0.000000 1.485100 
# 
# From -- ./inp_files/16179.got.cif
#   From: 2010.05.17/outbox.cif.g08.bks.cpg/sg35_9_cif.got.tgz:16179.got - 2010.06.03 17:29:28.
