data_PCOD9348968
_publ_section_title
;
Structure prediction by ZEFSAII (Michael W. Deem and Ramdas Pophale) SiO2 
 PCOD9348968
Probable space group: C M M 2
;
_chemical_formula_sum "Si O2"
_cell_formula_units_Z 64
_cell_length_a 8.644306
_cell_length_b 20.566540
_cell_length_c 20.570628
_cell_angle_alpha 90.000000
_cell_angle_beta 90.000000
_cell_angle_gamma 90.000000
_cell_volume 3657.117526
_symmetry_space_group_name_H-M "C M M 2"
_symmetry_group_IT_number 35
_symmetry_cell_setting 'orthorhombic'
loop_
_space_group_symop_operation_xyz
x,y,z
-x,-y,z
-x,y,z
x,-y,z
1/2+x,1/2+y,z
1/2-x,1/2-y,z
1/2-x,1/2+y,z
1/2+x,1/2-y,z
loop_
_atom_site_type_symbol
_atom_site_label
_atom_site_fract_x
_atom_site_fract_y
_atom_site_fract_z
Si Si1 0.185379 0.821487 0.532780
Si Si2 0.813154 0.178843 0.383297
Si Si3 0.686123 0.678778 0.884947
Si Si4 0.311510 0.426112 0.278492
Si Si5 0.815790 0.321103 0.028292
Si Si6 0.313418 0.425237 0.776452
Si Si7 0.186510 0.075846 0.129541
Si Si8 0.185176 0.425013 0.633955
O O1 0.250000 0.750000 0.549191
O O2 0.232221 0.835800 0.457919
O O3 0.247156 0.875659 0.581566
O O4 0.000000 0.819646 0.535647
O O5 0.750000 0.250000 0.366772
O O6 0.758266 0.125174 0.331995
O O7 0.000000 0.180605 0.381353
O O8 0.500000 0.681238 0.887512
O O9 0.750000 0.750000 0.867170
O O10 0.733784 0.624866 0.832414
O O11 0.749001 0.663383 0.956785
O O12 0.500000 0.426244 0.279538
O O13 0.261666 0.500000 0.292717
O O14 0.267470 0.409891 0.204316
O O15 0.750000 0.250000 0.046541
O O16 0.763558 0.375166 0.079498
O O17 0.000000 0.317205 0.024605
O O18 0.500000 0.422865 0.771358
O O19 0.269642 0.500000 0.791808
O O20 0.243256 0.408475 0.706397
O O21 0.000000 0.082085 0.125106
O O22 0.224133 0.000000 0.116567
O O23 0.233231 0.500000 0.621040
O O24 0.000000 0.422134 0.632486
#
# Coordination Sequence:
#
# PCOD9348968 Si02
#       8
#     8   8   8   8   8   8   8   8
#     4  10  20  34  53  76 104 138 174 215 259 306
#     4   9  18  32  51  75 102 132 168 210 255 303
#     4  10  20  35  55  78 104 134 169 210 256 305
#     4   8  15  30  52  76 101 131 169 210 251 300
#     4  11  22  36  54  76 105 138 174 216 258 304
#     4   9  19  36  56  77 102 134 172 211 251 300
#     4   9  18  34  55  77 104 138 173 211 257 308
#     4  10  21  36  54  77 106 138 172 213 258 305
#
# _framework density 17.500121
#
# number of rings (size 3 to 8) (size 9 to 14) (size 15 to 20)
#    0.000    2.500    0.000    3.750    0.000    4.500 
#    0.000    5.625    0.000    1.125    0.000    0.000 
#    0.000    0.000    0.000    0.000    0.000    0.000 
#
# Total GULP energy -178537.343006 kJ/mol
# GULP energy per Si atom -5579.291969 kJ/mol
# Density = 1.746029 g / cm^3
# Si number density = 17.500121 Si / 1000 Ang^3
#
#
#
# Elastic Constant Matrix: (Units=GPa)
#
#
# Indices 1 2 3 4 5 6 
#
# 1 43.5934 46.2475 45.1885 0.0000 0.0000 0.0000
# 2 46.2475 148.3192 136.6520 0.0000 0.0000 0.0000
# 3 45.1885 136.6520 145.7896 0.0000 0.0000 0.0000
# 4 0.0000 0.0000 0.0000 44.4171 0.0000 0.0000
# 5 0.0000 0.0000 0.0000 0.0000 19.4097 0.0000
# 6 0.0000 0.0000 0.0000 0.0000 0.0000 29.1018
#
#
#
# Elastic Compliance Matrix: (Units=1/GPa)
#
#
# Indices 1 2 3 4 5 6 
#
# 1 0.034676 -0.006669 -0.004497 0.000000 0.000000 0.000000
# 2 -0.006669 0.050709 -0.045463 0.000000 0.000000 0.000000
# 3 -0.004497 -0.045463 0.050867 0.000000 0.000000 0.000000
# 4 0.000000 0.000000 0.000000 0.022514 0.000000 0.000000
# 5 0.000000 0.000000 0.000000 0.000000 0.051521 0.000000
# 6 0.000000 0.000000 0.000000 0.000000 0.000000 0.034362
#
#
# Mechanical properties :
#
#
# Convention : Reuss Voigt Hill
#
# Bulk Modulus (GPa) = 43.49201 88.20869 65.85035
# Shear Modulus (GPa) = 13.67721 25.89333 19.78527
#
# Velocity S-wave (km/s) = 2.79865 3.85074 3.36606
# Velocity P-wave (km/s) = 5.94556 8.38361 7.26755
#
# Compressibility (1/GPa) = 0.02299273
#
# Stress axis : x y z
#
# Youngs Moduli (GPa) = 28.83854 19.72041 19.65911
#
# Poissons Ratio (x) = 0.13152 0.08840
# Poissons Ratio (y) = 0.19233 0.89377
# Poissons Ratio (z) = 0.12968 0.89656
#
# Static dielectric constant tensor:
#      x y z
#    x 1.592630 0.000000 0.000000 
#    y 0.000000 1.576120 0.000000 
#    z 0.000000 0.000000 1.576680 
# 
# From -- ./inp_files/18363.got.cif
#   From: 2010.05.17/outbox.cif.g08.bks.cpg/sg35_10_cif.got.tgz:18363.got - 2010.06.03 17:29:28.
