data_PCOD9348121
_publ_section_title
;
Structure prediction by ZEFSAII (Michael W. Deem and Ramdas Pophale) SiO2 
 PCOD9348121
Probable space group: C M M 2
;
_chemical_formula_sum "Si O2"
_cell_formula_units_Z 64
_cell_length_a 22.498267
_cell_length_b 18.300514
_cell_length_c 8.457655
_cell_angle_alpha 90.000000
_cell_angle_beta 90.000000
_cell_angle_gamma 90.000000
_cell_volume 3482.269026
_symmetry_space_group_name_H-M "C M M 2"
_symmetry_group_IT_number 35
_symmetry_cell_setting 'orthorhombic'
loop_
_space_group_symop_operation_xyz
x,y,z
-x,-y,z
-x,y,z
x,-y,z
1/2+x,1/2+y,z
1/2-x,1/2-y,z
1/2-x,1/2+y,z
1/2+x,1/2-y,z
loop_
_atom_site_type_symbol
_atom_site_label
_atom_site_fract_x
_atom_site_fract_y
_atom_site_fract_z
Si Si1 0.813702 0.083369 0.932800
Si Si2 0.190053 0.220714 0.758748
Si Si3 0.931122 0.587206 0.691332
Si Si4 0.727189 0.833896 0.170802
Si Si5 0.565615 0.266287 0.270069
Si Si6 0.568458 0.581505 0.122497
Si Si7 0.659009 0.177063 0.474424
Si Si8 0.608976 0.811823 0.971122
O O1 0.806022 0.134133 0.778545
O O2 0.795119 0.000000 0.908065
O O3 0.776591 0.118909 0.078597
O O4 0.882395 0.085021 0.986336
O O5 0.250000 0.250000 0.840407
O O6 0.187168 0.265941 0.597858
O O7 0.133646 0.248265 0.857231
O O8 0.924749 0.500000 0.704268
O O9 0.881665 0.619556 0.571050
O O10 0.919146 0.626865 0.859396
O O11 0.000000 0.602644 0.643129
O O12 0.750000 0.750000 0.183781
O O13 0.706581 0.854902 0.349290
O O14 0.667309 0.839512 0.065123
O O15 0.500000 0.260337 0.340034
O O16 0.579747 0.351123 0.239406
O O17 0.613999 0.226383 0.373681
O O18 0.567614 0.225287 0.101186
O O19 0.500000 0.589801 0.067365
O O20 0.573684 0.500000 0.194079
#
# Coordination Sequence:
#
# PCOD9348121 Si02
#       8
#     8   8   8   8   8   8   8   8
#     4  11  20  33  57  85 116 146 186 240 288 339
#     4  11  19  37  53  80 113 149 186 227 288 344
#     4  10  22  40  57  80 119 160 196 243 303 352
#     4  11  19  37  59  84 114 147 192 245 294 339
#     4  10  18  33  56  84 109 141 196 241 275 333
#     4   9  18  32  52  80 112 144 179 229 285 328
#     4  10  23  35  59  81 113 155 193 238 283 358
#     4  10  18  33  59  81 106 145 193 242 282 342
#
# _framework density 18.378820000000001
#
# number of rings (size 3 to 8) (size 9 to 14) (size 15 to 20)
#    0.000    1.750    3.750    1.875    0.000    1.000 
#    0.000    3.125    0.000    9.000    0.000    0.000 
#    0.000    0.000    0.000    0.000    0.000    0.000 
#
# Total GULP energy -178279.036045 kJ/mol
# GULP energy per Si atom -5571.219876 kJ/mol
# Density = 1.833699 g / cm^3
# Si number density = 18.378820 Si / 1000 Ang^3
#
#
#
# Elastic Constant Matrix: (Units=GPa)
#
#
# Indices 1 2 3 4 5 6 
#
# 1 65.9025 32.2947 13.6826 0.0000 0.0000 0.0000
# 2 32.2947 130.2803 32.1999 0.0000 0.0000 0.0000
# 3 13.6826 32.1999 68.8271 0.0000 0.0000 0.0000
# 4 0.0000 0.0000 0.0000 16.9555 0.0000 0.0000
# 5 0.0000 0.0000 0.0000 0.0000 19.5976 0.0000
# 6 0.0000 0.0000 0.0000 0.0000 0.0000 21.8077
#
#
#
# Elastic Compliance Matrix: (Units=1/GPa)
#
#
# Indices 1 2 3 4 5 6 
#
# 1 0.017433 -0.003918 -0.001633 0.000000 0.000000 0.000000
# 2 -0.003918 0.009560 -0.003694 0.000000 0.000000 0.000000
# 3 -0.001633 -0.003694 0.016582 0.000000 0.000000 0.000000
# 4 0.000000 0.000000 0.000000 0.058978 0.000000 0.000000
# 5 0.000000 0.000000 0.000000 0.000000 0.051027 0.000000
# 6 0.000000 0.000000 0.000000 0.000000 0.000000 0.045855
#
#
# Mechanical properties :
#
#
# Convention : Reuss Voigt Hill
#
# Bulk Modulus (GPa) = 39.86261 46.81826 43.34043
# Shear Modulus (GPa) = 22.09607 24.12767 23.11187
#
# Velocity S-wave (km/s) = 3.47112 3.62719 3.55001
# Velocity P-wave (km/s) = 6.14828 6.56287 6.35896
#
# Compressibility (1/GPa) = 0.02508617
#
# Stress axis : x y z
#
# Youngs Moduli (GPa) = 57.36314 104.60424 60.30734
#
# Poissons Ratio (x) = 0.40982 0.09846
# Poissons Ratio (y) = 0.22474 0.22275
# Poissons Ratio (z) = 0.09366 0.38637
#
# Static dielectric constant tensor:
#      x y z
#    x 1.663420 0.000000 0.000000 
#    y 0.000000 1.632360 0.000000 
#    z 0.000000 0.000000 1.660000 
# 
# From -- ./inp_files/9445.got.cif
#   From: 2010.05.17/outbox.cif.g08.bks.cpg/sg35_5_cif.got.tgz:9445.got - 2010.06.03 17:29:28.
