data_PCOD9348166
_publ_section_title
;
Structure prediction by ZEFSAII (Michael W. Deem and Ramdas Pophale) SiO2 
 PCOD9348166
Probable space group: C M M 2
;
_chemical_formula_sum "Si O2"
_cell_formula_units_Z 64
_cell_length_a 7.566717
_cell_length_b 29.283166
_cell_length_c 16.444843
_cell_angle_alpha 90.000000
_cell_angle_beta 90.000000
_cell_angle_gamma 90.000000
_cell_volume 3643.806048
_symmetry_space_group_name_H-M "C M M 2"
_symmetry_group_IT_number 35
_symmetry_cell_setting 'orthorhombic'
loop_
_space_group_symop_operation_xyz
x,y,z
-x,-y,z
-x,y,z
x,-y,z
1/2+x,1/2+y,z
1/2-x,1/2-y,z
1/2-x,1/2+y,z
1/2+x,1/2-y,z
loop_
_atom_site_type_symbol
_atom_site_label
_atom_site_fract_x
_atom_site_fract_y
_atom_site_fract_z
Si Si1 0.788303 0.804129 0.039440
Si Si2 0.211176 0.448846 0.445375
Si Si3 0.287257 0.695991 0.216645
Si Si4 0.787597 0.196037 0.862351
Si Si5 0.211812 0.196496 0.538387
Si Si6 0.209250 0.853500 0.377041
Si Si7 0.790344 0.050723 0.634305
Si Si8 0.282776 0.645238 0.701028
O O1 0.750000 0.750000 0.039402
O O2 0.720436 0.819970 0.127602
O O3 0.000000 0.810800 0.039261
O O4 0.720726 0.820082 0.951269
O O5 0.276285 0.500000 0.424822
O O6 0.269148 0.407564 0.388315
O O7 0.267589 0.438989 0.538357
O O8 0.000000 0.449854 0.444546
O O9 0.500000 0.691364 0.214329
O O10 0.250000 0.750000 0.226864
O O11 0.218531 0.667783 0.293741
O O12 0.750000 0.250000 0.852630
O O13 0.722323 0.167958 0.784826
O O14 0.000000 0.191550 0.863675
O O15 0.250000 0.250000 0.534613
O O16 0.282216 0.170946 0.458168
O O17 0.275531 0.174507 0.622674
O O18 0.000000 0.190368 0.538714
O O19 0.000000 0.843784 0.376169
O O20 0.722871 0.093312 0.685966
O O21 0.000000 0.048413 0.649044
O O22 0.715590 0.000000 0.649201
O O23 0.500000 0.645472 0.701506
#
# Coordination Sequence:
#
# PCOD9348166 Si02
#       8
#     8   8   8   8   8   8   8   8
#     4   8  14  25  40  59  81 109 140 173 211 243
#     4  10  20  32  46  65  86 106 135 178 220 253
#     4   9  17  28  43  63  87 113 145 178 209 248
#     4   9  16  26  41  59  84 113 140 172 207 244
#     4  10  19  29  39  55  82 112 143 171 198 238
#     4  10  19  31  45  61  83 114 146 173 203 249
#     4   9  16  29  48  63  79 107 141 176 213 253
#     4   9  16  27  41  60  83 108 141 174 204 245
#
# _framework density 17.564052
#
# number of rings (size 3 to 8) (size 9 to 14) (size 15 to 20)
#    0.000    2.750    1.250    1.125    0.000    1.750 
#    0.000    0.625    0.000    0.000    0.000    0.875 
#    0.000    5.000    0.000    3.375    0.000    3.000 
#
# Total GULP energy -178326.989757 kJ/mol
# GULP energy per Si atom -5572.718430 kJ/mol
# Density = 1.752408 g / cm^3
# Si number density = 17.564052 Si / 1000 Ang^3
#
#
#
# Elastic Constant Matrix: (Units=GPa)
#
#
# Indices 1 2 3 4 5 6 
#
# 1 40.4307 -5.4113 9.6719 0.0000 0.0000 0.0000
# 2 -5.4113 107.7539 90.8894 0.0000 0.0000 0.0000
# 3 9.6719 90.8894 189.1247 0.0000 0.0000 0.0000
# 4 0.0000 0.0000 0.0000 10.6698 0.0000 0.0000
# 5 0.0000 0.0000 0.0000 0.0000 1.6410 0.0000
# 6 0.0000 0.0000 0.0000 0.0000 0.0000 13.6233
#
#
#
# Elastic Compliance Matrix: (Units=1/GPa)
#
#
# Indices 1 2 3 4 5 6 
#
# 1 0.026071 0.004093 -0.003300 0.000000 0.000000 0.000000
# 2 0.004093 0.016249 -0.008018 0.000000 0.000000 0.000000
# 3 -0.003300 -0.008018 0.009310 0.000000 0.000000 0.000000
# 4 0.000000 0.000000 0.000000 0.093723 0.000000 0.000000
# 5 0.000000 0.000000 0.000000 0.000000 0.609373 0.000000
# 6 0.000000 0.000000 0.000000 0.000000 0.000000 0.073404
#
#
# Mechanical properties :
#
#
# Convention : Reuss Voigt Hill
#
# Bulk Modulus (GPa) = 26.89706 58.62326 42.76016
# Shear Modulus (GPa) = 5.84813 21.33076 13.58944
#
# Velocity S-wave (km/s) = 1.82670 3.48868 2.78458
# Velocity P-wave (km/s) = 4.44928 7.04820 5.89378
#
# Compressibility (1/GPa) = 0.03717878
#
# Stress axis : x y z
#
# Youngs Moduli (GPa) = 38.35676 61.54055 107.41361
#
# Poissons Ratio (x) = -0.25189 0.35450
# Poissons Ratio (y) = -0.15700 0.86129
# Poissons Ratio (z) = 0.12659 0.49346
#
# Static dielectric constant tensor:
#      x y z
#    x 1.636630 0.000000 0.000000 
#    y 0.000000 1.584330 0.000000 
#    z 0.000000 0.000000 1.631690 
# 
# From -- ./inp_files/16151.got.cif
#   From: 2010.05.17/outbox.cif.g08.bks.cpg/sg35_9_cif.got.tgz:16151.got - 2010.06.03 17:29:28.
