data_PCOD9348043
_publ_section_title
;
Structure prediction by ZEFSAII (Michael W. Deem and Ramdas Pophale) SiO2 
 PCOD9348043
Probable space group: P N N 2
;
_chemical_formula_sum "Si O2"
_cell_formula_units_Z 12
_cell_length_a 4.615956
_cell_length_b 10.490394
_cell_length_c 8.291128
_cell_angle_alpha 90.000000
_cell_angle_beta 90.000000
_cell_angle_gamma 90.000000
_cell_volume 401.482926
_symmetry_space_group_name_H-M "P N N 2"
_symmetry_group_IT_number 34
_symmetry_cell_setting 'orthorhombic'
loop_
_space_group_symop_operation_xyz
x,y,z
-x,-y,z
1/2-x,1/2+y,1/2+z
1/2+x,1/2-y,1/2+z
loop_
_atom_site_type_symbol
_atom_site_label
_atom_site_fract_x
_atom_site_fract_y
_atom_site_fract_z
Si Si1 0.500000 0.500000 0.910580
Si Si2 0.000000 0.500000 0.657503
Si Si3 0.192817 0.869686 0.872967
Si Si4 0.911685 0.352614 0.066589
O O1 0.740612 0.466875 0.775086
O O2 0.566073 0.380658 0.034144
O O3 0.873632 0.603922 0.536423
O O4 0.429991 0.832358 0.737260
O O5 0.001118 0.750173 0.931716
O O6 0.000000 0.000000 0.848367
O O7 0.000000 0.500000 0.040295
#
# Coordination Sequence:
#
# PCOD9348043 Si02
#       4
#     2   2   4   4
#     4  12  28  54  88 130 182 244 304 386 472 560
#     4  12  26  54  88 132 182 238 310 382 472 562
#     4  12  30  57  96 140 195 252 325 399 483 576
#     4  12  30  58  94 139 192 254 320 403 479 581
#
# _framework density 29.889188999999998
#
# number of rings (size 3 to 8) (size 9 to 14) (size 15 to 20)
#    0.000    0.000    5.000    2.000    2.333    6.667 
#    0.000    0.000    0.000    0.000    0.000    0.000 
#    0.000    0.000    0.000    0.000    0.000    0.000 
#
# Total GULP energy -66870.055041 kJ/mol
# GULP energy per Si atom -5572.504587 kJ/mol
# Density = 2.982116 g / cm^3
# Si number density = 29.889189 Si / 1000 Ang^3
#
#
#
# Elastic Constant Matrix: (Units=GPa)
#
#
# Indices 1 2 3 4 5 6 
#
# 1 136.6673 67.8475 92.3776 0.0000 0.0000 0.0000
# 2 67.8475 212.7359 79.7690 0.0000 0.0000 0.0000
# 3 92.3776 79.7690 254.5088 0.0000 0.0000 0.0000
# 4 0.0000 0.0000 0.0000 73.5437 0.0000 0.0000
# 5 0.0000 0.0000 0.0000 0.0000-1126.7344 0.0000
# 6 0.0000 0.0000 0.0000 0.0000 0.0000 45.9119
#
#
#
# Elastic Compliance Matrix: (Units=1/GPa)
#
#
# Indices 1 2 3 4 5 6 
#
# 1 0.010518 -0.002179 -0.003135 0.000000 0.000000 0.000000
# 2 -0.002179 0.005778 -0.001020 0.000000 0.000000 0.000000
# 3 -0.003135 -0.001020 0.005387 0.000000 0.000000 0.000000
# 4 0.000000 0.000000 0.000000 0.013597 0.000000 0.000000
# 5 0.000000 0.000000 0.000000 0.000000 -0.000888 0.000000
# 6 0.000000 0.000000 0.000000 0.000000 0.000000 0.021781
#
#
# Mechanical properties :
#
#
# Convention : Reuss Voigt Hill
#
# Bulk Modulus (GPa) = 110.92671 120.43338 115.68004
# Shear Modulus (GPa) = 69.59416 -177.19458 -53.80021
#
# Velocity S-wave (km/s) = 4.83059 -7.70795 -4.24723
# Velocity P-wave (km/s) = 8.26475 6.23185 3.83862
#
# Compressibility (1/GPa) = 0.00901496
#
# Stress axis : x y z
#
# Youngs Moduli (GPa) = 95.07956 173.06705 185.64635
#
# Poissons Ratio (x) = 0.37711 0.58192
# Poissons Ratio (y) = 0.20718 0.18938
# Poissons Ratio (z) = 0.29803 0.17655
#
# Static dielectric constant tensor:
#      x y z
#    x 59.294510 0.000000 0.000000 
#    y 0.000000 1.476960 0.000000 
#    z 0.000000 0.000000 2.292290 
# 
# From -- ./inp_files/1926.got.cif
#   From: 2010.05.17/outbox.cif.g08.bks.cpg/sg34_1_cif.got.tgz:1926.got - 2010.06.03 17:23:11.
