data_PCOD9348865
_publ_section_title
;
Structure prediction by ZEFSAII (Michael W. Deem and Ramdas Pophale) SiO2 
 PCOD9348865
Probable space group: C M M 2
;
_chemical_formula_sum "Si O2"
_cell_formula_units_Z 40
_cell_length_a 29.508001
_cell_length_b 7.496968
_cell_length_c 8.154914
_cell_angle_alpha 90.000000
_cell_angle_beta 90.000000
_cell_angle_gamma 90.000000
_cell_volume 1804.034473
_symmetry_space_group_name_H-M "C M M 2"
_symmetry_group_IT_number 35
_symmetry_cell_setting 'orthorhombic'
loop_
_space_group_symop_operation_xyz
x,y,z
-x,-y,z
-x,y,z
x,-y,z
1/2+x,1/2+y,z
1/2-x,1/2-y,z
1/2-x,1/2+y,z
1/2+x,1/2-y,z
loop_
_atom_site_type_symbol
_atom_site_label
_atom_site_fract_x
_atom_site_fract_y
_atom_site_fract_z
Si Si1 0.644060 0.280748 0.876810
Si Si2 0.803052 0.213611 0.197277
Si Si3 0.148057 0.205611 0.519585
Si Si4 0.549646 0.714810 0.019171
Si Si5 0.949731 0.710689 0.407090
O O1 0.644138 0.500000 0.873167
O O2 0.658709 0.216723 0.697650
O O3 0.675225 0.221216 0.027495
O O4 0.592744 0.223112 0.917363
O O5 0.750000 0.250000 0.206148
O O6 0.828718 0.285808 0.358236
O O7 0.810279 0.000000 0.195381
O O8 0.093832 0.208419 0.494353
O O9 0.163142 0.000000 0.524976
O O10 0.500000 0.780474 0.966341
O O11 0.549281 0.500000 0.009800
O O12 0.555463 0.760609 0.211252
O O13 0.948930 0.500000 0.438359
O O14 0.000000 0.779541 0.452561
#
# Coordination Sequence:
#
# PCOD9348865 Si02
#       5
#     8   8   8   8   8
#     4   9  18  34  56  83 109 135 177 225 265 314
#     4  10  21  38  57  80 108 139 177 224 275 325
#     4  10  20  36  59  82 107 142 183 225 266 315
#     4   9  16  30  54  80 107 141 180 220 264 317
#     4  10  20  33  51  79 115 149 181 219 265 319
#
# _framework density 22.172523999999999
#
# number of rings (size 3 to 8) (size 9 to 14) (size 15 to 20)
#    0.000    2.400    2.000    0.600    0.000    3.600 
#    0.000    4.000    0.000    2.400    0.000    0.000 
#    0.000    0.000    0.000    0.000    0.000    0.000 
#
# Total GULP energy -111697.724396 kJ/mol
# GULP energy per Si atom -5584.886220 kJ/mol
# Density = 2.212206 g / cm^3
# Si number density = 22.172524 Si / 1000 Ang^3
#
#
#
# Elastic Constant Matrix: (Units=GPa)
#
#
# Indices 1 2 3 4 5 6 
#
# 1 122.4096 -6.4301 91.1739 0.0000 0.0000 0.0000
# 2 -6.4301 64.0708 4.9496 0.0000 0.0000 0.0000
# 3 91.1739 4.9496 190.8027 0.0000 0.0000 0.0000
# 4 0.0000 0.0000 0.0000 -18.9064 0.0000 0.0000
# 5 0.0000 0.0000 0.0000 0.0000 -0.7589 0.0000
# 6 0.0000 0.0000 0.0000 0.0000 0.0000 5.4411
#
#
#
# Elastic Compliance Matrix: (Units=1/GPa)
#
#
# Indices 1 2 3 4 5 6 
#
# 1 0.012881 0.001772 -0.006201 0.000000 0.000000 0.000000
# 2 0.001772 0.015883 -0.001259 0.000000 0.000000 0.000000
# 3 -0.006201 -0.001259 0.008237 0.000000 0.000000 0.000000
# 4 0.000000 0.000000 0.000000 -0.052892 0.000000 0.000000
# 5 0.000000 0.000000 0.000000 0.000000 -1.317696 0.000000
# 6 0.000000 0.000000 0.000000 0.000000 0.000000 0.183786
#
#
# Mechanical properties :
#
#
# Convention : Reuss Voigt Hill
#
# Bulk Modulus (GPa) = 39.02474 61.85222 50.43848
# Shear Modulus (GPa) = -4.42523 16.32781 5.95129
#
# Velocity S-wave (km/s) = -1.41427 2.71661 1.64009
# Velocity P-wave (km/s) = 3.86935 6.14788 5.13655
#
# Compressibility (1/GPa) = 0.02562477
#
# Stress axis : x y z
#
# Youngs Moduli (GPa) = 77.63289 62.96122 121.40576
#
# Poissons Ratio (x) = -0.11155 0.75285
# Poissons Ratio (y) = -0.13755 0.15281
# Poissons Ratio (z) = 0.48141 0.07925
#
# Static dielectric constant tensor:
#      x y z
#    x 1.783000 0.000000 0.000000 
#    y 0.000000 1.820560 0.000000 
#    z 0.000000 0.000000 1.812950 
# 
# From -- ./inp_files/4956.got.cif
#   From: 2010.05.17/outbox.cif.g08.bks.cpg/sg35_3_cif.got.tgz:4956.got - 2010.06.03 17:29:28.
