data_PCOD9348819
_publ_section_title
;
Structure prediction by ZEFSAII (Michael W. Deem and Ramdas Pophale) SiO2 
 PCOD9348819
Probable space group: C M M 2
;
_chemical_formula_sum "Si O2"
_cell_formula_units_Z 52
_cell_length_a 26.729929
_cell_length_b 9.360611
_cell_length_c 11.901616
_cell_angle_alpha 90.000000
_cell_angle_beta 90.000000
_cell_angle_gamma 90.000000
_cell_volume 2977.885099
_symmetry_space_group_name_H-M "C M M 2"
_symmetry_group_IT_number 35
_symmetry_cell_setting 'orthorhombic'
loop_
_space_group_symop_operation_xyz
x,y,z
-x,-y,z
-x,y,z
x,-y,z
1/2+x,1/2+y,z
1/2-x,1/2-y,z
1/2-x,1/2+y,z
1/2+x,1/2-y,z
loop_
_atom_site_type_symbol
_atom_site_label
_atom_site_fract_x
_atom_site_fract_y
_atom_site_fract_z
Si Si1 0.346192 0.829257 0.077320
Si Si2 0.394638 0.663572 0.422646
Si Si3 0.943452 0.331987 0.225090
Si Si4 0.338830 0.661447 0.845328
Si Si5 0.355910 0.833773 0.635076
Si Si6 0.250000 0.250000 0.704222
Si Si7 0.294411 0.663101 0.275324
O O1 0.401448 0.803944 0.130677
O O2 0.309195 0.753350 0.165329
O O3 0.338045 0.000000 0.070338
O O4 0.339746 0.752691 0.958369
O O5 0.408974 0.500000 0.448830
O O6 0.432049 0.739046 0.335534
O O7 0.382949 0.755863 0.532562
O O8 0.342413 0.659464 0.354698
O O9 0.938486 0.500000 0.254665
O O10 0.000000 0.306404 0.185578
O O11 0.356426 0.500000 0.863527
O O12 0.368572 0.748687 0.749510
O O13 0.283321 0.655503 0.789330
O O14 0.294587 0.820228 0.631536
O O15 0.368498 0.000000 0.640349
O O16 0.280480 0.500000 0.248135
O O17 0.250000 0.750000 0.332532
#
# Coordination Sequence:
#
# PCOD9348819 Si02
#       7
#     8   8   8   8   8   4   8
#     4  10  20  34  53  77 105 136 175 221 268 321
#     4  10  21  35  52  78 108 137 176 223 270 321
#     4   9  19  38  62  84 105 135 176 222 276 334
#     4  10  20  33  50  73 106 141 180 222 259 307
#     4  10  20  33  51  73 104 142 183 221 260 309
#     4   8  22  32  50  72 102 146 190 222 256 306
#     4  10  21  33  46  68 101 140 176 213 259 312
#
# _framework density 17.462057999999999
#
# number of rings (size 3 to 8) (size 9 to 14) (size 15 to 20)
#    0.923    1.385    0.000    2.769    2.154    2.769 
#    0.000    0.000    0.000    0.923    0.000    2.154 
#    0.000    0.000    0.000    0.000    0.000    0.000 
#
# Total GULP energy -144734.641477 kJ/mol
# GULP energy per Si atom -5566.716980 kJ/mol
# Density = 1.742231 g / cm^3
# Si number density = 17.462058 Si / 1000 Ang^3
#
#
#
# Elastic Constant Matrix: (Units=GPa)
#
#
# Indices 1 2 3 4 5 6 
#
# 1 43.3129 6.8946 -21.7989 0.0000 0.0000 0.0000
# 2 6.8946 121.5360 21.6510 0.0000 0.0000 0.0000
# 3 -21.7989 21.6510 43.8592 0.0000 0.0000 0.0000
# 4 0.0000 0.0000 0.0000 20.6627 0.0000 0.0000
# 5 0.0000 0.0000 0.0000 0.0000 6.3705 0.0000
# 6 0.0000 0.0000 0.0000 0.0000 0.0000 14.3542
#
#
#
# Elastic Compliance Matrix: (Units=1/GPa)
#
#
# Indices 1 2 3 4 5 6 
#
# 1 0.033708 -0.005369 0.019404 0.000000 0.000000 0.000000
# 2 -0.005369 0.009877 -0.007544 0.000000 0.000000 0.000000
# 3 0.019404 -0.007544 0.036168 0.000000 0.000000 0.000000
# 4 0.000000 0.000000 0.000000 0.048396 0.000000 0.000000
# 5 0.000000 0.000000 0.000000 0.000000 0.156974 0.000000
# 6 0.000000 0.000000 0.000000 0.000000 0.000000 0.069666
#
#
# Mechanical properties :
#
#
# Convention : Reuss Voigt Hill
#
# Bulk Modulus (GPa) = 10.78337 24.68905 17.73621
# Shear Modulus (GPa) = 13.41493 21.74159 17.57826
#
# Velocity S-wave (km/s) = 2.77471 3.53239 3.17622
# Velocity P-wave (km/s) = 4.05636 5.55035 4.86110
#
# Compressibility (1/GPa) = 0.09273543
#
# Stress axis : x y z
#
# Youngs Moduli (GPa) = 29.66632 101.25035 27.64839
#
# Poissons Ratio (x) = 0.54361 -0.53649
# Poissons Ratio (y) = 0.15928 0.20858
# Poissons Ratio (z) = -0.57565 0.76383
#
# Static dielectric constant tensor:
#      x y z
#    x 1.626230 0.000000 0.000000 
#    y 0.000000 1.601810 0.000000 
#    z 0.000000 0.000000 1.576640 
# 
# From -- ./inp_files/14268.got.cif
#   From: 2010.05.17/outbox.cif.g08.bks.cpg/sg35_8_cif.got.tgz:14268.got - 2010.06.03 17:29:28.
