data_PCOD9348294
_publ_section_title
;
Structure prediction by ZEFSAII (Michael W. Deem and Ramdas Pophale) SiO2 
 PCOD9348294
Probable space group: C M M 2
;
_chemical_formula_sum "Si O2"
_cell_formula_units_Z 64
_cell_length_a 14.154295
_cell_length_b 22.759477
_cell_length_c 9.177345
_cell_angle_alpha 90.000000
_cell_angle_beta 90.000000
_cell_angle_gamma 90.000000
_cell_volume 2956.429854
_symmetry_space_group_name_H-M "C M M 2"
_symmetry_group_IT_number 35
_symmetry_cell_setting 'orthorhombic'
loop_
_space_group_symop_operation_xyz
x,y,z
-x,-y,z
-x,y,z
x,-y,z
1/2+x,1/2+y,z
1/2-x,1/2-y,z
1/2-x,1/2+y,z
1/2+x,1/2-y,z
loop_
_atom_site_type_symbol
_atom_site_label
_atom_site_fract_x
_atom_site_fract_y
_atom_site_fract_z
Si Si1 0.106777 0.267195 0.506770
Si Si2 0.610640 0.186725 0.017976
Si Si3 0.893210 0.208557 0.825017
Si Si4 0.247304 0.606404 0.832609
Si Si5 0.111076 0.856532 0.353450
Si Si6 0.807531 0.062403 0.121214
Si Si7 0.208881 0.389049 0.520052
Si Si8 0.107782 0.405613 0.241916
O O1 0.105290 0.243920 0.673362
O O2 0.123886 0.212407 0.396431
O O3 0.180562 0.320025 0.514206
O O4 0.000000 0.289384 0.474606
O O5 0.500000 0.184679 0.983647
O O6 0.639403 0.250909 0.961068
O O7 0.664436 0.139644 0.919324
O O8 0.620248 0.162326 0.182821
O O9 0.822473 0.156549 0.796056
O O10 0.000000 0.188300 0.854897
O O11 0.208482 0.584120 0.679951
O O12 0.301320 0.566310 0.947601
O O13 0.141441 0.881207 0.194106
O O14 0.185703 0.891835 0.453713
O O15 0.000000 0.868424 0.378051
O O16 0.697232 0.063733 0.167676
O O17 0.849973 0.000000 0.168937
O O18 0.131376 0.414539 0.410310
O O19 0.000000 0.422390 0.205746
#
# Coordination Sequence:
#
# PCOD9348294 Si02
#       8
#     8   8   8   8   8   8   8   8
#     4  10  19  32  56  90 130 168 199 235 294 372
#     4   9  18  32  52  82 122 167 203 233 284 362
#     4  10  19  31  52  83 123 166 202 238 289 362
#     4  11  21  34  58  86 120 158 201 253 309 368
#     4  10  22  39  60  87 120 162 210 260 308 366
#     4  10  24  45  64  83 110 156 217 277 326 366
#     4  11  20  33  59  92 131 162 193 238 301 386
#     4   9  20  38  60  90 122 153 198 252 309 374
#
# _framework density 21.647732000000001
#
# number of rings (size 3 to 8) (size 9 to 14) (size 15 to 20)
#    0.000    2.000    2.500    1.125    0.000    2.500 
#    0.000    8.750    0.000    0.000    0.000    0.000 
#    0.000    0.000    0.000    0.000    0.000    0.000 
#
# Total GULP energy -178327.655801 kJ/mol
# GULP energy per Si atom -5572.739244 kJ/mol
# Density = 2.159846 g / cm^3
# Si number density = 21.647732 Si / 1000 Ang^3
#
#
#
# Elastic Constant Matrix: (Units=GPa)
#
#
# Indices 1 2 3 4 5 6 
#
# 1 94.1773 2.7347 3.8163 0.0000 0.0000 0.0000
# 2 2.7347 37.3423 11.2497 0.0000 0.0000 0.0000
# 3 3.8163 11.2497 108.1116 0.0000 0.0000 0.0000
# 4 0.0000 0.0000 0.0000 1.6167 0.0000 0.0000
# 5 0.0000 0.0000 0.0000 0.0000 26.7654 0.0000
# 6 0.0000 0.0000 0.0000 0.0000 0.0000 25.9678
#
#
#
# Elastic Compliance Matrix: (Units=1/GPa)
#
#
# Indices 1 2 3 4 5 6 
#
# 1 0.010651 -0.000688 -0.000304 0.000000 0.000000 0.000000
# 2 -0.000688 0.027690 -0.002857 0.000000 0.000000 0.000000
# 3 -0.000304 -0.002857 0.009558 0.000000 0.000000 0.000000
# 4 0.000000 0.000000 0.000000 0.618528 0.000000 0.000000
# 5 0.000000 0.000000 0.000000 0.000000 0.037362 0.000000
# 6 0.000000 0.000000 0.000000 0.000000 0.000000 0.038509
#
#
# Mechanical properties :
#
#
# Convention : Reuss Voigt Hill
#
# Bulk Modulus (GPa) = 24.87603 30.58141 27.72872
# Shear Modulus (GPa) = 6.54967 25.65869 16.10418
#
# Velocity S-wave (km/s) = 1.74130 3.44653 2.73045
# Velocity P-wave (km/s) = 3.94450 5.47682 4.77256
#
# Compressibility (1/GPa) = 0.04019935
#
# Stress axis : x y z
#
# Youngs Moduli (GPa) = 93.89155 36.11358 104.62726
#
# Poissons Ratio (x) = 0.02486 0.03184
# Poissons Ratio (y) = 0.06462 0.29893
# Poissons Ratio (z) = 0.02858 0.10318
#
# Static dielectric constant tensor:
#      x y z
#    x 1.767190 0.000000 0.000000 
#    y 0.000000 1.849360 0.000000 
#    z 0.000000 0.000000 1.875380 
# 
# From -- ./inp_files/7830.got.cif
#   From: 2010.05.17/outbox.cif.g08.bks.cpg/sg35_4_cif.got.tgz:7830.got - 2010.06.03 17:29:28.
