data_PCOD9348461
_publ_section_title
;
Structure prediction by ZEFSAII (Michael W. Deem and Ramdas Pophale) SiO2 
 PCOD9348461
Probable space group: C M M 2
;
_chemical_formula_sum "Si O2"
_cell_formula_units_Z 64
_cell_length_a 8.991749
_cell_length_b 29.317198
_cell_length_c 15.986775
_cell_angle_alpha 90.000000
_cell_angle_beta 90.000000
_cell_angle_gamma 90.000000
_cell_volume 4214.319892
_symmetry_space_group_name_H-M "C M M 2"
_symmetry_group_IT_number 35
_symmetry_cell_setting 'orthorhombic'
loop_
_space_group_symop_operation_xyz
x,y,z
-x,-y,z
-x,y,z
x,-y,z
1/2+x,1/2+y,z
1/2-x,1/2-y,z
1/2-x,1/2+y,z
1/2+x,1/2-y,z
loop_
_atom_site_type_symbol
_atom_site_label
_atom_site_fract_x
_atom_site_fract_y
_atom_site_fract_z
Si Si1 0.321739 0.202736 0.660530
Si Si2 0.680228 0.104153 0.404484
Si Si3 0.171840 0.944635 0.065098
Si Si4 0.677184 0.445688 0.563189
Si Si5 0.820126 0.053869 0.878790
Si Si6 0.678958 0.104108 0.722313
Si Si7 0.178272 0.297229 0.464761
Si Si8 0.178612 0.447083 0.236274
O O1 0.500000 0.207024 0.663305
O O2 0.250000 0.250000 0.689565
O O3 0.279539 0.157288 0.710364
O O4 0.279471 0.196011 0.562626
O O5 0.500000 0.100754 0.412176
O O6 0.753373 0.076326 0.480107
O O7 0.720897 0.157266 0.415102
O O8 0.725096 0.082764 0.315751
O O9 0.260484 0.930286 0.147196
O O10 0.000000 0.930894 0.073651
O O11 0.175538 0.000000 0.063719
O O12 0.225667 0.931063 0.972607
O O13 0.500000 0.437571 0.565999
O O14 0.702309 0.500000 0.563508
O O15 0.753959 0.423119 0.643647
O O16 0.743650 0.082682 0.806611
O O17 0.000000 0.057599 0.873879
O O18 0.784605 0.000000 0.868393
O O19 0.500000 0.100738 0.720485
O O20 0.250000 0.250000 0.435690
O O21 0.000000 0.292963 0.461653
O O22 0.226285 0.500000 0.248266
O O23 0.000000 0.446805 0.233145
#
# Coordination Sequence:
#
# PCOD9348461 Si02
#       8
#     8   8   8   8   8   8   8   8
#     4   9  18  32  48  67  89 116 152 192 233 276
#     4  10  19  33  49  67  93 125 157 191 233 277
#     4   8  15  29  47  65  90 123 154 189 230 268
#     4  11  23  34  44  63  93 128 163 193 221 264
#     4   9  18  32  48  68  95 126 159 192 229 274
#     4  11  21  33  48  69  94 122 156 192 232 277
#     4   9  17  31  48  66  89 117 152 193 234 276
#     4   9  17  28  45  69  94 121 154 190 228 272
#
# _framework density 15.186317000000001
#
# number of rings (size 3 to 8) (size 9 to 14) (size 15 to 20)
#    0.000    2.500    1.250    2.250    0.000    5.750 
#    0.000    2.500    0.000    0.000    0.000    0.875 
#    0.000    2.000    0.000    0.000    0.000    0.000 
#
# Total GULP energy -178372.977448 kJ/mol
# GULP energy per Si atom -5574.155545 kJ/mol
# Density = 1.515175 g / cm^3
# Si number density = 15.186317 Si / 1000 Ang^3
#
#
#
# Elastic Constant Matrix: (Units=GPa)
#
#
# Indices 1 2 3 4 5 6 
#
# 1 26.3171 42.8473 43.4205 0.0000 0.0000 0.0000
# 2 42.8473 115.2587 78.5172 0.0000 0.0000 0.0000
# 3 43.4205 78.5172 146.7997 0.0000 0.0000 0.0000
# 4 0.0000 0.0000 0.0000 4.9762 0.0000 0.0000
# 5 0.0000 0.0000 0.0000 0.0000 25.2051 0.0000
# 6 0.0000 0.0000 0.0000 0.0000 0.0000 24.1484
#
#
#
# Elastic Compliance Matrix: (Units=1/GPa)
#
#
# Indices 1 2 3 4 5 6 
#
# 1 0.121684 -0.032593 -0.018559 0.000000 0.000000 0.000000
# 2 -0.032593 0.022379 -0.002330 0.000000 0.000000 0.000000
# 3 -0.018559 -0.002330 0.013547 0.000000 0.000000 0.000000
# 4 0.000000 0.000000 0.000000 0.200956 0.000000 0.000000
# 5 0.000000 0.000000 0.000000 0.000000 0.039675 0.000000
# 6 0.000000 0.000000 0.000000 0.000000 0.000000 0.041411
#
#
# Mechanical properties :
#
#
# Convention : Reuss Voigt Hill
#
# Bulk Modulus (GPa) = 19.74426 68.66059 44.20243
# Shear Modulus (GPa) = 8.87316 19.10529 13.98923
#
# Velocity S-wave (km/s) = 2.41982 3.55076 3.03838
# Velocity P-wave (km/s) = 4.56475 7.88168 6.44041
#
# Compressibility (1/GPa) = 0.05064762
#
# Stress axis : x y z
#
# Youngs Moduli (GPa) = 8.21802 44.68390 73.81501
#
# Poissons Ratio (x) = 1.45638 1.36994
# Poissons Ratio (y) = 0.26785 0.17195
# Poissons Ratio (z) = 0.15252 0.10409
#
# Static dielectric constant tensor:
#      x y z
#    x 1.510620 0.000000 0.000000 
#    y 0.000000 1.493130 0.000000 
#    z 0.000000 0.000000 1.494330 
# 
# From -- ./inp_files/16189.got.cif
#   From: 2010.05.17/outbox.cif.g08.bks.cpg/sg35_9_cif.got.tgz:16189.got - 2010.06.03 17:29:28.
