data_PCOD9349633
_publ_section_title
;
Structure prediction by ZEFSAII (Michael W. Deem and Ramdas Pophale) SiO2 
 PCOD9349633
Probable space group: C M M 2
;
_chemical_formula_sum "Si O2"
_cell_formula_units_Z 48
_cell_length_a 8.655449
_cell_length_b 15.752062
_cell_length_c 17.822702
_cell_angle_alpha 90.000000
_cell_angle_beta 90.000000
_cell_angle_gamma 90.000000
_cell_volume 2429.968031
_symmetry_space_group_name_H-M "C M M 2"
_symmetry_group_IT_number 35
_symmetry_cell_setting 'orthorhombic'
loop_
_space_group_symop_operation_xyz
x,y,z
-x,-y,z
-x,y,z
x,-y,z
1/2+x,1/2+y,z
1/2-x,1/2-y,z
1/2-x,1/2+y,z
1/2+x,1/2-y,z
loop_
_atom_site_type_symbol
_atom_site_label
_atom_site_fract_x
_atom_site_fract_y
_atom_site_fract_z
Si Si1 0.684976 0.500000 0.998410
Si Si2 0.685928 0.160356 0.088918
Si Si3 0.686680 0.346477 0.731280
Si Si4 0.188328 0.401294 0.250698
Si Si5 0.183380 0.155937 0.563537
Si Si6 0.814872 0.500000 0.830267
Si Si7 0.673126 0.899419 0.410782
O O1 0.500000 0.500000 0.997618
O O2 0.750125 0.500000 0.914371
O O3 0.747214 0.417381 0.041726
O O4 0.500000 0.158389 0.085585
O O5 0.750000 0.250000 0.061343
O O6 0.734668 0.147708 0.176026
O O7 0.500000 0.344296 0.736883
O O8 0.750000 0.250000 0.741691
O O9 0.730307 0.376049 0.646247
O O10 0.754016 0.415565 0.788051
O O11 0.234939 0.500000 0.240662
O O12 0.243056 0.367202 0.331882
O O13 0.000000 0.400145 0.254635
O O14 0.250000 0.250000 0.558802
O O15 0.239231 0.111313 0.488293
O O16 0.000000 0.157712 0.563087
O O17 0.000000 0.500000 0.830601
O O18 0.500000 0.863551 0.420647
O O19 0.660086 0.000000 0.397569
#
# Coordination Sequence:
#
# PCOD9349633 Si02
#       7
#     4   8   8   8   8   4   8
#     4  12  26  46  68  95 128 159 200 253 306 367
#     4  11  22  40  66  95 127 165 207 253 308 369
#     4  10  22  42  65  93 128 165 206 257 308 364
#     4   8  15  32  57  82 116 161 204 253 307 356
#     4  10  21  36  55  79 115 157 200 249 302 351
#     4  12  26  44  70  99 124 161 202 243 308 377
#     4   9  18  32  53  82 116 157 203 248 298 352
#
# _framework density 19.753347000000002
#
# number of rings (size 3 to 8) (size 9 to 14) (size 15 to 20)
#    0.000    2.000    0.833    4.000    1.167    3.667 
#    0.000    6.667    0.000    0.000    0.000    0.000 
#    0.000    0.000    0.000    0.000    0.000    0.000 
#
# Total GULP energy -133923.745045 kJ/mol
# GULP energy per Si atom -5580.156044 kJ/mol
# Density = 1.970839 g / cm^3
# Si number density = 19.753347 Si / 1000 Ang^3
#
#
#
# Elastic Constant Matrix: (Units=GPa)
#
#
# Indices 1 2 3 4 5 6 
#
# 1 84.7589 41.8159 60.1555 0.0000 0.0000 0.0000
# 2 41.8159 110.7901 80.6349 0.0000 0.0000 0.0000
# 3 60.1555 80.6349 181.7764 0.0000 0.0000 0.0000
# 4 0.0000 0.0000 0.0000 -37.7055 0.0000 0.0000
# 5 0.0000 0.0000 0.0000 0.0000 101.0347 0.0000
# 6 0.0000 0.0000 0.0000 0.0000 0.0000 28.7316
#
#
#
# Elastic Compliance Matrix: (Units=1/GPa)
#
#
# Indices 1 2 3 4 5 6 
#
# 1 0.016181 -0.003264 -0.003907 0.000000 0.000000 0.000000
# 2 -0.003264 0.013988 -0.005125 0.000000 0.000000 0.000000
# 3 -0.003907 -0.005125 0.009068 0.000000 0.000000 0.000000
# 4 0.000000 0.000000 0.000000 -0.026521 0.000000 0.000000
# 5 0.000000 0.000000 0.000000 0.000000 0.009898 0.000000
# 6 0.000000 0.000000 0.000000 0.000000 0.000000 0.034805
#
#
# Mechanical properties :
#
#
# Convention : Reuss Voigt Hill
#
# Bulk Modulus (GPa) = 68.28086 82.50422 75.39254
# Shear Modulus (GPa) = 57.54323 31.39343 44.46833
#
# Velocity S-wave (km/s) = 5.40316 3.99089 4.74981
# Velocity P-wave (km/s) = 8.57714 7.94318 8.26624
#
# Compressibility (1/GPa) = 0.01464539
#
# Stress axis : x y z
#
# Youngs Moduli (GPa) = 61.79970 71.49048 110.28234
#
# Poissons Ratio (x) = 0.23332 0.43089
# Poissons Ratio (y) = 0.20169 0.56518
# Poissons Ratio (z) = 0.24146 0.36638
#
# Static dielectric constant tensor:
#      x y z
#    x 1.610360 0.000000 0.000000 
#    y 0.000000 1.685420 0.000000 
#    z 0.000000 0.000000 1.735490 
# 
# From -- ./inp_files/17919.got.cif
#   From: 2010.05.17/outbox.cif.g08.bks.cpg/sg35_9_cif.got.tgz:17919.got - 2010.06.03 17:29:28.
