data_PCOD9349620
_publ_section_title
;
Structure prediction by ZEFSAII (Michael W. Deem and Ramdas Pophale) SiO2 
 PCOD9349620
Probable space group: C M M 2
;
_chemical_formula_sum "Si O2"
_cell_formula_units_Z 56
_cell_length_a 18.108098
_cell_length_b 9.375333
_cell_length_c 18.474639
_cell_angle_alpha 90.000000
_cell_angle_beta 90.000000
_cell_angle_gamma 90.000000
_cell_volume 3136.429279
_symmetry_space_group_name_H-M "C M M 2"
_symmetry_group_IT_number 35
_symmetry_cell_setting 'orthorhombic'
loop_
_space_group_symop_operation_xyz
x,y,z
-x,-y,z
-x,y,z
x,-y,z
1/2+x,1/2+y,z
1/2-x,1/2-y,z
1/2-x,1/2+y,z
1/2+x,1/2-y,z
loop_
_atom_site_type_symbol
_atom_site_label
_atom_site_fract_x
_atom_site_fract_y
_atom_site_fract_z
Si Si1 0.087834 0.669343 0.216240
Si Si2 0.590099 0.664225 0.360272
Si Si3 0.087263 0.831859 0.645462
Si Si4 0.172635 0.670650 0.069467
Si Si5 0.590102 0.164170 0.502336
Si Si6 0.327958 0.329674 0.795072
Si Si7 0.087802 0.331955 0.921219
O O1 0.097989 0.500000 0.229269
O O2 0.112484 0.757059 0.286515
O O3 0.130600 0.709889 0.143442
O O4 0.000000 0.692397 0.205742
O O5 0.500000 0.665800 0.361018
O O6 0.613733 0.500000 0.361797
O O7 0.614620 0.748886 0.431680
O O8 0.112548 0.739711 0.576917
O O9 0.131865 0.802662 0.718441
O O10 0.000000 0.803707 0.658012
O O11 0.094267 0.000000 0.627949
O O12 0.184131 0.500000 0.071016
O O13 0.250000 0.750000 0.064194
O O14 0.123488 0.702060 0.998925
O O15 0.500000 0.166161 0.501755
O O16 0.613581 0.000000 0.499308
O O17 0.319099 0.500000 0.803543
O O18 0.250000 0.250000 0.796396
O O19 0.376908 0.265237 0.859493
O O20 0.102900 0.500000 0.905867
O O21 0.000000 0.313452 0.924143
#
# Coordination Sequence:
#
# PCOD9349620 Si02
#       7
#     8   8   8   8   8   8   8
#     4   9  17  31  51  73  99 133 174 217 259 306
#     4   9  16  26  43  70 103 135 168 210 260 309
#     4   9  18  33  52  74 102 136 174 217 264 312
#     4  10  21  36  54  77 106 140 175 213 260 312
#     4   9  16  26  44  72 103 134 170 212 258 308
#     4  11  23  38  56  79 109 144 180 218 264 317
#     4  10  21  38  60  84 109 138 175 219 266 316
#
# _framework density 17.854699
#
# number of rings (size 3 to 8) (size 9 to 14) (size 15 to 20)
#    0.000    2.429    0.000    2.571    0.000    9.429 
#    0.000    1.429    0.000    3.429    0.000    6.000 
#    0.000    0.000    0.000    0.000    0.000    0.000 
#
# Total GULP energy -156265.230847 kJ/mol
# GULP energy per Si atom -5580.901102 kJ/mol
# Density = 1.781406 g / cm^3
# Si number density = 17.854699 Si / 1000 Ang^3
#
#
#
# Elastic Constant Matrix: (Units=GPa)
#
#
# Indices 1 2 3 4 5 6 
#
# 1 62.8099 57.3639 66.8924 0.0000 0.0000 0.0000
# 2 57.3639 105.1963 114.0470 0.0000 0.0000 0.0000
# 3 66.8924 114.0470 192.1295 0.0000 0.0000 0.0000
# 4 0.0000 0.0000 0.0000 45.5163 0.0000 0.0000
# 5 0.0000 0.0000 0.0000 0.0000 -11.6823 0.0000
# 6 0.0000 0.0000 0.0000 0.0000 0.0000 21.4359
#
#
#
# Elastic Compliance Matrix: (Units=1/GPa)
#
#
# Indices 1 2 3 4 5 6 
#
# 1 0.032045 -0.015089 -0.002200 0.000000 0.000000 0.000000
# 2 -0.015089 0.033773 -0.014794 0.000000 0.000000 0.000000
# 3 -0.002200 -0.014794 0.014752 0.000000 0.000000 0.000000
# 4 0.000000 0.000000 0.000000 0.021970 0.000000 0.000000
# 5 0.000000 0.000000 0.000000 0.000000 -0.085599 0.000000
# 6 0.000000 0.000000 0.000000 0.000000 0.000000 0.046651
#
#
# Mechanical properties :
#
#
# Convention : Reuss Voigt Hill
#
# Bulk Modulus (GPa) = 60.96059 92.97136 76.96598
# Shear Modulus (GPa) = 37.53056 19.17613 28.35334
#
# Velocity S-wave (km/s) = 4.58973 3.28076 3.98930
# Velocity P-wave (km/s) = 7.89330 8.15692 8.02619
#
# Compressibility (1/GPa) = 0.01640404
#
# Stress axis : x y z
#
# Youngs Moduli (GPa) = 31.20634 29.60985 67.78573
#
# Poissons Ratio (x) = 0.44678 0.14914
# Poissons Ratio (y) = 0.47087 1.00281
# Poissons Ratio (z) = 0.06866 0.43804
#
# Static dielectric constant tensor:
#      x y z
#    x 1.584710 0.000000 0.000000 
#    y 0.000000 1.597510 0.000000 
#    z 0.000000 0.000000 1.586660 
# 
# From -- ./inp_files/17402.got.cif
#   From: 2010.05.17/outbox.cif.g08.bks.cpg/sg35_9_cif.got.tgz:17402.got - 2010.06.03 17:29:28.
