data_PCOD9349102
_publ_section_title
;
Structure prediction by ZEFSAII (Michael W. Deem and Ramdas Pophale) SiO2 
 PCOD9349102
Probable space group: C M M 2
;
_chemical_formula_sum "Si O2"
_cell_formula_units_Z 58
_cell_length_a 13.878675
_cell_length_b 22.575411
_cell_length_c 9.555041
_cell_angle_alpha 90.000000
_cell_angle_beta 90.000000
_cell_angle_gamma 90.000000
_cell_volume 2993.754796
_symmetry_space_group_name_H-M "C M M 2"
_symmetry_group_IT_number 35
_symmetry_cell_setting 'orthorhombic'
loop_
_space_group_symop_operation_xyz
x,y,z
-x,-y,z
-x,y,z
x,-y,z
1/2+x,1/2+y,z
1/2-x,1/2-y,z
1/2-x,1/2+y,z
1/2+x,1/2-y,z
loop_
_atom_site_type_symbol
_atom_site_label
_atom_site_fract_x
_atom_site_fract_y
_atom_site_fract_z
Si Si1 0.801797 0.847073 0.398370
Si Si2 0.114668 0.317502 0.024686
Si Si3 0.887970 0.889591 0.108672
Si Si4 0.111507 0.207007 0.869852
Si Si5 0.781243 0.563682 0.941982
Si Si6 0.500000 0.500000 0.724498
Si Si7 0.112995 0.281487 0.344029
Si Si8 0.829100 0.097637 0.690647
O O1 0.835431 0.878134 0.254976
O O2 0.860080 0.784496 0.395914
O O3 0.690056 0.827409 0.406125
O O4 0.822120 0.890337 0.526734
O O5 0.131852 0.288917 0.177112
O O6 0.000000 0.323318 0.011152
O O7 0.150047 0.271901 0.905883
O O8 0.163064 0.380706 0.005362
O O9 0.000000 0.906975 0.125770
O O10 0.886874 0.829481 0.016214
O O11 0.823922 0.933521 0.016021
O O12 0.156059 0.162917 0.758060
O O13 0.000000 0.214146 0.829151
O O14 0.826410 0.500000 0.969333
O O15 0.761884 0.572879 0.777225
O O16 0.416047 0.552518 0.720539
O O17 0.000000 0.293036 0.369547
#
# Coordination Sequence:
#
# PCOD9349102 Si02
#       8
#     8   8   8   8   8   2   8   8
#     4  11  22  38  60  97 127 169 212 263 319 391
#     4  10  20  38  66  95 122 161 210 281 335 365
#     4  10  20  34  60  90 123 154 207 264 319 374
#     4   9  18  35  61  93 119 158 208 260 318 376
#     4  11  24  42  60  87 124 171 218 261 315 399
#     4  12  24  48  60  86 138 196 194 250 336 392
#     4  10  21  38  63  94 133 165 203 270 346 381
#     4  11  25  39  63  88 130 175 213 250 321 389
#
# _framework density 19.373664000000002
#
# number of rings (size 3 to 8) (size 9 to 14) (size 15 to 20)
#    0.000    1.655    4.138    0.414    2.897    4.966 
#    1.241    2.069    0.000    0.000    0.000    0.000 
#    0.000    0.000    0.000    0.000    0.000    0.000 
#
# Total GULP energy -161523.293744 kJ/mol
# GULP energy per Si atom -5569.768750 kJ/mol
# Density = 1.932957 g / cm^3
# Si number density = 19.373664 Si / 1000 Ang^3
#
#
#
# Elastic Constant Matrix: (Units=GPa)
#
#
# Indices 1 2 3 4 5 6 
#
# 1 69.4867 14.7913 3.5819 0.0000 0.0000 0.0000
# 2 14.7913 93.5482 0.6057 0.0000 0.0000 0.0000
# 3 3.5819 0.6057 67.6263 0.0000 0.0000 0.0000
# 4 0.0000 0.0000 0.0000 7.9932 0.0000 0.0000
# 5 0.0000 0.0000 0.0000 0.0000 5.4835 0.0000
# 6 0.0000 0.0000 0.0000 0.0000 0.0000 15.2928
#
#
#
# Elastic Compliance Matrix: (Units=1/GPa)
#
#
# Indices 1 2 3 4 5 6 
#
# 1 0.014932 -0.002356 -0.000770 0.000000 0.000000 0.000000
# 2 -0.002356 0.011062 0.000026 0.000000 0.000000 0.000000
# 3 -0.000770 0.000026 0.014828 0.000000 0.000000 0.000000
# 4 0.000000 0.000000 0.000000 0.125106 0.000000 0.000000
# 5 0.000000 0.000000 0.000000 0.000000 0.182365 0.000000
# 6 0.000000 0.000000 0.000000 0.000000 0.000000 0.065390
#
#
# Mechanical properties :
#
#
# Convention : Reuss Voigt Hill
#
# Bulk Modulus (GPa) = 28.88347 29.84656 29.36502
# Shear Modulus (GPa) = 11.58954 19.86606 15.72780
#
# Velocity S-wave (km/s) = 2.44849 3.20569 2.85232
# Velocity P-wave (km/s) = 4.78899 5.39825 5.10272
#
# Compressibility (1/GPa) = 0.03462187
#
# Stress axis : x y z
#
# Youngs Moduli (GPa) = 66.96825 90.39930 67.44138
#
# Poissons Ratio (x) = 0.21298 0.05192
# Poissons Ratio (y) = 0.15778 -0.00173
# Poissons Ratio (z) = 0.05155 -0.00232
#
# Static dielectric constant tensor:
#      x y z
#    x 1.717150 0.000000 0.000000 
#    y 0.000000 1.676600 0.000000 
#    z 0.000000 0.000000 1.689950 
# 
# From -- ./inp_files/7796.got.cif
#   From: 2010.05.17/outbox.cif.g08.bks.cpg/sg35_4_cif.got.tgz:7796.got - 2010.06.03 17:29:28.
