data_PCOD9349873
_publ_section_title
;
Structure prediction by ZEFSAII (Michael W. Deem and Ramdas Pophale) SiO2 
 PCOD9349873
Probable space group: C M M 2
;
_chemical_formula_sum "Si O2"
_cell_formula_units_Z 48
_cell_length_a 15.603541
_cell_length_b 10.248256
_cell_length_c 16.031037
_cell_angle_alpha 90.000000
_cell_angle_beta 90.000000
_cell_angle_gamma 90.000000
_cell_volume 2563.508421
_symmetry_space_group_name_H-M "C M M 2"
_symmetry_group_IT_number 35
_symmetry_cell_setting 'orthorhombic'
loop_
_space_group_symop_operation_xyz
x,y,z
-x,-y,z
-x,y,z
x,-y,z
1/2+x,1/2+y,z
1/2-x,1/2-y,z
1/2-x,1/2+y,z
1/2+x,1/2-y,z
loop_
_atom_site_type_symbol
_atom_site_label
_atom_site_fract_x
_atom_site_fract_y
_atom_site_fract_z
Si Si1 0.146046 0.262551 0.279170
Si Si2 0.169429 0.652555 0.917779
Si Si3 0.905303 0.343913 0.739724
Si Si4 0.598322 0.000000 0.399725
Si Si5 0.831860 0.653720 0.101741
Si Si6 0.404000 0.500000 0.367461
Si Si7 0.750000 0.750000 0.627710
Si Si8 0.237843 0.000000 0.512956
O O1 0.250000 0.250000 0.281468
O O2 0.116763 0.374402 0.342420
O O3 0.119907 0.302467 0.185288
O O4 0.108986 0.126633 0.310301
O O5 0.197573 0.500000 0.912134
O O6 0.250000 0.750000 0.912747
O O7 0.110457 0.678344 0.838168
O O8 0.127622 0.666596 0.009671
O O9 0.900723 0.500000 0.726670
O O10 0.830720 0.280116 0.686312
O O11 0.000000 0.298528 0.715708
O O12 0.667358 0.000000 0.473134
O O13 0.500000 0.000000 0.428210
O O14 0.808333 0.500000 0.112433
O O15 0.750000 0.750000 0.098557
O O16 0.500000 0.500000 0.403171
O O17 0.331599 0.500000 0.438799
O O18 0.770553 0.872489 0.569327
#
# Coordination Sequence:
#
# PCOD9349873 Si02
#       8
#     8   8   8   4   8   4   4   4
#     4  11  20  39  64  89 125 165 205 253 298 354
#     4   9  17  33  59  90 125 163 202 245 293 351
#     4  10  21  40  66  95 125 161 201 244 302 369
#     4  12  24  42  66  91 119 158 205 255 304 364
#     4   9  18  30  55  94 123 162 210 247 290 348
#     4  12  26  44  64  89 123 162 203 251 312 372
#     4  12  24  42  70  90 122 156 198 258 312 364
#     4  12  26  44  66  92 120 156 200 258 318 364
#
# _framework density 18.724340000000002
#
# number of rings (size 3 to 8) (size 9 to 14) (size 15 to 20)
#    0.000    1.500    4.167    1.500    3.500    1.333 
#    0.000    1.667    0.000    0.000    0.000    0.000 
#    0.000    0.000    0.000    0.000    0.000    0.000 
#
# Total GULP energy -133948.494178 kJ/mol
# GULP energy per Si atom -5581.187257 kJ/mol
# Density = 1.868172 g / cm^3
# Si number density = 18.724340 Si / 1000 Ang^3
#
#
#
# Elastic Constant Matrix: (Units=GPa)
#
#
# Indices 1 2 3 4 5 6 
#
# 1 122.8732 29.7990 54.4251 0.0000 0.0000 0.0000
# 2 29.7990 123.9007 58.3025 0.0000 0.0000 0.0000
# 3 54.4251 58.3025 127.4916 0.0000 0.0000 0.0000
# 4 0.0000 0.0000 0.0000 30.5884 0.0000 0.0000
# 5 0.0000 0.0000 0.0000 0.0000 -7.8103 0.0000
# 6 0.0000 0.0000 0.0000 0.0000 0.0000 38.0500
#
#
#
# Elastic Compliance Matrix: (Units=1/GPa)
#
#
# Indices 1 2 3 4 5 6 
#
# 1 0.010061 -0.000508 -0.004063 0.000000 0.000000 0.000000
# 2 -0.000508 0.010310 -0.004498 0.000000 0.000000 0.000000
# 3 -0.004063 -0.004498 0.011635 0.000000 0.000000 0.000000
# 4 0.000000 0.000000 0.000000 0.032692 0.000000 0.000000
# 5 0.000000 0.000000 0.000000 0.000000 -0.128035 0.000000
# 6 0.000000 0.000000 0.000000 0.000000 0.000000 0.026281
#
#
# Mechanical properties :
#
#
# Convention : Reuss Voigt Hill
#
# Bulk Modulus (GPa) = 72.10514 73.25761 72.68138
# Shear Modulus (GPa) = -349.73694 27.61487 -161.06104
#
# Velocity S-wave (km/s) = -13.68165 3.84449 -9.28459
# Velocity P-wave (km/s) = 14.52553 7.67568 8.71994
#
# Compressibility (1/GPa) = 0.01386864
#
# Stress axis : x y z
#
# Youngs Moduli (GPa) = 99.39162 96.99670 85.94876
#
# Poissons Ratio (x) = 0.04928 0.34919
# Poissons Ratio (y) = 0.05050 0.38658
# Poissons Ratio (z) = 0.40380 0.43627
#
# Static dielectric constant tensor:
#      x y z
#    x 1.641950 0.000000 0.000000 
#    y 0.000000 1.618710 0.000000 
#    z 0.000000 0.000000 1.665070 
# 
# From -- ./inp_files/18814.got.cif
#   From: 2010.05.17/outbox.cif.g08.bks.cpg/sg35_10_cif.got.tgz:18814.got - 2010.06.03 17:29:28.
