data_PCOD9349084
_publ_section_title
;
Structure prediction by ZEFSAII (Michael W. Deem and Ramdas Pophale) SiO2 
 PCOD9349084
Probable space group: C M M 2
;
_chemical_formula_sum "Si O2"
_cell_formula_units_Z 56
_cell_length_a 19.352470
_cell_length_b 14.839867
_cell_length_c 9.297709
_cell_angle_alpha 90.000000
_cell_angle_beta 90.000000
_cell_angle_gamma 90.000000
_cell_volume 2670.191205
_symmetry_space_group_name_H-M "C M M 2"
_symmetry_group_IT_number 35
_symmetry_cell_setting 'orthorhombic'
loop_
_space_group_symop_operation_xyz
x,y,z
-x,-y,z
-x,y,z
x,-y,z
1/2+x,1/2+y,z
1/2-x,1/2-y,z
1/2-x,1/2+y,z
1/2+x,1/2-y,z
loop_
_atom_site_type_symbol
_atom_site_label
_atom_site_fract_x
_atom_site_fract_y
_atom_site_fract_z
Si Si1 0.178354 0.229457 0.031880
Si Si2 0.724385 0.148979 0.578199
Si Si3 0.075477 0.605895 0.684792
Si Si4 0.149753 0.896042 0.779876
Si Si5 0.580215 0.895732 0.032162
Si Si6 0.075394 0.890457 0.495498
Si Si7 0.702661 0.396547 0.297738
O O1 0.250000 0.250000 0.949850
O O2 0.205578 0.170016 0.164714
O O3 0.139902 0.165875 0.918282
O O4 0.133382 0.316593 0.075903
O O5 0.750000 0.250000 0.566314
O O6 0.644660 0.146545 0.620023
O O7 0.774783 0.106235 0.700248
O O8 0.739002 0.107223 0.421074
O O9 0.076515 0.500000 0.646031
O O10 0.080243 0.609463 0.858053
O O11 0.000000 0.642984 0.641899
O O12 0.098098 0.863916 0.654838
O O13 0.136210 0.000000 0.816931
O O14 0.500000 0.881174 0.078399
O O15 0.599511 0.000000 0.070785
O O16 0.133939 0.866526 0.383103
O O17 0.000000 0.857552 0.456255
O O18 0.075152 0.000000 0.497559
O O19 0.696344 0.500000 0.248622
#
# Coordination Sequence:
#
# PCOD9349084 Si02
#       7
#     8   8   8   8   8   8   8
#     4  12  24  37  57  89 120 155 205 255 302 359
#     4  11  20  35  57  85 119 160 206 251 303 362
#     4   9  17  32  58  90 120 151 193 248 305 356
#     4  10  20  34  56  86 120 157 197 248 306 362
#     4   9  20  39  61  88 124 162 200 252 318 374
#     4   8  16  34  58  83 113 150 189 228 280 349
#     4  10  22  39  58  82 119 163 199 242 304 368
#
# _framework density 20.972282
#
# number of rings (size 3 to 8) (size 9 to 14) (size 15 to 20)
#    0.000    2.143    0.000    6.000    0.000    3.429 
#    0.000    4.286    0.000    6.857    0.000   11.000 
#    0.000    8.000    0.000    0.000    0.000    0.000 
#
# Total GULP energy -156260.947428 kJ/mol
# GULP energy per Si atom -5580.748122 kJ/mol
# Density = 2.092455 g / cm^3
# Si number density = 20.972282 Si / 1000 Ang^3
#
#
#
# Elastic Constant Matrix: (Units=GPa)
#
#
# Indices 1 2 3 4 5 6 
#
# 1 96.1034 20.1938 -5.1026 0.0000 0.0000 0.0000
# 2 20.1938 111.8196 16.6645 0.0000 0.0000 0.0000
# 3 -5.1026 16.6645 42.1246 0.0000 0.0000 0.0000
# 4 0.0000 0.0000 0.0000 22.3046 0.0000 0.0000
# 5 0.0000 0.0000 0.0000 0.0000 5.6768 0.0000
# 6 0.0000 0.0000 0.0000 0.0000 0.0000 28.2435
#
#
#
# Elastic Compliance Matrix: (Units=1/GPa)
#
#
# Indices 1 2 3 4 5 6 
#
# 1 0.011014 -0.002325 0.002254 0.000000 0.000000 0.000000
# 2 -0.002325 0.009994 -0.004235 0.000000 0.000000 0.000000
# 3 0.002254 -0.004235 0.025688 0.000000 0.000000 0.000000
# 4 0.000000 0.000000 0.000000 0.044834 0.000000 0.000000
# 5 0.000000 0.000000 0.000000 0.000000 0.176157 0.000000
# 6 0.000000 0.000000 0.000000 0.000000 0.000000 0.035406
#
#
# Mechanical properties :
#
#
# Convention : Reuss Voigt Hill
#
# Bulk Modulus (GPa) = 26.25870 34.83987 30.54928
# Shear Modulus (GPa) = 15.41311 25.79775 20.60543
#
# Velocity S-wave (km/s) = 2.71390 3.51107 3.13790
# Velocity P-wave (km/s) = 4.72950 5.75197 5.26561
#
# Compressibility (1/GPa) = 0.03808262
#
# Stress axis : x y z
#
# Youngs Moduli (GPa) = 90.79647 100.05993 38.92937
#
# Poissons Ratio (x) = 0.23263 -0.08774
# Poissons Ratio (y) = 0.21109 0.16488
# Poissons Ratio (z) = -0.20464 0.42378
#
# Static dielectric constant tensor:
#      x y z
#    x 1.796100 0.000000 0.000000 
#    y 0.000000 1.813570 0.000000 
#    z 0.000000 0.000000 1.733690 
# 
# From -- ./inp_files/9287.got.cif
#   From: 2010.05.17/outbox.cif.g08.bks.cpg/sg35_5_cif.got.tgz:9287.got - 2010.06.03 17:29:28.
