data_PCOD9349120
_publ_section_title
;
Structure prediction by ZEFSAII (Michael W. Deem and Ramdas Pophale) SiO2 
 PCOD9349120
Probable space group: C M M 2
;
_chemical_formula_sum "Si O2"
_cell_formula_units_Z 32
_cell_length_a 14.580049
_cell_length_b 8.580369
_cell_length_c 14.597074
_cell_angle_alpha 90.000000
_cell_angle_beta 90.000000
_cell_angle_gamma 90.000000
_cell_volume 1826.126078
_symmetry_space_group_name_H-M "C M M 2"
_symmetry_group_IT_number 35
_symmetry_cell_setting 'orthorhombic'
loop_
_space_group_symop_operation_xyz
x,y,z
-x,-y,z
-x,y,z
x,-y,z
1/2+x,1/2+y,z
1/2-x,1/2-y,z
1/2-x,1/2+y,z
1/2+x,1/2-y,z
loop_
_atom_site_type_symbol
_atom_site_label
_atom_site_fract_x
_atom_site_fract_y
_atom_site_fract_z
Si Si1 0.500000 0.190296 0.716660
Si Si2 0.352312 0.187699 0.864548
Si Si3 0.000000 0.688390 0.014857
Si Si4 0.500000 0.685418 0.219438
Si Si5 0.352718 0.187133 0.358815
Si Si6 0.000000 0.689504 0.507956
O O1 0.411129 0.238166 0.775644
O O2 0.500000 0.245641 0.612240
O O3 0.500000 0.000000 0.715271
O O4 0.250000 0.250000 0.865282
O O5 0.350014 0.000000 0.863429
O O6 0.411593 0.233504 0.953817
O O7 0.000000 0.500000 0.023165
O O8 0.000000 0.761970 0.114475
O O9 0.500000 0.500000 0.226172
O O10 0.588548 0.751848 0.272824
O O11 0.250000 0.250000 0.359736
O O12 0.410976 0.236172 0.448820
O O13 0.351587 0.000000 0.355822
O O14 0.000000 0.500000 0.510391
#
# Coordination Sequence:
#
# PCOD9349120 Si02
#       6
#     4   8   4   4   8   4
#     4   8  15  31  51  73 102 137 169 200 247 303
#     4   9  18  32  52  74 100 133 168 206 250 298
#     4   9  19  36  52  70 100 137 169 203 252 309
#     4  11  22  36  55  78 102 133 171 215 261 309
#     4  10  20  35  54  77 105 138 172 212 257 305
#     4   8  16  31  52  75 102 135 171 208 250 299
#
# _framework density 17.523436
#
# number of rings (size 3 to 8) (size 9 to 14) (size 15 to 20)
#    0.000    2.750    0.000    4.125    0.000    3.000 
#    0.000    4.375    0.000    7.500    0.000    0.000 
#    0.000    0.000    0.000    0.000    0.000    0.000 
#
# Total GULP energy -89227.459373 kJ/mol
# GULP energy per Si atom -5576.716211 kJ/mol
# Density = 1.748355 g / cm^3
# Si number density = 17.523436 Si / 1000 Ang^3
#
#
#
# Elastic Constant Matrix: (Units=GPa)
#
#
# Indices 1 2 3 4 5 6 
#
# 1 203.7917 43.6368 110.9560 0.0000 0.0000 0.0000
# 2 43.6368 44.2590 43.1277 0.0000 0.0000 0.0000
# 3 110.9560 43.1277 194.4960 0.0000 0.0000 0.0000
# 4 0.0000 0.0000 0.0000 13.5535 0.0000 0.0000
# 5 0.0000 0.0000 0.0000 0.0000 4.6985 0.0000
# 6 0.0000 0.0000 0.0000 0.0000 0.0000 31.8836
#
#
#
# Elastic Compliance Matrix: (Units=1/GPa)
#
#
# Indices 1 2 3 4 5 6 
#
# 1 0.007689 -0.004218 -0.003451 0.000000 0.000000 0.000000
# 2 -0.004218 0.031136 -0.004498 0.000000 0.000000 0.000000
# 3 -0.003451 -0.004498 0.008108 0.000000 0.000000 0.000000
# 4 0.000000 0.000000 0.000000 0.073781 0.000000 0.000000
# 5 0.000000 0.000000 0.000000 0.000000 0.212836 0.000000
# 6 0.000000 0.000000 0.000000 0.000000 0.000000 0.031364
#
#
# Mechanical properties :
#
#
# Convention : Reuss Voigt Hill
#
# Bulk Modulus (GPa) = 44.25049 93.10975 68.68012
# Shear Modulus (GPa) = 12.60140 26.34887 19.47513
#
# Velocity S-wave (km/s) = 2.68454 3.88188 3.33735
# Velocity P-wave (km/s) = 5.90898 8.56398 7.35723
#
# Compressibility (1/GPa) = 0.02259862
#
# Stress axis : x y z
#
# Youngs Moduli (GPa) = 130.05229 32.11726 123.33995
#
# Poissons Ratio (x) = 0.13547 0.42567
# Poissons Ratio (y) = 0.54858 0.55475
# Poissons Ratio (z) = 0.44884 0.14446
#
# Static dielectric constant tensor:
#      x y z
#    x 1.573040 0.000000 0.000000 
#    y 0.000000 1.592980 0.000000 
#    z 0.000000 0.000000 1.588310 
# 
# From -- ./inp_files/16559.got.cif
#   From: 2010.05.17/outbox.cif.g08.bks.cpg/sg35_9_cif.got.tgz:16559.got - 2010.06.03 17:29:28.
