data_PCOD9349689
_publ_section_title
;
Structure prediction by ZEFSAII (Michael W. Deem and Ramdas Pophale) SiO2 
 PCOD9349689
Probable space group: C M M 2
;
_chemical_formula_sum "Si O2"
_cell_formula_units_Z 48
_cell_length_a 14.654084
_cell_length_b 17.481332
_cell_length_c 7.804954
_cell_angle_alpha 90.000000
_cell_angle_beta 90.000000
_cell_angle_gamma 90.000000
_cell_volume 1999.417760
_symmetry_space_group_name_H-M "C M M 2"
_symmetry_group_IT_number 35
_symmetry_cell_setting 'orthorhombic'
loop_
_space_group_symop_operation_xyz
x,y,z
-x,-y,z
-x,y,z
x,-y,z
1/2+x,1/2+y,z
1/2-x,1/2-y,z
1/2-x,1/2+y,z
1/2+x,1/2-y,z
loop_
_atom_site_type_symbol
_atom_site_label
_atom_site_fract_x
_atom_site_fract_y
_atom_site_fract_z
Si Si1 0.646748 0.748680 0.527780
Si Si2 0.202759 0.579753 0.087138
Si Si3 0.642675 0.414363 0.597711
Si Si4 0.105577 0.719470 0.911425
Si Si5 0.648863 0.083856 0.480872
Si Si6 0.899664 0.112706 0.000413
O O1 0.750000 0.750000 0.454657
O O2 0.609114 0.662577 0.498900
O O3 0.648104 0.753477 0.733501
O O4 0.603336 0.831977 0.492326
O O5 0.173969 0.500000 0.000799
O O6 0.163583 0.651748 0.988876
O O7 0.311628 0.581532 0.092582
O O8 0.168340 0.579580 0.279621
O O9 0.615983 0.500000 0.538463
O O10 0.753485 0.410724 0.580172
O O11 0.612979 0.406596 0.796942
O O12 0.104708 0.795681 0.024518
O O13 0.000000 0.696311 0.885774
O O14 0.608611 0.000000 0.529937
O O15 0.000000 0.086854 0.052166
#
# Coordination Sequence:
#
# PCOD9349689 Si02
#       6
#     8   8   8   8   8   8
#     4   9  17  32  55  80 106 144 188 233 283 334
#     4  11  22  36  57  84 117 153 189 237 292 344
#     4   9  17  31  51  77 108 140 180 227 276 334
#     4  10  21  37  57  83 114 148 192 240 284 340
#     4   9  19  34  53  80 112 150 193 235 286 342
#     4  10  21  37  59  86 115 150 190 233 286 347
#
# _framework density 24.006988
#
# number of rings (size 3 to 8) (size 9 to 14) (size 15 to 20)
#    0.000    2.333    0.000    4.000    0.000    7.667 
#    0.000    1.667    0.000    9.000    0.000    0.000 
#    0.000    0.000    0.000    0.000    0.000    0.000 
#
# Total GULP energy -133843.852964 kJ/mol
# GULP energy per Si atom -5576.827207 kJ/mol
# Density = 2.395235 g / cm^3
# Si number density = 24.006988 Si / 1000 Ang^3
#
#
#
# Elastic Constant Matrix: (Units=GPa)
#
#
# Indices 1 2 3 4 5 6 
#
# 1 95.8468 40.2141 -3.6543 0.0000 0.0000 0.0000
# 2 40.2141 279.4248 16.1722 0.0000 0.0000 0.0000
# 3 -3.6543 16.1722 8.9988 0.0000 0.0000 0.0000
# 4 0.0000 0.0000 0.0000 -7.5980 0.0000 0.0000
# 5 0.0000 0.0000 0.0000 0.0000 -19.4975 0.0000
# 6 0.0000 0.0000 0.0000 0.0000 0.0000 -7.8976
#
#
#
# Elastic Compliance Matrix: (Units=1/GPa)
#
#
# Indices 1 2 3 4 5 6 
#
# 1 0.011679 -0.002182 0.008665 0.000000 0.000000 0.000000
# 2 -0.002182 0.004402 -0.008797 0.000000 0.000000 0.000000
# 3 0.008665 -0.008797 0.130455 0.000000 0.000000 0.000000
# 4 0.000000 0.000000 0.000000 -0.131614 0.000000 0.000000
# 5 0.000000 0.000000 0.000000 0.000000 -0.051289 0.000000
# 6 0.000000 0.000000 0.000000 0.000000 0.000000 -0.126621
#
#
# Mechanical properties :
#
#
# Convention : Reuss Voigt Hill
#
# Bulk Modulus (GPa) = 7.04690 54.41492 30.73091
# Shear Modulus (GPa) = -45.02235 15.10396 -14.95920
#
# Velocity S-wave (km/s) = -4.33527 2.51100 -2.49894
# Velocity P-wave (km/s) = 4.70295 5.57874 2.12187
#
# Compressibility (1/GPa) = 0.14190632
#
# Stress axis : x y z
#
# Youngs Moduli (GPa) = 85.62145 227.16854 7.66550
#
# Poissons Ratio (x) = 0.49576 -0.06642
# Poissons Ratio (y) = 0.18686 0.06744
# Poissons Ratio (z) = -0.74190 1.99847
#
# Static dielectric constant tensor:
#      x y z
#    x 1.882250 0.000000 0.000000 
#    y 0.000000 2.115990 0.000000 
#    z 0.000000 0.000000 1.874310 
# 
# From -- ./inp_files/8377.got.cif
#   From: 2010.05.17/outbox.cif.g08.bks.cpg/sg35_5_cif.got.tgz:8377.got - 2010.06.03 17:29:28.
