data_PCOD9349058
_publ_section_title
;
Structure prediction by ZEFSAII (Michael W. Deem and Ramdas Pophale) SiO2 
 PCOD9349058
Probable space group: C M M 2
;
_chemical_formula_sum "Si O2"
_cell_formula_units_Z 56
_cell_length_a 8.199853
_cell_length_b 22.649101
_cell_length_c 14.940696
_cell_angle_alpha 90.000000
_cell_angle_beta 90.000000
_cell_angle_gamma 90.000000
_cell_volume 2774.775584
_symmetry_space_group_name_H-M "C M M 2"
_symmetry_group_IT_number 35
_symmetry_cell_setting 'orthorhombic'
loop_
_space_group_symop_operation_xyz
x,y,z
-x,-y,z
-x,y,z
x,-y,z
1/2+x,1/2+y,z
1/2-x,1/2-y,z
1/2-x,1/2+y,z
1/2+x,1/2-y,z
loop_
_atom_site_type_symbol
_atom_site_label
_atom_site_fract_x
_atom_site_fract_y
_atom_site_fract_z
Si Si1 0.807942 0.933332 0.719320
Si Si2 0.197094 0.500000 0.230062
Si Si3 0.694183 0.000000 0.021533
Si Si4 0.303346 0.315277 0.176588
Si Si5 0.195770 0.126289 0.998248
Si Si6 0.194059 0.885439 0.340322
Si Si7 0.302939 0.315408 0.820177
Si Si8 0.809147 0.432659 0.521145
O O1 0.743086 0.873911 0.766836
O O2 0.787023 0.923700 0.612876
O O3 0.000000 0.936043 0.741197
O O4 0.739972 0.000000 0.738855
O O5 0.250120 0.500000 0.125997
O O6 0.263495 0.556621 0.282380
O O7 0.000000 0.500000 0.233592
O O8 0.755870 0.940393 0.976093
O O9 0.500000 0.000000 0.021689
O O10 0.500000 0.319283 0.177785
O O11 0.250000 0.250000 0.153865
O O12 0.241511 0.357392 0.097000
O O13 0.245316 0.333595 0.275125
O O14 0.000000 0.128853 0.000600
O O15 0.250971 0.171874 0.922448
O O16 0.269540 0.890833 0.438236
O O17 0.000000 0.881704 0.351364
O O18 0.500000 0.315923 0.816536
O O19 0.250000 0.250000 0.790514
O O20 0.773977 0.500000 0.490279
O O21 0.000000 0.429025 0.542823
#
# Coordination Sequence:
#
# PCOD9349058 Si02
#       8
#     8   4   4   8   8   8   8   8
#     4   9  19  37  60  87 115 149 193 238 291 354
#     4  11  21  33  51  80 113 146 183 227 276 324
#     4  11  23  35  53  86 119 152 191 239 292 334
#     4  10  22  37  54  78 108 150 196 234 279 331
#     4  10  21  38  59  83 115 154 193 234 285 348
#     4  11  21  34  55  82 112 149 188 228 276 335
#     4  10  22  39  63  89 116 154 197 244 296 352
#     4  10  20  34  55  85 116 146 182 231 291 343
#
# _framework density 20.181811
#
# number of rings (size 3 to 8) (size 9 to 14) (size 15 to 20)
#    0.000    1.857    2.143    1.714    1.000    4.000 
#    0.000    0.714    0.000    0.000    0.000    0.000 
#    0.000    0.000    0.000    0.000    0.000    0.000 
#
# Total GULP energy -156244.986965 kJ/mol
# GULP energy per Si atom -5580.178106 kJ/mol
# Density = 2.013588 g / cm^3
# Si number density = 20.181811 Si / 1000 Ang^3
#
#
#
# Elastic Constant Matrix: (Units=GPa)
#
#
# Indices 1 2 3 4 5 6 
#
# 1 8.1932 -0.5469 6.6511 0.0000 0.0000 0.0000
# 2 -0.5469 124.5280 42.1959 0.0000 0.0000 0.0000
# 3 6.6511 42.1959 66.8679 0.0000 0.0000 0.0000
# 4 0.0000 0.0000 0.0000 29.2538 0.0000 0.0000
# 5 0.0000 0.0000 0.0000 0.0000 10.8866 0.0000
# 6 0.0000 0.0000 0.0000 0.0000 0.0000 26.4115
#
#
#
# Elastic Compliance Matrix: (Units=1/GPa)
#
#
# Indices 1 2 3 4 5 6 
#
# 1 0.136954 0.006636 -0.017810 0.000000 0.000000 0.000000
# 2 0.006636 0.010536 -0.007309 0.000000 0.000000 0.000000
# 3 -0.017810 -0.007309 0.021338 0.000000 0.000000 0.000000
# 4 0.000000 0.000000 0.000000 0.034184 0.000000 0.000000
# 5 0.000000 0.000000 0.000000 0.000000 0.091856 0.000000
# 6 0.000000 0.000000 0.000000 0.000000 0.000000 0.037862
#
#
# Mechanical properties :
#
#
# Convention : Reuss Voigt Hill
#
# Bulk Modulus (GPa) = 7.58361 32.90990 20.24676
# Shear Modulus (GPa) = 12.08755 23.39632 17.74194
#
# Velocity S-wave (km/s) = 2.44997 3.40851 2.96819
# Velocity P-wave (km/s) = 3.43059 5.64205 4.66913
#
# Compressibility (1/GPa) = 0.13186333
#
# Stress axis : x y z
#
# Youngs Moduli (GPa) = 7.30175 94.91292 46.86407
#
# Poissons Ratio (x) = -0.62987 0.83464
# Poissons Ratio (y) = -0.04846 0.34251
# Poissons Ratio (z) = 0.13004 0.69368
#
# Static dielectric constant tensor:
#      x y z
#    x 1.705440 0.000000 0.000000 
#    y 0.000000 1.704880 0.000000 
#    z 0.000000 0.000000 1.721080 
# 
# From -- ./inp_files/15674.got.cif
#   From: 2010.05.17/outbox.cif.g08.bks.cpg/sg35_8_cif.got.tgz:15674.got - 2010.06.03 17:29:28.
