data_PCOD9349956
_publ_section_title
;
Structure prediction by ZEFSAII (Michael W. Deem and Ramdas Pophale) SiO2 
 PCOD9349956
Probable space group: C M M 2
;
_chemical_formula_sum "Si O2"
_cell_formula_units_Z 34
_cell_length_a 19.738854
_cell_length_b 8.725196
_cell_length_c 10.307248
_cell_angle_alpha 90.000000
_cell_angle_beta 90.000000
_cell_angle_gamma 90.000000
_cell_volume 1775.169600
_symmetry_space_group_name_H-M "C M M 2"
_symmetry_group_IT_number 35
_symmetry_cell_setting 'orthorhombic'
loop_
_space_group_symop_operation_xyz
x,y,z
-x,-y,z
-x,y,z
x,-y,z
1/2+x,1/2+y,z
1/2-x,1/2-y,z
1/2-x,1/2+y,z
1/2+x,1/2-y,z
loop_
_atom_site_type_symbol
_atom_site_label
_atom_site_fract_x
_atom_site_fract_y
_atom_site_fract_z
Si Si1 0.859188 0.331182 0.403140
Si Si2 0.000000 0.500000 0.403140
Si Si3 0.677653 0.683494 0.676050
Si Si4 0.422714 0.313319 0.903140
Si Si5 0.677653 0.683494 0.130230
O O1 0.824729 0.500000 0.403141
O O2 0.939153 0.369179 0.403140
O O3 0.838615 0.243554 0.532680
O O4 0.838615 0.243556 0.273599
O O5 0.680709 0.500000 0.677111
O O6 0.750000 0.750000 0.717855
O O7 0.619167 0.733986 0.776058
O O8 0.500000 0.258088 0.903140
O O9 0.424462 0.500000 0.903140
O O10 0.380833 0.266014 0.030222
O O11 0.680709 0.500000 0.129170
O O12 0.750000 0.750000 0.088425
#
# Coordination Sequence:
#
# PCOD9349956 Si02
#       5
#     8   2   8   8   8
#     4  10  22  40  62  88 122 155 198 244 302 354
#     4   8  24  40  62  86 132 152 192 250 312 340
#     4  11  22  39  63  91 122 160 203 249 300 356
#     4   9  21  38  59  87 122 157 200 251 302 358
#     4  11  22  39  63  91 122 160 203 249 300 356
#
# _framework density 19.153099000000001
#
# number of rings (size 3 to 8) (size 9 to 14) (size 15 to 20)
#    0.706    1.176    0.000    3.529    3.294    0.000 
#    0.000    4.706    0.000    7.059    0.000    0.000 
#    0.000    0.000    0.000    0.000    0.000    0.000 
#
# Total GULP energy -94646.751276 kJ/mol
# GULP energy per Si atom -5567.455957 kJ/mol
# Density = 1.910951 g / cm^3
# Si number density = 19.153099 Si / 1000 Ang^3
#
#
#
# Elastic Constant Matrix: (Units=GPa)
#
#
# Indices 1 2 3 4 5 6 
#
# 1 186.9162 39.4691 77.8511 0.0000 0.0000 0.0000
# 2 39.4691 70.6300 38.3818 0.0000 0.0000 0.0000
# 3 77.8511 38.3818 156.2568 0.0000 0.0000 0.0000
# 4 0.0000 0.0000 0.0000 -18.9812 0.0000 0.0000
# 5 0.0000 0.0000 0.0000 0.0000 13.1451 0.0000
# 6 0.0000 0.0000 0.0000 0.0000 0.0000 26.0056
#
#
#
# Elastic Compliance Matrix: (Units=1/GPa)
#
#
# Indices 1 2 3 4 5 6 
#
# 1 0.007074 -0.002352 -0.002947 0.000000 0.000000 0.000000
# 2 -0.002352 0.017121 -0.003034 0.000000 0.000000 0.000000
# 3 -0.002947 -0.003034 0.008613 0.000000 0.000000 0.000000
# 4 0.000000 0.000000 0.000000 -0.052684 0.000000 0.000000
# 5 0.000000 0.000000 0.000000 0.000000 0.076074 0.000000
# 6 0.000000 0.000000 0.000000 0.000000 0.000000 0.038453
#
#
# Mechanical properties :
#
#
# Convention : Reuss Voigt Hill
#
# Bulk Modulus (GPa) = 61.94429 80.57856 71.26143
# Shear Modulus (GPa) = 42.84603 21.24065 32.04334
#
# Velocity S-wave (km/s) = 4.73485 3.33377 4.09468
# Velocity P-wave (km/s) = 7.89327 7.54856 7.72284
#
# Compressibility (1/GPa) = 0.01614354
#
# Stress axis : x y z
#
# Youngs Moduli (GPa) = 141.36477 58.40751 116.10253
#
# Poissons Ratio (x) = 0.13736 0.34212
# Poissons Ratio (y) = 0.33244 0.35224
# Poissons Ratio (z) = 0.41657 0.17720
#
# Static dielectric constant tensor:
#      x y z
#    x 1.661720 0.000000 0.000000 
#    y 0.000000 1.667050 0.000000 
#    z 0.000000 0.000000 1.645380 
# 
# From -- ./inp_files/8988.got.cif
#   From: 2010.05.17/outbox.cif.g08.bks.cpg/sg35_5_cif.got.tgz:8988.got - 2010.06.03 17:29:28.
