data_PCOD9349821
_publ_section_title
;
Structure prediction by ZEFSAII (Michael W. Deem and Ramdas Pophale) SiO2 
 PCOD9349821
Probable space group: C M M 2
;
_chemical_formula_sum "Si O2"
_cell_formula_units_Z 56
_cell_length_a 8.403853
_cell_length_b 23.197745
_cell_length_c 15.096969
_cell_angle_alpha 90.000000
_cell_angle_beta 90.000000
_cell_angle_gamma 90.000000
_cell_volume 2943.160733
_symmetry_space_group_name_H-M "C M M 2"
_symmetry_group_IT_number 35
_symmetry_cell_setting 'orthorhombic'
loop_
_space_group_symop_operation_xyz
x,y,z
-x,-y,z
-x,y,z
x,-y,z
1/2+x,1/2+y,z
1/2-x,1/2-y,z
1/2-x,1/2+y,z
1/2+x,1/2-y,z
loop_
_atom_site_type_symbol
_atom_site_label
_atom_site_fract_x
_atom_site_fract_y
_atom_site_fract_z
Si Si1 0.690309 0.185567 0.043950
Si Si2 0.681575 0.500000 0.209374
Si Si3 0.682877 0.500000 0.998591
Si Si4 0.690752 0.182785 0.597207
Si Si5 0.312425 0.104370 0.893889
Si Si6 0.309606 0.185401 0.394439
Si Si7 0.811275 0.068064 0.703052
Si Si8 0.809705 0.876917 0.221117
O O1 0.500000 0.183304 0.042357
O O2 0.750000 0.250000 0.053761
O O3 0.746369 0.151229 0.130951
O O4 0.746085 0.159849 0.949139
O O5 0.500000 0.500000 0.245605
O O6 0.760739 0.559411 0.233872
O O7 0.671921 0.500000 0.103429
O O8 0.500000 0.500000 0.964022
O O9 0.778772 0.554454 0.964400
O O10 0.500000 0.186163 0.604921
O O11 0.750000 0.250000 0.617179
O O12 0.734778 0.168626 0.494946
O O13 0.745707 0.125354 0.651313
O O14 0.500000 0.110039 0.874235
O O15 0.226235 0.084328 0.804965
O O16 0.500000 0.181377 0.386459
O O17 0.250000 0.250000 0.387012
O O18 0.230400 0.154690 0.311523
O O19 0.000000 0.066754 0.688139
O O20 0.754711 0.000000 0.686941
O O21 0.000000 0.880675 0.209594
#
# Coordination Sequence:
#
# PCOD9349821 Si02
#       8
#     8   4   4   8   8   8   8   8
#     4  11  24  39  56  83 117 155 199 245 295 346
#     4   9  20  35  55  82 113 154 197 237 288 344
#     4  11  19  35  59  82 111 150 197 239 282 344
#     4  10  22  42  68  93 123 159 202 255 311 372
#     4  11  23  38  59  86 117 155 198 244 295 350
#     4  10  21  39  62  89 116 152 196 241 295 354
#     4  11  24  41  64  94 126 163 206 252 307 371
#     4  11  21  37  59  84 117 156 196 241 291 348
#
# _framework density 19.027163000000002
#
# number of rings (size 3 to 8) (size 9 to 14) (size 15 to 20)
#    0.000    1.429    2.143    3.214    0.000    4.857 
#    1.286    2.857    0.000    0.000    0.000    0.000 
#    0.000    0.000    0.000    0.000    0.000    0.000 
#
# Total GULP energy -155971.050908 kJ/mol
# GULP energy per Si atom -5570.394675 kJ/mol
# Density = 1.898386 g / cm^3
# Si number density = 19.027163 Si / 1000 Ang^3
#
#
#
# Elastic Constant Matrix: (Units=GPa)
#
#
# Indices 1 2 3 4 5 6 
#
# 1 36.4992 21.8106 14.6530 0.0000 0.0000 0.0000
# 2 21.8106 112.8821 55.9221 0.0000 0.0000 0.0000
# 3 14.6530 55.9221 81.8918 0.0000 0.0000 0.0000
# 4 0.0000 0.0000 0.0000 14.9360 0.0000 0.0000
# 5 0.0000 0.0000 0.0000 0.0000 6.8198 0.0000
# 6 0.0000 0.0000 0.0000 0.0000 0.0000 15.7878
#
#
#
# Elastic Compliance Matrix: (Units=1/GPa)
#
#
# Indices 1 2 3 4 5 6 
#
# 1 0.031238 -0.004937 -0.002218 0.000000 0.000000 0.000000
# 2 -0.004937 0.014168 -0.008792 0.000000 0.000000 0.000000
# 3 -0.002218 -0.008792 0.018612 0.000000 0.000000 0.000000
# 4 0.000000 0.000000 0.000000 0.066952 0.000000 0.000000
# 5 0.000000 0.000000 0.000000 0.000000 0.146632 0.000000
# 6 0.000000 0.000000 0.000000 0.000000 0.000000 0.063340
#
#
# Mechanical properties :
#
#
# Convention : Reuss Voigt Hill
#
# Bulk Modulus (GPa) = 31.12865 46.22715 38.67790
# Shear Modulus (GPa) = 13.03631 16.76790 14.90211
#
# Velocity S-wave (km/s) = 2.62036 2.97183 2.80161
# Velocity P-wave (km/s) = 5.05477 6.01030 5.55313
#
# Compressibility (1/GPa) = 0.03212474
#
# Stress axis : x y z
#
# Youngs Moduli (GPa) = 32.01182 70.58093 53.72922
#
# Poissons Ratio (x) = 0.34845 0.11919
# Poissons Ratio (y) = 0.15804 0.47237
# Poissons Ratio (z) = 0.07101 0.62053
#
# Static dielectric constant tensor:
#      x y z
#    x 1.675980 0.000000 0.000000 
#    y 0.000000 1.768350 0.000000 
#    z 0.000000 0.000000 1.655920 
# 
# From -- ./inp_files/15698.got.cif
#   From: 2010.05.17/outbox.cif.g08.bks.cpg/sg35_8_cif.got.tgz:15698.got - 2010.06.03 17:29:28.
