data_PCOD9349643
_publ_section_title
;
Structure prediction by ZEFSAII (Michael W. Deem and Ramdas Pophale) SiO2 
 PCOD9349643
Probable space group: C M M 2
;
_chemical_formula_sum "Si O2"
_cell_formula_units_Z 48
_cell_length_a 8.898405
_cell_length_b 15.745039
_cell_length_c 17.648178
_cell_angle_alpha 90.000000
_cell_angle_beta 90.000000
_cell_angle_gamma 90.000000
_cell_volume 2472.610928
_symmetry_space_group_name_H-M "C M M 2"
_symmetry_group_IT_number 35
_symmetry_cell_setting 'orthorhombic'
loop_
_space_group_symop_operation_xyz
x,y,z
-x,-y,z
-x,y,z
x,-y,z
1/2+x,1/2+y,z
1/2-x,1/2-y,z
1/2-x,1/2+y,z
1/2+x,1/2-y,z
loop_
_atom_site_type_symbol
_atom_site_label
_atom_site_fract_x
_atom_site_fract_y
_atom_site_fract_z
Si Si1 0.320994 0.163860 0.043900
Si Si2 0.679770 0.500000 0.776808
Si Si3 0.318512 0.845318 0.682681
Si Si4 0.319965 0.000000 0.941787
Si Si5 0.821836 0.657515 0.511965
Si Si6 0.668401 0.399460 0.361721
Si Si7 0.681750 0.600155 0.197478
O O1 0.500000 0.171755 0.048842
O O2 0.250000 0.250000 0.012426
O O3 0.254063 0.147779 0.127260
O O4 0.285248 0.083077 0.991624
O O5 0.500000 0.500000 0.768803
O O6 0.748822 0.415476 0.737927
O O7 0.729503 0.500000 0.864151
O O8 0.500000 0.840970 0.691178
O O9 0.250000 0.750000 0.692322
O O10 0.284103 0.875582 0.596135
O O11 0.500000 0.000000 0.926131
O O12 0.750000 0.750000 0.508797
O O13 0.761567 0.611865 0.437593
O O14 0.000000 0.662431 0.507872
O O15 0.500000 0.364020 0.373680
O O16 0.654295 0.500000 0.349121
O O17 0.730441 0.367441 0.280990
O O18 0.500000 0.606709 0.195313
O O19 0.720684 0.500000 0.189406
#
# Coordination Sequence:
#
# PCOD9349643 Si02
#       7
#     8   4   8   4   8   8   8
#     4  11  23  40  64  93 122 159 202 246 301 359
#     4  12  26  42  68  99 124 163 204 241 308 377
#     4  10  22  42  65  92 128 164 206 258 308 364
#     4  10  24  46  66  89 126 159 194 251 304 359
#     4  10  21  36  56  81 113 155 199 247 300 350
#     4   9  19  34  53  81 116 156 199 246 297 347
#     4   9  18  35  58  83 117 159 202 251 303 353
#
# _framework density 19.412679000000001
#
# number of rings (size 3 to 8) (size 9 to 14) (size 15 to 20)
#    0.000    2.000    0.833    3.250    1.167    5.667 
#    0.000    3.333    0.000    0.000    0.000    0.000 
#    0.000    0.000    0.000    0.000    0.000    0.000 
#
# Total GULP energy -133947.226731 kJ/mol
# GULP energy per Si atom -5581.134447 kJ/mol
# Density = 1.936850 g / cm^3
# Si number density = 19.412679 Si / 1000 Ang^3
#
#
#
# Elastic Constant Matrix: (Units=GPa)
#
#
# Indices 1 2 3 4 5 6 
#
# 1 69.5015 46.6622 67.6385 0.0000 0.0000 0.0000
# 2 46.6622 102.1127 63.3058 0.0000 0.0000 0.0000
# 3 67.6385 63.3058 143.8070 0.0000 0.0000 0.0000
# 4 0.0000 0.0000 0.0000 -30.5336 0.0000 0.0000
# 5 0.0000 0.0000 0.0000 0.0000 34.7924 0.0000
# 6 0.0000 0.0000 0.0000 0.0000 0.0000 28.0828
#
#
#
# Elastic Compliance Matrix: (Units=1/GPa)
#
#
# Indices 1 2 3 4 5 6 
#
# 1 0.029544 -0.006720 -0.010938 0.000000 0.000000 0.000000
# 2 -0.006720 0.014997 -0.003441 0.000000 0.000000 0.000000
# 3 -0.010938 -0.003441 0.013613 0.000000 0.000000 0.000000
# 4 0.000000 0.000000 0.000000 -0.032751 0.000000 0.000000
# 5 0.000000 0.000000 0.000000 0.000000 0.028742 0.000000
# 6 0.000000 0.000000 0.000000 0.000000 0.000000 0.035609
#
#
# Mechanical properties :
#
#
# Convention : Reuss Voigt Hill
#
# Bulk Modulus (GPa) = 62.66893 74.51492 68.59193
# Shear Modulus (GPa) = 36.42397 15.65597 26.03997
#
# Velocity S-wave (km/s) = 4.33632 2.84294 3.66647
# Velocity P-wave (km/s) = 7.57787 7.01744 7.30303
#
# Compressibility (1/GPa) = 0.01595687
#
# Stress axis : x y z
#
# Youngs Moduli (GPa) = 33.84738 66.67817 73.45784
#
# Poissons Ratio (x) = 0.44807 0.80347
# Poissons Ratio (y) = 0.22745 0.25280
# Poissons Ratio (z) = 0.37022 0.22947
#
# Static dielectric constant tensor:
#      x y z
#    x 1.649860 0.000000 0.000000 
#    y 0.000000 1.680720 0.000000 
#    z 0.000000 0.000000 1.699160 
# 
# From -- ./inp_files/15249.got.cif
#   From: 2010.05.17/outbox.cif.g08.bks.cpg/sg35_8_cif.got.tgz:15249.got - 2010.06.03 17:29:28.
