data_PCOD9349150
_publ_section_title
;
Structure prediction by ZEFSAII (Michael W. Deem and Ramdas Pophale) SiO2 
 PCOD9349150
Probable space group: C M M 2
;
_chemical_formula_sum "Si O2"
_cell_formula_units_Z 48
_cell_length_a 15.751200
_cell_length_b 8.881782
_cell_length_c 17.942543
_cell_angle_alpha 90.000000
_cell_angle_beta 90.000000
_cell_angle_gamma 90.000000
_cell_volume 2510.138882
_symmetry_space_group_name_H-M "C M M 2"
_symmetry_group_IT_number 35
_symmetry_cell_setting 'orthorhombic'
loop_
_space_group_symop_operation_xyz
x,y,z
-x,-y,z
-x,y,z
x,-y,z
1/2+x,1/2+y,z
1/2-x,1/2-y,z
1/2-x,1/2+y,z
1/2+x,1/2-y,z
loop_
_atom_site_type_symbol
_atom_site_label
_atom_site_fract_x
_atom_site_fract_y
_atom_site_fract_z
Si Si1 0.843287 0.181687 0.494550
Si Si2 0.603170 0.826877 0.805772
Si Si3 0.155511 0.182126 0.329154
Si Si4 0.000000 0.183744 0.225592
Si Si5 0.398951 0.670811 0.655862
Si Si6 0.839145 0.179474 0.956838
Si Si7 0.000000 0.816382 0.054249
O O1 0.750000 0.250000 0.495355
O O2 0.877910 0.222285 0.412656
O O3 0.884295 0.231048 0.572417
O O4 0.842555 0.000000 0.496562
O O5 0.500000 0.817764 0.808695
O O6 0.632463 0.769751 0.724681
O O7 0.639838 0.728445 0.872540
O O8 0.627620 0.000000 0.816936
O O9 0.250000 0.250000 0.318956
O O10 0.085309 0.230668 0.269219
O O11 0.163102 0.000000 0.326008
O O12 0.000000 0.233006 0.139879
O O13 0.000000 0.000000 0.226560
O O14 0.500000 0.661134 0.664905
O O15 0.364367 0.500000 0.661260
O O16 0.750000 0.250000 0.979796
O O17 0.834236 0.000000 0.960725
O O18 0.916404 0.231916 0.009343
O O19 0.000000 0.000000 0.054027
#
# Coordination Sequence:
#
# PCOD9349150 Si02
#       7
#     8   8   8   4   8   8   4
#     4   9  18  31  48  72 102 139 178 222 268 315
#     4  10  20  35  55  79 110 145 185 231 279 328
#     4   9  18  33  55  81 112 145 183 227 272 322
#     4   9  18  34  59  86 109 144 184 221 271 331
#     4   9  18  31  49  73 103 140 184 227 268 315
#     4  11  22  38  60  85 112 147 187 227 277 334
#     4   9  20  38  59  84 115 144 178 225 277 333
#
# _framework density 19.122447000000001
#
# number of rings (size 3 to 8) (size 9 to 14) (size 15 to 20)
#    0.000    2.500    0.833    1.000    1.167    2.667 
#    0.000    2.083    0.000    3.000    0.000    0.000 
#    0.000    0.000    0.000    0.000    0.000    0.000 
#
# Total GULP energy -133807.613272 kJ/mol
# GULP energy per Si atom -5575.317220 kJ/mol
# Density = 1.907892 g / cm^3
# Si number density = 19.122447 Si / 1000 Ang^3
#
#
#
# Elastic Constant Matrix: (Units=GPa)
#
#
# Indices 1 2 3 4 5 6 
#
# 1 91.0631 29.2562 73.7722 0.0000 0.0000 0.0000
# 2 29.2562 29.9488 32.5558 0.0000 0.0000 0.0000
# 3 73.7722 32.5558 169.2572 0.0000 0.0000 0.0000
# 4 0.0000 0.0000 0.0000 7.9904 0.0000 0.0000
# 5 0.0000 0.0000 0.0000 0.0000 -19.5496 0.0000
# 6 0.0000 0.0000 0.0000 0.0000 0.0000 24.3362
#
#
#
# Elastic Compliance Matrix: (Units=1/GPa)
#
#
# Indices 1 2 3 4 5 6 
#
# 1 0.020273 -0.012895 -0.006356 0.000000 0.000000 0.000000
# 2 -0.012895 0.050420 -0.004077 0.000000 0.000000 0.000000
# 3 -0.006356 -0.004077 0.009463 0.000000 0.000000 0.000000
# 4 0.000000 0.000000 0.000000 0.125151 0.000000 0.000000
# 5 0.000000 0.000000 0.000000 0.000000 -0.051152 0.000000
# 6 0.000000 0.000000 0.000000 0.000000 0.000000 0.041091
#
#
# Mechanical properties :
#
#
# Convention : Reuss Voigt Hill
#
# Bulk Modulus (GPa) = 29.85217 62.38193 46.11705
# Shear Modulus (GPa) = 19.75743 12.86774 16.31259
#
# Velocity S-wave (km/s) = 3.21784 2.59687 2.92389
# Velocity P-wave (km/s) = 5.42687 6.45638 5.96388
#
# Compressibility (1/GPa) = 0.03349841
#
# Stress axis : x y z
#
# Youngs Moduli (GPa) = 49.32556 19.83350 105.67734
#
# Poissons Ratio (x) = 0.25576 0.67169
# Poissons Ratio (y) = 0.63607 0.43089
# Poissons Ratio (z) = 0.31351 0.08087
#
# Static dielectric constant tensor:
#      x y z
#    x 1.658480 0.000000 0.000000 
#    y 0.000000 1.650520 0.000000 
#    z 0.000000 0.000000 1.680800 
# 
# From -- ./inp_files/15191.got.cif
#   From: 2010.05.17/outbox.cif.g08.bks.cpg/sg35_8_cif.got.tgz:15191.got - 2010.06.03 17:29:28.
