data_PCOD9349696
_publ_section_title
;
Structure prediction by ZEFSAII (Michael W. Deem and Ramdas Pophale) SiO2 
 PCOD9349696
Probable space group: C M M 2
;
_chemical_formula_sum "Si O2"
_cell_formula_units_Z 48
_cell_length_a 10.454759
_cell_length_b 15.373131
_cell_length_c 14.119227
_cell_angle_alpha 90.000000
_cell_angle_beta 90.000000
_cell_angle_gamma 90.000000
_cell_volume 2269.275763
_symmetry_space_group_name_H-M "C M M 2"
_symmetry_group_IT_number 35
_symmetry_cell_setting 'orthorhombic'
loop_
_space_group_symop_operation_xyz
x,y,z
-x,-y,z
-x,y,z
x,-y,z
1/2+x,1/2+y,z
1/2-x,1/2-y,z
1/2-x,1/2+y,z
1/2+x,1/2-y,z
loop_
_atom_site_type_symbol
_atom_site_label
_atom_site_fract_x
_atom_site_fract_y
_atom_site_fract_z
Si Si1 0.731190 0.106233 0.028810
Si Si2 0.232866 0.150000 0.468986
Si Si3 0.000000 0.601750 0.375778
Si Si4 0.145418 0.606685 0.818738
Si Si5 0.000000 0.105092 0.332875
Si Si6 0.000000 0.393228 0.163455
Si Si7 0.357751 0.398295 0.673644
Si Si8 0.500000 0.606416 0.112593
O O1 0.625629 0.133296 0.105563
O O2 0.871554 0.135581 0.060027
O O3 0.732280 0.000000 0.028710
O O4 0.689653 0.132936 0.923823
O O5 0.250000 0.250000 0.493227
O O6 0.370871 0.121215 0.431897
O O7 0.125828 0.136885 0.388299
O O8 0.184959 0.105174 0.564587
O O9 0.000000 0.500000 0.359266
O O10 0.000000 0.641773 0.270405
O O11 0.143418 0.500000 0.817097
O O12 0.247431 0.638003 0.741355
O O13 0.000000 0.635033 0.800132
O O14 0.000000 0.131626 0.223036
O O15 0.000000 0.000000 0.336550
O O16 0.000000 0.500000 0.163772
O O17 0.500000 0.359282 0.683973
O O18 0.367966 0.500000 0.699567
O O19 0.500000 0.500000 0.111397
#
# Coordination Sequence:
#
# PCOD9349696 Si02
#       8
#     8   8   4   8   4   4   8   4
#     4   9  15  26  44  74 117 151 177 227 291 343
#     4  12  25  41  60  86 119 156 200 247 304 355
#     4  11  23  37  60  91 118 152 199 247 288 347
#     4   9  17  29  48  78 116 152 184 232 295 349
#     4  11  21  41  64  85 120 164 203 243 294 351
#     4   9  16  29  48  75 112 148 181 225 290 343
#     4  10  21  37  58  82 113 154 197 240 292 354
#     4   9  18  27  48  81 112 150 193 233 280 341
#
# _framework density 21.152124000000001
#
# number of rings (size 3 to 8) (size 9 to 14) (size 15 to 20)
#    0.000    2.000    1.667    3.000    2.333    2.667 
#    0.000    0.000    0.000    0.000    0.000    7.000 
#    0.000    0.000    0.000    0.000    0.000    0.000 
#
# Total GULP energy -134089.531368 kJ/mol
# GULP energy per Si atom -5587.063807 kJ/mol
# Density = 2.110398 g / cm^3
# Si number density = 21.152124 Si / 1000 Ang^3
#
#
#
# Elastic Constant Matrix: (Units=GPa)
#
#
# Indices 1 2 3 4 5 6 
#
# 1 250.9828 -0.8578 110.5057 0.0000 0.0000 0.0000
# 2 -0.8578 25.9174 -10.3021 0.0000 0.0000 0.0000
# 3 110.5057 -10.3021 137.1651 0.0000 0.0000 0.0000
# 4 0.0000 0.0000 0.0000 -15.1074 0.0000 0.0000
# 5 0.0000 0.0000 0.0000 0.0000 67.7776 0.0000
# 6 0.0000 0.0000 0.0000 0.0000 0.0000 9.9819
#
#
#
# Elastic Compliance Matrix: (Units=1/GPa)
#
#
# Indices 1 2 3 4 5 6 
#
# 1 0.006260 -0.001853 -0.005182 0.000000 0.000000 0.000000
# 2 -0.001853 0.040320 0.004521 0.000000 0.000000 0.000000
# 3 -0.005182 0.004521 0.011805 0.000000 0.000000 0.000000
# 4 0.000000 0.000000 0.000000 -0.066193 0.000000 0.000000
# 5 0.000000 0.000000 0.000000 0.000000 0.014754 0.000000
# 6 0.000000 0.000000 0.000000 0.000000 0.000000 0.100182
#
#
# Mechanical properties :
#
#
# Convention : Reuss Voigt Hill
#
# Bulk Modulus (GPa) = 18.74182 68.08411 43.41296
# Shear Modulus (GPa) = 38.47896 33.51171 35.99533
#
# Velocity S-wave (km/s) = 4.26978 3.98467 4.12969
# Velocity P-wave (km/s) = 5.76088 7.30943 6.58087
#
# Compressibility (1/GPa) = 0.05335662
#
# Stress axis : x y z
#
# Youngs Moduli (GPa) = 159.75222 24.80167 84.70952
#
# Poissons Ratio (x) = 0.04595 0.43898
# Poissons Ratio (y) = 0.29598 -0.38297
# Poissons Ratio (z) = 0.82787 -0.11213
#
# Static dielectric constant tensor:
#      x y z
#    x 1.754840 0.000000 0.000000 
#    y 0.000000 1.761420 0.000000 
#    z 0.000000 0.000000 1.729960 
# 
# From -- ./inp_files/15296.got.cif
#   From: 2010.05.17/outbox.cif.g08.bks.cpg/sg35_8_cif.got.tgz:15296.got - 2010.06.03 17:29:28.
