data_PCOD9349823
_publ_section_title
;
Structure prediction by ZEFSAII (Michael W. Deem and Ramdas Pophale) SiO2 
 PCOD9349823
Probable space group: C M M 2
;
_chemical_formula_sum "Si O2"
_cell_formula_units_Z 40
_cell_length_a 14.869744
_cell_length_b 16.234201
_cell_length_c 7.849710
_cell_angle_alpha 90.000000
_cell_angle_beta 90.000000
_cell_angle_gamma 90.000000
_cell_volume 1894.907536
_symmetry_space_group_name_H-M "C M M 2"
_symmetry_group_IT_number 35
_symmetry_cell_setting 'orthorhombic'
loop_
_space_group_symop_operation_xyz
x,y,z
-x,-y,z
-x,y,z
x,-y,z
1/2+x,1/2+y,z
1/2-x,1/2-y,z
1/2-x,1/2+y,z
1/2+x,1/2-y,z
loop_
_atom_site_type_symbol
_atom_site_label
_atom_site_fract_x
_atom_site_fract_y
_atom_site_fract_z
Si Si1 0.896845 0.350670 0.041340
Si Si2 0.729508 0.905266 0.743599
Si Si3 0.098108 0.096445 0.269244
Si Si4 0.706200 0.900252 0.372525
Si Si5 0.599505 0.665193 0.900957
O O1 0.854726 0.360605 0.227711
O O2 0.000000 0.378929 0.039923
O O3 0.835541 0.397613 0.904762
O O4 0.894390 0.256087 0.980466
O O5 0.681133 0.881934 0.567359
O O6 0.817998 0.851870 0.777958
O O7 0.759042 0.000000 0.724437
O O8 0.190383 0.128856 0.348123
O O9 0.000000 0.133467 0.314485
O O10 0.094991 0.000000 0.313034
O O11 0.107417 0.105774 0.065118
O O12 0.702845 0.000000 0.346744
O O13 0.500000 0.654163 0.824444
#
# Coordination Sequence:
#
# PCOD9349823 Si02
#       5
#     8   8   8   8   8
#     4  11  24  43  62  86 125 167 210 256 305 361
#     4  11  23  40  64  94 124 158 207 259 310 369
#     4   9  17  33  59  89 120 155 196 241 297 365
#     4  10  22  39  63  92 121 162 211 258 309 362
#     4  10  21  39  62  91 125 161 197 243 310 377
#
# _framework density 21.109210000000001
#
# number of rings (size 3 to 8) (size 9 to 14) (size 15 to 20)
#    0.000    1.800    2.000    1.800    0.000    4.400 
#    7.200    4.000    0.000    0.000    0.000    0.000 
#    0.000    0.000    0.000    0.000    0.000    0.000 
#
# Total GULP energy -111705.146470 kJ/mol
# GULP energy per Si atom -5585.257324 kJ/mol
# Density = 2.106116 g / cm^3
# Si number density = 21.109210 Si / 1000 Ang^3
#
#
#
# Elastic Constant Matrix: (Units=GPa)
#
#
# Indices 1 2 3 4 5 6 
#
# 1 111.4423 23.6525 45.4030 0.0000 0.0000 0.0000
# 2 23.6525 32.7590 14.2233 0.0000 0.0000 0.0000
# 3 45.4030 14.2233 111.8753 0.0000 0.0000 0.0000
# 4 0.0000 0.0000 0.0000 11.5829 0.0000 0.0000
# 5 0.0000 0.0000 0.0000 0.0000 -3.7959 0.0000
# 6 0.0000 0.0000 0.0000 0.0000 0.0000 -9.8500
#
#
#
# Elastic Compliance Matrix: (Units=1/GPa)
#
#
# Indices 1 2 3 4 5 6 
#
# 1 0.012094 -0.006987 -0.004020 0.000000 0.000000 0.000000
# 2 -0.006987 0.036346 -0.001785 0.000000 0.000000 0.000000
# 3 -0.004020 -0.001785 0.010797 0.000000 0.000000 0.000000
# 4 0.000000 0.000000 0.000000 0.086334 0.000000 0.000000
# 5 0.000000 0.000000 0.000000 0.000000 -0.263443 0.000000
# 6 0.000000 0.000000 0.000000 0.000000 0.000000 -0.101523
#
#
# Mechanical properties :
#
#
# Convention : Reuss Voigt Hill
#
# Bulk Modulus (GPa) = 29.71535 46.95933 38.33734
# Shear Modulus (GPa) = -27.38317 11.10726 -8.13795
#
# Velocity S-wave (km/s) = -3.60559 2.29635 -1.96559
# Velocity P-wave (km/s) = 1.79617 5.41527 3.61241
#
# Compressibility (1/GPa) = 0.03365264
#
# Stress axis : x y z
#
# Youngs Moduli (GPa) = 82.68680 27.51367 92.61911
#
# Poissons Ratio (x) = 0.19223 0.37232
# Poissons Ratio (y) = 0.57770 0.16536
# Poissons Ratio (z) = 0.33239 0.04912
#
# Static dielectric constant tensor:
#      x y z
#    x 1.765950 0.000000 0.000000 
#    y 0.000000 1.792190 0.000000 
#    z 0.000000 0.000000 1.745600 
# 
# From -- ./inp_files/6987.got.cif
#   From: 2010.05.17/outbox.cif.g08.bks.cpg/sg35_4_cif.got.tgz:6987.got - 2010.06.03 17:29:28.
