data_PCOD9349884
_publ_section_title
;
Structure prediction by ZEFSAII (Michael W. Deem and Ramdas Pophale) SiO2 
 PCOD9349884
Probable space group: C M M 2
;
_chemical_formula_sum "Si O2"
_cell_formula_units_Z 58
_cell_length_a 20.157259
_cell_length_b 25.205885
_cell_length_c 5.129128
_cell_angle_alpha 90.000000
_cell_angle_beta 90.000000
_cell_angle_gamma 90.000000
_cell_volume 2606.015316
_symmetry_space_group_name_H-M "C M M 2"
_symmetry_group_IT_number 35
_symmetry_cell_setting 'orthorhombic'
loop_
_space_group_symop_operation_xyz
x,y,z
-x,-y,z
-x,y,z
x,-y,z
1/2+x,1/2+y,z
1/2-x,1/2-y,z
1/2-x,1/2+y,z
1/2+x,1/2-y,z
loop_
_atom_site_type_symbol
_atom_site_label
_atom_site_fract_x
_atom_site_fract_y
_atom_site_fract_z
Si Si1 0.572161 0.700843 0.695740
Si Si2 0.197627 0.615191 0.799976
Si Si3 0.922327 0.904830 0.381642
Si Si4 0.321710 0.765788 0.936235
Si Si5 0.660300 0.438093 0.878090
Si Si6 0.384541 0.088588 0.322773
Si Si7 0.000000 0.500000 0.293434
Si Si8 0.568934 0.200906 0.334576
O O1 0.500000 0.688414 0.828124
O O2 0.579646 0.656713 0.473010
O O3 0.641073 0.711849 0.841080
O O4 0.566224 0.758671 0.569326
O O5 0.190470 0.679770 0.766519
O O6 0.272554 0.596148 0.852852
O O7 0.170758 0.583436 0.547681
O O8 0.152169 0.598985 0.047971
O O9 0.882506 0.933748 0.613120
O O10 0.000000 0.920380 0.368180
O O11 0.885572 0.915691 0.111010
O O12 0.250000 0.750000 0.034077
O O13 0.369238 0.784599 0.162809
O O14 0.676208 0.500000 0.928768
O O15 0.422943 0.141100 0.416378
O O16 0.440753 0.045043 0.296162
O O17 0.500000 0.206874 0.180812
#
# Coordination Sequence:
#
# PCOD9349884 Si02
#       8
#     8   8   8   8   8   8   2   8
#     4  10  22  40  67  96 138 180 222 284 355 426
#     4  11  26  46  68 101 145 185 237 289 354 432
#     4  11  26  46  74 110 141 181 240 299 360 435
#     4  11  23  38  65  98 136 183 227 285 347 425
#     4  12  27  48  74 102 142 193 237 298 363 425
#     4  11  25  45  69 103 136 188 239 299 353 410
#     4  12  28  46  80 106 140 190 250 322 334 422
#     4  10  21  42  62  95 135 182 227 281 357 421
#
# _framework density 22.256201000000001
#
# number of rings (size 3 to 8) (size 9 to 14) (size 15 to 20)
#    0.000    1.103    2.069    2.897    5.793    3.310 
#    1.241    0.000    0.000    0.000    0.000    0.000 
#    0.000    0.000    0.000    0.000    0.000    0.000 
#
# Total GULP energy -161615.607589 kJ/mol
# GULP energy per Si atom -5572.951986 kJ/mol
# Density = 2.220554 g / cm^3
# Si number density = 22.256201 Si / 1000 Ang^3
#
#
#
# Elastic Constant Matrix: (Units=GPa)
#
#
# Indices 1 2 3 4 5 6 
#
# 1 184.5001 31.9632 28.1081 0.0000 0.0000 0.0000
# 2 31.9632 82.1314 -1.8393 0.0000 0.0000 0.0000
# 3 28.1081 -1.8393 62.8576 0.0000 0.0000 0.0000
# 4 0.0000 0.0000 0.0000 963.8753 0.0000 0.0000
# 5 0.0000 0.0000 0.0000 0.0000 26.3383 0.0000
# 6 0.0000 0.0000 0.0000 0.0000 0.0000 29.4155
#
#
#
# Elastic Compliance Matrix: (Units=1/GPa)
#
#
# Indices 1 2 3 4 5 6 
#
# 1 0.006296 -0.002515 -0.002889 0.000000 0.000000 0.000000
# 2 -0.002515 0.013188 0.001510 0.000000 0.000000 0.000000
# 3 -0.002889 0.001510 0.017245 0.000000 0.000000 0.000000
# 4 0.000000 0.000000 0.000000 0.001037 0.000000 0.000000
# 5 0.000000 0.000000 0.000000 0.000000 0.037968 0.000000
# 6 0.000000 0.000000 0.000000 0.000000 0.000000 0.033996
#
#
# Mechanical properties :
#
#
# Convention : Reuss Voigt Hill
#
# Bulk Modulus (GPa) = 34.55139 49.55035 42.05087
# Shear Modulus (GPa) = 39.31940 222.00964 130.66452
#
# Velocity S-wave (km/s) = 4.20774 9.99842 7.67051
# Velocity P-wave (km/s) = 6.25818 12.47410 9.86833
#
# Compressibility (1/GPa) = 0.02894240
#
# Stress axis : x y z
#
# Youngs Moduli (GPa) = 158.83489 75.82566 57.98783
#
# Poissons Ratio (x) = 0.19069 0.16752
# Poissons Ratio (y) = 0.39945 -0.08759
# Poissons Ratio (z) = 0.45886 -0.11453
#
# Static dielectric constant tensor:
#      x y z
#    x 1.882150 0.000000 0.000000 
#    y 0.000000 1.844470 0.000000 
#    z 0.000000 0.000000 1.825490 
# 
# From -- ./inp_files/2672.got.cif
#   From: 2010.05.17/outbox.cif.g08.bks.cpg/sg35_2_cif.got.tgz:2672.got - 2010.06.03 17:29:28.
