data_PCOD9349237
_publ_section_title
;
Structure prediction by ZEFSAII (Michael W. Deem and Ramdas Pophale) SiO2 
 PCOD9349237
Probable space group: C M M 2
;
_chemical_formula_sum "Si O2"
_cell_formula_units_Z 64
_cell_length_a 14.255669
_cell_length_b 19.793779
_cell_length_c 11.408949
_cell_angle_alpha 90.000000
_cell_angle_beta 90.000000
_cell_angle_gamma 90.000000
_cell_volume 3219.303774
_symmetry_space_group_name_H-M "C M M 2"
_symmetry_group_IT_number 35
_symmetry_cell_setting 'orthorhombic'
loop_
_space_group_symop_operation_xyz
x,y,z
-x,-y,z
-x,y,z
x,-y,z
1/2+x,1/2+y,z
1/2-x,1/2-y,z
1/2-x,1/2+y,z
1/2+x,1/2-y,z
loop_
_atom_site_type_symbol
_atom_site_label
_atom_site_fract_x
_atom_site_fract_y
_atom_site_fract_z
Si Si1 0.386172 0.923803 0.536900
Si Si2 0.247107 0.921208 0.138888
Si Si3 0.104574 0.631945 0.785214
Si Si4 0.113278 0.659572 0.303031
Si Si5 0.113085 0.215339 0.453545
Si Si6 0.267411 0.329915 0.929889
Si Si7 0.894017 0.787858 0.717835
Si Si8 0.889333 0.928146 0.357441
O O1 0.500000 0.921538 0.543469
O O2 0.355549 0.897659 0.663873
O O3 0.363480 0.881467 0.422206
O O4 0.355278 0.000000 0.519064
O O5 0.331979 0.876734 0.196958
O O6 0.170887 0.927292 0.241066
O O7 0.272561 0.000000 0.107672
O O8 0.199893 0.874929 0.038235
O O9 0.173959 0.628844 0.893233
O O10 0.097605 0.712113 0.765912
O O11 0.000000 0.604263 0.805858
O O12 0.141422 0.735031 0.347104
O O13 0.000000 0.657617 0.282795
O O14 0.145812 0.224054 0.587253
O O15 0.135721 0.138376 0.427232
O O16 0.000000 0.225771 0.459833
O O17 0.250000 0.250000 0.960157
O O18 0.331358 0.326860 0.812719
O O19 0.000000 0.816789 0.709399
O O20 0.000000 0.923629 0.331103
O O21 0.873213 0.000000 0.419643
#
# Coordination Sequence:
#
# PCOD9349237 Si02
#       8
#     8   8   8   8   8   8   8   8
#     4   9  16  28  50  80 113 147 182 221 274 343
#     4  11  25  41  56  80 116 159 202 242 282 337
#     4   9  17  33  52  75 111 147 183 231 283 336
#     4  10  20  35  57  87 121 154 190 234 288 350
#     4   9  17  33  61  91 116 144 184 235 299 363
#     4  10  23  38  55  80 109 147 200 238 279 332
#     4   9  17  35  59  84 112 140 179 240 297 342
#     4   9  20  39  59  81 112 147 186 240 301 352
#
# _framework density 19.880075000000001
#
# number of rings (size 3 to 8) (size 9 to 14) (size 15 to 20)
#    0.000    2.500    1.250    0.375    1.750    3.250 
#    2.250    0.625    0.000    0.750    0.000    0.000 
#    0.000    0.000    0.000    0.000    0.000    0.000 
#
# Total GULP energy -178183.027084 kJ/mol
# GULP energy per Si atom -5568.219596 kJ/mol
# Density = 1.983483 g / cm^3
# Si number density = 19.880075 Si / 1000 Ang^3
#
#
#
# Elastic Constant Matrix: (Units=GPa)
#
#
# Indices 1 2 3 4 5 6 
#
# 1 42.0175 10.6153 -5.0515 0.0000 0.0000 0.0000
# 2 10.6153 77.6321 6.0941 0.0000 0.0000 0.0000
# 3 -5.0515 6.0941 17.4128 0.0000 0.0000 0.0000
# 4 0.0000 0.0000 0.0000 22.0838 0.0000 0.0000
# 5 0.0000 0.0000 0.0000 0.0000 28.3397 0.0000
# 6 0.0000 0.0000 0.0000 0.0000 0.0000 -11.7195
#
#
#
# Elastic Compliance Matrix: (Units=1/GPa)
#
#
# Indices 1 2 3 4 5 6 
#
# 1 0.025960 -0.004258 0.009021 0.000000 0.000000 0.000000
# 2 -0.004258 0.013944 -0.006115 0.000000 0.000000 0.000000
# 3 0.009021 -0.006115 0.062186 0.000000 0.000000 0.000000
# 4 0.000000 0.000000 0.000000 0.045282 0.000000 0.000000
# 5 0.000000 0.000000 0.000000 0.000000 0.035286 0.000000
# 6 0.000000 0.000000 0.000000 0.000000 0.000000 -0.085328
#
#
# Mechanical properties :
#
#
# Convention : Reuss Voigt Hill
#
# Bulk Modulus (GPa) = 10.06179 17.81981 13.94080
# Shear Modulus (GPa) = 37.54815 16.10110 26.82463
#
# Velocity S-wave (km/s) = 4.35067 2.84898 3.67730
# Velocity P-wave (km/s) = 5.50545 4.45032 5.00577
#
# Compressibility (1/GPa) = 0.09938592
#
# Stress axis : x y z
#
# Youngs Moduli (GPa) = 38.52097 71.71788 16.08076
#
# Poissons Ratio (x) = 0.30537 -0.14507
# Poissons Ratio (y) = 0.16402 0.09834
# Poissons Ratio (z) = -0.34751 0.43857
#
# Static dielectric constant tensor:
#      x y z
#    x 1.787190 0.000000 0.000000 
#    y 0.000000 1.726940 0.000000 
#    z 0.000000 0.000000 1.683210 
# 
# From -- ./inp_files/13232.got.cif
#   From: 2010.05.17/outbox.cif.g08.bks.cpg/sg35_7_cif.got.tgz:13232.got - 2010.06.03 17:29:28.
