data_PCOD9349272
_publ_section_title
;
Structure prediction by ZEFSAII (Michael W. Deem and Ramdas Pophale) SiO2 
 PCOD9349272
Probable space group: C M M 2
;
_chemical_formula_sum "Si O2"
_cell_formula_units_Z 48
_cell_length_a 28.770530
_cell_length_b 8.571329
_cell_length_c 10.386840
_cell_angle_alpha 90.000000
_cell_angle_beta 90.000000
_cell_angle_gamma 90.000000
_cell_volume 2561.412175
_symmetry_space_group_name_H-M "C M M 2"
_symmetry_group_IT_number 35
_symmetry_cell_setting 'orthorhombic'
loop_
_space_group_symop_operation_xyz
x,y,z
-x,-y,z
-x,y,z
x,-y,z
1/2+x,1/2+y,z
1/2-x,1/2-y,z
1/2-x,1/2+y,z
1/2+x,1/2-y,z
loop_
_atom_site_type_symbol
_atom_site_label
_atom_site_fract_x
_atom_site_fract_y
_atom_site_fract_z
Si Si1 0.053203 0.185974 0.656370
Si Si2 0.197737 0.185400 0.990478
Si Si3 0.146690 0.684391 0.739590
Si Si4 0.947400 0.312618 0.368372
Si Si5 0.353248 0.813611 0.239587
Si Si6 0.198119 0.814378 0.490679
O O1 0.092413 0.270550 0.739185
O O2 0.060393 0.232878 0.506710
O O3 0.000000 0.229400 0.688848
O O4 0.058137 0.000000 0.668888
O O5 0.250000 0.250000 0.002439
O O6 0.168994 0.229512 0.117760
O O7 0.199474 0.000000 0.974001
O O8 0.172668 0.261529 0.867774
O O9 0.152080 0.500000 0.721696
O O10 0.169216 0.771245 0.617608
O O11 0.944459 0.500000 0.388417
O O12 0.906734 0.269775 0.269853
O O13 0.000000 0.275438 0.325975
O O14 0.324982 0.766727 0.367242
O O15 0.350532 0.000000 0.220408
O O16 0.250000 0.750000 0.506742
O O17 0.198681 0.000000 0.472165
#
# Coordination Sequence:
#
# PCOD9349272 Si02
#       6
#     8   8   8   8   8   8
#     4  10  20  35  59  92 127 161 201 250 305 361
#     4  12  26  45  65  87 120 163 207 255 311 373
#     4  12  24  41  63  90 122 160 205 253 306 367
#     4   9  18  34  59  90 124 161 201 247 300 359
#     4  11  22  39  62  91 124 161 205 252 303 364
#     4  12  24  39  60  88 121 156 201 255 308 362
#
# _framework density 18.739663
#
# number of rings (size 3 to 8) (size 9 to 14) (size 15 to 20)
#    0.000    1.000    1.667    6.500    0.000    1.667 
#    0.000    0.833    0.000    3.000    0.000    0.000 
#    0.000    0.000    0.000    0.000    0.000    0.000 
#
# Total GULP energy -134229.922041 kJ/mol
# GULP energy per Si atom -5592.913418 kJ/mol
# Density = 1.869701 g / cm^3
# Si number density = 18.739663 Si / 1000 Ang^3
#
#
#
# Elastic Constant Matrix: (Units=GPa)
#
#
# Indices 1 2 3 4 5 6 
#
# 1 126.5746 20.8403 22.7573 0.0000 0.0000 0.0000
# 2 20.8403 52.1531 -15.4021 0.0000 0.0000 0.0000
# 3 22.7573 -15.4021 57.4090 0.0000 0.0000 0.0000
# 4 0.0000 0.0000 0.0000 34.1773 0.0000 0.0000
# 5 0.0000 0.0000 0.0000 0.0000 30.3676 0.0000
# 6 0.0000 0.0000 0.0000 0.0000 0.0000 47.9620
#
#
#
# Elastic Compliance Matrix: (Units=1/GPa)
#
#
# Indices 1 2 3 4 5 6 
#
# 1 0.009762 -0.005478 -0.005340 0.000000 0.000000 0.000000
# 2 -0.005478 0.023898 0.008583 0.000000 0.000000 0.000000
# 3 -0.005340 0.008583 0.021838 0.000000 0.000000 0.000000
# 4 0.000000 0.000000 0.000000 0.029259 0.000000 0.000000
# 5 0.000000 0.000000 0.000000 0.000000 0.032930 0.000000
# 6 0.000000 0.000000 0.000000 0.000000 0.000000 0.020850
#
#
# Mechanical properties :
#
#
# Convention : Reuss Voigt Hill
#
# Bulk Modulus (GPa) = 19.59641 32.50308 26.04975
# Shear Modulus (GPa) = 31.24679 36.36412 33.80545
#
# Velocity S-wave (km/s) = 4.08783 4.40988 4.25190
# Velocity P-wave (km/s) = 5.72367 6.58115 6.16733
#
# Compressibility (1/GPa) = 0.05102975
#
# Stress axis : x y z
#
# Youngs Moduli (GPa) = 102.43350 41.84441 45.79130
#
# Poissons Ratio (x) = 0.22922 0.24450
# Poissons Ratio (y) = 0.56112 -0.39303
# Poissons Ratio (z) = 0.54695 -0.35915
#
# Static dielectric constant tensor:
#      x y z
#    x 1.682460 0.000000 0.000000 
#    y 0.000000 1.624590 0.000000 
#    z 0.000000 0.000000 1.599160 
# 
# From -- ./inp_files/5346.got.cif
#   From: 2010.05.17/outbox.cif.g08.bks.cpg/sg35_3_cif.got.tgz:5346.got - 2010.06.03 17:29:28.
