data_PCOD9349662
_publ_section_title
;
Structure prediction by ZEFSAII (Michael W. Deem and Ramdas Pophale) SiO2 
 PCOD9349662
Probable space group: C M M 2
;
_chemical_formula_sum "Si O2"
_cell_formula_units_Z 58
_cell_length_a 15.454280
_cell_length_b 16.760854
_cell_length_c 11.948439
_cell_angle_alpha 90.000000
_cell_angle_beta 90.000000
_cell_angle_gamma 90.000000
_cell_volume 3094.967481
_symmetry_space_group_name_H-M "C M M 2"
_symmetry_group_IT_number 35
_symmetry_cell_setting 'orthorhombic'
loop_
_space_group_symop_operation_xyz
x,y,z
-x,-y,z
-x,y,z
x,-y,z
1/2+x,1/2+y,z
1/2-x,1/2-y,z
1/2-x,1/2+y,z
1/2+x,1/2-y,z
loop_
_atom_site_type_symbol
_atom_site_label
_atom_site_fract_x
_atom_site_fract_y
_atom_site_fract_z
Si Si1 0.000000 0.500000 0.611910
Si Si2 0.767993 0.343664 0.877490
Si Si3 0.403390 0.904265 0.052603
Si Si4 0.653731 0.872629 0.638498
Si Si5 0.099995 0.800685 0.553177
Si Si6 0.269534 0.408803 0.446359
Si Si7 0.596878 0.406965 0.778363
Si Si8 0.595925 0.903821 0.317565
O O1 0.074555 0.430368 0.615677
O O2 0.750000 0.250000 0.876238
O O3 0.824973 0.367353 0.984004
O O4 0.824750 0.366089 0.768748
O O5 0.675273 0.385891 0.861188
O O6 0.500000 0.878320 0.013978
O O7 0.399828 0.000000 0.038820
O O8 0.397990 0.888139 0.185267
O O9 0.638475 0.784639 0.588090
O O10 0.734060 0.909509 0.572780
O O11 0.152627 0.846211 0.455738
O O12 0.103077 0.853268 0.667059
O O13 0.000000 0.791706 0.521865
O O14 0.292248 0.500000 0.412621
O O15 0.185164 0.379650 0.376671
O O16 0.500000 0.392933 0.826131
O O17 0.602498 0.500000 0.747761
O O18 0.500000 0.874958 0.356534
O O19 0.592996 0.000000 0.334716
#
# Coordination Sequence:
#
# PCOD9349662 Si02
#       8
#     2   8   8   8   8   8   8   8
#     4  12  28  36  60  84 122 160 192 236 300 366
#     4  12  23  36  56  82 123 155 191 246 298 348
#     4   9  20  37  60  88 115 150 196 247 302 357
#     4  12  24  39  52  87 122 152 191 240 299 355
#     4  11  22  38  54  77 123 159 192 241 290 341
#     4  11  21  34  59  85 114 153 202 238 287 361
#     4  10  21  37  55  75 106 158 205 233 274 345
#     4   8  17  35  58  85 118 154 195 247 301 354
#
# _framework density 18.740100000000002
#
# number of rings (size 3 to 8) (size 9 to 14) (size 15 to 20)
#    0.000    1.517    4.138    2.069    3.862    1.379 
#    0.000    1.379    0.000    0.828    0.000    1.931 
#    0.000    0.000    0.000    0.000    0.000    0.000 
#
# Total GULP energy -161580.765194 kJ/mol
# GULP energy per Si atom -5571.750524 kJ/mol
# Density = 1.869745 g / cm^3
# Si number density = 18.740100 Si / 1000 Ang^3
#
#
#
# Elastic Constant Matrix: (Units=GPa)
#
#
# Indices 1 2 3 4 5 6 
#
# 1 119.0552 27.9890 25.5511 0.0000 0.0000 0.0000
# 2 27.9890 85.6757 7.5436 0.0000 0.0000 0.0000
# 3 25.5511 7.5436 45.1090 0.0000 0.0000 0.0000
# 4 0.0000 0.0000 0.0000 7.0351 0.0000 0.0000
# 5 0.0000 0.0000 0.0000 0.0000 176.1565 0.0000
# 6 0.0000 0.0000 0.0000 0.0000 0.0000 -13.3111
#
#
#
# Elastic Compliance Matrix: (Units=1/GPa)
#
#
# Indices 1 2 3 4 5 6 
#
# 1 0.010212 -0.002869 -0.005305 0.000000 0.000000 0.000000
# 2 -0.002869 0.012652 -0.000491 0.000000 0.000000 0.000000
# 3 -0.005305 -0.000491 0.025255 0.000000 0.000000 0.000000
# 4 0.000000 0.000000 0.000000 0.142144 0.000000 0.000000
# 5 0.000000 0.000000 0.000000 0.000000 0.005677 0.000000
# 6 0.000000 0.000000 0.000000 0.000000 0.000000 -0.075125
#
#
# Mechanical properties :
#
#
# Convention : Reuss Voigt Hill
#
# Bulk Modulus (GPa) = 32.47711 41.33414 36.90563
# Shear Modulus (GPa) = 33.69061 46.55984 40.12522
#
# Velocity S-wave (km/s) = 4.24463 4.98989 4.63227
# Velocity P-wave (km/s) = 6.43353 7.43660 6.95318
#
# Compressibility (1/GPa) = 0.03079092
#
# Stress axis : x y z
#
# Youngs Moduli (GPa) = 97.91922 79.03603 39.59546
#
# Poissons Ratio (x) = 0.22677 0.21005
# Poissons Ratio (y) = 0.28095 0.01943
# Poissons Ratio (z) = 0.51945 0.03878
#
# Static dielectric constant tensor:
#      x y z
#    x 1.676300 0.000000 0.000000 
#    y 0.000000 1.666830 0.000000 
#    z 0.000000 0.000000 1.650740 
# 
# From -- ./inp_files/13127.got.cif
#   From: 2010.05.17/outbox.cif.g08.bks.cpg/sg35_7_cif.got.tgz:13127.got - 2010.06.03 17:29:28.
