data_PCOD9349200
_publ_section_title
;
Structure prediction by ZEFSAII (Michael W. Deem and Ramdas Pophale) SiO2 
 PCOD9349200
Probable space group: C M M 2
;
_chemical_formula_sum "Si O2"
_cell_formula_units_Z 64
_cell_length_a 28.725546
_cell_length_b 8.841013
_cell_length_c 13.276169
_cell_angle_alpha 90.000000
_cell_angle_beta 90.000000
_cell_angle_gamma 90.000000
_cell_volume 3371.654720
_symmetry_space_group_name_H-M "C M M 2"
_symmetry_group_IT_number 35
_symmetry_cell_setting 'orthorhombic'
loop_
_space_group_symop_operation_xyz
x,y,z
-x,-y,z
-x,y,z
x,-y,z
1/2+x,1/2+y,z
1/2-x,1/2-y,z
1/2-x,1/2+y,z
1/2+x,1/2-y,z
loop_
_atom_site_type_symbol
_atom_site_label
_atom_site_fract_x
_atom_site_fract_y
_atom_site_fract_z
Si Si1 0.698055 0.817899 0.970540
Si Si2 0.556567 0.672104 0.863709
Si Si3 0.143703 0.682312 0.546020
Si Si4 0.801672 0.818854 0.358331
Si Si5 0.053478 0.682010 0.651441
Si Si6 0.301376 0.818165 0.747195
Si Si7 0.445784 0.180384 0.076290
Si Si8 0.857801 0.819147 0.156642
O O1 0.750000 0.750000 0.978075
O O2 0.680038 0.776119 0.858317
O O3 0.699643 0.000000 0.978311
O O4 0.667929 0.750807 0.060172
O O5 0.500000 0.667919 0.862098
O O6 0.573730 0.500000 0.871235
O O7 0.569332 0.748222 0.757994
O O8 0.568165 0.765202 0.963863
O O9 0.147244 0.500000 0.534872
O O10 0.169181 0.759778 0.453442
O O11 0.089676 0.722685 0.563975
O O12 0.168794 0.726401 0.650694
O O13 0.750000 0.750000 0.358630
O O14 0.829278 0.776511 0.256563
O O15 0.797987 0.000000 0.362357
O O16 0.054788 0.500000 0.662789
O O17 0.000000 0.726939 0.631905
O O18 0.250000 0.750000 0.737869
O O19 0.298089 0.000000 0.746145
O O20 0.500000 0.221970 0.092254
O O21 0.410258 0.256837 0.153300
O O22 0.441836 0.000000 0.081289
O O23 0.858310 0.000000 0.148750
#
# Coordination Sequence:
#
# PCOD9349200 Si02
#       8
#     8   8   8   8   8   8   8   8
#     4  10  20  35  56  83 118 154 191 237 294 358
#     4   9  17  30  50  79 116 157 197 238 285 338
#     4  10  21  37  59  85 116 153 197 244 295 349
#     4  11  25  44  65  88 115 148 193 246 298 354
#     4   9  18  33  54  82 118 159 201 244 289 341
#     4   9  19  34  52  79 113 147 183 231 289 350
#     4  10  21  37  58  85 118 157 200 244 291 346
#     4  11  24  40  60  87 117 152 197 244 298 356
#
# _framework density 18.981777999999998
#
# number of rings (size 3 to 8) (size 9 to 14) (size 15 to 20)
#    0.000    2.125    0.000    2.625    1.750    7.750 
#    0.000    0.625    0.000    2.250    0.000    0.000 
#    0.000    0.000    0.000    0.000    0.000    0.000 
#
# Total GULP energy -178707.870611 kJ/mol
# GULP energy per Si atom -5584.620957 kJ/mol
# Density = 1.893857 g / cm^3
# Si number density = 18.981778 Si / 1000 Ang^3
#
#
#
# Elastic Constant Matrix: (Units=GPa)
#
#
# Indices 1 2 3 4 5 6 
#
# 1 128.4241 45.1780 90.5829 0.0000 0.0000 0.0000
# 2 45.1780 42.7306 51.3428 0.0000 0.0000 0.0000
# 3 90.5829 51.3428 139.6069 0.0000 0.0000 0.0000
# 4 0.0000 0.0000 0.0000 29.8740 0.0000 0.0000
# 5 0.0000 0.0000 0.0000 0.0000 35.6880 0.0000
# 6 0.0000 0.0000 0.0000 0.0000 0.0000 26.1008
#
#
#
# Elastic Compliance Matrix: (Units=1/GPa)
#
#
# Indices 1 2 3 4 5 6 
#
# 1 0.015687 -0.007804 -0.007308 0.000000 0.000000 0.000000
# 2 -0.007804 0.045814 -0.011785 0.000000 0.000000 0.000000
# 3 -0.007308 -0.011785 0.016239 0.000000 0.000000 0.000000
# 4 0.000000 0.000000 0.000000 0.033474 0.000000 0.000000
# 5 0.000000 0.000000 0.000000 0.000000 0.028021 0.000000
# 6 0.000000 0.000000 0.000000 0.000000 0.000000 0.038313
#
#
# Mechanical properties :
#
#
# Convention : Reuss Voigt Hill
#
# Bulk Modulus (GPa) = 41.76274 76.10769 58.93522
# Shear Modulus (GPa) = 20.89214 26.57642 23.73428
#
# Velocity S-wave (km/s) = 3.32119 3.74585 3.53990
# Velocity P-wave (km/s) = 6.06270 7.67403 6.91546
#
# Compressibility (1/GPa) = 0.02394479
#
# Stress axis : x y z
#
# Youngs Moduli (GPa) = 63.74740 21.82736 61.57995
#
# Poissons Ratio (x) = 0.17035 0.45004
# Poissons Ratio (y) = 0.49750 0.72573
# Poissons Ratio (z) = 0.46588 0.25724
#
# Static dielectric constant tensor:
#      x y z
#    x 1.689410 0.000000 0.000000 
#    y 0.000000 1.639590 0.000000 
#    z 0.000000 0.000000 1.635410 
# 
# From -- ./inp_files/14574.got.cif
#   From: 2010.05.17/outbox.cif.g08.bks.cpg/sg35_8_cif.got.tgz:14574.got - 2010.06.03 17:29:28.
