data_PCOD9349648
_publ_section_title
;
Structure prediction by ZEFSAII (Michael W. Deem and Ramdas Pophale) SiO2 
 PCOD9349648
Probable space group: C M M 2
;
_chemical_formula_sum "Si O2"
_cell_formula_units_Z 48
_cell_length_a 8.933530
_cell_length_b 18.794182
_cell_length_c 15.697328
_cell_angle_alpha 90.000000
_cell_angle_beta 90.000000
_cell_angle_gamma 90.000000
_cell_volume 2635.556078
_symmetry_space_group_name_H-M "C M M 2"
_symmetry_group_IT_number 35
_symmetry_cell_setting 'orthorhombic'
loop_
_space_group_symop_operation_xyz
x,y,z
-x,-y,z
-x,y,z
x,-y,z
1/2+x,1/2+y,z
1/2-x,1/2-y,z
1/2-x,1/2+y,z
1/2+x,1/2-y,z
loop_
_atom_site_type_symbol
_atom_site_label
_atom_site_fract_x
_atom_site_fract_y
_atom_site_fract_z
Si Si1 0.179500 0.171781 0.163450
Si Si2 0.821941 0.172757 0.967245
Si Si3 0.319751 0.328443 0.470605
Si Si4 0.325506 0.914695 0.817635
Si Si5 0.679043 0.915810 0.314840
Si Si6 0.679471 0.582892 0.639144
O O1 0.250000 0.250000 0.177933
O O2 0.252177 0.117214 0.229092
O O3 0.000000 0.175274 0.174933
O O4 0.211228 0.151473 0.065116
O O5 0.750000 0.250000 0.953994
O O6 0.757253 0.120259 0.896982
O O7 0.000000 0.177778 0.958786
O O8 0.500000 0.324630 0.463550
O O9 0.250000 0.250000 0.468708
O O10 0.253892 0.374444 0.393290
O O11 0.281230 0.368375 0.558891
O O12 0.500000 0.895667 0.819895
O O13 0.255470 0.893210 0.726904
O O14 0.311518 0.000000 0.822729
O O15 0.500000 0.905058 0.316001
O O16 0.709168 0.000000 0.320538
O O17 0.500000 0.585067 0.649876
O O18 0.721239 0.500000 0.622961
#
# Coordination Sequence:
#
# PCOD9349648 Si02
#       6
#     8   8   8   8   8   8
#     4  10  21  38  60  84 112 147 187 231 279 331
#     4  10  21  37  58  83 112 148 188 232 280 330
#     4  11  23  39  60  85 114 148 186 229 277 330
#     4  10  21  36  56  83 115 151 188 229 278 331
#     4  11  24  40  59  84 114 148 185 228 278 331
#     4   9  19  37  59  81 108 146 190 234 280 329
#
# _framework density 18.212475000000001
#
# number of rings (size 3 to 8) (size 9 to 14) (size 15 to 20)
#    0.000    1.833    0.000    3.500    0.000    7.667 
#    0.000    6.667    0.000    0.000    0.000    0.000 
#    0.000    0.000    0.000    0.000    0.000    0.000 
#
# Total GULP energy -134102.034647 kJ/mol
# GULP energy per Si atom -5587.584777 kJ/mol
# Density = 1.817102 g / cm^3
# Si number density = 18.212475 Si / 1000 Ang^3
#
#
#
# Elastic Constant Matrix: (Units=GPa)
#
#
# Indices 1 2 3 4 5 6 
#
# 1 89.1460 71.1221 89.6098 0.0000 0.0000 0.0000
# 2 71.1221 105.0525 97.5739 0.0000 0.0000 0.0000
# 3 89.6098 97.5739 161.6949 0.0000 0.0000 0.0000
# 4 0.0000 0.0000 0.0000 42.0144 0.0000 0.0000
# 5 0.0000 0.0000 0.0000 0.0000 13.5612 0.0000
# 6 0.0000 0.0000 0.0000 0.0000 0.0000 29.1663
#
#
#
# Elastic Compliance Matrix: (Units=1/GPa)
#
#
# Indices 1 2 3 4 5 6 
#
# 1 0.030129 -0.011124 -0.009984 0.000000 0.000000 0.000000
# 2 -0.011124 0.025765 -0.009383 0.000000 0.000000 0.000000
# 3 -0.009984 -0.009383 0.017380 0.000000 0.000000 0.000000
# 4 0.000000 0.000000 0.000000 0.023801 0.000000 0.000000
# 5 0.000000 0.000000 0.000000 0.000000 0.073740 0.000000
# 6 0.000000 0.000000 0.000000 0.000000 0.000000 0.034286
#
#
# Mechanical properties :
#
#
# Convention : Reuss Voigt Hill
#
# Bulk Modulus (GPa) = 81.36030 96.94499 89.15265
# Shear Modulus (GPa) = 18.50609 23.45422 20.98016
#
# Velocity S-wave (km/s) = 3.19112 3.59250 3.39774
# Velocity P-wave (km/s) = 7.63856 8.39962 8.02811
#
# Compressibility (1/GPa) = 0.01229101
#
# Stress axis : x y z
#
# Youngs Moduli (GPa) = 33.19078 38.81183 57.53785
#
# Poissons Ratio (x) = 0.43175 0.57448
# Poissons Ratio (y) = 0.36922 0.53988
# Poissons Ratio (z) = 0.33139 0.36417
#
# Static dielectric constant tensor:
#      x y z
#    x 1.607720 0.000000 0.000000 
#    y 0.000000 1.595740 0.000000 
#    z 0.000000 0.000000 1.605650 
# 
# From -- ./inp_files/15101.got.cif
#   From: 2010.05.17/outbox.cif.g08.bks.cpg/sg35_8_cif.got.tgz:15101.got - 2010.06.03 17:29:28.
