data_PCOD9349811
_publ_section_title
;
Structure prediction by ZEFSAII (Michael W. Deem and Ramdas Pophale) SiO2 
 PCOD9349811
Probable space group: C M M 2
;
_chemical_formula_sum "Si O2"
_cell_formula_units_Z 56
_cell_length_a 15.486442
_cell_length_b 15.988165
_cell_length_c 10.578717
_cell_angle_alpha 90.000000
_cell_angle_beta 90.000000
_cell_angle_gamma 90.000000
_cell_volume 2619.288107
_symmetry_space_group_name_H-M "C M M 2"
_symmetry_group_IT_number 35
_symmetry_cell_setting 'orthorhombic'
loop_
_space_group_symop_operation_xyz
x,y,z
-x,-y,z
-x,y,z
x,-y,z
1/2+x,1/2+y,z
1/2-x,1/2-y,z
1/2-x,1/2+y,z
1/2+x,1/2-y,z
loop_
_atom_site_type_symbol
_atom_site_label
_atom_site_fract_x
_atom_site_fract_y
_atom_site_fract_z
Si Si1 0.396333 0.749080 0.174060
Si Si2 0.092996 0.591430 0.483556
Si Si3 0.103368 0.597274 0.000599
Si Si4 0.273241 0.410679 0.526659
Si Si5 0.096697 0.769956 0.464355
Si Si6 0.103542 0.901844 0.988598
Si Si7 0.754486 0.649051 0.800365
O O1 0.500000 0.748407 0.170215
O O2 0.374380 0.748897 0.321089
O O3 0.370543 0.665558 0.097057
O O4 0.370037 0.834909 0.106410
O O5 0.089124 0.500000 0.548569
O O6 0.190767 0.591042 0.432949
O O7 0.093213 0.683695 0.542969
O O8 0.000000 0.594048 0.409281
O O9 0.118135 0.500000 0.035150
O O10 0.163005 0.622254 0.882999
O O11 0.000000 0.606529 0.976093
O O12 0.317160 0.500000 0.511517
O O13 0.337075 0.335302 0.514180
O O14 0.238355 0.399155 0.668228
O O15 0.000000 0.804511 0.460704
O O16 0.000000 0.890610 0.961748
O O17 0.115190 0.000000 0.023487
O O18 0.166841 0.880520 0.872100
O O19 0.750000 0.750000 0.786109
#
# Coordination Sequence:
#
# PCOD9349811 Si02
#       7
#     8   8   8   8   8   8   8
#     4   9  19  38  62  90 121 158 205 254 310 372
#     4   9  19  38  61  85 116 157 203 251 305 362
#     4  10  21  39  63  94 131 166 206 261 321 375
#     4  11  24  41  60  89 128 164 208 260 308 372
#     4  10  21  39  64  90 122 163 206 255 312 376
#     4  10  21  39  61  86 120 161 206 255 308 368
#     4  12  23  39  64  90 124 167 206 261 311 372
#
# _framework density 21.379854000000002
#
# number of rings (size 3 to 8) (size 9 to 14) (size 15 to 20)
#    0.000    1.857    1.429    2.571    0.000    2.571 
#    5.143    5.714    0.000    0.000    0.000    0.000 
#    0.000    0.000    0.000    0.000    0.000    0.000 
#
# Total GULP energy -155869.925681 kJ/mol
# GULP energy per Si atom -5566.783060 kJ/mol
# Density = 2.133119 g / cm^3
# Si number density = 21.379854 Si / 1000 Ang^3
#
#
#
# Elastic Constant Matrix: (Units=GPa)
#
#
# Indices 1 2 3 4 5 6 
#
# 1 86.9458 48.0803 20.2151 0.0000 0.0000 0.0000
# 2 48.0803 155.0338 11.2318 0.0000 0.0000 0.0000
# 3 20.2151 11.2318 56.3702 0.0000 0.0000 0.0000
# 4 0.0000 0.0000 0.0000 5.6923 0.0000 0.0000
# 5 0.0000 0.0000 0.0000 0.0000 31.9045 0.0000
# 6 0.0000 0.0000 0.0000 0.0000 0.0000 37.0039
#
#
#
# Elastic Compliance Matrix: (Units=1/GPa)
#
#
# Indices 1 2 3 4 5 6 
#
# 1 0.014926 -0.004303 -0.004495 0.000000 0.000000 0.000000
# 2 -0.004303 0.007785 -0.000008 0.000000 0.000000 0.000000
# 3 -0.004495 -0.000008 0.019354 0.000000 0.000000 0.000000
# 4 0.000000 0.000000 0.000000 0.175676 0.000000 0.000000
# 5 0.000000 0.000000 0.000000 0.000000 0.031344 0.000000
# 6 0.000000 0.000000 0.000000 0.000000 0.000000 0.027024
#
#
# Mechanical properties :
#
#
# Convention : Reuss Voigt Hill
#
# Bulk Modulus (GPa) = 40.89669 50.82266 45.85968
# Shear Modulus (GPa) = 16.56327 29.50831 23.03579
#
# Velocity S-wave (km/s) = 2.78639 3.71912 3.28602
# Velocity P-wave (km/s) = 5.43342 6.50118 5.99114
#
# Compressibility (1/GPa) = 0.02445185
#
# Stress axis : x y z
#
# Youngs Moduli (GPa) = 66.99566 128.44571 51.67012
#
# Poissons Ratio (x) = 0.55275 0.23227
# Poissons Ratio (y) = 0.28831 0.00041
# Poissons Ratio (z) = 0.30117 0.00103
#
# Static dielectric constant tensor:
#      x y z
#    x 1.792120 0.000000 0.000000 
#    y 0.000000 1.792490 0.000000 
#    z 0.000000 0.000000 1.846390 
# 
# From -- ./inp_files/12969.got.cif
#   From: 2010.05.17/outbox.cif.g08.bks.cpg/sg35_7_cif.got.tgz:12969.got - 2010.06.03 17:29:28.
