data_PCOD9349357
_publ_section_title
;
Structure prediction by ZEFSAII (Michael W. Deem and Ramdas Pophale) SiO2 
 PCOD9349357
Probable space group: C M M 2
;
_chemical_formula_sum "Si O2"
_cell_formula_units_Z 56
_cell_length_a 22.490932
_cell_length_b 8.525478
_cell_length_c 14.715284
_cell_angle_alpha 90.000000
_cell_angle_beta 90.000000
_cell_angle_gamma 90.000000
_cell_volume 2821.596051
_symmetry_space_group_name_H-M "C M M 2"
_symmetry_group_IT_number 35
_symmetry_cell_setting 'orthorhombic'
loop_
_space_group_symop_operation_xyz
x,y,z
-x,-y,z
-x,y,z
x,-y,z
1/2+x,1/2+y,z
1/2-x,1/2-y,z
1/2-x,1/2+y,z
1/2+x,1/2-y,z
loop_
_atom_site_type_symbol
_atom_site_label
_atom_site_fract_x
_atom_site_fract_y
_atom_site_fract_z
Si Si1 0.000000 0.184528 0.713470
Si Si2 0.686040 0.812673 0.318088
Si Si3 0.371233 0.809723 0.500208
Si Si4 0.930768 0.316530 0.021345
Si Si5 0.890328 0.312693 0.828779
Si Si6 0.686228 0.314032 0.678407
Si Si7 0.500000 0.186640 0.510630
Si Si8 0.432373 0.314549 0.220725
O O1 0.943220 0.230619 0.773398
O O2 0.000000 0.275896 0.618096
O O3 0.000000 0.000000 0.693816
O O4 0.750000 0.750000 0.285178
O O5 0.675240 0.762704 0.422979
O O6 0.625626 0.759705 0.267586
O O7 0.688099 0.000000 0.314610
O O8 0.357483 0.737999 0.597799
O O9 0.437502 0.756011 0.471516
O O10 0.370556 0.000000 0.508062
O O11 0.918192 0.500000 0.042076
O O12 0.892654 0.265964 0.934335
O O13 0.000000 0.307927 0.992028
O O14 0.924918 0.219129 0.113066
O O15 0.899490 0.500000 0.825541
O O16 0.832364 0.265487 0.772899
O O17 0.685812 0.500000 0.687535
O O18 0.750000 0.250000 0.650359
O O19 0.500000 0.000000 0.498473
O O20 0.500000 0.254959 0.244548
O O21 0.431807 0.500000 0.237870
#
# Coordination Sequence:
#
# PCOD9349357 Si02
#       8
#     4   8   8   8   8   8   4   8
#     4  12  22  32  52  87 120 155 196 237 288 342
#     4  11  24  42  66  92 121 161 208 255 306 371
#     4  10  22  39  62  89 120 159 200 247 301 360
#     4   9  18  35  60  89 119 156 198 241 295 359
#     4  11  21  37  59  85 119 158 197 243 294 347
#     4  12  25  40  58  82 115 158 205 251 299 357
#     4  10  20  36  58  85 122 161 198 243 300 358
#     4  10  22  40  63  94 128 160 197 253 315 368
#
# _framework density 19.846923
#
# number of rings (size 3 to 8) (size 9 to 14) (size 15 to 20)
#    0.000    1.429    2.143    3.643    1.000    4.286 
#    0.000    0.714    0.000    3.429    0.000    0.000 
#    0.000    0.000    0.000    0.000    0.000    0.000 
#
# Total GULP energy -156351.455120 kJ/mol
# GULP energy per Si atom -5583.980540 kJ/mol
# Density = 1.980175 g / cm^3
# Si number density = 19.846923 Si / 1000 Ang^3
#
#
#
# Elastic Constant Matrix: (Units=GPa)
#
#
# Indices 1 2 3 4 5 6 
#
# 1 119.9271 22.6304 34.3714 0.0000 0.0000 0.0000
# 2 22.6304 28.8488 7.8557 0.0000 0.0000 0.0000
# 3 34.3714 7.8557 68.0443 0.0000 0.0000 0.0000
# 4 0.0000 0.0000 0.0000 14.0345 0.0000 0.0000
# 5 0.0000 0.0000 0.0000 0.0000 28.9158 0.0000
# 6 0.0000 0.0000 0.0000 0.0000 0.0000 28.7885
#
#
#
# Elastic Compliance Matrix: (Units=1/GPa)
#
#
# Indices 1 2 3 4 5 6 
#
# 1 0.011099 -0.007413 -0.004751 0.000000 0.000000 0.000000
# 2 -0.007413 0.040740 -0.000959 0.000000 0.000000 0.000000
# 3 -0.004751 -0.000959 0.017207 0.000000 0.000000 0.000000
# 4 0.000000 0.000000 0.000000 0.071253 0.000000 0.000000
# 5 0.000000 0.000000 0.000000 0.000000 0.034583 0.000000
# 6 0.000000 0.000000 0.000000 0.000000 0.000000 0.034736
#
#
# Mechanical properties :
#
#
# Convention : Reuss Voigt Hill
#
# Bulk Modulus (GPa) = 23.36423 38.50391 30.93407
# Shear Modulus (GPa) = 19.98972 24.47859 22.23416
#
# Velocity S-wave (km/s) = 3.17708 3.51575 3.35069
# Velocity P-wave (km/s) = 5.02555 5.99360 5.53079
#
# Compressibility (1/GPa) = 0.04280048
#
# Stress axis : x y z
#
# Youngs Moduli (GPa) = 90.10049 24.54616 58.11700
#
# Poissons Ratio (x) = 0.18196 0.27609
# Poissons Ratio (y) = 0.66790 0.05573
# Poissons Ratio (z) = 0.42802 0.02354
#
# Static dielectric constant tensor:
#      x y z
#    x 1.692480 0.000000 0.000000 
#    y 0.000000 1.675760 0.000000 
#    z 0.000000 0.000000 1.678480 
# 
# From -- ./inp_files/17443.got.cif
#   From: 2010.05.17/outbox.cif.g08.bks.cpg/sg35_9_cif.got.tgz:17443.got - 2010.06.03 17:29:28.
