data_PCOD9349486
_publ_section_title
;
Structure prediction by ZEFSAII (Michael W. Deem and Ramdas Pophale) SiO2 
 PCOD9349486
Probable space group: C M M 2
;
_chemical_formula_sum "Si O2"
_cell_formula_units_Z 40
_cell_length_a 7.819242
_cell_length_b 17.967812
_cell_length_c 14.878230
_cell_angle_alpha 90.000000
_cell_angle_beta 90.000000
_cell_angle_gamma 90.000000
_cell_volume 2090.312018
_symmetry_space_group_name_H-M "C M M 2"
_symmetry_group_IT_number 35
_symmetry_cell_setting 'orthorhombic'
loop_
_space_group_symop_operation_xyz
x,y,z
-x,-y,z
-x,y,z
x,-y,z
1/2+x,1/2+y,z
1/2-x,1/2-y,z
1/2-x,1/2+y,z
1/2+x,1/2-y,z
loop_
_atom_site_type_symbol
_atom_site_label
_atom_site_fract_x
_atom_site_fract_y
_atom_site_fract_z
Si Si1 0.792645 0.586963 0.282440
Si Si2 0.500000 0.910528 0.577092
Si Si3 0.704564 0.836470 0.096584
Si Si4 0.000000 0.409520 0.784239
Si Si5 0.808053 0.088868 0.911762
Si Si6 0.803480 0.836240 0.465971
O O1 0.748338 0.500000 0.287876
O O2 0.739791 0.620867 0.186730
O O3 0.714766 0.631578 0.365384
O O4 0.000000 0.593101 0.288970
O O5 0.500000 0.885690 0.681024
O O6 0.667968 0.880030 0.527176
O O7 0.500000 0.000000 0.572600
O O8 0.500000 0.844833 0.089240
O O9 0.750000 0.750000 0.104250
O O10 0.783297 0.871046 0.006784
O O11 0.166365 0.385969 0.840445
O O12 0.000000 0.500000 0.782688
O O13 0.000000 0.101664 0.878196
O O14 0.785723 0.000000 0.925970
O O15 0.750000 0.750000 0.465612
O O16 0.000000 0.844094 0.495816
#
# Coordination Sequence:
#
# PCOD9349486 Si02
#       6
#     8   4   8   4   8   8
#     4  10  21  38  61  92 127 166 211 259 310 373
#     4  11  24  44  69  99 132 163 213 277 325 384
#     4  11  22  36  57  85 126 167 209 251 310 371
#     4   9  20  40  65  91 123 159 201 259 320 366
#     4  10  20  37  63  91 120 159 207 255 307 371
#     4  12  24  42  68  94 131 173 216 260 326 387
#
# _framework density 19.135899999999999
#
# number of rings (size 3 to 8) (size 9 to 14) (size 15 to 20)
#    0.000    1.400    3.000    2.400    0.000    6.400 
#    0.000    3.000    0.000    0.000    0.000    0.000 
#    0.000    0.000    0.000    0.000    0.000    0.000 
#
# Total GULP energy -111811.871907 kJ/mol
# GULP energy per Si atom -5590.593595 kJ/mol
# Density = 1.909235 g / cm^3
# Si number density = 19.135900 Si / 1000 Ang^3
#
#
#
# Elastic Constant Matrix: (Units=GPa)
#
#
# Indices 1 2 3 4 5 6 
#
# 1 133.0761 50.7636 69.1436 0.0000 0.0000 0.0000
# 2 50.7636 95.2147 50.8484 0.0000 0.0000 0.0000
# 3 69.1436 50.8484 145.4019 0.0000 0.0000 0.0000
# 4 0.0000 0.0000 0.0000 -59.3176 0.0000 0.0000
# 5 0.0000 0.0000 0.0000 0.0000 -2.1903 0.0000
# 6 0.0000 0.0000 0.0000 0.0000 0.0000 24.6736
#
#
#
# Elastic Compliance Matrix: (Units=1/GPa)
#
#
# Indices 1 2 3 4 5 6 
#
# 1 0.010981 -0.003770 -0.003903 0.000000 0.000000 0.000000
# 2 -0.003770 0.014209 -0.003176 0.000000 0.000000 0.000000
# 3 -0.003903 -0.003176 0.009844 0.000000 0.000000 0.000000
# 4 0.000000 0.000000 0.000000 -0.016858 0.000000 0.000000
# 5 0.000000 0.000000 0.000000 0.000000 -0.456568 0.000000
# 6 0.000000 0.000000 0.000000 0.000000 0.000000 0.040529
#
#
# Mechanical properties :
#
#
# Convention : Reuss Voigt Hill
#
# Bulk Modulus (GPa) = 74.99064 79.46712 77.22888
# Shear Modulus (GPa) = -13.45099 6.16228 -3.64435
#
# Velocity S-wave (km/s) = -2.65414 1.79646 -1.38152
# Velocity P-wave (km/s) = 5.46635 6.77650 6.15637
#
# Compressibility (1/GPa) = 0.01333500
#
# Stress axis : x y z
#
# Youngs Moduli (GPa) = 91.06956 70.37959 101.58028
#
# Poissons Ratio (x) = 0.26531 0.39650
# Poissons Ratio (y) = 0.34331 0.32264
# Poissons Ratio (z) = 0.35548 0.22354
#
# Static dielectric constant tensor:
#      x y z
#    x 1.681110 0.000000 0.000000 
#    y 0.000000 1.633110 0.000000 
#    z 0.000000 0.000000 1.626070 
# 
# From -- ./inp_files/14762.got.cif
#   From: 2010.05.17/outbox.cif.g08.bks.cpg/sg35_8_cif.got.tgz:14762.got - 2010.06.03 17:29:28.
