data_PCOD9349973
_publ_section_title
;
Structure prediction by ZEFSAII (Michael W. Deem and Ramdas Pophale) SiO2 
 PCOD9349973
Probable space group: C M M 2
;
_chemical_formula_sum "Si O2"
_cell_formula_units_Z 44
_cell_length_a 15.809341
_cell_length_b 8.789564
_cell_length_c 15.000829
_cell_angle_alpha 90.000000
_cell_angle_beta 90.000000
_cell_angle_gamma 90.000000
_cell_volume 2084.473413
_symmetry_space_group_name_H-M "C M M 2"
_symmetry_group_IT_number 35
_symmetry_cell_setting 'orthorhombic'
loop_
_space_group_symop_operation_xyz
x,y,z
-x,-y,z
-x,y,z
x,-y,z
1/2+x,1/2+y,z
1/2-x,1/2-y,z
1/2-x,1/2+y,z
1/2+x,1/2-y,z
loop_
_atom_site_type_symbol
_atom_site_label
_atom_site_fract_x
_atom_site_fract_y
_atom_site_fract_z
Si Si1 0.750000 0.750000 0.359460
Si Si2 0.658150 0.679782 0.667662
Si Si3 0.906612 0.682695 0.492082
Si Si4 0.093878 0.817182 0.225221
Si Si5 0.657204 0.182878 0.046400
Si Si6 0.100920 0.326127 0.847832
O O1 0.825604 0.737430 0.435907
O O2 0.825534 0.764537 0.282974
O O3 0.658255 0.500000 0.654396
O O4 0.750000 0.750000 0.653207
O O5 0.600701 0.757732 0.592875
O O6 0.632043 0.721688 0.767906
O O7 0.902872 0.500000 0.490632
O O8 0.000000 0.730346 0.458566
O O9 0.000000 0.771783 0.258540
O O10 0.097859 0.000000 0.224002
O O11 0.102341 0.752432 0.125609
O O12 0.750000 0.250000 0.059012
O O13 0.628198 0.223186 0.946475
O O14 0.656553 0.000000 0.053529
O O15 0.132596 0.500000 0.833196
O O16 0.000000 0.329876 0.845723
#
# Coordination Sequence:
#
# PCOD9349973 Si02
#       6
#     4   8   8   8   8   8
#     4  12  24  44  74 100 134 182 224 280 338 414
#     4  12  25  42  67  98 134 176 224 276 334 400
#     4  11  25  45  70 101 138 179 224 278 339 403
#     4  11  25  44  68 101 140 179 224 282 341 399
#     4  11  23  41  67  98 134 177 226 276 332 399
#     4  10  22  41  65  96 135 177 222 272 327 394
#
# _framework density 21.108449
#
# number of rings (size 3 to 8) (size 9 to 14) (size 15 to 20)
#    0.000    0.909    1.818    4.909    0.000    8.364 
#    0.000    0.000    0.000    0.000    0.000    0.000 
#    0.000    0.000    0.000    0.000    0.000    0.000 
#
# Total GULP energy -122476.193033 kJ/mol
# GULP energy per Si atom -5567.099683 kJ/mol
# Density = 2.106041 g / cm^3
# Si number density = 21.108449 Si / 1000 Ang^3
#
#
#
# Elastic Constant Matrix: (Units=GPa)
#
#
# Indices 1 2 3 4 5 6 
#
# 1 208.5876 72.4585 82.1558 0.0000 0.0000 0.0000
# 2 72.4585 137.8399 70.6021 0.0000 0.0000 0.0000
# 3 82.1558 70.6021 162.3522 0.0000 0.0000 0.0000
# 4 0.0000 0.0000 0.0000 -84.3846 0.0000 0.0000
# 5 0.0000 0.0000 0.0000 0.0000 -26.0501 0.0000
# 6 0.0000 0.0000 0.0000 0.0000 0.0000 15.7440
#
#
#
# Elastic Compliance Matrix: (Units=1/GPa)
#
#
# Indices 1 2 3 4 5 6 
#
# 1 0.006476 -0.002220 -0.002311 0.000000 0.000000 0.000000
# 2 -0.002220 0.010095 -0.003267 0.000000 0.000000 0.000000
# 3 -0.002311 -0.003267 0.008750 0.000000 0.000000 0.000000
# 4 0.000000 0.000000 0.000000 -0.011851 0.000000 0.000000
# 5 0.000000 0.000000 0.000000 0.000000 -0.038388 0.000000
# 6 0.000000 0.000000 0.000000 0.000000 0.000000 0.063516
#
#
# Mechanical properties :
#
#
# Convention : Reuss Voigt Hill
#
# Bulk Modulus (GPa) = 102.83766 106.57918 104.70842
# Shear Modulus (GPa) = 87.05302 -0.03390 43.50956
#
# Velocity S-wave (km/s) = 6.42887 -0.12687 4.54501
# Velocity P-wave (km/s) = 10.19469 7.11192 8.78951
#
# Compressibility (1/GPa) = 0.00972406
#
# Stress axis : x y z
#
# Youngs Moduli (GPa) = 154.42083 99.05883 114.29025
#
# Poissons Ratio (x) = 0.21993 0.26418
# Poissons Ratio (y) = 0.34284 0.37333
# Poissons Ratio (z) = 0.35694 0.32358
#
# Static dielectric constant tensor:
#      x y z
#    x 1.740280 0.000000 0.000000 
#    y 0.000000 1.747610 0.000000 
#    z 0.000000 0.000000 1.765680 
# 
# From -- ./inp_files/16948.got.cif
#   From: 2010.05.17/outbox.cif.g08.bks.cpg/sg35_9_cif.got.tgz:16948.got - 2010.06.03 17:29:28.
