data_PCOD9349291
_publ_section_title
;
Structure prediction by ZEFSAII (Michael W. Deem and Ramdas Pophale) SiO2 
 PCOD9349291
Probable space group: C M M 2
;
_chemical_formula_sum "Si O2"
_cell_formula_units_Z 64
_cell_length_a 14.632561
_cell_length_b 24.453531
_cell_length_c 9.979714
_cell_angle_alpha 90.000000
_cell_angle_beta 90.000000
_cell_angle_gamma 90.000000
_cell_volume 3570.919149
_symmetry_space_group_name_H-M "C M M 2"
_symmetry_group_IT_number 35
_symmetry_cell_setting 'orthorhombic'
loop_
_space_group_symop_operation_xyz
x,y,z
-x,-y,z
-x,y,z
x,-y,z
1/2+x,1/2+y,z
1/2-x,1/2-y,z
1/2-x,1/2+y,z
1/2+x,1/2-y,z
loop_
_atom_site_type_symbol
_atom_site_label
_atom_site_fract_x
_atom_site_fract_y
_atom_site_fract_z
Si Si1 0.609961 0.865898 0.111280
Si Si2 0.396933 0.663006 0.597872
Si Si3 0.110911 0.255123 0.230938
Si Si4 0.609520 0.215250 0.533374
Si Si5 0.715979 0.892977 0.613931
Si Si6 0.604622 0.636534 0.278400
Si Si7 0.773155 0.564142 0.312289
Si Si8 0.108351 0.437806 0.859321
O O1 0.500000 0.868325 0.121080
O O2 0.636925 0.802441 0.128011
O O3 0.652401 0.900780 0.231944
O O4 0.636342 0.894563 0.972738
O O5 0.500000 0.653364 0.647239
O O6 0.374351 0.727408 0.609185
O O7 0.318510 0.624477 0.654738
O O8 0.397617 0.651701 0.437103
O O9 0.139622 0.275348 0.379060
O O10 0.139873 0.192585 0.209440
O O11 0.000000 0.252064 0.235513
O O12 0.500000 0.205947 0.533369
O O13 0.661402 0.163734 0.592270
O O14 0.718827 0.923001 0.470488
O O15 0.665218 0.927709 0.725669
O O16 0.500000 0.624600 0.238233
O O17 0.675255 0.587535 0.263804
O O18 0.782809 0.500000 0.288028
O O19 0.120963 0.500000 0.908427
O O20 0.000000 0.430531 0.832096
#
# Coordination Sequence:
#
# PCOD9349291 Si02
#       8
#     8   8   8   8   8   8   8   8
#     4  10  20  36  55  76 103 137 175 214 264 326
#     4   8  16  29  48  75 106 138 170 212 270 323
#     4   8  14  28  52  79 102 129 169 213 261 311
#     4   9  15  26  47  78 108 131 164 214 267 314
#     4  11  19  31  52  77 105 136 180 222 261 304
#     4   8  16  31  51  77 108 136 168 218 272 313
#     4  11  22  32  50  80 107 139 183 220 254 305
#     4  10  22  38  53  71 103 145 177 210 267 329
#
# _framework density 17.922556
#
# number of rings (size 3 to 8) (size 9 to 14) (size 15 to 20)
#    0.000    2.625    1.250    3.000    0.000    2.000 
#    0.000    0.000    5.500    1.875    0.000    0.000 
#    0.000    0.000    0.000    0.000    0.000    0.000 
#
# Total GULP energy -178433.886744 kJ/mol
# GULP energy per Si atom -5576.058961 kJ/mol
# Density = 1.788176 g / cm^3
# Si number density = 17.922556 Si / 1000 Ang^3
#
#
#
# Elastic Constant Matrix: (Units=GPa)
#
#
# Indices 1 2 3 4 5 6 
#
# 1 42.5608 5.2543 14.8143 0.0000 0.0000 0.0000
# 2 5.2543 33.5604 7.6590 0.0000 0.0000 0.0000
# 3 14.8143 7.6590 42.5352 0.0000 0.0000 0.0000
# 4 0.0000 0.0000 0.0000 14.2265 0.0000 0.0000
# 5 0.0000 0.0000 0.0000 0.0000 9.1809 0.0000
# 6 0.0000 0.0000 0.0000 0.0000 0.0000 11.0408
#
#
#
# Elastic Compliance Matrix: (Units=1/GPa)
#
#
# Indices 1 2 3 4 5 6 
#
# 1 0.026887 -0.002161 -0.008975 0.000000 0.000000 0.000000
# 2 -0.002161 0.031248 -0.004874 0.000000 0.000000 0.000000
# 3 -0.008975 -0.004874 0.027513 0.000000 0.000000 0.000000
# 4 0.000000 0.000000 0.000000 0.070291 0.000000 0.000000
# 5 0.000000 0.000000 0.000000 0.000000 0.108921 0.000000
# 6 0.000000 0.000000 0.000000 0.000000 0.000000 0.090573
#
#
# Mechanical properties :
#
#
# Convention : Reuss Voigt Hill
#
# Bulk Modulus (GPa) = 18.64711 19.34572 18.99642
# Shear Modulus (GPa) = 12.33566 12.95158 12.64362
#
# Velocity S-wave (km/s) = 2.62635 2.69112 2.65893
# Velocity P-wave (km/s) = 4.42987 4.52478 4.47758
#
# Compressibility (1/GPa) = 0.05362761
#
# Stress axis : x y z
#
# Youngs Moduli (GPa) = 37.19328 32.00238 36.34597
#
# Poissons Ratio (x) = 0.06916 0.32620
# Poissons Ratio (y) = 0.08038 0.17714
# Poissons Ratio (z) = 0.33381 0.15597
#
# Static dielectric constant tensor:
#      x y z
#    x 1.641020 0.000000 0.000000 
#    y 0.000000 1.615260 0.000000 
#    z 0.000000 0.000000 1.589400 
# 
# From -- ./inp_files/7847.got.cif
#   From: 2010.05.17/outbox.cif.g08.bks.cpg/sg35_4_cif.got.tgz:7847.got - 2010.06.03 17:29:28.
