data_PCOD9349475
_publ_section_title
;
Structure prediction by ZEFSAII (Michael W. Deem and Ramdas Pophale) SiO2 
 PCOD9349475
Probable space group: C M M 2
;
_chemical_formula_sum "Si O2"
_cell_formula_units_Z 48
_cell_length_a 34.563441
_cell_length_b 9.124643
_cell_length_c 7.905610
_cell_angle_alpha 90.000000
_cell_angle_beta 90.000000
_cell_angle_gamma 90.000000
_cell_volume 2493.263850
_symmetry_space_group_name_H-M "C M M 2"
_symmetry_group_IT_number 35
_symmetry_cell_setting 'orthorhombic'
loop_
_space_group_symop_operation_xyz
x,y,z
-x,-y,z
-x,y,z
x,-y,z
1/2+x,1/2+y,z
1/2-x,1/2-y,z
1/2-x,1/2+y,z
1/2+x,1/2-y,z
loop_
_atom_site_type_symbol
_atom_site_label
_atom_site_fract_x
_atom_site_fract_y
_atom_site_fract_z
Si Si1 0.500000 0.666533 0.264670
Si Si2 0.162237 0.323699 0.254438
Si Si3 0.922213 0.668753 0.361938
Si Si4 0.207848 0.176570 0.561888
Si Si5 0.000000 0.833467 0.859105
Si Si6 0.577787 0.831247 0.761838
Si Si7 0.837763 0.676301 0.869337
O O1 0.500000 0.500000 0.324749
O O2 0.539085 0.743347 0.325318
O O3 0.500000 0.669456 0.061888
O O4 0.164645 0.500000 0.288106
O O5 0.116888 0.282275 0.269808
O O6 0.185608 0.235975 0.395758
O O7 0.175519 0.297930 0.061888
O O8 0.929368 0.500000 0.313155
O O9 0.913902 0.673869 0.561888
O O10 0.290106 0.500000 0.561888
O O11 0.250000 0.250000 0.561888
O O12 0.185608 0.235975 0.728018
O O13 0.039085 0.756652 0.798458
O O14 0.000000 0.000000 0.799027
O O15 0.616888 0.782275 0.853968
O O16 0.570632 0.000000 0.810621
O O17 0.835355 0.500000 0.835670
#
# Coordination Sequence:
#
# PCOD9349475 Si02
#       7
#     4   8   8   8   4   8   8
#     4  11  24  37  50  78 122 165 208 258 307 359
#     4  10  21  41  69  97 127 164 208 259 313 373
#     4  10  20  37  62  88 117 157 207 256 305 365
#     4  12  26  44  68  95 130 167 204 254 309 374
#     4  11  24  37  50  78 122 165 208 258 307 359
#     4  10  20  37  62  88 117 157 207 256 305 365
#     4  10  21  41  69  97 127 164 208 259 313 373
#
# _framework density 19.251873
#
# number of rings (size 3 to 8) (size 9 to 14) (size 15 to 20)
#    0.000    1.500    1.667    3.500    0.000    8.000 
#    0.000    0.000    0.000    0.000    0.000    0.000 
#    0.000    0.000    0.000    0.000    0.000    0.000 
#
# Total GULP energy -134116.969183 kJ/mol
# GULP energy per Si atom -5588.207049 kJ/mol
# Density = 1.920805 g / cm^3
# Si number density = 19.251873 Si / 1000 Ang^3
#
#
#
# Elastic Constant Matrix: (Units=GPa)
#
#
# Indices 1 2 3 4 5 6 
#
# 1 138.8950 80.5169 64.4308 0.0000 0.0000 0.0000
# 2 80.5169 102.9768 62.5457 0.0000 0.0000 0.0000
# 3 64.4308 62.5457 113.6228 0.0000 0.0000 0.0000
# 4 0.0000 0.0000 0.0000 23.8073 0.0000 0.0000
# 5 0.0000 0.0000 0.0000 0.0000 -6.3240 0.0000
# 6 0.0000 0.0000 0.0000 0.0000 0.0000 22.1480
#
#
#
# Elastic Compliance Matrix: (Units=1/GPa)
#
#
# Indices 1 2 3 4 5 6 
#
# 1 0.013745 -0.009034 -0.002822 0.000000 0.000000 0.000000
# 2 -0.009034 0.020525 -0.006176 0.000000 0.000000 0.000000
# 3 -0.002822 -0.006176 0.013801 0.000000 0.000000 0.000000
# 4 0.000000 0.000000 0.000000 0.042004 0.000000 0.000000
# 5 0.000000 0.000000 0.000000 0.000000 -0.158128 0.000000
# 6 0.000000 0.000000 0.000000 0.000000 0.000000 0.045151
#
#
# Mechanical properties :
#
#
# Convention : Reuss Voigt Hill
#
# Bulk Modulus (GPa) = 83.27111 85.60904 84.44007
# Shear Modulus (GPa) = 291.30078 17.79299 154.54689
#
# Velocity S-wave (km/s) = 12.31417 3.04340 8.96942
# Velocity P-wave (km/s) = 15.66948 7.54415 12.29729
#
# Compressibility (1/GPa) = 0.01200897
#
# Stress axis : x y z
#
# Youngs Moduli (GPa) = 72.75189 48.72022 72.45930
#
# Poissons Ratio (x) = 0.44012 0.20446
# Poissons Ratio (y) = 0.65721 0.44751
# Poissons Ratio (z) = 0.20529 0.30090
#
# Static dielectric constant tensor:
#      x y z
#    x 1.651760 0.000000 0.000000 
#    y 0.000000 1.656060 0.000000 
#    z 0.000000 0.000000 1.684790 
# 
# From -- ./inp_files/10521.got.cif
#   From: 2010.05.17/outbox.cif.g08.bks.cpg/sg35_6_cif.got.tgz:10521.got - 2010.06.03 17:29:28.
