data_PCOD9349021
_publ_section_title
;
Structure prediction by ZEFSAII (Michael W. Deem and Ramdas Pophale) SiO2 
 PCOD9349021
Probable space group: C M M 2
;
_chemical_formula_sum "Si O2"
_cell_formula_units_Z 40
_cell_length_a 16.043609
_cell_length_b 8.802983
_cell_length_c 14.798001
_cell_angle_alpha 90.000000
_cell_angle_beta 90.000000
_cell_angle_gamma 90.000000
_cell_volume 2089.945614
_symmetry_space_group_name_H-M "C M M 2"
_symmetry_group_IT_number 35
_symmetry_cell_setting 'orthorhombic'
loop_
_space_group_symop_operation_xyz
x,y,z
-x,-y,z
-x,y,z
x,-y,z
1/2+x,1/2+y,z
1/2-x,1/2-y,z
1/2-x,1/2+y,z
1/2+x,1/2-y,z
loop_
_atom_site_type_symbol
_atom_site_label
_atom_site_fract_x
_atom_site_fract_y
_atom_site_fract_z
Si Si1 0.336697 0.818611 0.474410
Si Si2 0.500000 0.185543 0.155696
Si Si3 0.500000 0.814792 0.363976
Si Si4 0.157957 0.318172 0.830856
Si Si5 0.596620 0.675223 0.651965
Si Si6 0.842104 0.317028 0.037401
O O1 0.250000 0.750000 0.440887
O O2 0.416344 0.766409 0.415946
O O3 0.351754 0.765269 0.577142
O O4 0.332753 0.000000 0.471371
O O5 0.500000 0.233700 0.259854
O O6 0.584258 0.233968 0.104041
O O7 0.500000 0.000000 0.153672
O O8 0.500000 0.000000 0.365321
O O9 0.159083 0.500000 0.822325
O O10 0.250000 0.250000 0.819014
O O11 0.104695 0.246900 0.750867
O O12 0.132725 0.280004 0.933707
O O13 0.500000 0.680897 0.624481
O O14 0.624088 0.500000 0.654328
O O15 0.835417 0.500000 0.043134
O O16 0.750000 0.250000 0.054889
#
# Coordination Sequence:
#
# PCOD9349021 Si02
#       6
#     8   4   4   8   8   8
#     4  11  22  39  61  86 114 151 191 233 284 339
#     4   9  18  36  60  85 112 148 189 233 282 339
#     4   9  20  38  60  85 114 146 189 235 284 343
#     4  10  20  34  54  80 113 151 191 231 274 331
#     4  11  23  37  55  82 115 151 189 235 283 332
#     4   9  19  35  58  84 115 150 189 232 278 331
#
# _framework density 19.139254000000001
#
# number of rings (size 3 to 8) (size 9 to 14) (size 15 to 20)
#    0.000    2.000    1.000    2.400    1.400    2.800 
#    0.000    0.500    0.000    3.600    0.000    0.000 
#    0.000    0.000    0.000    0.000    0.000    0.000 
#
# Total GULP energy -111665.961092 kJ/mol
# GULP energy per Si atom -5583.298055 kJ/mol
# Density = 1.909569 g / cm^3
# Si number density = 19.139254 Si / 1000 Ang^3
#
#
#
# Elastic Constant Matrix: (Units=GPa)
#
#
# Indices 1 2 3 4 5 6 
#
# 1 137.6174 37.4830 87.2652 0.0000 0.0000 0.0000
# 2 37.4830 50.1095 32.4451 0.0000 0.0000 0.0000
# 3 87.2652 32.4451 127.0366 0.0000 0.0000 0.0000
# 4 0.0000 0.0000 0.0000 12.2123 0.0000 0.0000
# 5 0.0000 0.0000 0.0000 0.0000 16.5186 0.0000
# 6 0.0000 0.0000 0.0000 0.0000 0.0000 28.0257
#
#
#
# Elastic Compliance Matrix: (Units=1/GPa)
#
#
# Indices 1 2 3 4 5 6 
#
# 1 0.013860 -0.005036 -0.008235 0.000000 0.000000 0.000000
# 2 -0.005036 0.025740 -0.003115 0.000000 0.000000 0.000000
# 3 -0.008235 -0.003115 0.014324 0.000000 0.000000 0.000000
# 4 0.000000 0.000000 0.000000 0.081885 0.000000 0.000000
# 5 0.000000 0.000000 0.000000 0.000000 0.060538 0.000000
# 6 0.000000 0.000000 0.000000 0.000000 0.000000 0.035682
#
#
# Mechanical properties :
#
#
# Convention : Reuss Voigt Hill
#
# Bulk Modulus (GPa) = 47.27376 69.90556 58.58966
# Shear Modulus (GPa) = 18.39258 21.85600 20.12429
#
# Velocity S-wave (km/s) = 3.10334 3.38294 3.24615
# Velocity P-wave (km/s) = 6.13144 7.20160 6.68796
#
# Compressibility (1/GPa) = 0.02115338
#
# Stress axis : x y z
#
# Youngs Moduli (GPa) = 72.15141 38.85027 69.81367
#
# Poissons Ratio (x) = 0.19564 0.57489
# Poissons Ratio (y) = 0.36333 0.21746
# Poissons Ratio (z) = 0.59414 0.12101
#
# Static dielectric constant tensor:
#      x y z
#    x 1.657190 0.000000 0.000000 
#    y 0.000000 1.647700 0.000000 
#    z 0.000000 0.000000 1.656910 
# 
# From -- ./inp_files/14723.got.cif
#   From: 2010.05.17/outbox.cif.g08.bks.cpg/sg35_8_cif.got.tgz:14723.got - 2010.06.03 17:29:28.
