data_PCOD9349836
_publ_section_title
;
Structure prediction by ZEFSAII (Michael W. Deem and Ramdas Pophale) SiO2 
 PCOD9349836
Probable space group: C M M 2
;
_chemical_formula_sum "Si O2"
_cell_formula_units_Z 56
_cell_length_a 8.541299
_cell_length_b 22.552543
_cell_length_c 15.376666
_cell_angle_alpha 90.000000
_cell_angle_beta 90.000000
_cell_angle_gamma 90.000000
_cell_volume 2961.976618
_symmetry_space_group_name_H-M "C M M 2"
_symmetry_group_IT_number 35
_symmetry_cell_setting 'orthorhombic'
loop_
_space_group_symop_operation_xyz
x,y,z
-x,-y,z
-x,y,z
x,-y,z
1/2+x,1/2+y,z
1/2-x,1/2-y,z
1/2-x,1/2+y,z
1/2+x,1/2-y,z
loop_
_atom_site_type_symbol
_atom_site_label
_atom_site_fract_x
_atom_site_fract_y
_atom_site_fract_z
Si Si1 0.689451 0.000000 0.099420
Si Si2 0.688325 0.819462 0.523988
Si Si3 0.188291 0.184817 0.065908
Si Si4 0.813616 0.500000 0.904046
Si Si5 0.186414 0.315390 0.719075
Si Si6 0.312156 0.429089 0.404514
Si Si7 0.685752 0.623186 0.888227
Si Si8 0.311740 0.110155 0.216374
O O1 0.736969 0.057127 0.152280
O O2 0.500000 0.000000 0.095377
O O3 0.750479 0.000000 0.002530
O O4 0.500000 0.815381 0.514638
O O5 0.750000 0.750000 0.509168
O O6 0.725408 0.840303 0.623199
O O7 0.749032 0.874638 0.465047
O O8 0.250000 0.250000 0.045636
O O9 0.253544 0.165991 0.160393
O O10 0.000000 0.183234 0.068614
O O11 0.243983 0.144497 0.983689
O O12 0.752053 0.559468 0.863687
O O13 0.000000 0.500000 0.905066
O O14 0.250000 0.250000 0.709853
O O15 0.262921 0.337659 0.807446
O O16 0.000000 0.318256 0.729218
O O17 0.500000 0.429648 0.411237
O O18 0.261647 0.500000 0.417240
O O19 0.260534 0.406916 0.308652
O O20 0.500000 0.621792 0.894139
O O21 0.500000 0.112311 0.224891
#
# Coordination Sequence:
#
# PCOD9349836 Si02
#       8
#     4   8   8   4   8   8   8   8
#     4   9  18  33  57  84 109 148 193 235 282 338
#     4  10  22  42  68  95 123 159 203 255 311 372
#     4  11  24  39  56  84 120 158 201 249 297 349
#     4  11  21  37  59  84 117 158 203 247 296 354
#     4  10  21  39  64  91 118 155 199 247 300 360
#     4  11  24  41  63  94 128 163 204 253 310 370
#     4  11  23  38  58  87 121 159 200 246 298 355
#     4  11  21  38  62  87 116 154 198 242 294 354
#
# _framework density 18.906295
#
# number of rings (size 3 to 8) (size 9 to 14) (size 15 to 20)
#    0.000    1.429    2.143    3.214    0.000    6.000 
#    1.286    2.857    0.000    0.000    0.000    0.000 
#    0.000    0.000    0.000    0.000    0.000    0.000 
#
# Total GULP energy -155966.598107 kJ/mol
# GULP energy per Si atom -5570.235647 kJ/mol
# Density = 1.886326 g / cm^3
# Si number density = 18.906295 Si / 1000 Ang^3
#
#
#
# Elastic Constant Matrix: (Units=GPa)
#
#
# Indices 1 2 3 4 5 6 
#
# 1 51.6292 20.6364 24.0580 0.0000 0.0000 0.0000
# 2 20.6364 79.2180 27.1642 0.0000 0.0000 0.0000
# 3 24.0580 27.1642 81.0220 0.0000 0.0000 0.0000
# 4 0.0000 0.0000 0.0000 22.7070 0.0000 0.0000
# 5 0.0000 0.0000 0.0000 0.0000 27.1133 0.0000
# 6 0.0000 0.0000 0.0000 0.0000 0.0000 30.1210
#
#
#
# Elastic Compliance Matrix: (Units=1/GPa)
#
#
# Indices 1 2 3 4 5 6 
#
# 1 0.023679 -0.004245 -0.005608 0.000000 0.000000 0.000000
# 2 -0.004245 0.015024 -0.003777 0.000000 0.000000 0.000000
# 3 -0.005608 -0.003777 0.015274 0.000000 0.000000 0.000000
# 4 0.000000 0.000000 0.000000 0.044039 0.000000 0.000000
# 5 0.000000 0.000000 0.000000 0.000000 0.036882 0.000000
# 6 0.000000 0.000000 0.000000 0.000000 0.000000 0.033199
#
#
# Mechanical properties :
#
#
# Convention : Reuss Voigt Hill
#
# Bulk Modulus (GPa) = 37.42880 39.50960 38.46920
# Shear Modulus (GPa) = 24.47825 25.32230 24.90028
#
# Velocity S-wave (km/s) = 3.60212 3.66369 3.63304
# Velocity P-wave (km/s) = 6.09429 6.23216 6.16361
#
# Compressibility (1/GPa) = 0.02671739
#
# Stress axis : x y z
#
# Youngs Moduli (GPa) = 42.23176 66.55859 65.47256
#
# Poissons Ratio (x) = 0.28257 0.36714
# Poissons Ratio (y) = 0.17929 0.24726
# Poissons Ratio (z) = 0.23682 0.25136
#
# Static dielectric constant tensor:
#      x y z
#    x 1.648070 0.000000 0.000000 
#    y 0.000000 1.745270 0.000000 
#    z 0.000000 0.000000 1.649590 
# 
# From -- ./inp_files/15756.got.cif
#   From: 2010.05.17/outbox.cif.g08.bks.cpg/sg35_8_cif.got.tgz:15756.got - 2010.06.03 17:29:28.
