data_PCOD9349370
_publ_section_title
;
Structure prediction by ZEFSAII (Michael W. Deem and Ramdas Pophale) SiO2 
 PCOD9349370
Probable space group: C M M 2
;
_chemical_formula_sum "Si O2"
_cell_formula_units_Z 40
_cell_length_a 10.533388
_cell_length_b 14.535554
_cell_length_c 13.734060
_cell_angle_alpha 90.000000
_cell_angle_beta 90.000000
_cell_angle_gamma 90.000000
_cell_volume 2102.803112
_symmetry_space_group_name_H-M "C M M 2"
_symmetry_group_IT_number 35
_symmetry_cell_setting 'orthorhombic'
loop_
_space_group_symop_operation_xyz
x,y,z
-x,-y,z
-x,y,z
x,-y,z
1/2+x,1/2+y,z
1/2-x,1/2-y,z
1/2-x,1/2+y,z
1/2+x,1/2-y,z
loop_
_atom_site_type_symbol
_atom_site_label
_atom_site_fract_x
_atom_site_fract_y
_atom_site_fract_z
Si Si1 0.347746 0.890838 0.301120
Si Si2 0.500000 0.388700 0.769633
Si Si3 0.745879 0.888594 0.879119
Si Si4 0.000000 0.760486 0.586309
Si Si5 0.146957 0.612187 0.083328
Si Si6 0.500000 0.889672 0.749827
Si Si7 0.750000 0.250000 0.455202
O O1 0.500000 0.875499 0.309608
O O2 0.310080 0.860903 0.191460
O O3 0.276104 0.835709 0.384070
O O4 0.326530 0.000000 0.309887
O O5 0.500000 0.500000 0.762195
O O6 0.374991 0.358498 0.828292
O O7 0.500000 0.342620 0.664425
O O8 0.624211 0.865882 0.813221
O O9 0.749907 0.000000 0.882388
O O10 0.726583 0.857424 0.990065
O O11 0.126015 0.763851 0.521206
O O12 0.000000 0.667191 0.650486
O O13 0.146458 0.500000 0.083612
O O14 0.000000 0.640200 0.069763
O O15 0.500000 0.000000 0.733156
#
# Coordination Sequence:
#
# PCOD9349370 Si02
#       7
#     8   4   8   4   8   4   4
#     4   9  19  38  64  90 117 154 197 238 291 358
#     4  10  22  38  53  77 119 159 184 224 293 354
#     4   9  16  31  57  86 115 148 185 228 281 344
#     4  12  26  40  58  80 114 154 200 250 300 336
#     4   8  13  27  57  90 113 142 185 228 275 340
#     4  10  20  36  59  85 107 143 202 244 275 340
#     4  12  24  42  60  86 116 150 200 262 300 334
#
# _framework density 19.022227999999998
#
# number of rings (size 3 to 8) (size 9 to 14) (size 15 to 20)
#    0.000    2.400    2.000    2.400    0.000    1.600 
#    0.000    3.000    0.000    2.400    0.000    0.000 
#    0.000    0.000    0.000    0.000    0.000    0.000 
#
# Total GULP energy -111656.772072 kJ/mol
# GULP energy per Si atom -5582.838604 kJ/mol
# Density = 1.897893 g / cm^3
# Si number density = 19.022228 Si / 1000 Ang^3
#
#
#
# Elastic Constant Matrix: (Units=GPa)
#
#
# Indices 1 2 3 4 5 6 
#
# 1 153.0439 37.2956 110.8567 0.0000 0.0000 0.0000
# 2 37.2956 79.4838 56.1901 0.0000 0.0000 0.0000
# 3 110.8567 56.1901 203.7233 0.0000 0.0000 0.0000
# 4 0.0000 0.0000 0.0000 67.1269 0.0000 0.0000
# 5 0.0000 0.0000 0.0000 0.0000 -82.1495 0.0000
# 6 0.0000 0.0000 0.0000 0.0000 0.0000 6.9860
#
#
#
# Elastic Compliance Matrix: (Units=1/GPa)
#
#
# Indices 1 2 3 4 5 6 
#
# 1 0.010868 -0.001141 -0.005599 0.000000 0.000000 0.000000
# 2 -0.001141 0.015748 -0.003723 0.000000 0.000000 0.000000
# 3 -0.005599 -0.003723 0.008982 0.000000 0.000000 0.000000
# 4 0.000000 0.000000 0.000000 0.014897 0.000000 0.000000
# 5 0.000000 0.000000 0.000000 0.000000 -0.012173 0.000000
# 6 0.000000 0.000000 0.000000 0.000000 0.000000 0.143142
#
#
# Mechanical properties :
#
#
# Convention : Reuss Voigt Hill
#
# Bulk Modulus (GPa) = 68.15480 93.88174 81.01827
# Shear Modulus (GPa) = 24.12180 13.85326 18.98753
#
# Velocity S-wave (km/s) = 3.56488 2.70157 3.16282
# Velocity P-wave (km/s) = 7.26989 7.69364 7.48477
#
# Compressibility (1/GPa) = 0.01467248
#
# Stress axis : x y z
#
# Youngs Moduli (GPa) = 92.01523 63.49875 111.33312
#
# Poissons Ratio (x) = 0.07247 0.62335
# Poissons Ratio (y) = 0.10502 0.41445
# Poissons Ratio (z) = 0.51519 0.23638
#
# Static dielectric constant tensor:
#      x y z
#    x 1.631840 0.000000 0.000000 
#    y 0.000000 1.686170 0.000000 
#    z 0.000000 0.000000 1.647600 
# 
# From -- ./inp_files/14865.got.cif
#   From: 2010.05.17/outbox.cif.g08.bks.cpg/sg35_8_cif.got.tgz:14865.got - 2010.06.03 17:29:28.
