data_PCOD9349305
_publ_section_title
;
Structure prediction by ZEFSAII (Michael W. Deem and Ramdas Pophale) SiO2 
 PCOD9349305
Probable space group: C M M 2
;
_chemical_formula_sum "Si O2"
_cell_formula_units_Z 56
_cell_length_a 21.878861
_cell_length_b 8.723476
_cell_length_c 14.429770
_cell_angle_alpha 90.000000
_cell_angle_beta 90.000000
_cell_angle_gamma 90.000000
_cell_volume 2754.061845
_symmetry_space_group_name_H-M "C M M 2"
_symmetry_group_IT_number 35
_symmetry_cell_setting 'orthorhombic'
loop_
_space_group_symop_operation_xyz
x,y,z
-x,-y,z
-x,y,z
x,-y,z
1/2+x,1/2+y,z
1/2-x,1/2-y,z
1/2-x,1/2+y,z
1/2+x,1/2-y,z
loop_
_atom_site_type_symbol
_atom_site_label
_atom_site_fract_x
_atom_site_fract_y
_atom_site_fract_z
Si Si1 0.313397 0.185106 0.188120
Si Si2 0.566425 0.184753 0.294221
Si Si3 0.371129 0.816011 0.002842
Si Si4 0.686595 0.681632 0.614652
Si Si5 0.431860 0.183541 0.515058
Si Si6 0.500000 0.324099 0.785580
Si Si7 0.000000 0.174208 0.010803
Si Si8 0.369443 0.183789 0.790812
O O1 0.250000 0.250000 0.224476
O O2 0.373070 0.241182 0.243395
O O3 0.311701 0.000000 0.192445
O O4 0.323466 0.232398 0.080950
O O5 0.500000 0.244110 0.261653
O O6 0.570527 0.209964 0.404411
O O7 0.565460 0.000000 0.280773
O O8 0.359542 0.764439 0.897369
O O9 0.372701 0.000000 0.000378
O O10 0.437794 0.759939 0.035345
O O11 0.689792 0.500000 0.613261
O O12 0.750000 0.750000 0.576958
O O13 0.626231 0.737969 0.561109
O O14 0.676935 0.741746 0.719274
O O15 0.500000 0.233965 0.547068
O O16 0.427934 0.000000 0.530775
O O17 0.500000 0.500000 0.751991
O O18 0.437695 0.236796 0.761431
O O19 0.500000 0.328767 0.898086
O O20 0.000000 0.000000 0.044204
O O21 0.365851 0.000000 0.786401
#
# Coordination Sequence:
#
# PCOD9349305 Si02
#       8
#     8   8   8   8   8   4   4   8
#     4  10  21  36  56  84 118 155 195 237 285 340
#     4   8  16  34  62  91 115 147 190 235 283 344
#     4   9  19  34  54  80 112 155 199 238 282 340
#     4  12  26  42  60  85 118 156 200 245 298 355
#     4   9  19  39  66  93 120 150 189 236 293 355
#     4   9  17  31  51  79 110 145 190 237 289 342
#     4   9  17  29  49  77 108 141 184 241 293 332
#     4  10  20  36  56  81 115 154 199 245 292 342
#
# _framework density 20.333603
#
# number of rings (size 3 to 8) (size 9 to 14) (size 15 to 20)
#    0.000    2.429    0.000    3.000    2.000    4.286 
#    0.000    3.571    0.000    0.857    0.000    0.000 
#    0.000    0.000    0.000    0.000    0.000    0.000 
#
# Total GULP energy -156318.911842 kJ/mol
# GULP energy per Si atom -5582.818280 kJ/mol
# Density = 2.028732 g / cm^3
# Si number density = 20.333603 Si / 1000 Ang^3
#
#
#
# Elastic Constant Matrix: (Units=GPa)
#
#
# Indices 1 2 3 4 5 6 
#
# 1 177.2690 41.2824 62.2429 0.0000 0.0000 0.0000
# 2 41.2824 51.0493 25.2469 0.0000 0.0000 0.0000
# 3 62.2429 25.2469 53.5579 0.0000 0.0000 0.0000
# 4 0.0000 0.0000 0.0000 9.9548 0.0000 0.0000
# 5 0.0000 0.0000 0.0000 0.0000 19.3131 0.0000
# 6 0.0000 0.0000 0.0000 0.0000 0.0000 30.7155
#
#
#
# Elastic Compliance Matrix: (Units=1/GPa)
#
#
# Indices 1 2 3 4 5 6 
#
# 1 0.009873 -0.003011 -0.010054 0.000000 0.000000 0.000000
# 2 -0.003011 0.026463 -0.008974 0.000000 0.000000 0.000000
# 3 -0.010054 -0.008974 0.034586 0.000000 0.000000 0.000000
# 4 0.000000 0.000000 0.000000 0.100454 0.000000 0.000000
# 5 0.000000 0.000000 0.000000 0.000000 0.051778 0.000000
# 6 0.000000 0.000000 0.000000 0.000000 0.000000 0.032557
#
#
# Mechanical properties :
#
#
# Convention : Reuss Voigt Hill
#
# Bulk Modulus (GPa) = 37.25564 59.93561 48.59562
# Shear Modulus (GPa) = 16.19500 22.20364 19.19932
#
# Velocity S-wave (km/s) = 2.82523 3.30808 3.07614
# Velocity P-wave (km/s) = 5.38559 6.64314 6.04714
#
# Compressibility (1/GPa) = 0.02684158
#
# Stress axis : x y z
#
# Youngs Moduli (GPa) = 101.29031 37.78918 28.91326
#
# Poissons Ratio (x) = 0.11380 0.29069
# Poissons Ratio (y) = 0.30503 0.25948
# Poissons Ratio (z) = 1.01837 0.33914
#
# Static dielectric constant tensor:
#      x y z
#    x 1.718900 0.000000 0.000000 
#    y 0.000000 1.689270 0.000000 
#    z 0.000000 0.000000 1.756270 
# 
# From -- ./inp_files/17472.got.cif
#   From: 2010.05.17/outbox.cif.g08.bks.cpg/sg35_9_cif.got.tgz:17472.got - 2010.06.03 17:29:28.
