data_PCOD9349732
_publ_section_title
;
Structure prediction by ZEFSAII (Michael W. Deem and Ramdas Pophale) SiO2 
 PCOD9349732
Probable space group: C M M 2
;
_chemical_formula_sum "Si O2"
_cell_formula_units_Z 50
_cell_length_a 9.691485
_cell_length_b 18.775020
_cell_length_c 15.340318
_cell_angle_alpha 90.000000
_cell_angle_beta 90.000000
_cell_angle_gamma 90.000000
_cell_volume 2791.290894
_symmetry_space_group_name_H-M "C M M 2"
_symmetry_group_IT_number 35
_symmetry_cell_setting 'orthorhombic'
loop_
_space_group_symop_operation_xyz
x,y,z
-x,-y,z
-x,y,z
x,-y,z
1/2+x,1/2+y,z
1/2-x,1/2-y,z
1/2-x,1/2+y,z
1/2+x,1/2-y,z
loop_
_atom_site_type_symbol
_atom_site_label
_atom_site_fract_x
_atom_site_fract_y
_atom_site_fract_z
Si Si1 0.342668 0.414921 0.119330
Si Si2 0.835068 0.676739 0.988725
Si Si3 0.339101 0.320693 0.480385
Si Si4 0.337975 0.083144 0.815959
Si Si5 0.500000 0.000000 0.315609
Si Si6 0.784928 0.078443 0.318210
Si Si7 0.335411 0.416776 0.645656
O O1 0.500000 0.400106 0.089927
O O2 0.317740 0.500000 0.110434
O O3 0.330928 0.398569 0.222014
O O4 0.231488 0.371112 0.064921
O O5 0.750000 0.750000 0.985409
O O6 0.814686 0.632980 0.898975
O O7 0.000000 0.687588 0.000818
O O8 0.250000 0.250000 0.476417
O O9 0.321296 0.366903 0.393206
O O10 0.296919 0.368951 0.563196
O O11 0.000000 0.197112 0.491002
O O12 0.500000 0.087463 0.792704
O O13 0.245762 0.103273 0.733120
O O14 0.308275 0.000000 0.837938
O O15 0.377638 0.938925 0.315484
O O16 0.847867 0.000000 0.336913
O O17 0.500000 0.410791 0.659691
O O18 0.304628 0.500000 0.627138
#
# Coordination Sequence:
#
# PCOD9349732 Si02
#       7
#     8   8   8   8   2   8   8
#     4  10  21  37  61  89 115 147 190 236 285 336
#     4  11  24  39  58  81 118 155 191 234 285 343
#     4  11  24  38  56  82 119 156 193 236 285 341
#     4   9  19  38  60  86 109 142 186 236 287 338
#     4   8  20  36  62  92 112 146 196 236 284 344
#     4   9  20  38  61  85 116 147 191 234 284 334
#     4   9  19  37  60  84 109 145 188 235 287 338
#
# _framework density 17.912859000000001
#
# number of rings (size 3 to 8) (size 9 to 14) (size 15 to 20)
#    0.480    1.760    0.000    1.920    2.240    5.760 
#    0.000    6.400    0.000    0.000    0.000    0.000 
#    0.000    0.000    0.000    0.000    0.000    0.000 
#
# Total GULP energy -139186.994271 kJ/mol
# GULP energy per Si atom -5567.479771 kJ/mol
# Density = 1.787209 g / cm^3
# Si number density = 17.912859 Si / 1000 Ang^3
#
#
#
# Elastic Constant Matrix: (Units=GPa)
#
#
# Indices 1 2 3 4 5 6 
#
# 1 103.1579 63.4050 61.7314 0.0000 0.0000 0.0000
# 2 63.4050 97.9487 91.1463 0.0000 0.0000 0.0000
# 3 61.7314 91.1463 129.8548 0.0000 0.0000 0.0000
# 4 0.0000 0.0000 0.0000 -25.6849 0.0000 0.0000
# 5 0.0000 0.0000 0.0000 0.0000 5.6496 0.0000
# 6 0.0000 0.0000 0.0000 0.0000 0.0000 -110.1268
#
#
#
# Elastic Compliance Matrix: (Units=1/GPa)
#
#
# Indices 1 2 3 4 5 6 
#
# 1 0.016142 -0.009539 -0.000978 0.000000 0.000000 0.000000
# 2 -0.009539 0.035073 -0.020083 0.000000 0.000000 0.000000
# 3 -0.000978 -0.020083 0.022263 0.000000 0.000000 0.000000
# 4 0.000000 0.000000 0.000000 -0.038933 0.000000 0.000000
# 5 0.000000 0.000000 0.000000 0.000000 0.177003 0.000000
# 6 0.000000 0.000000 0.000000 0.000000 0.000000 -0.009080
#
#
# Mechanical properties :
#
#
# Convention : Reuss Voigt Hill
#
# Bulk Modulus (GPa) = 81.45564 84.83633 83.14598
# Shear Modulus (GPa) = 18.67345 -18.38717 0.14314
#
# Velocity S-wave (km/s) = 3.23222 -3.20735 0.28299
# Velocity P-wave (km/s) = 7.71373 5.80924 6.82821
#
# Compressibility (1/GPa) = 0.01227662
#
# Stress axis : x y z
#
# Youngs Moduli (GPa) = 61.94861 28.51223 44.91850
#
# Poissons Ratio (x) = 0.27198 0.04395
# Poissons Ratio (y) = 0.59093 0.90210
# Poissons Ratio (z) = 0.06061 0.57261
#
# Static dielectric constant tensor:
#      x y z
#    x 1.608440 0.000000 0.000000 
#    y 0.000000 1.602840 0.000000 
#    z 0.000000 0.000000 1.589630 
# 
# From -- ./inp_files/15243.got.cif
#   From: 2010.05.17/outbox.cif.g08.bks.cpg/sg35_8_cif.got.tgz:15243.got - 2010.06.03 17:29:28.
