data_PCOD9349839
_publ_section_title
;
Structure prediction by ZEFSAII (Michael W. Deem and Ramdas Pophale) SiO2 
 PCOD9349839
Probable space group: C M M 2
;
_chemical_formula_sum "Si O2"
_cell_formula_units_Z 64
_cell_length_a 31.343281
_cell_length_b 8.825178
_cell_length_c 12.072341
_cell_angle_alpha 90.000000
_cell_angle_beta 90.000000
_cell_angle_gamma 90.000000
_cell_volume 3339.330654
_symmetry_space_group_name_H-M "C M M 2"
_symmetry_group_IT_number 35
_symmetry_cell_setting 'orthorhombic'
loop_
_space_group_symop_operation_xyz
x,y,z
-x,-y,z
-x,y,z
x,-y,z
1/2+x,1/2+y,z
1/2-x,1/2-y,z
1/2-x,1/2+y,z
1/2+x,1/2-y,z
loop_
_atom_site_type_symbol
_atom_site_label
_atom_site_fract_x
_atom_site_fract_y
_atom_site_fract_z
Si Si1 0.678294 0.178604 0.075790
Si Si2 0.294553 0.319000 0.309721
Si Si3 0.048829 0.180215 0.842893
Si Si4 0.294710 0.319453 0.844816
Si Si5 0.373323 0.820077 0.709666
Si Si6 0.924311 0.322424 0.071834
Si Si7 0.374976 0.318177 0.467260
Si Si8 0.048521 0.181356 0.303903
O O1 0.694927 0.247164 0.190427
O O2 0.626991 0.195080 0.071555
O O3 0.688600 0.000000 0.069526
O O4 0.697606 0.263558 0.970419
O O5 0.291105 0.500000 0.298396
O O6 0.250000 0.250000 0.349951
O O7 0.333353 0.285813 0.392999
O O8 0.083286 0.265615 0.768438
O O9 0.000000 0.215087 0.811948
O O10 0.055385 0.000000 0.832659
O O11 0.056575 0.229850 0.969601
O O12 0.293329 0.500000 0.840810
O O13 0.250000 0.250000 0.805319
O O14 0.333915 0.257827 0.772772
O O15 0.373576 0.767778 0.582780
O O16 0.369267 0.000000 0.719978
O O17 0.934156 0.500000 0.057708
O O18 0.941703 0.263203 0.188484
O O19 0.376399 0.500000 0.487337
O O20 0.416541 0.275913 0.395307
O O21 0.000000 0.212878 0.339000
O O22 0.052645 0.000000 0.285916
#
# Coordination Sequence:
#
# PCOD9349839 Si02
#       8
#     8   8   8   8   8   8   8   8
#     4  11  22  38  62  94 130 166 206 252 312 374
#     4  11  23  40  64  92 125 164 207 255 308 368
#     4  11  24  42  66  94 126 167 212 258 312 375
#     4  12  25  43  68  95 128 166 209 257 312 374
#     4  12  26  44  66  93 126 164 210 263 317 371
#     4  11  22  36  61  94 131 166 202 254 313 373
#     4  10  23  43  64  88 121 164 212 259 310 365
#     4  10  21  39  64  92 124 163 208 255 306 370
#
# _framework density 19.165517000000001
#
# number of rings (size 3 to 8) (size 9 to 14) (size 15 to 20)
#    0.000    1.000    2.500    4.500    0.000    6.250 
#    0.000    2.500    0.000    0.000    0.000    0.000 
#    0.000    0.000    0.000    0.000    0.000    0.000 
#
# Total GULP energy -179075.500671 kJ/mol
# GULP energy per Si atom -5596.109396 kJ/mol
# Density = 1.912190 g / cm^3
# Si number density = 19.165517 Si / 1000 Ang^3
#
#
#
# Elastic Constant Matrix: (Units=GPa)
#
#
# Indices 1 2 3 4 5 6 
#
# 1 149.5083 84.7978 64.2323 0.0000 0.0000 0.0000
# 2 84.7978 119.3331 64.7685 0.0000 0.0000 0.0000
# 3 64.2323 64.7685 114.5567 0.0000 0.0000 0.0000
# 4 0.0000 0.0000 0.0000 1.9022 0.0000 0.0000
# 5 0.0000 0.0000 0.0000 0.0000 -7.4368 0.0000
# 6 0.0000 0.0000 0.0000 0.0000 0.0000 31.3197
#
#
#
# Elastic Compliance Matrix: (Units=1/GPa)
#
#
# Indices 1 2 3 4 5 6 
#
# 1 0.011754 -0.006890 -0.002695 0.000000 0.000000 0.000000
# 2 -0.006890 0.016128 -0.005256 0.000000 0.000000 0.000000
# 3 -0.002695 -0.005256 0.013212 0.000000 0.000000 0.000000
# 4 0.000000 0.000000 0.000000 0.525707 0.000000 0.000000
# 5 0.000000 0.000000 0.000000 0.000000 -0.134467 0.000000
# 6 0.000000 0.000000 0.000000 0.000000 0.000000 0.031929
#
#
# Mechanical properties :
#
#
# Convention : Reuss Voigt Hill
#
# Bulk Modulus (GPa) = 87.61703 90.11059 88.86381
# Shear Modulus (GPa) = 10.04524 16.46365 13.25445
#
# Velocity S-wave (km/s) = 2.29187 2.93409 2.63264
# Velocity P-wave (km/s) = 7.26765 7.65491 7.46379
#
# Compressibility (1/GPa) = 0.01141331
#
# Stress axis : x y z
#
# Youngs Moduli (GPa) = 85.07589 62.00355 75.68881
#
# Poissons Ratio (x) = 0.42718 0.20401
# Poissons Ratio (y) = 0.58614 0.39779
# Poissons Ratio (z) = 0.22931 0.32586
#
# Static dielectric constant tensor:
#      x y z
#    x 1.670290 0.000000 0.000000 
#    y 0.000000 1.641090 0.000000 
#    z 0.000000 0.000000 1.620640 
# 
# From -- ./inp_files/11991.got.cif
#   From: 2010.05.17/outbox.cif.g08.bks.cpg/sg35_6_cif.got.tgz:11991.got - 2010.06.03 17:29:28.
