data_PCOD9349319
_publ_section_title
;
Structure prediction by ZEFSAII (Michael W. Deem and Ramdas Pophale) SiO2 
 PCOD9349319
Probable space group: C M M 2
;
_chemical_formula_sum "Si O2"
_cell_formula_units_Z 56
_cell_length_a 22.912439
_cell_length_b 9.042996
_cell_length_c 15.072272
_cell_angle_alpha 90.000000
_cell_angle_beta 90.000000
_cell_angle_gamma 90.000000
_cell_volume 3122.930962
_symmetry_space_group_name_H-M "C M M 2"
_symmetry_group_IT_number 35
_symmetry_cell_setting 'orthorhombic'
loop_
_space_group_symop_operation_xyz
x,y,z
-x,-y,z
-x,y,z
x,-y,z
1/2+x,1/2+y,z
1/2-x,1/2-y,z
1/2-x,1/2+y,z
1/2+x,1/2-y,z
loop_
_atom_site_type_symbol
_atom_site_label
_atom_site_fract_x
_atom_site_fract_y
_atom_site_fract_z
Si Si1 0.000000 0.827531 0.560101
Si Si2 0.310840 0.324685 0.173603
Si Si3 0.397117 0.177586 0.665515
Si Si4 0.127332 0.331243 0.329840
Si Si5 0.187811 0.677484 0.514325
Si Si6 0.000000 0.338517 0.389602
Si Si7 0.069475 0.821251 0.853208
Si Si8 0.186126 0.178361 0.967761
O O1 0.945488 0.742847 0.600541
O O2 0.000000 0.797128 0.456358
O O3 0.000000 0.000000 0.583022
O O4 0.305935 0.500000 0.176208
O O5 0.250000 0.250000 0.197392
O O6 0.354044 0.268716 0.248543
O O7 0.323643 0.282841 0.071494
O O8 0.338701 0.217379 0.610736
O O9 0.410989 0.250529 0.759778
O O10 0.400638 0.000000 0.672956
O O11 0.149261 0.500000 0.316535
O O12 0.149428 0.281444 0.427558
O O13 0.058057 0.335126 0.333734
O O14 0.191286 0.500000 0.513303
O O15 0.250000 0.750000 0.502782
O O16 0.000000 0.500000 0.438852
O O17 0.125003 0.781855 0.917525
O O18 0.000000 0.779703 0.872592
O O19 0.069037 0.000000 0.847349
O O20 0.250000 0.250000 0.941643
O O21 0.192898 0.000000 0.959463
#
# Coordination Sequence:
#
# PCOD9349319 Si02
#       8
#     4   8   8   8   8   4   8   8
#     4  12  22  34  56  83 108 143 188 231 270 320
#     4  10  20  36  58  84 111 147 190 233 281 336
#     4  11  22  38  58  80 111 151 189 228 276 333
#     4  10  20  36  57  81 111 150 187 230 281 331
#     4  10  22  37  54  78 111 149 186 228 279 327
#     4  10  20  38  58  77 112 153 188 225 278 336
#     4  10  21  38  60  87 115 147 190 239 293 349
#     4   9  20  39  61  85 115 151 190 237 294 349
#
# _framework density 17.931873
#
# number of rings (size 3 to 8) (size 9 to 14) (size 15 to 20)
#    0.000    1.857    2.143    1.929    0.000    5.143 
#    1.286    2.857    0.000    0.000    0.000    0.000 
#    0.000    0.000    0.000    0.000    0.000    0.000 
#
# Total GULP energy -155912.048796 kJ/mol
# GULP energy per Si atom -5568.287457 kJ/mol
# Density = 1.789106 g / cm^3
# Si number density = 17.931873 Si / 1000 Ang^3
#
#
#
# Elastic Constant Matrix: (Units=GPa)
#
#
# Indices 1 2 3 4 5 6 
#
# 1 143.8102 32.4971 64.8678 0.0000 0.0000 0.0000
# 2 32.4971 17.1200 29.4315 0.0000 0.0000 0.0000
# 3 64.8678 29.4315 78.2752 0.0000 0.0000 0.0000
# 4 0.0000 0.0000 0.0000 29.4706 0.0000 0.0000
# 5 0.0000 0.0000 0.0000 0.0000 21.7486 0.0000
# 6 0.0000 0.0000 0.0000 0.0000 0.0000 21.4453
#
#
#
# Elastic Compliance Matrix: (Units=1/GPa)
#
#
# Indices 1 2 3 4 5 6 
#
# 1 0.012627 -0.016909 -0.004106 0.000000 0.000000 0.000000
# 2 -0.016909 0.187831 -0.056612 0.000000 0.000000 0.000000
# 3 -0.004106 -0.056612 0.037464 0.000000 0.000000 0.000000
# 4 0.000000 0.000000 0.000000 0.033932 0.000000 0.000000
# 5 0.000000 0.000000 0.000000 0.000000 0.045980 0.000000
# 6 0.000000 0.000000 0.000000 0.000000 0.000000 0.046630
#
#
# Mechanical properties :
#
#
# Convention : Reuss Voigt Hill
#
# Bulk Modulus (GPa) = 12.09655 54.75537 33.42596
# Shear Modulus (GPa) = 9.13618 22.02683 15.58151
#
# Velocity S-wave (km/s) = 2.25965 3.50860 2.95096
# Velocity P-wave (km/s) = 3.68354 6.85676 5.50380
#
# Compressibility (1/GPa) = 0.08266818
#
# Stress axis : x y z
#
# Youngs Moduli (GPa) = 79.19713 5.32393 26.69207
#
# Poissons Ratio (x) = 0.09002 0.10960
# Poissons Ratio (y) = 1.33915 1.51109
# Poissons Ratio (z) = 0.32520 0.30140
#
# Static dielectric constant tensor:
#      x y z
#    x 1.640280 0.000000 0.000000 
#    y 0.000000 1.634280 0.000000 
#    z 0.000000 0.000000 1.617660 
# 
# From -- ./inp_files/17422.got.cif
#   From: 2010.05.17/outbox.cif.g08.bks.cpg/sg35_9_cif.got.tgz:17422.got - 2010.06.03 17:29:28.
