data_PCOD9349679
_publ_section_title
;
Structure prediction by ZEFSAII (Michael W. Deem and Ramdas Pophale) SiO2 
 PCOD9349679
Probable space group: C M M 2
;
_chemical_formula_sum "Si O2"
_cell_formula_units_Z 64
_cell_length_a 8.920919
_cell_length_b 19.213288
_cell_length_c 21.310811
_cell_angle_alpha 90.000000
_cell_angle_beta 90.000000
_cell_angle_gamma 90.000000
_cell_volume 3652.676969
_symmetry_space_group_name_H-M "C M M 2"
_symmetry_group_IT_number 35
_symmetry_cell_setting 'orthorhombic'
loop_
_space_group_symop_operation_xyz
x,y,z
-x,-y,z
-x,y,z
x,-y,z
1/2+x,1/2+y,z
1/2-x,1/2-y,z
1/2-x,1/2+y,z
1/2+x,1/2-y,z
loop_
_atom_site_type_symbol
_atom_site_label
_atom_site_fract_x
_atom_site_fract_y
_atom_site_fract_z
Si Si1 0.179009 0.582054 0.160060
Si Si2 0.180413 0.173180 0.270365
Si Si3 0.680198 0.580837 0.390519
Si Si4 0.680440 0.418795 0.650763
Si Si5 0.678641 0.417962 0.026860
Si Si6 0.826994 0.415408 0.521191
Si Si7 0.180696 0.826267 0.908588
Si Si8 0.180901 0.826359 0.768289
O O1 0.216353 0.500000 0.169955
O O2 0.259186 0.629647 0.211265
O O3 0.235054 0.601111 0.090358
O O4 0.000000 0.589578 0.164483
O O5 0.250000 0.250000 0.271197
O O6 0.223594 0.129936 0.332854
O O7 0.000000 0.177435 0.267816
O O8 0.500000 0.581042 0.395267
O O9 0.726731 0.500000 0.379446
O O10 0.747460 0.605523 0.456650
O O11 0.500000 0.415448 0.646345
O O12 0.721834 0.500000 0.658254
O O13 0.748708 0.392072 0.585408
O O14 0.729518 0.375675 0.711511
O O15 0.500000 0.407017 0.036491
O O16 0.701601 0.500000 0.015729
O O17 0.727488 0.375149 0.965875
O O18 0.819185 0.500000 0.521869
O O19 0.000000 0.394673 0.520612
O O20 0.250000 0.750000 0.916053
O O21 0.221483 0.852054 0.838471
O O22 0.000000 0.821282 0.910437
O O23 0.250000 0.750000 0.760856
O O24 0.000000 0.821502 0.765969
#
# Coordination Sequence:
#
# PCOD9349679 Si02
#       8
#     8   8   8   8   8   8   8   8
#     4  10  21  37  57  80 106 137 173 212 254 304
#     4  11  23  38  56  79 108 139 172 212 257 304
#     4   9  18  34  56  78 100 131 169 206 248 301
#     4   9  17  30  49  72  98 128 163 205 250 295
#     4   9  18  33  53  76 102 132 167 209 254 299
#     4   9  17  29  48  75 103 129 161 204 250 296
#     4   9  18  32  50  72  98 130 167 206 249 299
#     4   9  18  32  49  70  97 130 167 205 248 298
#
# _framework density 17.521394999999998
#
# number of rings (size 3 to 8) (size 9 to 14) (size 15 to 20)
#    0.000    2.625    0.000    1.500    0.000    5.750 
#    0.000    5.625    0.000    0.000    0.000    7.000 
#    0.000    0.000    0.000    0.000    0.000    0.000 
#
# Total GULP energy -178444.794439 kJ/mol
# GULP energy per Si atom -5576.399826 kJ/mol
# Density = 1.748152 g / cm^3
# Si number density = 17.521395 Si / 1000 Ang^3
#
#
#
# Elastic Constant Matrix: (Units=GPa)
#
#
# Indices 1 2 3 4 5 6 
#
# 1 30.1871 35.9460 57.1631 0.0000 0.0000 0.0000
# 2 35.9460 74.3696 96.5176 0.0000 0.0000 0.0000
# 3 57.1631 96.5176 204.7977 0.0000 0.0000 0.0000
# 4 0.0000 0.0000 0.0000 -17.5896 0.0000 0.0000
# 5 0.0000 0.0000 0.0000 0.0000 19.4987 0.0000
# 6 0.0000 0.0000 0.0000 0.0000 0.0000 21.7834
#
#
#
# Elastic Compliance Matrix: (Units=1/GPa)
#
#
# Indices 1 2 3 4 5 6 
#
# 1 0.087539 -0.027296 -0.011570 0.000000 0.000000 0.000000
# 2 -0.027296 0.043134 -0.012710 0.000000 0.000000 0.000000
# 3 -0.011570 -0.012710 0.014102 0.000000 0.000000 0.000000
# 4 0.000000 0.000000 0.000000 -0.056852 0.000000 0.000000
# 5 0.000000 0.000000 0.000000 0.000000 0.051285 0.000000
# 6 0.000000 0.000000 0.000000 0.000000 0.000000 0.045907
#
#
# Mechanical properties :
#
#
# Convention : Reuss Voigt Hill
#
# Bulk Modulus (GPa) = 24.02434 76.51199 50.26817
# Shear Modulus (GPa) = 16.54858 12.72034 14.63446
#
# Velocity S-wave (km/s) = 3.07657 2.69734 2.89318
# Velocity P-wave (km/s) = 5.13435 7.31187 6.31763
#
# Compressibility (1/GPa) = 0.04162445
#
# Stress axis : x y z
#
# Youngs Moduli (GPa) = 11.42352 23.18335 70.91200
#
# Poissons Ratio (x) = 0.63281 0.82042
# Poissons Ratio (y) = 0.31182 0.90126
# Poissons Ratio (z) = 0.13217 0.29465
#
# Static dielectric constant tensor:
#      x y z
#    x 1.588180 0.000000 0.000000 
#    y 0.000000 1.573240 0.000000 
#    z 0.000000 0.000000 1.591570 
# 
# From -- ./inp_files/18413.got.cif
#   From: 2010.05.17/outbox.cif.g08.bks.cpg/sg35_10_cif.got.tgz:18413.got - 2010.06.03 17:29:28.
