data_PCOD9349937
_publ_section_title
;
Structure prediction by ZEFSAII (Michael W. Deem and Ramdas Pophale) SiO2 
 PCOD9349937
Probable space group: C M M 2
;
_chemical_formula_sum "Si O2"
_cell_formula_units_Z 64
_cell_length_a 7.863077
_cell_length_b 18.860832
_cell_length_c 21.462182
_cell_angle_alpha 90.000000
_cell_angle_beta 90.000000
_cell_angle_gamma 90.000000
_cell_volume 3182.931180
_symmetry_space_group_name_H-M "C M M 2"
_symmetry_group_IT_number 35
_symmetry_cell_setting 'orthorhombic'
loop_
_space_group_symop_operation_xyz
x,y,z
-x,-y,z
-x,y,z
x,-y,z
1/2+x,1/2+y,z
1/2-x,1/2-y,z
1/2-x,1/2+y,z
1/2+x,1/2-y,z
loop_
_atom_site_type_symbol
_atom_site_label
_atom_site_fract_x
_atom_site_fract_y
_atom_site_fract_z
Si Si1 0.708443 0.918100 0.095720
Si Si2 0.795864 0.080645 0.851461
Si Si3 0.707054 0.917331 0.473701
Si Si4 0.794989 0.667462 0.216312
Si Si5 0.797278 0.667432 0.974405
Si Si6 0.705055 0.167825 0.354504
Si Si7 0.701621 0.667894 0.733225
Si Si8 0.704663 0.918771 0.611636
O O1 0.500000 0.917367 0.095820
O O2 0.766106 0.880993 0.159652
O O3 0.760918 0.000000 0.091247
O O4 0.766996 0.872350 0.036436
O O5 0.761153 0.125954 0.913078
O O6 0.726774 0.121998 0.790893
O O7 0.000000 0.075975 0.845156
O O8 0.729887 0.000000 0.856009
O O9 0.500000 0.912302 0.473326
O O10 0.771216 0.874600 0.414149
O O11 0.764345 0.894491 0.542890
O O12 0.749688 0.000000 0.467405
O O13 0.750000 0.750000 0.206273
O O14 0.733346 0.645857 0.285468
O O15 0.000000 0.662880 0.217005
O O16 0.750000 0.750000 0.973169
O O17 0.000000 0.663346 0.975802
O O18 0.500000 0.160678 0.353951
O O19 0.750000 0.250000 0.361605
O O20 0.500000 0.664922 0.738339
O O21 0.750000 0.750000 0.736761
O O22 0.748773 0.632231 0.667826
O O23 0.500000 0.921780 0.608990
O O24 0.765047 0.000000 0.622408
#
# Coordination Sequence:
#
# PCOD9349937 Si02
#       8
#     8   8   8   8   8   8   8   8
#     4   9  18  32  50  75 104 131 166 213 258 300
#     4  10  22  40  60  82 108 136 168 210 257 304
#     4   8  15  29  49  73 100 129 165 209 252 296
#     4   9  17  30  49  71  97 131 168 207 251 299
#     4  11  22  36  56  80 107 140 175 212 255 303
#     4   9  17  29  47  71  98 130 167 206 250 299
#     4  11  23  38  56  79 107 137 171 212 256 303
#     4   9  18  34  55  77 103 136 172 212 259 309
#
# _framework density 20.107251999999999
#
# number of rings (size 3 to 8) (size 9 to 14) (size 15 to 20)
#    0.000    2.500    0.000    3.000    0.000    4.500 
#    0.000    5.000    0.000    3.000    0.000    3.500 
#    0.000    0.000    0.000    0.000    0.000    0.000 
#
# Total GULP energy -178594.575925 kJ/mol
# GULP energy per Si atom -5581.080498 kJ/mol
# Density = 2.006149 g / cm^3
# Si number density = 20.107252 Si / 1000 Ang^3
#
#
#
# Elastic Constant Matrix: (Units=GPa)
#
#
# Indices 1 2 3 4 5 6 
#
# 1 23.5369 6.2169 10.1346 0.0000 0.0000 0.0000
# 2 6.2169 160.5013 138.7956 0.0000 0.0000 0.0000
# 3 10.1346 138.7956 235.7046 0.0000 0.0000 0.0000
# 4 0.0000 0.0000 0.0000 40.7642 0.0000 0.0000
# 5 0.0000 0.0000 0.0000 0.0000 14.6043 0.0000
# 6 0.0000 0.0000 0.0000 0.0000 0.0000 3.2961
#
#
#
# Elastic Compliance Matrix: (Units=1/GPa)
#
#
# Indices 1 2 3 4 5 6 
#
# 1 0.043289 -0.000137 -0.001781 0.000000 0.000000 0.000000
# 2 -0.000137 0.012695 -0.007470 0.000000 0.000000 0.000000
# 3 -0.001781 -0.007470 0.008718 0.000000 0.000000 0.000000
# 4 0.000000 0.000000 0.000000 0.024531 0.000000 0.000000
# 5 0.000000 0.000000 0.000000 0.000000 0.068473 0.000000
# 6 0.000000 0.000000 0.000000 0.000000 0.000000 0.303389
#
#
# Mechanical properties :
#
#
# Convention : Reuss Voigt Hill
#
# Bulk Modulus (GPa) = 21.77331 81.11521 51.44426
# Shear Modulus (GPa) = 10.09733 29.37263 19.73498
#
# Velocity S-wave (km/s) = 2.24335 3.82618 3.13627
# Velocity P-wave (km/s) = 4.19074 7.74264 6.22538
#
# Compressibility (1/GPa) = 0.04592779
#
# Stress axis : x y z
#
# Youngs Moduli (GPa) = 23.10031 78.76833 114.70740
#
# Poissons Ratio (x) = 0.01078 0.20426
# Poissons Ratio (y) = 0.00316 0.85685
# Poissons Ratio (z) = 0.04113 0.58839
#
# Static dielectric constant tensor:
#      x y z
#    x 1.723740 0.000000 0.000000 
#    y 0.000000 1.689180 0.000000 
#    z 0.000000 0.000000 1.727640 
# 
# From -- ./inp_files/18439.got.cif
#   From: 2010.05.17/outbox.cif.g08.bks.cpg/sg35_10_cif.got.tgz:18439.got - 2010.06.03 17:29:28.
