data_PCOD9349502
_publ_section_title
;
Structure prediction by ZEFSAII (Michael W. Deem and Ramdas Pophale) SiO2 
 PCOD9349502
Probable space group: C M M 2
;
_chemical_formula_sum "Si O2"
_cell_formula_units_Z 40
_cell_length_a 8.079970
_cell_length_b 21.031812
_cell_length_c 13.170940
_cell_angle_alpha 90.000000
_cell_angle_beta 90.000000
_cell_angle_gamma 90.000000
_cell_volume 2238.222260
_symmetry_space_group_name_H-M "C M M 2"
_symmetry_group_IT_number 35
_symmetry_cell_setting 'orthorhombic'
loop_
_space_group_symop_operation_xyz
x,y,z
-x,-y,z
-x,y,z
x,-y,z
1/2+x,1/2+y,z
1/2-x,1/2-y,z
1/2-x,1/2+y,z
1/2+x,1/2-y,z
loop_
_atom_site_type_symbol
_atom_site_label
_atom_site_fract_x
_atom_site_fract_y
_atom_site_fract_z
Si Si1 0.820554 0.147034 0.851400
Si Si2 0.000000 0.657217 0.579210
Si Si3 0.000000 0.425947 0.379986
Si Si4 0.801173 0.681677 0.071170
Si Si5 0.750000 0.250000 0.682817
Si Si6 0.692085 0.426165 0.226891
Si Si7 0.500000 0.074718 0.775832
O O1 0.827626 0.200444 0.763520
O O2 0.664619 0.102859 0.827130
O O3 0.000000 0.114567 0.854201
O O4 0.782957 0.177329 0.960666
O O5 0.000000 0.625078 0.470103
O O6 0.149454 0.703769 0.609027
O O7 0.000000 0.600590 0.661243
O O8 0.833754 0.417633 0.312438
O O9 0.000000 0.500000 0.415652
O O10 0.750000 0.750000 0.116356
O O11 0.734592 0.623761 0.138882
O O12 0.000000 0.677821 0.062197
O O13 0.500000 0.417073 0.260381
O O14 0.706196 0.500000 0.192459
O O15 0.500000 0.000000 0.780861
#
# Coordination Sequence:
#
# PCOD9349502 Si02
#       7
#     8   4   4   8   4   8   4
#     4  11  21  37  61  85 124 168 203 251 315 373
#     4  10  21  40  64  90 121 162 204 264 318 371
#     4  10  21  43  68  87 121 167 210 259 323 372
#     4  12  23  37  60  94 127 165 211 259 310 379
#     4  10  20  38  60  90 124 160 206 254 316 380
#     4  10  22  43  66  90 124 167 210 259 319 381
#     4  10  23  39  58  89 121 157 212 261 305 373
#
# _framework density 17.871327000000001
#
# number of rings (size 3 to 8) (size 9 to 14) (size 15 to 20)
#    0.000    1.400    4.000    2.100    0.000    1.200 
#    3.600    0.000    0.000    2.400    0.000    0.000 
#    0.000    0.000    0.000    0.000    0.000    0.000 
#
# Total GULP energy -111468.733095 kJ/mol
# GULP energy per Si atom -5573.436655 kJ/mol
# Density = 1.783065 g / cm^3
# Si number density = 17.871327 Si / 1000 Ang^3
#
#
#
# Elastic Constant Matrix: (Units=GPa)
#
#
# Indices 1 2 3 4 5 6 
#
# 1 167.7778 66.4146 50.1591 0.0000 0.0000 0.0000
# 2 66.4146 134.8730 71.5781 0.0000 0.0000 0.0000
# 3 50.1591 71.5781 102.2371 0.0000 0.0000 0.0000
# 4 0.0000 0.0000 0.0000 15.4026 0.0000 0.0000
# 5 0.0000 0.0000 0.0000 0.0000 -69.5432 0.0000
# 6 0.0000 0.0000 0.0000 0.0000 0.0000 27.9409
#
#
#
# Elastic Compliance Matrix: (Units=1/GPa)
#
#
# Indices 1 2 3 4 5 6 
#
# 1 0.007598 -0.002806 -0.001763 0.000000 0.000000 0.000000
# 2 -0.002806 0.012834 -0.007609 0.000000 0.000000 0.000000
# 3 -0.001763 -0.007609 0.015973 0.000000 0.000000 0.000000
# 4 0.000000 0.000000 0.000000 0.064924 0.000000 0.000000
# 5 0.000000 0.000000 0.000000 0.000000 -0.014380 0.000000
# 6 0.000000 0.000000 0.000000 0.000000 0.000000 0.035790
#
#
# Mechanical properties :
#
#
# Convention : Reuss Voigt Hill
#
# Bulk Modulus (GPa) = 82.98968 86.79907 84.89438
# Shear Modulus (GPa) = 33.08796 9.20912 21.14854
#
# Velocity S-wave (km/s) = 4.30752 2.27249 3.44376
# Velocity P-wave (km/s) = 8.44262 7.45385 7.96360
#
# Compressibility (1/GPa) = 0.01204969
#
# Stress axis : x y z
#
# Youngs Moduli (GPa) = 131.61255 77.91806 62.60371
#
# Poissons Ratio (x) = 0.21860 0.11040
# Poissons Ratio (y) = 0.36925 0.47634
# Poissons Ratio (z) = 0.23210 0.59287
#
# Static dielectric constant tensor:
#      x y z
#    x 1.724550 0.000000 0.000000 
#    y 0.000000 1.591790 0.000000 
#    z 0.000000 0.000000 1.578910 
# 
# From -- ./inp_files/11244.got.cif
#   From: 2010.05.17/outbox.cif.g08.bks.cpg/sg35_6_cif.got.tgz:11244.got - 2010.06.03 17:29:28.
