data_PCOD9349460
_publ_section_title
;
Structure prediction by ZEFSAII (Michael W. Deem and Ramdas Pophale) SiO2 
 PCOD9349460
Probable space group: C M M 2
;
_chemical_formula_sum "Si O2"
_cell_formula_units_Z 56
_cell_length_a 22.717770
_cell_length_b 8.821602
_cell_length_c 15.105064
_cell_angle_alpha 90.000000
_cell_angle_beta 90.000000
_cell_angle_gamma 90.000000
_cell_volume 3027.162453
_symmetry_space_group_name_H-M "C M M 2"
_symmetry_group_IT_number 35
_symmetry_cell_setting 'orthorhombic'
loop_
_space_group_symop_operation_xyz
x,y,z
-x,-y,z
-x,y,z
x,-y,z
1/2+x,1/2+y,z
1/2-x,1/2-y,z
1/2-x,1/2+y,z
1/2+x,1/2-y,z
loop_
_atom_site_type_symbol
_atom_site_label
_atom_site_fract_x
_atom_site_fract_y
_atom_site_fract_z
Si Si1 0.569725 0.184021 0.453740
Si Si2 0.389941 0.181272 0.651602
Si Si3 0.000000 0.177693 0.749194
Si Si4 0.816047 0.682288 0.334893
Si Si5 0.687021 0.319208 0.797713
Si Si6 0.189267 0.176172 0.145669
Si Si7 0.000000 0.330701 0.930904
Si Si8 0.889896 0.824220 0.972366
O O1 0.500000 0.233796 0.440331
O O2 0.593167 0.227188 0.551705
O O3 0.624810 0.229403 0.389926
O O4 0.567093 0.000000 0.450112
O O5 0.444028 0.240057 0.709289
O O6 0.335201 0.252143 0.704191
O O7 0.384902 0.000000 0.653257
O O8 0.000000 0.208768 0.852630
O O9 0.000000 0.000000 0.729423
O O10 0.811168 0.500000 0.341762
O O11 0.750000 0.750000 0.358248
O O12 0.828243 0.734397 0.234203
O O13 0.689774 0.500000 0.790420
O O14 0.750000 0.250000 0.818758
O O15 0.644471 0.285353 0.881372
O O16 0.250000 0.250000 0.116445
O O17 0.197280 0.000000 0.170544
O O18 0.148167 0.183255 0.060758
O O19 0.942045 0.293905 0.984365
O O20 0.000000 0.500000 0.894581
O O21 0.909639 0.000000 0.963427
#
# Coordination Sequence:
#
# PCOD9349460 Si02
#       8
#     8   8   4   8   8   8   4   8
#     4   9  19  37  61  88 116 150 195 247 303 351
#     4  11  21  37  61  85 111 149 196 241 285 344
#     4  12  22  36  56  81 114 151 190 233 282 336
#     4  10  20  37  62  87 117 153 192 245 298 357
#     4  11  23  38  56  82 117 155 193 238 289 343
#     4  10  20  37  61  86 114 151 192 236 287 346
#     4  12  24  36  58  85 112 153 200 239 278 338
#     4  10  22  39  58  81 117 155 188 238 294 339
#
# _framework density 18.499174
#
# number of rings (size 3 to 8) (size 9 to 14) (size 15 to 20)
#    0.000    1.571    2.143    4.286    0.000    2.286 
#    1.286    4.286    0.000    0.000    0.000    0.000 
#    0.000    0.000    0.000    0.000    0.000    0.000 
#
# Total GULP energy -156028.211928 kJ/mol
# GULP energy per Si atom -5572.436140 kJ/mol
# Density = 1.845707 g / cm^3
# Si number density = 18.499174 Si / 1000 Ang^3
#
#
#
# Elastic Constant Matrix: (Units=GPa)
#
#
# Indices 1 2 3 4 5 6 
#
# 1 111.9505 50.2987 52.3389 0.0000 0.0000 0.0000
# 2 50.2987 60.4649 33.0954 0.0000 0.0000 0.0000
# 3 52.3389 33.0954 74.0736 0.0000 0.0000 0.0000
# 4 0.0000 0.0000 0.0000 18.7599 0.0000 0.0000
# 5 0.0000 0.0000 0.0000 0.0000 32.0283 0.0000
# 6 0.0000 0.0000 0.0000 0.0000 0.0000 21.7274
#
#
#
# Elastic Compliance Matrix: (Units=1/GPa)
#
#
# Indices 1 2 3 4 5 6 
#
# 1 0.016917 -0.009968 -0.007500 0.000000 0.000000 0.000000
# 2 -0.009968 0.027766 -0.005362 0.000000 0.000000 0.000000
# 3 -0.007500 -0.005362 0.021195 0.000000 0.000000 0.000000
# 4 0.000000 0.000000 0.000000 0.053305 0.000000 0.000000
# 5 0.000000 0.000000 0.000000 0.000000 0.031222 0.000000
# 6 0.000000 0.000000 0.000000 0.000000 0.000000 0.046025
#
#
# Mechanical properties :
#
#
# Convention : Reuss Voigt Hill
#
# Bulk Modulus (GPa) = 49.46106 57.55056 53.50581
# Shear Modulus (GPa) = 20.09404 21.88685 20.99045
#
# Velocity S-wave (km/s) = 3.29935 3.44339 3.37214
# Velocity P-wave (km/s) = 6.42723 6.85468 6.64439
#
# Compressibility (1/GPa) = 0.02021792
#
# Stress axis : x y z
#
# Youngs Moduli (GPa) = 59.11075 36.01591 47.18058
#
# Poissons Ratio (x) = 0.35900 0.35385
# Poissons Ratio (y) = 0.58921 0.25299
# Poissons Ratio (z) = 0.44333 0.19313
#
# Static dielectric constant tensor:
#      x y z
#    x 1.684220 0.000000 0.000000 
#    y 0.000000 1.630700 0.000000 
#    z 0.000000 0.000000 1.632370 
# 
# From -- ./inp_files/17451.got.cif
#   From: 2010.05.17/outbox.cif.g08.bks.cpg/sg35_9_cif.got.tgz:17451.got - 2010.06.03 17:29:28.
