data_PCOD9349484
_publ_section_title
;
Structure prediction by ZEFSAII (Michael W. Deem and Ramdas Pophale) SiO2 
 PCOD9349484
Probable space group: C M M 2
;
_chemical_formula_sum "Si O2"
_cell_formula_units_Z 64
_cell_length_a 8.920505
_cell_length_b 31.388099
_cell_length_c 12.078916
_cell_angle_alpha 90.000000
_cell_angle_beta 90.000000
_cell_angle_gamma 90.000000
_cell_volume 3382.068627
_symmetry_space_group_name_H-M "C M M 2"
_symmetry_group_IT_number 35
_symmetry_cell_setting 'orthorhombic'
loop_
_space_group_symop_operation_xyz
x,y,z
-x,-y,z
-x,y,z
x,-y,z
1/2+x,1/2+y,z
1/2-x,1/2-y,z
1/2-x,1/2+y,z
1/2+x,1/2-y,z
loop_
_atom_site_type_symbol
_atom_site_label
_atom_site_fract_x
_atom_site_fract_y
_atom_site_fract_z
Si Si1 0.680257 0.205391 0.598960
Si Si2 0.678399 0.874077 0.200274
Si Si3 0.821817 0.205384 0.073209
Si Si4 0.676833 0.821965 0.846650
Si Si5 0.679272 0.121987 0.461931
Si Si6 0.821220 0.951389 0.067465
Si Si7 0.678644 0.548893 0.606925
Si Si8 0.676642 0.075565 0.838959
O O1 0.500000 0.208129 0.594145
O O2 0.750000 0.250000 0.563277
O O3 0.721453 0.195767 0.726638
O O4 0.726619 0.165340 0.524071
O O5 0.500000 0.871341 0.180583
O O6 0.756764 0.833688 0.143799
O O7 0.706295 0.874873 0.331393
O O8 0.741243 0.916713 0.143943
O O9 0.750000 0.250000 0.109636
O O10 0.000000 0.207008 0.081480
O O11 0.772014 0.196985 0.946475
O O12 0.500000 0.812466 0.865156
O O13 0.692687 0.873153 0.844502
O O14 0.500000 0.117195 0.479911
O O15 0.760730 0.082129 0.517393
O O16 0.000000 0.944815 0.070151
O O17 0.789170 0.000000 0.101532
O O18 0.762075 0.944289 0.943001
O O19 0.500000 0.553466 0.619173
O O20 0.711561 0.500000 0.576067
O O21 0.756379 0.559346 0.723850
O O22 0.500000 0.065645 0.845266
#
# Coordination Sequence:
#
# PCOD9349484 Si02
#       8
#     8   8   8   8   8   8   8   8
#     4  10  21  39  61  89 122 154 193 242 298 356
#     4  11  24  43  66  90 120 160 211 262 311 368
#     4  12  25  41  64  92 127 164 205 253 308 371
#     4  10  20  37  62  91 125 159 199 250 305 367
#     4  10  23  44  65  87 119 161 208 258 305 360
#     4  11  24  41  62  91 127 163 201 251 312 374
#     4  11  24  40  61  92 128 163 203 253 308 367
#     4  11  21  37  64  93 125 163 202 249 306 367
#
# _framework density 18.923328999999999
#
# number of rings (size 3 to 8) (size 9 to 14) (size 15 to 20)
#    0.000    1.250    2.500    3.375    0.000    8.000 
#    0.000    3.750    0.000    0.000    0.000    0.000 
#    0.000    0.000    0.000    0.000    0.000    0.000 
#
# Total GULP energy -178993.117614 kJ/mol
# GULP energy per Si atom -5593.534925 kJ/mol
# Density = 1.888026 g / cm^3
# Si number density = 18.923329 Si / 1000 Ang^3
#
#
#
# Elastic Constant Matrix: (Units=GPa)
#
#
# Indices 1 2 3 4 5 6 
#
# 1 94.0892 82.9838 71.1313 0.0000 0.0000 0.0000
# 2 82.9838 161.0571 74.9132 0.0000 0.0000 0.0000
# 3 71.1313 74.9132 102.0890 0.0000 0.0000 0.0000
# 4 0.0000 0.0000 0.0000 -6.5493 0.0000 0.0000
# 5 0.0000 0.0000 0.0000 0.0000 12.9491 0.0000
# 6 0.0000 0.0000 0.0000 0.0000 0.0000 35.1553
#
#
#
# Elastic Compliance Matrix: (Units=1/GPa)
#
#
# Indices 1 2 3 4 5 6 
#
# 1 0.028095 -0.008154 -0.013593 0.000000 0.000000 0.000000
# 2 -0.008154 0.011793 -0.002972 0.000000 0.000000 0.000000
# 3 -0.013593 -0.002972 0.021447 0.000000 0.000000 0.000000
# 4 0.000000 0.000000 0.000000 -0.152687 0.000000 0.000000
# 5 0.000000 0.000000 0.000000 0.000000 0.077226 0.000000
# 6 0.000000 0.000000 0.000000 0.000000 0.000000 0.028445
#
#
# Mechanical properties :
#
#
# Convention : Reuss Voigt Hill
#
# Bulk Modulus (GPa) = 84.04643 90.58801 87.31722
# Shear Modulus (GPa) = 73.83128 16.85814 45.34471
#
# Velocity S-wave (km/s) = 6.25306 2.98797 4.90044
# Velocity P-wave (km/s) = 9.83081 7.73815 8.84658
#
# Compressibility (1/GPa) = 0.01189819
#
# Stress axis : x y z
#
# Youngs Moduli (GPa) = 35.59290 84.79847 46.62610
#
# Poissons Ratio (x) = 0.69142 0.63377
# Poissons Ratio (y) = 0.29021 0.13859
# Poissons Ratio (z) = 0.48380 0.25205
#
# Static dielectric constant tensor:
#      x y z
#    x 1.632110 0.000000 0.000000 
#    y 0.000000 1.644940 0.000000 
#    z 0.000000 0.000000 1.625250 
# 
# From -- ./inp_files/12014.got.cif
#   From: 2010.05.17/outbox.cif.g08.bks.cpg/sg35_7_cif.got.tgz:12014.got - 2010.06.03 17:29:28.
