data_PCOD9349217
_publ_section_title
;
Structure prediction by ZEFSAII (Michael W. Deem and Ramdas Pophale) SiO2 
 PCOD9349217
Probable space group: C M M 2
;
_chemical_formula_sum "Si O2"
_cell_formula_units_Z 64
_cell_length_a 8.527247
_cell_length_b 28.807472
_cell_length_c 13.465448
_cell_angle_alpha 90.000000
_cell_angle_beta 90.000000
_cell_angle_gamma 90.000000
_cell_volume 3307.766150
_symmetry_space_group_name_H-M "C M M 2"
_symmetry_group_IT_number 35
_symmetry_cell_setting 'orthorhombic'
loop_
_space_group_symop_operation_xyz
x,y,z
-x,-y,z
-x,y,z
x,-y,z
1/2+x,1/2+y,z
1/2-x,1/2-y,z
1/2-x,1/2+y,z
1/2+x,1/2-y,z
loop_
_atom_site_type_symbol
_atom_site_label
_atom_site_fract_x
_atom_site_fract_y
_atom_site_fract_z
Si Si1 0.814209 0.197683 0.828030
Si Si2 0.688969 0.945667 0.720171
Si Si3 0.310325 0.890833 0.916945
Si Si4 0.688091 0.197162 0.618452
Si Si5 0.810695 0.395042 0.311979
Si Si6 0.313217 0.445103 0.507842
Si Si7 0.691740 0.053556 0.112875
Si Si8 0.311124 0.197993 0.398036
O O1 0.750000 0.250000 0.840351
O O2 0.752076 0.161365 0.908431
O O3 0.756991 0.178314 0.720633
O O4 0.000000 0.199879 0.827950
O O5 0.500000 0.943204 0.716608
O O6 0.741678 0.918699 0.818366
O O7 0.751348 0.927706 0.614525
O O8 0.733820 0.000000 0.729039
O O9 0.500000 0.889569 0.916036
O O10 0.259868 0.917957 0.015538
O O11 0.500000 0.195637 0.626095
O O12 0.750000 0.250000 0.617420
O O13 0.734831 0.180150 0.508995
O O14 0.759245 0.420733 0.412153
O O15 0.754898 0.421483 0.213852
O O16 0.759137 0.341358 0.321216
O O17 0.000000 0.395086 0.309549
O O18 0.500000 0.440260 0.505411
O O19 0.273221 0.500000 0.503061
O O20 0.500000 0.053349 0.113524
O O21 0.742250 0.000000 0.109064
O O22 0.500000 0.200618 0.397624
O O23 0.250000 0.250000 0.382298
#
# Coordination Sequence:
#
# PCOD9349217 Si02
#       8
#     8   8   8   8   8   8   8   8
#     4  11  22  36  54  79 111 148 189 230 278 332
#     4   9  18  33  54  79 108 143 182 225 277 338
#     4  10  20  35  57  83 111 143 185 235 285 332
#     4   9  16  29  48  72 104 142 182 224 270 320
#     4  10  20  35  57  84 111 145 190 232 275 330
#     4  10  21  35  51  77 113 147 180 223 279 339
#     4   9  18  35  61  88 111 141 187 238 281 328
#     4   9  19  33  51  77 110 146 184 226 271 323
#
# _framework density 19.348406000000001
#
# number of rings (size 3 to 8) (size 9 to 14) (size 15 to 20)
#    0.000    2.375    0.000    3.375    1.750    4.250 
#    0.000    1.250    0.000    3.375    0.000    0.000 
#    0.000    0.000    0.000    0.000    0.000    0.000 
#
# Total GULP energy -178576.733975 kJ/mol
# GULP energy per Si atom -5580.522937 kJ/mol
# Density = 1.930437 g / cm^3
# Si number density = 19.348406 Si / 1000 Ang^3
#
#
#
# Elastic Constant Matrix: (Units=GPa)
#
#
# Indices 1 2 3 4 5 6 
#
# 1 20.4960 26.1244 27.1117 0.0000 0.0000 0.0000
# 2 26.1244 137.6144 98.3824 0.0000 0.0000 0.0000
# 3 27.1117 98.3824 157.2266 0.0000 0.0000 0.0000
# 4 0.0000 0.0000 0.0000 37.7567 0.0000 0.0000
# 5 0.0000 0.0000 0.0000 0.0000 2.5295 0.0000
# 6 0.0000 0.0000 0.0000 0.0000 0.0000 20.1199
#
#
#
# Elastic Compliance Matrix: (Units=1/GPa)
#
#
# Indices 1 2 3 4 5 6 
#
# 1 0.067945 -0.008183 -0.006596 0.000000 0.000000 0.000000
# 2 -0.008183 0.014134 -0.007433 0.000000 0.000000 0.000000
# 3 -0.006596 -0.007433 0.012149 0.000000 0.000000 0.000000
# 4 0.000000 0.000000 0.000000 0.026485 0.000000 0.000000
# 5 0.000000 0.000000 0.000000 0.000000 0.395338 0.000000
# 6 0.000000 0.000000 0.000000 0.000000 0.000000 0.049702
#
#
# Mechanical properties :
#
#
# Convention : Reuss Voigt Hill
#
# Bulk Modulus (GPa) = 20.07878 68.73047 44.40463
# Shear Modulus (GPa) = 7.97729 22.99579 15.48654
#
# Velocity S-wave (km/s) = 2.03271 3.45122 2.83221
# Velocity P-wave (km/s) = 3.98864 7.17502 5.80474
#
# Compressibility (1/GPa) = 0.04980382
#
# Stress axis : x y z
#
# Youngs Moduli (GPa) = 14.71779 70.74986 82.31225
#
# Poissons Ratio (x) = 0.57896 0.54291
# Poissons Ratio (y) = 0.12044 0.61185
# Poissons Ratio (z) = 0.09707 0.52590
#
# Static dielectric constant tensor:
#      x y z
#    x 1.655850 0.000000 0.000000 
#    y 0.000000 1.690430 0.000000 
#    z 0.000000 0.000000 1.676190 
# 
# From -- ./inp_files/11900.got.cif
#   From: 2010.05.17/outbox.cif.g08.bks.cpg/sg35_6_cif.got.tgz:11900.got - 2010.06.03 17:29:28.
