data_PCOD9349089
_publ_section_title
;
Structure prediction by ZEFSAII (Michael W. Deem and Ramdas Pophale) SiO2 
 PCOD9349089
Probable space group: C M M 2
;
_chemical_formula_sum "Si O2"
_cell_formula_units_Z 64
_cell_length_a 19.621252
_cell_length_b 26.044951
_cell_length_c 6.333068
_cell_angle_alpha 90.000000
_cell_angle_beta 90.000000
_cell_angle_gamma 90.000000
_cell_volume 3236.416536
_symmetry_space_group_name_H-M "C M M 2"
_symmetry_group_IT_number 35
_symmetry_cell_setting 'orthorhombic'
loop_
_space_group_symop_operation_xyz
x,y,z
-x,-y,z
-x,y,z
x,-y,z
1/2+x,1/2+y,z
1/2-x,1/2-y,z
1/2-x,1/2+y,z
1/2+x,1/2-y,z
loop_
_atom_site_type_symbol
_atom_site_label
_atom_site_fract_x
_atom_site_fract_y
_atom_site_fract_z
Si Si1 0.922935 0.440436 0.493570
Si Si2 0.300207 0.618543 0.530874
Si Si3 0.663485 0.303679 0.155583
Si Si4 0.575715 0.155631 0.776689
Si Si5 0.782451 0.653789 0.919462
Si Si6 0.712057 0.941045 0.228972
Si Si7 0.578326 0.657965 0.770194
Si Si8 0.076241 0.745300 0.447378
O O1 0.917258 0.500000 0.558800
O O2 0.915881 0.402154 0.690439
O O3 0.863104 0.431077 0.326236
O O4 0.000000 0.432434 0.408211
O O5 0.320145 0.656337 0.341570
O O6 0.266140 0.569923 0.417455
O O7 0.242991 0.643732 0.681365
O O8 0.368261 0.616778 0.674135
O O9 0.731698 0.304762 0.018123
O O10 0.605470 0.325469 0.999359
O O11 0.634180 0.254508 0.275218
O O12 0.500000 0.162369 0.867765
O O13 0.580919 0.192423 0.572937
O O14 0.638954 0.168789 0.922284
O O15 0.774719 0.600310 0.046288
O O16 0.715934 0.000000 0.158770
O O17 0.500000 0.640955 0.773958
O O18 0.581912 0.708932 0.621779
O O19 0.000000 0.749427 0.354096
#
# Coordination Sequence:
#
# PCOD9349089 Si02
#       8
#     8   8   8   8   8   8   8   8
#     4   9  18  34  56  80 106 143 189 233 281 332
#     4   9  18  35  54  81 114 143 181 231 280 342
#     4   9  18  34  56  77 109 147 185 236 278 341
#     4  10  20  36  56  78 113 154 191 239 287 336
#     4  10  20  35  54  79 113 144 191 237 281 342
#     4  10  20  34  57  82 107 144 187 235 283 335
#     4   9  17  32  56  84 111 143 186 230 274 334
#     4   9  18  34  54  79 111 147 189 232 280 334
#
# _framework density 19.774957000000001
#
# number of rings (size 3 to 8) (size 9 to 14) (size 15 to 20)
#    0.000    2.625    1.250    0.375    0.000    2.000 
#    2.250    6.875    0.000    0.375    0.000    0.000 
#    0.000    0.000    0.000    0.000    0.000    0.000 
#
# Total GULP energy -178483.541312 kJ/mol
# GULP energy per Si atom -5577.610666 kJ/mol
# Density = 1.972995 g / cm^3
# Si number density = 19.774957 Si / 1000 Ang^3
#
#
#
# Elastic Constant Matrix: (Units=GPa)
#
#
# Indices 1 2 3 4 5 6 
#
# 1 129.9776 32.0947 31.9323 0.0000 0.0000 0.0000
# 2 32.0947 48.4104 14.6647 0.0000 0.0000 0.0000
# 3 31.9323 14.6647 61.0000 0.0000 0.0000 0.0000
# 4 0.0000 0.0000 0.0000 18.3208 0.0000 0.0000
# 5 0.0000 0.0000 0.0000 0.0000 28.1750 0.0000
# 6 0.0000 0.0000 0.0000 0.0000 0.0000 19.3717
#
#
#
# Elastic Compliance Matrix: (Units=1/GPa)
#
#
# Indices 1 2 3 4 5 6 
#
# 1 0.010002 -0.005441 -0.003928 0.000000 0.000000 0.000000
# 2 -0.005441 0.025239 -0.003219 0.000000 0.000000 0.000000
# 3 -0.003928 -0.003219 0.019224 0.000000 0.000000 0.000000
# 4 0.000000 0.000000 0.000000 0.054583 0.000000 0.000000
# 5 0.000000 0.000000 0.000000 0.000000 0.035492 0.000000
# 6 0.000000 0.000000 0.000000 0.000000 0.000000 0.051622
#
#
# Mechanical properties :
#
#
# Convention : Reuss Voigt Hill
#
# Bulk Modulus (GPa) = 34.14341 44.08572 39.11456
# Shear Modulus (GPa) = 21.63549 23.88657 22.76103
#
# Velocity S-wave (km/s) = 3.31128 3.47929 3.39632
# Velocity P-wave (km/s) = 5.65004 6.20344 5.93320
#
# Compressibility (1/GPa) = 0.02928823
#
# Stress axis : x y z
#
# Youngs Moduli (GPa) = 99.97794 39.62072 52.01961
#
# Poissons Ratio (x) = 0.21559 0.20432
# Poissons Ratio (y) = 0.54401 0.16746
# Poissons Ratio (z) = 0.39270 0.12755
#
# Static dielectric constant tensor:
#      x y z
#    x 1.731800 0.000000 0.000000 
#    y 0.000000 1.685560 0.000000 
#    z 0.000000 0.000000 1.705130 
# 
# From -- ./inp_files/2717.got.cif
#   From: 2010.05.17/outbox.cif.g08.bks.cpg/sg35_2_cif.got.tgz:2717.got - 2010.06.03 17:29:28.
