data_PCOD9349613
_publ_section_title
;
Structure prediction by ZEFSAII (Michael W. Deem and Ramdas Pophale) SiO2 
 PCOD9349613
Probable space group: C M M 2
;
_chemical_formula_sum "Si O2"
_cell_formula_units_Z 56
_cell_length_a 7.786534
_cell_length_b 18.883476
_cell_length_c 19.063846
_cell_angle_alpha 90.000000
_cell_angle_beta 90.000000
_cell_angle_gamma 90.000000
_cell_volume 2803.087444
_symmetry_space_group_name_H-M "C M M 2"
_symmetry_group_IT_number 35
_symmetry_cell_setting 'orthorhombic'
loop_
_space_group_symop_operation_xyz
x,y,z
-x,-y,z
-x,y,z
x,-y,z
1/2+x,1/2+y,z
1/2-x,1/2-y,z
1/2-x,1/2+y,z
1/2+x,1/2-y,z
loop_
_atom_site_type_symbol
_atom_site_label
_atom_site_fract_x
_atom_site_fract_y
_atom_site_fract_z
Si Si1 0.706495 0.081334 0.240630
Si Si2 0.207220 0.167096 0.951723
Si Si3 0.793552 0.166492 0.799551
Si Si4 0.205778 0.080224 0.512632
Si Si5 0.792560 0.833154 0.646539
Si Si6 0.795523 0.667644 0.374263
Si Si7 0.293158 0.580982 0.085534
O O1 0.500000 0.078562 0.245682
O O2 0.773036 0.129642 0.303891
O O3 0.748889 0.108770 0.162888
O O4 0.770800 0.000000 0.246527
O O5 0.250000 0.250000 0.957289
O O6 0.269761 0.139629 0.875309
O O7 0.000000 0.161008 0.951142
O O8 0.272446 0.125693 0.019685
O O9 0.750000 0.250000 0.799884
O O10 0.730140 0.141047 0.723459
O O11 0.000000 0.158364 0.799471
O O12 0.272992 0.121263 0.581279
O O13 0.238763 0.125351 0.443066
O O14 0.000000 0.075844 0.520555
O O15 0.272746 0.000000 0.506536
O O16 0.750000 0.750000 0.638064
O O17 0.000000 0.837821 0.647175
O O18 0.750000 0.750000 0.377780
O O19 0.000000 0.662916 0.371837
O O20 0.500000 0.579387 0.081122
O O21 0.229774 0.500000 0.081753
#
# Coordination Sequence:
#
# PCOD9349613 Si02
#       7
#     8   8   8   8   8   8   8
#     4   9  19  36  55  73  95 126 163 200 240 290
#     4   9  17  29  46  69  96 126 162 202 242 285
#     4   8  14  26  44  66  93 125 160 198 241 286
#     4  10  21  36  53  75 104 135 167 204 247 296
#     4   9  17  30  49  72  97 127 164 204 245 289
#     4  11  23  38  56  78 103 130 164 205 248 296
#     4   9  18  32  49  70  97 128 161 197 239 288
#
# _framework density 19.977972000000001
#
# number of rings (size 3 to 8) (size 9 to 14) (size 15 to 20)
#    0.000    2.714    0.000    1.286    0.000    4.857 
#    0.000    5.000    0.000    4.286    0.000    0.000 
#    0.000   13.714    0.000    0.000    0.000    0.000 
#
# Total GULP energy -156100.981740 kJ/mol
# GULP energy per Si atom -5575.035062 kJ/mol
# Density = 1.993250 g / cm^3
# Si number density = 19.977972 Si / 1000 Ang^3
#
#
#
# Elastic Constant Matrix: (Units=GPa)
#
#
# Indices 1 2 3 4 5 6 
#
# 1 28.8978 2.4973 7.0130 0.0000 0.0000 0.0000
# 2 2.4973 97.8594 108.2588 0.0000 0.0000 0.0000
# 3 7.0130 108.2588 257.3766 0.0000 0.0000 0.0000
# 4 0.0000 0.0000 0.0000 -84.4652 0.0000 0.0000
# 5 0.0000 0.0000 0.0000 0.0000 17.9831 0.0000
# 6 0.0000 0.0000 0.0000 0.0000 0.0000 12.4703
#
#
#
# Elastic Compliance Matrix: (Units=1/GPa)
#
#
# Indices 1 2 3 4 5 6 
#
# 1 0.034840 0.000301 -0.001076 0.000000 0.000000 0.000000
# 2 0.000301 0.019115 -0.008048 0.000000 0.000000 0.000000
# 3 -0.001076 -0.008048 0.007300 0.000000 0.000000 0.000000
# 4 0.000000 0.000000 0.000000 -0.011839 0.000000 0.000000
# 5 0.000000 0.000000 0.000000 0.000000 0.055608 0.000000
# 6 0.000000 0.000000 0.000000 0.000000 0.000000 0.080190
#
#
# Mechanical properties :
#
#
# Convention : Reuss Voigt Hill
#
# Bulk Modulus (GPa) = 22.93132 68.85243 45.89188
# Shear Modulus (GPa) = 22.99952 6.95527 14.97740
#
# Velocity S-wave (km/s) = 3.39668 1.86789 2.74103
# Velocity P-wave (km/s) = 5.18522 6.26027 5.74793
#
# Compressibility (1/GPa) = 0.04360847
#
# Stress axis : x y z
#
# Youngs Moduli (GPa) = 28.70275 52.31594 136.98659
#
# Poissons Ratio (x) = -0.01577 0.14741
# Poissons Ratio (y) = -0.00865 1.10251
# Poissons Ratio (z) = 0.03089 0.42105
#
# Static dielectric constant tensor:
#      x y z
#    x 1.728090 0.000000 0.000000 
#    y 0.000000 1.669820 0.000000 
#    z 0.000000 0.000000 1.746160 
# 
# From -- ./inp_files/18227.got.cif
#   From: 2010.05.17/outbox.cif.g08.bks.cpg/sg35_10_cif.got.tgz:18227.got - 2010.06.03 17:29:28.
