data_PCOD9349975
_publ_section_title
;
Structure prediction by ZEFSAII (Michael W. Deem and Ramdas Pophale) SiO2 
 PCOD9349975
Probable space group: C M M 2
;
_chemical_formula_sum "Si O2"
_cell_formula_units_Z 40
_cell_length_a 16.995601
_cell_length_b 18.684816
_cell_length_c 5.152783
_cell_angle_alpha 90.000000
_cell_angle_beta 90.000000
_cell_angle_gamma 90.000000
_cell_volume 1636.316108
_symmetry_space_group_name_H-M "C M M 2"
_symmetry_group_IT_number 35
_symmetry_cell_setting 'orthorhombic'
loop_
_space_group_symop_operation_xyz
x,y,z
-x,-y,z
-x,y,z
x,-y,z
1/2+x,1/2+y,z
1/2-x,1/2-y,z
1/2-x,1/2+y,z
1/2+x,1/2-y,z
loop_
_atom_site_type_symbol
_atom_site_label
_atom_site_fract_x
_atom_site_fract_y
_atom_site_fract_z
Si Si1 0.300843 0.820037 0.701430
Si Si2 0.590229 0.585220 0.803686
Si Si3 0.415204 0.781650 0.343232
Si Si4 0.328283 0.352739 0.295726
Si Si5 0.589040 0.916973 0.996484
O O1 0.250000 0.750000 0.781740
O O2 0.386628 0.787183 0.636991
O O3 0.255599 0.848026 0.441699
O O4 0.331099 0.889082 0.856597
O O5 0.500000 0.606563 0.869433
O O6 0.591270 0.500000 0.771486
O O7 0.616688 0.619478 0.531273
O O8 0.651062 0.604929 0.034534
O O9 0.500000 0.749224 0.311801
O O10 0.352812 0.727956 0.224302
O O11 0.415973 0.860870 0.230926
O O12 0.500000 0.911979 0.868488
O O13 0.597918 0.000000 0.068084
#
# Coordination Sequence:
#
# PCOD9349975 Si02
#       5
#     8   8   8   8   8
#     4  10  24  41  65  98 140 181 237 298 364 428
#     4  11  24  44  68  99 140 186 238 295 357 430
#     4  10  22  41  67  97 134 185 240 295 356 428
#     4  11  25  42  69 105 140 185 238 297 362 429
#     4  10  23  43  70 104 144 192 245 301 364 434
#
# _framework density 24.445156999999998
#
# number of rings (size 3 to 8) (size 9 to 14) (size 15 to 20)
#    0.000    1.600    0.000    3.000    8.400    4.800 
#    0.000    2.000    0.000    0.000    0.000    0.000 
#    0.000    0.000    0.000    0.000    0.000    0.000 
#
# Total GULP energy -111494.204085 kJ/mol
# GULP energy per Si atom -5574.710204 kJ/mol
# Density = 2.438952 g / cm^3
# Si number density = 24.445157 Si / 1000 Ang^3
#
#
#
# Elastic Constant Matrix: (Units=GPa)
#
#
# Indices 1 2 3 4 5 6 
#
# 1 147.5114 47.2990 49.4993 0.0000 0.0000 0.0000
# 2 47.2990 146.6376 38.3561 0.0000 0.0000 0.0000
# 3 49.4993 38.3561 107.4549 0.0000 0.0000 0.0000
# 4 0.0000 0.0000 0.0000 34.4364 0.0000 0.0000
# 5 0.0000 0.0000 0.0000 0.0000 -9.9683 0.0000
# 6 0.0000 0.0000 0.0000 0.0000 0.0000 37.5809
#
#
#
# Elastic Compliance Matrix: (Units=1/GPa)
#
#
# Indices 1 2 3 4 5 6 
#
# 1 0.008467 -0.001887 -0.003227 0.000000 0.000000 0.000000
# 2 -0.001887 0.007942 -0.001966 0.000000 0.000000 0.000000
# 3 -0.003227 -0.001966 0.011494 0.000000 0.000000 0.000000
# 4 0.000000 0.000000 0.000000 0.029039 0.000000 0.000000
# 5 0.000000 0.000000 0.000000 0.000000 -0.100318 0.000000
# 6 0.000000 0.000000 0.000000 0.000000 0.000000 0.026609
#
#
# Mechanical properties :
#
#
# Convention : Reuss Voigt Hill
#
# Bulk Modulus (GPa) = 72.75608 74.65697 73.70652
# Shear Modulus (GPa) = 2531.47131 30.17310 1280.82221
#
# Velocity S-wave (km/s) = 32.21521 3.51710 22.91495
# Velocity P-wave (km/s) = 37.59770 6.86296 27.02487
#
# Compressibility (1/GPa) = 0.01374456
#
# Stress axis : x y z
#
# Youngs Moduli (GPa) = 118.10568 125.90642 86.99951
#
# Poissons Ratio (x) = 0.23759 0.28073
# Poissons Ratio (y) = 0.22287 0.17102
# Poissons Ratio (z) = 0.38110 0.24750
#
# Static dielectric constant tensor:
#      x y z
#    x 2.191470 0.000000 0.000000 
#    y 0.000000 1.934940 0.000000 
#    z 0.000000 0.000000 2.042150 
# 
# From -- ./inp_files/2361.got.cif
#   From: 2010.05.17/outbox.cif.g08.bks.cpg/sg35_2_cif.got.tgz:2361.got - 2010.06.03 17:29:28.
