data_PCOD9349725
_publ_section_title
;
Structure prediction by ZEFSAII (Michael W. Deem and Ramdas Pophale) SiO2 
 PCOD9349725
Probable space group: C M M 2
;
_chemical_formula_sum "Si O2"
_cell_formula_units_Z 48
_cell_length_a 18.747716
_cell_length_b 24.293110
_cell_length_c 5.295086
_cell_angle_alpha 90.000000
_cell_angle_beta 90.000000
_cell_angle_gamma 90.000000
_cell_volume 2411.595700
_symmetry_space_group_name_H-M "C M M 2"
_symmetry_group_IT_number 35
_symmetry_cell_setting 'orthorhombic'
loop_
_space_group_symop_operation_xyz
x,y,z
-x,-y,z
-x,y,z
x,-y,z
1/2+x,1/2+y,z
1/2-x,1/2-y,z
1/2-x,1/2+y,z
1/2+x,1/2-y,z
loop_
_atom_site_type_symbol
_atom_site_label
_atom_site_fract_x
_atom_site_fract_y
_atom_site_fract_z
Si Si1 0.680884 0.773387 0.715040
Si Si2 0.833663 0.935403 0.563079
Si Si3 0.786130 0.368999 0.340389
Si Si4 0.419342 0.164938 0.100208
Si Si5 0.578374 0.281402 0.377719
Si Si6 0.144996 0.124613 0.069194
O O1 0.750000 0.750000 0.858810
O O2 0.711855 0.811774 0.492367
O O3 0.636689 0.722682 0.596711
O O4 0.625445 0.811246 0.865300
O O5 0.751984 0.914453 0.515724
O O6 0.865749 0.902000 0.798173
O O7 0.836294 0.000000 0.607969
O O8 0.870743 0.918037 0.299577
O O9 0.866057 0.377384 0.239051
O O10 0.729777 0.364575 0.110733
O O11 0.500000 0.146582 0.042151
O O12 0.425439 0.219087 0.275848
O O13 0.500000 0.297716 0.468824
O O14 0.603375 0.320891 0.152552
#
# Coordination Sequence:
#
# PCOD9349725 Si02
#       6
#     8   8   8   8   8   8
#     4  11  19  32  54  85 120 166 209 246 296 365
#     4  10  21  38  63  90 116 148 204 265 311 354
#     4   9  21  34  55  86 111 156 198 248 301 357
#     4  10  22  34  53  85 127 167 200 247 305 370
#     4  10  22  36  53  84 124 166 203 247 304 371
#     4  10  21  37  59  92 113 156 199 250 308 357
#
# _framework density 19.903832999999999
#
# number of rings (size 3 to 8) (size 9 to 14) (size 15 to 20)
#    1.000    1.000    1.667    2.000    7.000    0.667 
#    0.000    0.000    0.000    3.500    0.000    0.000 
#    0.000    0.000    0.000    0.000    0.000    0.000 
#
# Total GULP energy -133715.399175 kJ/mol
# GULP energy per Si atom -5571.474966 kJ/mol
# Density = 1.985853 g / cm^3
# Si number density = 19.903833 Si / 1000 Ang^3
#
#
#
# Elastic Constant Matrix: (Units=GPa)
#
#
# Indices 1 2 3 4 5 6 
#
# 1 64.1040 -27.9362 -0.5578 0.0000 0.0000 0.0000
# 2 -27.9362 38.8808 7.0302 0.0000 0.0000 0.0000
# 3 -0.5578 7.0302 73.8877 0.0000 0.0000 0.0000
# 4 0.0000 0.0000 0.0000 19.5521 0.0000 0.0000
# 5 0.0000 0.0000 0.0000 0.0000 13.9643 0.0000
# 6 0.0000 0.0000 0.0000 0.0000 0.0000 0.7913
#
#
#
# Elastic Compliance Matrix: (Units=1/GPa)
#
#
# Indices 1 2 3 4 5 6 
#
# 1 0.022855 0.016677 -0.001414 0.000000 0.000000 0.000000
# 2 0.016677 0.038339 -0.003522 0.000000 0.000000 0.000000
# 3 -0.001414 -0.003522 0.013858 0.000000 0.000000 0.000000
# 4 0.000000 0.000000 0.000000 0.051145 0.000000 0.000000
# 5 0.000000 0.000000 0.000000 0.000000 0.071611 0.000000
# 6 0.000000 0.000000 0.000000 0.000000 0.000000 1.263744
#
#
# Mechanical properties :
#
#
# Convention : Reuss Voigt Hill
#
# Bulk Modulus (GPa) = 10.14863 14.88276 12.51570
# Shear Modulus (GPa) = 3.39924 20.08396 11.74160
#
# Velocity S-wave (km/s) = 1.30826 3.18000 2.43145
# Velocity P-wave (km/s) = 2.71882 4.58004 3.76621
#
# Compressibility (1/GPa) = 0.09853543
#
# Stress axis : x y z
#
# Youngs Moduli (GPa) = 43.75362 26.08289 72.15797
#
# Poissons Ratio (x) = -0.43499 0.10205
# Poissons Ratio (y) = -0.72970 0.25414
# Poissons Ratio (z) = 0.06188 0.09186
#
# Static dielectric constant tensor:
#      x y z
#    x 1.756460 0.000000 0.000000 
#    y 0.000000 1.677610 0.000000 
#    z 0.000000 0.000000 1.787560 
# 
# From -- ./inp_files/2613.got.cif
#   From: 2010.05.17/outbox.cif.g08.bks.cpg/sg35_2_cif.got.tgz:2613.got - 2010.06.03 17:29:28.
