data_PCOD9349048
_publ_section_title
;
Structure prediction by ZEFSAII (Michael W. Deem and Ramdas Pophale) SiO2 
 PCOD9349048
Probable space group: C M M 2
;
_chemical_formula_sum "Si O2"
_cell_formula_units_Z 64
_cell_length_a 13.656926
_cell_length_b 26.677241
_cell_length_c 8.589680
_cell_angle_alpha 90.000000
_cell_angle_beta 90.000000
_cell_angle_gamma 90.000000
_cell_volume 3129.470437
_symmetry_space_group_name_H-M "C M M 2"
_symmetry_group_IT_number 35
_symmetry_cell_setting 'orthorhombic'
loop_
_space_group_symop_operation_xyz
x,y,z
-x,-y,z
-x,y,z
x,-y,z
1/2+x,1/2+y,z
1/2-x,1/2-y,z
1/2-x,1/2+y,z
1/2+x,1/2-y,z
loop_
_atom_site_type_symbol
_atom_site_label
_atom_site_fract_x
_atom_site_fract_y
_atom_site_fract_z
Si Si1 0.118424 0.344791 0.464260
Si Si2 0.252940 0.639452 0.190994
Si Si3 0.309487 0.943582 0.640077
Si Si4 0.384961 0.688787 0.938306
Si Si5 0.886998 0.393886 0.941415
Si Si6 0.388652 0.580185 0.805235
Si Si7 0.382662 0.789395 0.767190
Si Si8 0.615543 0.554800 0.173374
O O1 0.179367 0.334936 0.309289
O O2 0.151411 0.399692 0.527608
O O3 0.150225 0.304745 0.595431
O O4 0.000000 0.343952 0.445467
O O5 0.330885 0.600155 0.259167
O O6 0.316391 0.676855 0.084937
O O7 0.185024 0.603295 0.085238
O O8 0.364343 0.932555 0.804306
O O9 0.195420 0.937788 0.689327
O O10 0.328428 0.000000 0.585286
O O11 0.500000 0.693352 0.984856
O O12 0.379202 0.640180 0.827095
O O13 0.352584 0.737835 0.845867
O O14 0.864788 0.338428 0.871938
O O15 0.000000 0.396265 0.986270
O O16 0.500000 0.567554 0.758935
O O17 0.374928 0.560915 0.984143
O O18 0.500000 0.785525 0.755351
O O19 0.500000 0.557589 0.203119
O O20 0.652604 0.500000 0.218117
#
# Coordination Sequence:
#
# PCOD9349048 Si02
#       8
#     8   8   8   8   8   8   8   8
#     4  10  23  41  58  83 125 172 203 244 304 360
#     4  11  20  34  58  91 121 152 196 250 307 365
#     4  11  21  37  58  83 116 161 213 255 300 359
#     4   9  17  34  64  94 119 151 193 248 305 362
#     4  10  20  34  55  83 114 153 203 259 298 339
#     4   9  17  31  55  89 119 145 188 250 308 355
#     4   8  17  36  61  84 114 155 199 241 295 363
#     4   9  17  31  53  84 122 159 194 240 304 366
#
# _framework density 20.450745000000001
#
# number of rings (size 3 to 8) (size 9 to 14) (size 15 to 20)
#    0.000    2.375    2.500    3.000    0.000    2.750 
#    0.000    1.250    5.500    2.250    0.000    3.500 
#    0.000    0.000    0.000    0.000    0.000    0.000 
#
# Total GULP energy -178561.003004 kJ/mol
# GULP energy per Si atom -5580.031344 kJ/mol
# Density = 2.040420 g / cm^3
# Si number density = 20.450745 Si / 1000 Ang^3
#
#
#
# Elastic Constant Matrix: (Units=GPa)
#
#
# Indices 1 2 3 4 5 6 
#
# 1 118.3596 31.7841 36.2922 0.0000 0.0000 0.0000
# 2 31.7841 104.5639 18.2687 0.0000 0.0000 0.0000
# 3 36.2922 18.2687 36.1077 0.0000 0.0000 0.0000
# 4 0.0000 0.0000 0.0000 3.4270 0.0000 0.0000
# 5 0.0000 0.0000 0.0000 0.0000 35.3031 0.0000
# 6 0.0000 0.0000 0.0000 0.0000 0.0000 16.6122
#
#
#
# Elastic Compliance Matrix: (Units=1/GPa)
#
#
# Indices 1 2 3 4 5 6 
#
# 1 0.012501 -0.001760 -0.011674 0.000000 0.000000 0.000000
# 2 -0.001760 0.010739 -0.003664 0.000000 0.000000 0.000000
# 3 -0.011674 -0.003664 0.041283 0.000000 0.000000 0.000000
# 4 0.000000 0.000000 0.000000 0.291800 0.000000 0.000000
# 5 0.000000 0.000000 0.000000 0.000000 0.028326 0.000000
# 6 0.000000 0.000000 0.000000 0.000000 0.000000 0.060197
#
#
# Mechanical properties :
#
#
# Convention : Reuss Voigt Hill
#
# Bulk Modulus (GPa) = 32.97578 47.96903 40.47240
# Shear Modulus (GPa) = 10.22178 22.58087 16.40133
#
# Velocity S-wave (km/s) = 2.23810 3.32649 2.83502
# Velocity P-wave (km/s) = 4.77894 6.18554 5.52717
#
# Compressibility (1/GPa) = 0.03032529
#
# Stress axis : x y z
#
# Youngs Moduli (GPa) = 79.99210 93.12075 24.22317
#
# Poissons Ratio (x) = 0.16392 0.28279
# Poissons Ratio (y) = 0.14081 0.08875
# Poissons Ratio (z) = 0.93387 0.34119
#
# Static dielectric constant tensor:
#      x y z
#    x 1.762550 0.000000 0.000000 
#    y 0.000000 1.740690 0.000000 
#    z 0.000000 0.000000 1.745950 
# 
# From -- ./inp_files/7862.got.cif
#   From: 2010.05.17/outbox.cif.g08.bks.cpg/sg35_4_cif.got.tgz:7862.got - 2010.06.03 17:29:28.
