data_PCOD9349780
_publ_section_title
;
Structure prediction by ZEFSAII (Michael W. Deem and Ramdas Pophale) SiO2 
 PCOD9349780
Probable space group: C M M 2
;
_chemical_formula_sum "Si O2"
_cell_formula_units_Z 48
_cell_length_a 14.905416
_cell_length_b 18.634253
_cell_length_c 8.518184
_cell_angle_alpha 90.000000
_cell_angle_beta 90.000000
_cell_angle_gamma 90.000000
_cell_volume 2365.936618
_symmetry_space_group_name_H-M "C M M 2"
_symmetry_group_IT_number 35
_symmetry_cell_setting 'orthorhombic'
loop_
_space_group_symop_operation_xyz
x,y,z
-x,-y,z
-x,y,z
x,-y,z
1/2+x,1/2+y,z
1/2-x,1/2-y,z
1/2-x,1/2+y,z
1/2+x,1/2-y,z
loop_
_atom_site_type_symbol
_atom_site_label
_atom_site_fract_x
_atom_site_fract_y
_atom_site_fract_z
Si Si1 0.315649 0.315300 0.572460
Si Si2 0.500000 0.718611 0.403441
Si Si3 0.354359 0.920814 0.827480
Si Si4 0.314790 0.077765 0.454274
Si Si5 0.000000 0.840093 0.061919
Si Si6 0.844717 0.916135 0.872233
Si Si7 0.000000 0.618066 0.295418
Si Si8 0.000000 0.325300 0.955367
O O1 0.250000 0.250000 0.623659
O O2 0.409175 0.290694 0.500630
O O3 0.257307 0.358914 0.442428
O O4 0.342880 0.368315 0.714311
O O5 0.500000 0.668004 0.249623
O O6 0.500000 0.799919 0.347934
O O7 0.337330 0.921516 0.640502
O O8 0.260208 0.914932 0.918694
O O9 0.393211 0.000000 0.864943
O O10 0.414019 0.852185 0.861389
O O11 0.407928 0.085664 0.362030
O O12 0.274571 0.000000 0.416403
O O13 0.000000 0.758303 0.995182
O O14 0.086757 0.881329 0.994279
O O15 0.867316 0.000000 0.841530
O O16 0.000000 0.624044 0.108990
#
# Coordination Sequence:
#
# PCOD9349780 Si02
#       8
#     8   4   8   8   4   8   4   4
#     4  11  22  40  71  94 126 163 212 274 321 379
#     4  11  25  44  57  97 129 166 213 252 317 382
#     4   9  20  38  60  86 121 154 200 261 315 370
#     4  10  21  38  61  91 122 162 205 258 321 376
#     4  11  26  41  62  88 133 174 204 255 309 378
#     4  10  23  44  66  95 124 160 215 270 313 374
#     4  11  22  38  55  85 131 163 205 260 306 374
#     4  11  24  35  56  90 124 163 208 251 307 378
#
# _framework density 20.287946999999999
#
# number of rings (size 3 to 8) (size 9 to 14) (size 15 to 20)
#    0.000    1.667    1.667    3.250    4.667    5.333 
#    0.000    6.250    0.000    0.000    0.000    0.000 
#    0.000    0.000    0.000    0.000    0.000    0.000 
#
# Total GULP energy -133926.706649 kJ/mol
# GULP energy per Si atom -5580.279444 kJ/mol
# Density = 2.024177 g / cm^3
# Si number density = 20.287947 Si / 1000 Ang^3
#
#
#
# Elastic Constant Matrix: (Units=GPa)
#
#
# Indices 1 2 3 4 5 6 
#
# 1 99.4198 28.0194 20.8708 0.0000 0.0000 0.0000
# 2 28.0194 93.0287 23.1525 0.0000 0.0000 0.0000
# 3 20.8708 23.1525 35.7458 0.0000 0.0000 0.0000
# 4 0.0000 0.0000 0.0000 -63.0830 0.0000 0.0000
# 5 0.0000 0.0000 0.0000 0.0000 20.6882 0.0000
# 6 0.0000 0.0000 0.0000 0.0000 0.0000 16.4924
#
#
#
# Elastic Compliance Matrix: (Units=1/GPa)
#
#
# Indices 1 2 3 4 5 6 
#
# 1 0.011829 -0.002198 -0.005483 0.000000 0.000000 0.000000
# 2 -0.002198 0.013224 -0.007281 0.000000 0.000000 0.000000
# 3 -0.005483 -0.007281 0.035893 0.000000 0.000000 0.000000
# 4 0.000000 0.000000 0.000000 -0.015852 0.000000 0.000000
# 5 0.000000 0.000000 0.000000 0.000000 0.048337 0.000000
# 6 0.000000 0.000000 0.000000 0.000000 0.000000 0.060634
#
#
# Mechanical properties :
#
#
# Convention : Reuss Voigt Hill
#
# Bulk Modulus (GPa) = 32.23684 41.36441 36.80063
# Shear Modulus (GPa) = 25.72963 5.22964 15.47963
#
# Velocity S-wave (km/s) = 3.56507 1.60727 2.76524
# Velocity P-wave (km/s) = 5.73328 4.88644 5.32672
#
# Compressibility (1/GPa) = 0.03102041
#
# Stress axis : x y z
#
# Youngs Moduli (GPa) = 84.53918 75.62223 27.86088
#
# Poissons Ratio (x) = 0.16624 0.15275
# Poissons Ratio (y) = 0.18584 0.20287
# Poissons Ratio (z) = 0.46350 0.55064
#
# Static dielectric constant tensor:
#      x y z
#    x 1.731500 0.000000 0.000000 
#    y 0.000000 1.749970 0.000000 
#    z 0.000000 0.000000 1.724420 
# 
# From -- ./inp_files/7373.got.cif
#   From: 2010.05.17/outbox.cif.g08.bks.cpg/sg35_4_cif.got.tgz:7373.got - 2010.06.03 17:29:28.
