data_PCOD9349230
_publ_section_title
;
Structure prediction by ZEFSAII (Michael W. Deem and Ramdas Pophale) SiO2 
 PCOD9349230
Probable space group: C M M 2
;
_chemical_formula_sum "Si O2"
_cell_formula_units_Z 64
_cell_length_a 7.910901
_cell_length_b 32.099411
_cell_length_c 12.216007
_cell_angle_alpha 90.000000
_cell_angle_beta 90.000000
_cell_angle_gamma 90.000000
_cell_volume 3102.074945
_symmetry_space_group_name_H-M "C M M 2"
_symmetry_group_IT_number 35
_symmetry_cell_setting 'orthorhombic'
loop_
_space_group_symop_operation_xyz
x,y,z
-x,-y,z
-x,y,z
x,-y,z
1/2+x,1/2+y,z
1/2-x,1/2-y,z
1/2-x,1/2+y,z
1/2+x,1/2-y,z
loop_
_atom_site_type_symbol
_atom_site_label
_atom_site_fract_x
_atom_site_fract_y
_atom_site_fract_z
Si Si1 0.292795 0.453633 0.543210
Si Si2 0.705899 0.420483 0.306923
Si Si3 0.204441 0.953512 0.072261
Si Si4 0.798235 0.204011 0.069330
Si Si5 0.703629 0.704360 0.543680
Si Si6 0.801149 0.125239 0.677142
Si Si7 0.696898 0.875081 0.924280
Si Si8 0.706303 0.676644 0.306455
O O1 0.500000 0.454012 0.544700
O O2 0.236620 0.500000 0.573259
O O3 0.241351 0.442317 0.419216
O O4 0.232337 0.417121 0.623462
O O5 0.500000 0.421284 0.306143
O O6 0.762674 0.442494 0.195476
O O7 0.755498 0.371983 0.306711
O O8 0.000000 0.953947 0.074070
O O9 0.261913 0.000000 0.040752
O O10 0.255575 0.916241 0.992471
O O11 0.750000 0.250000 0.029733
O O12 0.734109 0.197581 0.194020
O O13 0.000000 0.201061 0.071855
O O14 0.736145 0.165953 0.995324
O O15 0.500000 0.702269 0.540916
O O16 0.750000 0.750000 0.584387
O O17 0.768728 0.666644 0.618819
O O18 0.764932 0.697715 0.418801
O O19 0.785185 0.126263 0.806925
O O20 0.000000 0.124995 0.649917
O O21 0.500000 0.876229 0.901421
O O22 0.500000 0.677815 0.306321
#
# Coordination Sequence:
#
# PCOD9349230 Si02
#       8
#     8   8   8   8   8   8   8   8
#     4   9  16  28  53  88 118 143 179 230 286 345
#     4   9  14  27  54  89 121 147 178 225 288 348
#     4  10  20  36  62  92 119 152 194 239 290 348
#     4  11  22  39  63  90 121 153 191 237 289 348
#     4  10  20  35  57  85 115 149 184 228 284 340
#     4  10  21  38  58  80 111 149 192 241 290 336
#     4  12  26  42  59  81 114 157 203 247 295 342
#     4   9  16  30  56  86 119 152 180 224 285 345
#
# _framework density 20.631352
#
# number of rings (size 3 to 8) (size 9 to 14) (size 15 to 20)
#    0.000    2.000    2.500    2.250    0.000    3.250 
#    0.000    3.125    0.000    0.750    0.000    0.000 
#    0.000    0.000    0.000    0.000    0.000    0.000 
#
# Total GULP energy -178734.639626 kJ/mol
# GULP energy per Si atom -5585.457488 kJ/mol
# Density = 2.058439 g / cm^3
# Si number density = 20.631352 Si / 1000 Ang^3
#
#
#
# Elastic Constant Matrix: (Units=GPa)
#
#
# Indices 1 2 3 4 5 6 
#
# 1 16.4383 -1.8841 -17.7997 0.0000 0.0000 0.0000
# 2 -1.8841 199.3934 70.4257 0.0000 0.0000 0.0000
# 3 -17.7997 70.4257 106.5708 0.0000 0.0000 0.0000
# 4 0.0000 0.0000 0.0000 2.1867 0.0000 0.0000
# 5 0.0000 0.0000 0.0000 0.0000 -12.2194 0.0000
# 6 0.0000 0.0000 0.0000 0.0000 0.0000 19.2491
#
#
#
# Elastic Compliance Matrix: (Units=1/GPa)
#
#
# Indices 1 2 3 4 5 6 
#
# 1 0.077961 -0.005038 0.016351 0.000000 0.000000 0.000000
# 2 -0.005038 0.006868 -0.005380 0.000000 0.000000 0.000000
# 3 0.016351 -0.005380 0.015670 0.000000 0.000000 0.000000
# 4 0.000000 0.000000 0.000000 0.457318 0.000000 0.000000
# 5 0.000000 0.000000 0.000000 0.000000 -0.081837 0.000000
# 6 0.000000 0.000000 0.000000 0.000000 0.000000 0.051951
#
#
# Mechanical properties :
#
#
# Convention : Reuss Voigt Hill
#
# Bulk Modulus (GPa) = 8.89971 47.09847 27.99909
# Shear Modulus (GPa) = 9.03310 19.95396 14.49353
#
# Velocity S-wave (km/s) = 2.09472 3.11330 2.65335
# Velocity P-wave (km/s) = 3.18959 5.98345 4.79454
#
# Compressibility (1/GPa) = 0.11236324
#
# Stress axis : x y z
#
# Youngs Moduli (GPa) = 12.82692 145.60643 63.81745
#
# Poissons Ratio (x) = 0.73363 -1.04347
# Poissons Ratio (y) = 0.06463 0.34334
# Poissons Ratio (z) = -0.20973 0.78337
#
# Static dielectric constant tensor:
#      x y z
#    x 1.764090 0.000000 0.000000 
#    y 0.000000 1.730800 0.000000 
#    z 0.000000 0.000000 1.715450 
# 
# From -- ./inp_files/11840.got.cif
#   From: 2010.05.17/outbox.cif.g08.bks.cpg/sg35_6_cif.got.tgz:11840.got - 2010.06.03 17:29:28.
