data_PCOD9349617
_publ_section_title
;
Structure prediction by ZEFSAII (Michael W. Deem and Ramdas Pophale) SiO2 
 PCOD9349617
Probable space group: C M M 2
;
_chemical_formula_sum "Si O2"
_cell_formula_units_Z 40
_cell_length_a 15.888670
_cell_length_b 14.619339
_cell_length_c 7.142056
_cell_angle_alpha 90.000000
_cell_angle_beta 90.000000
_cell_angle_gamma 90.000000
_cell_volume 1658.970002
_symmetry_space_group_name_H-M "C M M 2"
_symmetry_group_IT_number 35
_symmetry_cell_setting 'orthorhombic'
loop_
_space_group_symop_operation_xyz
x,y,z
-x,-y,z
-x,y,z
x,-y,z
1/2+x,1/2+y,z
1/2-x,1/2-y,z
1/2-x,1/2+y,z
1/2+x,1/2-y,z
loop_
_atom_site_type_symbol
_atom_site_label
_atom_site_fract_x
_atom_site_fract_y
_atom_site_fract_z
Si Si1 0.908321 0.889215 0.355420
Si Si2 0.405129 0.166924 0.003053
Si Si3 0.590531 0.358015 0.787020
Si Si4 0.275779 0.894145 0.290435
Si Si5 0.732069 0.139906 0.728985
O O1 0.907424 0.842618 0.560432
O O2 0.821648 0.867430 0.250859
O O3 0.000000 0.867853 0.269160
O O4 0.905837 0.000000 0.386434
O O5 0.500000 0.133404 0.034896
O O6 0.411276 0.266641 0.909070
O O7 0.348423 0.114527 0.850408
O O8 0.347224 0.162995 0.186743
O O9 0.500000 0.404081 0.820521
O O10 0.681901 0.401848 0.812159
O O11 0.281697 0.885138 0.514276
O O12 0.287606 0.000000 0.239301
O O13 0.750000 0.250000 0.738284
#
# Coordination Sequence:
#
# PCOD9349617 Si02
#       5
#     8   8   8   8   8
#     4   8  14  29  57  90 120 148 182 232 295 358
#     4  10  21  36  53  77 113 156 201 243 280 330
#     4   8  15  31  55  82 111 143 182 231 289 348
#     4  10  21  36  56  84 115 148 189 238 294 351
#     4   9  19  36  59  81 107 145 192 242 291 339
#
# _framework density 24.111348
#
# number of rings (size 3 to 8) (size 9 to 14) (size 15 to 20)
#    0.000    3.000    0.000    0.000    0.000    4.400 
#    0.000    1.000    0.000   25.200    0.000    5.600 
#    0.000    0.000    0.000    0.000    0.000    0.000 
#
# Total GULP energy -111628.872786 kJ/mol
# GULP energy per Si atom -5581.443639 kJ/mol
# Density = 2.405647 g / cm^3
# Si number density = 24.111348 Si / 1000 Ang^3
#
#
#
# Elastic Constant Matrix: (Units=GPa)
#
#
# Indices 1 2 3 4 5 6 
#
# 1 296.0837 43.2087 82.0996 0.0000 0.0000 0.0000
# 2 43.2087 95.7041 17.3401 0.0000 0.0000 0.0000
# 3 82.0996 17.3401 123.8590 0.0000 0.0000 0.0000
# 4 0.0000 0.0000 0.0000 -98.7922 0.0000 0.0000
# 5 0.0000 0.0000 0.0000 0.0000 35.7518 0.0000
# 6 0.0000 0.0000 0.0000 0.0000 0.0000 -37.0202
#
#
#
# Elastic Compliance Matrix: (Units=1/GPa)
#
#
# Indices 1 2 3 4 5 6 
#
# 1 0.004331 -0.001473 -0.002665 0.000000 0.000000 0.000000
# 2 -0.001473 0.011222 -0.000595 0.000000 0.000000 0.000000
# 3 -0.002665 -0.000595 0.009923 0.000000 0.000000 0.000000
# 4 0.000000 0.000000 0.000000 -0.010122 0.000000 0.000000
# 5 0.000000 0.000000 0.000000 0.000000 0.027971 0.000000
# 6 0.000000 0.000000 0.000000 0.000000 0.000000 -0.027012
#
#
# Mechanical properties :
#
#
# Convention : Reuss Voigt Hill
#
# Bulk Modulus (GPa) = 62.45510 88.99373 75.72441
# Shear Modulus (GPa) = 160.69970 4.85444 82.77707
#
# Velocity S-wave (km/s) = 8.17274 1.42046 5.86564
# Velocity P-wave (km/s) = 10.72461 6.29920 8.79480
#
# Compressibility (1/GPa) = 0.01601150
#
# Stress axis : x y z
#
# Youngs Moduli (GPa) = 230.88086 89.11437 100.77276
#
# Poissons Ratio (x) = 0.13124 0.26854
# Poissons Ratio (y) = 0.34001 0.05995
# Poissons Ratio (z) = 0.61525 0.05301
#
# Static dielectric constant tensor:
#      x y z
#    x 1.983700 0.000000 0.000000 
#    y 0.000000 1.996570 0.000000 
#    z 0.000000 0.000000 1.933590 
# 
# From -- ./inp_files/2466.got.cif
#   From: 2010.05.17/outbox.cif.g08.bks.cpg/sg35_2_cif.got.tgz:2466.got - 2010.06.03 17:29:28.
