data_PCOD9349596
_publ_section_title
;
Structure prediction by ZEFSAII (Michael W. Deem and Ramdas Pophale) SiO2 
 PCOD9349596
Probable space group: C M M 2
;
_chemical_formula_sum "Si O2"
_cell_formula_units_Z 52
_cell_length_a 15.159555
_cell_length_b 22.718160
_cell_length_c 7.863086
_cell_angle_alpha 90.000000
_cell_angle_beta 90.000000
_cell_angle_gamma 90.000000
_cell_volume 2708.024770
_symmetry_space_group_name_H-M "C M M 2"
_symmetry_group_IT_number 35
_symmetry_cell_setting 'orthorhombic'
loop_
_space_group_symop_operation_xyz
x,y,z
-x,-y,z
-x,y,z
x,-y,z
1/2+x,1/2+y,z
1/2-x,1/2-y,z
1/2-x,1/2+y,z
1/2+x,1/2-y,z
loop_
_atom_site_type_symbol
_atom_site_label
_atom_site_fract_x
_atom_site_fract_y
_atom_site_fract_z
Si Si1 0.698503 0.809312 0.406790
Si Si2 0.172159 0.899941 0.247579
Si Si3 0.807833 0.692770 0.805528
Si Si4 0.260556 0.432486 0.897886
Si Si5 0.500000 0.329485 0.148899
Si Si6 0.500000 0.791642 0.298264
Si Si7 0.597128 0.431050 0.614378
Si Si8 0.500000 0.225808 0.913443
O O1 0.750000 0.750000 0.352486
O O2 0.746026 0.859698 0.301578
O O3 0.715603 0.815524 0.607458
O O4 0.593509 0.809621 0.376452
O O5 0.088608 0.865198 0.172590
O O6 0.137906 0.925184 0.426550
O O7 0.204057 0.937826 0.089243
O O8 0.750000 0.750000 0.869608
O O9 0.797253 0.628060 0.891449
O O10 0.909954 0.711148 0.819668
O O11 0.228709 0.500000 0.849641
O O12 0.337533 0.413918 0.765359
O O13 0.500000 0.279357 0.294378
O O14 0.500000 0.293733 0.973031
O O15 0.500000 0.807229 0.097183
O O16 0.500000 0.402433 0.619716
O O17 0.586393 0.500000 0.643565
#
# Coordination Sequence:
#
# PCOD9349596 Si02
#       8
#     8   8   8   8   4   4   8   4
#     4  11  21  37  60  90 125 166 211 265 321 381
#     4  12  21  39  62  91 126 173 217 256 325 385
#     4  11  23  41  65  95 129 170 218 270 328 388
#     4  11  25  42  64  95 131 175 219 268 324 386
#     4  10  22  34  61  93 130 172 206 272 316 381
#     4  10  21  35  54  85 124 164 203 261 318 378
#     4  10  22  40  59  87 128 170 215 265 314 382
#     4  10  21  39  59  92 128 168 211 273 320 385
#
# _framework density 19.202186999999999
#
# number of rings (size 3 to 8) (size 9 to 14) (size 15 to 20)
#    0.462    0.769    3.846    2.769    1.077    1.231 
#    1.385    0.385    0.000    0.000    0.000    1.615 
#    0.000    0.000    0.000    0.000    0.000    0.000 
#
# Total GULP energy -144764.195449 kJ/mol
# GULP energy per Si atom -5567.853671 kJ/mol
# Density = 1.915848 g / cm^3
# Si number density = 19.202187 Si / 1000 Ang^3
#
#
#
# Elastic Constant Matrix: (Units=GPa)
#
#
# Indices 1 2 3 4 5 6 
#
# 1 120.6151 48.8240 8.4315 0.0000 0.0000 0.0000
# 2 48.8240 78.7396 10.0638 0.0000 0.0000 0.0000
# 3 8.4315 10.0638 78.6694 0.0000 0.0000 0.0000
# 4 0.0000 0.0000 0.0000 -2.0387 0.0000 0.0000
# 5 0.0000 0.0000 0.0000 0.0000 30.5581 0.0000
# 6 0.0000 0.0000 0.0000 0.0000 0.0000 4.3025
#
#
#
# Elastic Compliance Matrix: (Units=1/GPa)
#
#
# Indices 1 2 3 4 5 6 
#
# 1 0.011077 -0.006828 -0.000314 0.000000 0.000000 0.000000
# 2 -0.006828 0.017120 -0.001458 0.000000 0.000000 0.000000
# 3 -0.000314 -0.001458 0.012932 0.000000 0.000000 0.000000
# 4 0.000000 0.000000 0.000000 -0.490501 0.000000 0.000000
# 5 0.000000 0.000000 0.000000 0.000000 0.032724 0.000000
# 6 0.000000 0.000000 0.000000 0.000000 0.000000 0.232425
#
#
# Mechanical properties :
#
#
# Convention : Reuss Voigt Hill
#
# Bulk Modulus (GPa) = 41.79138 45.85138 43.82138
# Shear Modulus (GPa) = -31.43726 20.61136 -5.41295
#
# Velocity S-wave (km/s) = -4.05059 3.27981 -1.68079
# Velocity P-wave (km/s) = 0.25538 6.18651 4.37080
#
# Compressibility (1/GPa) = 0.02392838
#
# Stress axis : x y z
#
# Youngs Moduli (GPa) = 90.27879 58.40953 77.32994
#
# Poissons Ratio (x) = 0.39884 0.02426
# Poissons Ratio (y) = 0.61645 0.11277
# Poissons Ratio (z) = 0.02832 0.08518
#
# Static dielectric constant tensor:
#      x y z
#    x 1.670700 0.000000 0.000000 
#    y 0.000000 1.707050 0.000000 
#    z 0.000000 0.000000 1.689560 
# 
# From -- ./inp_files/7560.got.cif
#   From: 2010.05.17/outbox.cif.g08.bks.cpg/sg35_4_cif.got.tgz:7560.got - 2010.06.03 17:29:28.
