data_PCOD9349062
_publ_section_title
;
Structure prediction by ZEFSAII (Michael W. Deem and Ramdas Pophale) SiO2 
 PCOD9349062
Probable space group: C M M 2
;
_chemical_formula_sum "Si O2"
_cell_formula_units_Z 40
_cell_length_a 15.986908
_cell_length_b 8.678250
_cell_length_c 14.866860
_cell_angle_alpha 90.000000
_cell_angle_beta 90.000000
_cell_angle_gamma 90.000000
_cell_volume 2062.604137
_symmetry_space_group_name_H-M "C M M 2"
_symmetry_group_IT_number 35
_symmetry_cell_setting 'orthorhombic'
loop_
_space_group_symop_operation_xyz
x,y,z
-x,-y,z
-x,y,z
x,-y,z
1/2+x,1/2+y,z
1/2-x,1/2-y,z
1/2-x,1/2+y,z
1/2+x,1/2-y,z
loop_
_atom_site_type_symbol
_atom_site_label
_atom_site_fract_x
_atom_site_fract_y
_atom_site_fract_z
Si Si1 0.343817 0.813384 0.366680
Si Si2 0.842942 0.314403 0.164783
Si Si3 0.338038 0.681711 0.795282
Si Si4 0.000000 0.684910 0.695632
Si Si5 0.403018 0.181922 0.971947
Si Si6 0.500000 0.187759 0.487235
O O1 0.250000 0.750000 0.382726
O O2 0.371129 0.767581 0.264858
O O3 0.415501 0.762231 0.435858
O O4 0.339072 0.000000 0.369747
O O5 0.842098 0.500000 0.165091
O O6 0.750000 0.250000 0.154192
O O7 0.892209 0.267680 0.075367
O O8 0.338466 0.500000 0.783920
O O9 0.250000 0.750000 0.763338
O O10 0.416802 0.753927 0.743812
O O11 0.349666 0.724581 0.900366
O O12 0.000000 0.733252 0.591204
O O13 0.000000 0.500000 0.700874
O O14 0.500000 0.197185 0.946961
O O15 0.380895 0.000000 0.965404
O O16 0.500000 0.000000 0.484124
#
# Coordination Sequence:
#
# PCOD9349062 Si02
#       6
#     8   8   8   4   8   4
#     4   9  18  35  57  84 117 152 193 235 280 338
#     4   9  18  31  51  79 113 153 194 233 277 333
#     4  12  25  42  64  89 118 157 198 243 299 355
#     4  11  23  43  64  89 120 150 195 251 302 357
#     4  10  20  34  55  85 120 157 197 240 286 342
#     4   9  20  37  62  87 112 148 189 237 292 349
#
# _framework density 19.392959999999999
#
# number of rings (size 3 to 8) (size 9 to 14) (size 15 to 20)
#    0.000    2.000    1.000    2.700    1.400    3.200 
#    0.000    4.500    0.000    0.000    0.000    0.000 
#    0.000    0.000    0.000    0.000    0.000    0.000 
#
# Total GULP energy -111636.785909 kJ/mol
# GULP energy per Si atom -5581.839295 kJ/mol
# Density = 1.934882 g / cm^3
# Si number density = 19.392960 Si / 1000 Ang^3
#
#
#
# Elastic Constant Matrix: (Units=GPa)
#
#
# Indices 1 2 3 4 5 6 
#
# 1 132.6324 44.8958 85.6884 0.0000 0.0000 0.0000
# 2 44.8958 51.7661 38.2931 0.0000 0.0000 0.0000
# 3 85.6884 38.2931 136.2406 0.0000 0.0000 0.0000
# 4 0.0000 0.0000 0.0000 13.2438 0.0000 0.0000
# 5 0.0000 0.0000 0.0000 0.0000 15.4236 0.0000
# 6 0.0000 0.0000 0.0000 0.0000 0.0000 28.0090
#
#
#
# Elastic Compliance Matrix: (Units=1/GPa)
#
#
# Indices 1 2 3 4 5 6 
#
# 1 0.014668 -0.007445 -0.007133 0.000000 0.000000 0.000000
# 2 -0.007445 0.028167 -0.003235 0.000000 0.000000 0.000000
# 3 -0.007133 -0.003235 0.012735 0.000000 0.000000 0.000000
# 4 0.000000 0.000000 0.000000 0.075507 0.000000 0.000000
# 5 0.000000 0.000000 0.000000 0.000000 0.064836 0.000000
# 6 0.000000 0.000000 0.000000 0.000000 0.000000 0.035703
#
#
# Mechanical properties :
#
#
# Convention : Reuss Voigt Hill
#
# Bulk Modulus (GPa) = 50.13552 73.15485 61.64518
# Shear Modulus (GPa) = 18.25556 21.45272 19.85414
#
# Velocity S-wave (km/s) = 3.07147 3.32958 3.20313
# Velocity P-wave (km/s) = 6.20380 7.25161 6.74807
#
# Compressibility (1/GPa) = 0.01994594
#
# Stress axis : x y z
#
# Youngs Moduli (GPa) = 68.17583 35.50242 78.52184
#
# Poissons Ratio (x) = 0.26431 0.56009
# Poissons Ratio (y) = 0.50756 0.25398
# Poissons Ratio (z) = 0.48629 0.11483
#
# Static dielectric constant tensor:
#      x y z
#    x 1.648470 0.000000 0.000000 
#    y 0.000000 1.653090 0.000000 
#    z 0.000000 0.000000 1.701040 
# 
# From -- ./inp_files/14771.got.cif
#   From: 2010.05.17/outbox.cif.g08.bks.cpg/sg35_8_cif.got.tgz:14771.got - 2010.06.03 17:29:28.
