data_PCOD9349727
_publ_section_title
;
Structure prediction by ZEFSAII (Michael W. Deem and Ramdas Pophale) SiO2 
 PCOD9349727
Probable space group: C M M 2
;
_chemical_formula_sum "Si O2"
_cell_formula_units_Z 64
_cell_length_a 24.843484
_cell_length_b 14.290193
_cell_length_c 9.578840
_cell_angle_alpha 90.000000
_cell_angle_beta 90.000000
_cell_angle_gamma 90.000000
_cell_volume 3400.662354
_symmetry_space_group_name_H-M "C M M 2"
_symmetry_group_IT_number 35
_symmetry_cell_setting 'orthorhombic'
loop_
_space_group_symop_operation_xyz
x,y,z
-x,-y,z
-x,y,z
x,-y,z
1/2+x,1/2+y,z
1/2-x,1/2-y,z
1/2-x,1/2+y,z
1/2+x,1/2-y,z
loop_
_atom_site_type_symbol
_atom_site_label
_atom_site_fract_x
_atom_site_fract_y
_atom_site_fract_z
Si Si1 0.935242 0.214766 0.113810
Si Si2 0.853800 0.886376 0.913728
Si Si3 0.133808 0.610681 0.169029
Si Si4 0.653663 0.102664 0.499374
Si Si5 0.634524 0.694726 0.606694
Si Si6 0.753878 0.106279 0.095996
Si Si7 0.435951 0.605956 0.394412
Si Si8 0.230868 0.144702 0.406408
O O1 0.911128 0.319506 0.111845
O O2 0.919112 0.169110 0.263025
O O3 0.000000 0.213656 0.099800
O O4 0.904698 0.152707 0.999316
O O5 0.855785 0.842034 0.760773
O O6 0.855086 0.000000 0.909155
O O7 0.798862 0.854542 0.992765
O O8 0.126608 0.500000 0.136518
O O9 0.135034 0.616974 0.338350
O O10 0.192982 0.643478 0.114721
O O11 0.637645 0.192948 0.589075
O O12 0.718449 0.100336 0.485207
O O13 0.634801 0.000000 0.547517
O O14 0.580602 0.654928 0.537962
O O15 0.679783 0.650693 0.504625
O O16 0.777709 0.104162 0.253034
O O17 0.745588 0.000000 0.048698
O O18 0.500000 0.600253 0.386393
O O19 0.414192 0.500000 0.385117
O O20 0.250000 0.250000 0.378797
#
# Coordination Sequence:
#
# PCOD9349727 Si02
#       8
#     8   8   8   8   8   8   8   8
#     4  11  23  40  61  87 118 154 204 258 303 355
#     4  11  25  39  55  86 126 166 201 243 301 362
#     4   9  18  37  65  93 119 153 196 247 301 356
#     4   9  18  35  59  89 121 151 191 239 293 352
#     4  11  21  38  58  85 121 159 196 241 294 358
#     4   9  19  35  57  85 119 158 197 238 291 357
#     4  10  21  37  60  86 111 147 200 255 300 348
#     4   9  18  31  55  85 111 152 195 236 286 338
#
# _framework density 18.819863000000002
#
# number of rings (size 3 to 8) (size 9 to 14) (size 15 to 20)
#    0.000    2.125    1.250    2.625    3.500    4.500 
#    6.750    0.625    0.000    0.375    0.000    0.000 
#    0.000    0.000    0.000    0.000    0.000    0.000 
#
# Total GULP energy -178469.048980 kJ/mol
# GULP energy per Si atom -5577.157781 kJ/mol
# Density = 1.877703 g / cm^3
# Si number density = 18.819863 Si / 1000 Ang^3
#
#
#
# Elastic Constant Matrix: (Units=GPa)
#
#
# Indices 1 2 3 4 5 6 
#
# 1 65.7497 40.0013 36.2566 0.0000 0.0000 0.0000
# 2 40.0013 145.0488 46.1000 0.0000 0.0000 0.0000
# 3 36.2566 46.1000 91.1868 0.0000 0.0000 0.0000
# 4 0.0000 0.0000 0.0000 23.5981 0.0000 0.0000
# 5 0.0000 0.0000 0.0000 0.0000 7.5930 0.0000
# 6 0.0000 0.0000 0.0000 0.0000 0.0000 28.9656
#
#
#
# Elastic Compliance Matrix: (Units=1/GPa)
#
#
# Indices 1 2 3 4 5 6 
#
# 1 0.021063 -0.003749 -0.006479 0.000000 0.000000 0.000000
# 2 -0.003749 0.008881 -0.002999 0.000000 0.000000 0.000000
# 3 -0.006479 -0.002999 0.015059 0.000000 0.000000 0.000000
# 4 0.000000 0.000000 0.000000 0.042376 0.000000 0.000000
# 5 0.000000 0.000000 0.000000 0.000000 0.131700 0.000000
# 6 0.000000 0.000000 0.000000 0.000000 0.000000 0.034524
#
#
# Mechanical properties :
#
#
# Convention : Reuss Voigt Hill
#
# Bulk Modulus (GPa) = 53.91534 60.74456 57.32995
# Shear Modulus (GPa) = 17.46773 24.00652 20.73713
#
# Velocity S-wave (km/s) = 3.04987 3.57542 3.32305
# Velocity P-wave (km/s) = 6.41191 7.02793 6.72697
#
# Compressibility (1/GPa) = 0.01854760
#
# Stress axis : x y z
#
# Youngs Moduli (GPa) = 47.47599 112.59364 66.40532
#
# Poissons Ratio (x) = 0.42217 0.43026
# Poissons Ratio (y) = 0.17801 0.19917
# Poissons Ratio (z) = 0.30761 0.33770
#
# Static dielectric constant tensor:
#      x y z
#    x 1.672630 0.000000 0.000000 
#    y 0.000000 1.690370 0.000000 
#    z 0.000000 0.000000 1.627110 
# 
# From -- ./inp_files/9880.got.cif
#   From: 2010.05.17/outbox.cif.g08.bks.cpg/sg35_5_cif.got.tgz:9880.got - 2010.06.03 17:29:28.
