data_PCOD9349966
_publ_section_title
;
Structure prediction by ZEFSAII (Michael W. Deem and Ramdas Pophale) SiO2 
 PCOD9349966
Probable space group: C M M 2
;
_chemical_formula_sum "Si O2"
_cell_formula_units_Z 40
_cell_length_a 19.455878
_cell_length_b 16.134965
_cell_length_c 5.241925
_cell_angle_alpha 90.000000
_cell_angle_beta 90.000000
_cell_angle_gamma 90.000000
_cell_volume 1645.544627
_symmetry_space_group_name_H-M "C M M 2"
_symmetry_group_IT_number 35
_symmetry_cell_setting 'orthorhombic'
loop_
_space_group_symop_operation_xyz
x,y,z
-x,-y,z
-x,y,z
x,-y,z
1/2+x,1/2+y,z
1/2-x,1/2-y,z
1/2-x,1/2+y,z
1/2+x,1/2-y,z
loop_
_atom_site_type_symbol
_atom_site_label
_atom_site_fract_x
_atom_site_fract_y
_atom_site_fract_z
Si Si1 0.714044 0.912574 0.706670
Si Si2 0.078164 0.097654 0.207505
Si Si3 0.314642 0.293569 0.517970
Si Si4 0.074359 0.740904 0.885566
Si Si5 0.120182 0.409585 0.201718
O O1 0.770133 0.842484 0.724100
O O2 0.666041 0.907522 0.455348
O O3 0.752200 0.000000 0.681357
O O4 0.669670 0.915223 0.958862
O O5 0.139087 0.139899 0.369922
O O6 0.074905 0.163577 0.975749
O O7 0.000000 0.102124 0.323153
O O8 0.090418 0.000000 0.151665
O O9 0.250000 0.250000 0.367859
O O10 0.366573 0.236084 0.675351
O O11 0.083430 0.677366 0.125452
O O12 0.000000 0.720490 0.771470
O O13 0.082217 0.500000 0.210513
#
# Coordination Sequence:
#
# PCOD9349966 Si02
#       5
#     8   8   8   8   8
#     4  10  22  40  67 100 135 175 229 289 351 415
#     4  10  24  45  68  96 134 183 241 298 358 428
#     4  12  23  39  65  98 135 184 229 293 356 420
#     4  11  25  43  67  99 139 187 237 293 356 431
#     4  10  22  44  69 102 141 182 230 287 353 427
#
# _framework density 24.308062
#
# number of rings (size 3 to 8) (size 9 to 14) (size 15 to 20)
#    0.000    1.400    2.000    2.400    2.800    2.800 
#    0.000    2.000    0.000    3.600    0.000    0.000 
#    0.000    0.000    0.000    0.000    0.000    0.000 
#
# Total GULP energy -111470.121889 kJ/mol
# GULP energy per Si atom -5573.506094 kJ/mol
# Density = 2.425274 g / cm^3
# Si number density = 24.308062 Si / 1000 Ang^3
#
#
#
# Elastic Constant Matrix: (Units=GPa)
#
#
# Indices 1 2 3 4 5 6 
#
# 1 147.4036 42.4069 39.5266 0.0000 0.0000 0.0000
# 2 42.4069 190.6884 27.5509 0.0000 0.0000 0.0000
# 3 39.5266 27.5509 92.4279 0.0000 0.0000 0.0000
# 4 0.0000 0.0000 0.0000 35.9404 0.0000 0.0000
# 5 0.0000 0.0000 0.0000 0.0000 -65.0241 0.0000
# 6 0.0000 0.0000 0.0000 0.0000 0.0000 22.4754
#
#
#
# Elastic Compliance Matrix: (Units=1/GPa)
#
#
# Indices 1 2 3 4 5 6 
#
# 1 0.007977 -0.001339 -0.003012 0.000000 0.000000 0.000000
# 2 -0.001339 0.005705 -0.001128 0.000000 0.000000 0.000000
# 3 -0.003012 -0.001128 0.012444 0.000000 0.000000 0.000000
# 4 0.000000 0.000000 0.000000 0.027824 0.000000 0.000000
# 5 0.000000 0.000000 0.000000 0.000000 -0.015379 0.000000
# 6 0.000000 0.000000 0.000000 0.000000 0.000000 0.044493
#
#
# Mechanical properties :
#
#
# Convention : Reuss Voigt Hill
#
# Bulk Modulus (GPa) = 65.93066 72.16542 69.04804
# Shear Modulus (GPa) = 50.46557 20.08069 35.27313
#
# Velocity S-wave (km/s) = 4.56135 2.87730 3.81345
# Velocity P-wave (km/s) = 7.41101 6.38677 6.91787
#
# Compressibility (1/GPa) = 0.01516745
#
# Stress axis : x y z
#
# Youngs Moduli (GPa) = 125.36042 175.28917 80.36211
#
# Poissons Ratio (x) = 0.23467 0.24207
# Poissons Ratio (y) = 0.16783 0.09065
# Poissons Ratio (z) = 0.37762 0.19772
#
# Static dielectric constant tensor:
#      x y z
#    x 2.046180 0.000000 0.000000 
#    y 0.000000 2.094210 0.000000 
#    z 0.000000 0.000000 1.901240 
# 
# From -- ./inp_files/2352.got.cif
#   From: 2010.05.17/outbox.cif.g08.bks.cpg/sg35_2_cif.got.tgz:2352.got - 2010.06.03 17:29:28.
