data_PCOD9349933
_publ_section_title
;
Structure prediction by ZEFSAII (Michael W. Deem and Ramdas Pophale) SiO2 
 PCOD9349933
Probable space group: C M M 2
;
_chemical_formula_sum "Si O2"
_cell_formula_units_Z 36
_cell_length_a 18.564645
_cell_length_b 14.257810
_cell_length_c 6.658639
_cell_angle_alpha 90.000000
_cell_angle_beta 90.000000
_cell_angle_gamma 90.000000
_cell_volume 1762.483022
_symmetry_space_group_name_H-M "C M M 2"
_symmetry_group_IT_number 35
_symmetry_cell_setting 'orthorhombic'
loop_
_space_group_symop_operation_xyz
x,y,z
-x,-y,z
-x,y,z
x,-y,z
1/2+x,1/2+y,z
1/2-x,1/2-y,z
1/2-x,1/2+y,z
1/2+x,1/2-y,z
loop_
_atom_site_type_symbol
_atom_site_label
_atom_site_fract_x
_atom_site_fract_y
_atom_site_fract_z
Si Si1 0.227974 0.888438 0.838110
Si Si2 0.580894 0.272982 0.832578
Si Si3 0.750000 0.250000 0.191754
Si Si4 0.844772 0.323657 0.501732
Si Si5 0.915063 0.400450 0.132840
O O1 0.146952 0.846200 0.819257
O O2 0.282764 0.855732 0.659842
O O3 0.227000 0.000000 0.846999
O O4 0.253327 0.839230 0.045340
O O5 0.500000 0.310962 0.858178
O O6 0.588994 0.214955 0.627645
O O7 0.594942 0.193493 0.001536
O O8 0.814875 0.244125 0.350202
O O9 0.871732 0.397863 0.340222
O O10 0.897960 0.500000 0.024709
O O11 0.000000 0.400969 0.177435
#
# Coordination Sequence:
#
# PCOD9349933 Si02
#       5
#     8   8   4   8   8
#     4  12  25  43  68  97 128 168 216 270 324 382
#     4  11  23  42  65  93 134 172 211 267 322 382
#     4  12  22  44  64  94 130 162 216 272 318 374
#     4  12  21  42  66  94 127 169 217 267 322 376
#     4  10  22  39  64  98 132 169 213 264 326 388
#
# _framework density 20.425730000000001
#
# number of rings (size 3 to 8) (size 9 to 14) (size 15 to 20)
#    0.000    0.667    6.667    1.333    0.000    5.778 
#    0.000    2.222    0.000    0.000    0.000    0.000 
#    0.000    0.000    0.000    0.000    0.000    0.000 
#
# Total GULP energy -100304.144384 kJ/mol
# GULP energy per Si atom -5572.452466 kJ/mol
# Density = 2.037924 g / cm^3
# Si number density = 20.425730 Si / 1000 Ang^3
#
#
#
# Elastic Constant Matrix: (Units=GPa)
#
#
# Indices 1 2 3 4 5 6 
#
# 1 139.3775 34.1716 43.3706 0.0000 0.0000 0.0000
# 2 34.1716 113.6901 45.3918 0.0000 0.0000 0.0000
# 3 43.3706 45.3918 124.3958 0.0000 0.0000 0.0000
# 4 0.0000 0.0000 0.0000 15.1943 0.0000 0.0000
# 5 0.0000 0.0000 0.0000 0.0000 29.8420 0.0000
# 6 0.0000 0.0000 0.0000 0.0000 0.0000 19.7195
#
#
#
# Elastic Compliance Matrix: (Units=1/GPa)
#
#
# Indices 1 2 3 4 5 6 
#
# 1 0.008279 -0.001564 -0.002316 0.000000 0.000000 0.000000
# 2 -0.001564 0.010591 -0.003320 0.000000 0.000000 0.000000
# 3 -0.002316 -0.003320 0.010058 0.000000 0.000000 0.000000
# 4 0.000000 0.000000 0.000000 0.065814 0.000000 0.000000
# 5 0.000000 0.000000 0.000000 0.000000 0.033510 0.000000
# 6 0.000000 0.000000 0.000000 0.000000 0.000000 0.050711
#
#
# Mechanical properties :
#
#
# Convention : Reuss Voigt Hill
#
# Bulk Modulus (GPa) = 68.82581 69.25904 69.04242
# Shear Modulus (GPa) = 25.22653 29.91978 27.57316
#
# Velocity S-wave (km/s) = 3.51812 3.83143 3.67812
# Velocity P-wave (km/s) = 7.09025 7.31810 7.20508
#
# Compressibility (1/GPa) = 0.01452943
#
# Stress axis : x y z
#
# Youngs Moduli (GPa) = 120.79117 94.41805 99.42793
#
# Poissons Ratio (x) = 0.14764 0.23025
# Poissons Ratio (y) = 0.18888 0.33005
# Poissons Ratio (z) = 0.27973 0.31342
#
# Static dielectric constant tensor:
#      x y z
#    x 1.806480 0.000000 0.000000 
#    y 0.000000 1.733460 0.000000 
#    z 0.000000 0.000000 1.724910 
# 
# From -- ./inp_files/2877.got.cif
#   From: 2010.05.17/outbox.cif.g08.bks.cpg/sg35_2_cif.got.tgz:2877.got - 2010.06.03 17:29:28.
