data_PCOD9349010
_publ_section_title
;
Structure prediction by ZEFSAII (Michael W. Deem and Ramdas Pophale) SiO2 
 PCOD9349010
Probable space group: C M M 2
;
_chemical_formula_sum "Si O2"
_cell_formula_units_Z 48
_cell_length_a 15.755550
_cell_length_b 8.810833
_cell_length_c 17.725094
_cell_angle_alpha 90.000000
_cell_angle_beta 90.000000
_cell_angle_gamma 90.000000
_cell_volume 2460.589039
_symmetry_space_group_name_H-M "C M M 2"
_symmetry_group_IT_number 35
_symmetry_cell_setting 'orthorhombic'
loop_
_space_group_symop_operation_xyz
x,y,z
-x,-y,z
-x,y,z
x,-y,z
1/2+x,1/2+y,z
1/2-x,1/2-y,z
1/2-x,1/2+y,z
1/2+x,1/2-y,z
loop_
_atom_site_type_symbol
_atom_site_label
_atom_site_fract_x
_atom_site_fract_y
_atom_site_fract_z
Si Si1 0.660843 0.181104 0.322750
Si Si2 0.844545 0.317033 0.960767
Si Si3 0.000000 0.315733 0.068702
Si Si4 0.500000 0.318309 0.235433
Si Si5 0.156725 0.319501 0.793187
Si Si6 0.899412 0.169866 0.641746
Si Si7 0.101406 0.816904 0.476960
O O1 0.750000 0.250000 0.295965
O O2 0.582857 0.251337 0.276462
O O3 0.647266 0.232121 0.409390
O O4 0.660917 0.000000 0.316581
O O5 0.836908 0.500000 0.962523
O O6 0.750000 0.250000 0.972385
O O7 0.876660 0.274201 0.876236
O O8 0.915500 0.273548 0.021537
O O9 0.000000 0.236284 0.149248
O O10 0.000000 0.500000 0.077367
O O11 0.500000 0.500000 0.241689
O O12 0.159401 0.500000 0.791488
O O13 0.250000 0.250000 0.790247
O O14 0.112859 0.262683 0.717529
O O15 0.868267 0.230727 0.560863
O O16 0.000000 0.155898 0.630210
O O17 0.863706 0.000000 0.653198
O O18 0.000000 0.787968 0.469184
O O19 0.112823 0.000000 0.471206
#
# Coordination Sequence:
#
# PCOD9349010 Si02
#       7
#     8   8   4   4   8   8   8
#     4  12  25  42  67  97 126 164 208 251 306 368
#     4   9  20  38  61  87 121 158 199 249 303 358
#     4  10  22  42  66  91 120 159 198 241 304 371
#     4  12  26  46  68  95 130 161 198 251 306 369
#     4  10  20  34  54  79 112 155 199 248 300 351
#     4   9  19  34  53  81 116 157 200 247 299 348
#     4   9  18  36  60  84 119 162 203 253 309 360
#
# _framework density 19.507522999999999
#
# number of rings (size 3 to 8) (size 9 to 14) (size 15 to 20)
#    0.000    2.000    0.833    3.750    1.167    3.667 
#    0.000    3.333    0.000    0.000    0.000    0.000 
#    0.000    0.000    0.000    0.000    0.000    0.000 
#
# Total GULP energy -133947.121340 kJ/mol
# GULP energy per Si atom -5581.130056 kJ/mol
# Density = 1.946312 g / cm^3
# Si number density = 19.507523 Si / 1000 Ang^3
#
#
#
# Elastic Constant Matrix: (Units=GPa)
#
#
# Indices 1 2 3 4 5 6 
#
# 1 108.7958 48.2309 76.9564 0.0000 0.0000 0.0000
# 2 48.2309 81.0866 64.0516 0.0000 0.0000 0.0000
# 3 76.9564 64.0516 167.9084 0.0000 0.0000 0.0000
# 4 0.0000 0.0000 0.0000 34.2413 0.0000 0.0000
# 5 0.0000 0.0000 0.0000 0.0000 -30.5227 0.0000
# 6 0.0000 0.0000 0.0000 0.0000 0.0000 26.2686
#
#
#
# Elastic Compliance Matrix: (Units=1/GPa)
#
#
# Indices 1 2 3 4 5 6 
#
# 1 0.014873 -0.004955 -0.004926 0.000000 0.000000 0.000000
# 2 -0.004955 0.019302 -0.005092 0.000000 0.000000 0.000000
# 3 -0.004926 -0.005092 0.010156 0.000000 0.000000 0.000000
# 4 0.000000 0.000000 0.000000 0.029204 0.000000 0.000000
# 5 0.000000 0.000000 0.000000 0.000000 -0.032762 0.000000
# 6 0.000000 0.000000 0.000000 0.000000 0.000000 0.038068
#
#
# Mechanical properties :
#
#
# Convention : Reuss Voigt Hill
#
# Bulk Modulus (GPa) = 69.52236 81.80761 75.66498
# Shear Modulus (GPa) = 44.02067 17.23423 30.62745
#
# Velocity S-wave (km/s) = 4.75552 2.97554 3.96666
# Velocity P-wave (km/s) = 8.11600 7.33707 7.73634
#
# Compressibility (1/GPa) = 0.01438386
#
# Stress axis : x y z
#
# Youngs Moduli (GPa) = 67.23660 51.80768 98.46410
#
# Poissons Ratio (x) = 0.25671 0.48507
# Poissons Ratio (y) = 0.33316 0.50139
# Poissons Ratio (z) = 0.33123 0.26381
#
# Static dielectric constant tensor:
#      x y z
#    x 1.682060 0.000000 0.000000 
#    y 0.000000 1.654330 0.000000 
#    z 0.000000 0.000000 1.715290 
# 
# From -- ./inp_files/18809.got.cif
#   From: 2010.05.17/outbox.cif.g08.bks.cpg/sg35_10_cif.got.tgz:18809.got - 2010.06.03 17:29:28.
