data_PCOD9349898
_publ_section_title
;
Structure prediction by ZEFSAII (Michael W. Deem and Ramdas Pophale) SiO2 
 PCOD9349898
Probable space group: C M M 2
;
_chemical_formula_sum "Si O2"
_cell_formula_units_Z 56
_cell_length_a 21.806866
_cell_length_b 8.641764
_cell_length_c 14.479259
_cell_angle_alpha 90.000000
_cell_angle_beta 90.000000
_cell_angle_gamma 90.000000
_cell_volume 2728.613311
_symmetry_space_group_name_H-M "C M M 2"
_symmetry_group_IT_number 35
_symmetry_cell_setting 'orthorhombic'
loop_
_space_group_symop_operation_xyz
x,y,z
-x,-y,z
-x,y,z
x,-y,z
1/2+x,1/2+y,z
1/2-x,1/2-y,z
1/2-x,1/2+y,z
1/2+x,1/2-y,z
loop_
_atom_site_type_symbol
_atom_site_label
_atom_site_fract_x
_atom_site_fract_y
_atom_site_fract_z
Si Si1 0.314137 0.683367 0.064040
Si Si2 0.068129 0.314591 0.169448
Si Si3 0.633475 0.311544 0.680550
Si Si4 0.632265 0.816062 0.884765
Si Si5 0.432333 0.312975 0.377019
Si Si6 0.186567 0.814114 0.491311
Si Si7 0.500000 0.673938 0.665883
Si Si8 0.000000 0.823994 0.889926
O O1 0.312265 0.500000 0.067728
O O2 0.250000 0.750000 0.101009
O O3 0.374078 0.743269 0.117448
O O4 0.323181 0.740175 0.959064
O O5 0.071485 0.500000 0.162916
O O6 0.071001 0.261541 0.275875
O O7 0.000000 0.266370 0.134132
O O8 0.630473 0.500000 0.689066
O O9 0.645330 0.242625 0.781086
O O10 0.679133 0.269341 0.598838
O O11 0.566021 0.256144 0.646136
O O12 0.563002 0.763177 0.911580
O O13 0.636340 0.000000 0.888721
O O14 0.500000 0.275713 0.417047
O O15 0.429560 0.500000 0.367945
O O16 0.374169 0.262919 0.436928
O O17 0.250000 0.750000 0.452911
O O18 0.187781 0.000000 0.487829
O O19 0.500000 0.500000 0.625422
O O20 0.500000 0.663954 0.777844
O O21 0.000000 0.000000 0.926225
#
# Coordination Sequence:
#
# PCOD9349898 Si02
#       8
#     8   8   8   8   8   8   4   4
#     4  12  26  44  65  91 125 164 210 256 311 372
#     4  10  22  42  68  97 128 160 199 249 310 372
#     4   9  18  34  55  81 114 157 207 254 305 360
#     4  11  22  37  58  87 124 163 206 258 312 365
#     4   9  19  38  64  92 120 154 203 254 304 360
#     4  10  22  37  57  86 121 161 204 252 303 363
#     4   7  12  25  49  75 100 133 186 247 295 338
#     4   9  17  33  55  81 112 153 202 251 301 356
#
# _framework density 20.523244999999999
#
# number of rings (size 3 to 8) (size 9 to 14) (size 15 to 20)
#    0.000    2.143    0.000    4.071    2.000    3.143 
#    0.000    2.857    0.000    0.000    0.000    0.000 
#    0.000    0.000    0.000    0.000    0.000    0.000 
#
# Total GULP energy -156362.624824 kJ/mol
# GULP energy per Si atom -5584.379458 kJ/mol
# Density = 2.047653 g / cm^3
# Si number density = 20.523245 Si / 1000 Ang^3
#
#
#
# Elastic Constant Matrix: (Units=GPa)
#
#
# Indices 1 2 3 4 5 6 
#
# 1 177.1012 57.2234 67.4117 0.0000 0.0000 0.0000
# 2 57.2234 85.9032 29.8442 0.0000 0.0000 0.0000
# 3 67.4117 29.8442 72.1037 0.0000 0.0000 0.0000
# 4 0.0000 0.0000 0.0000 15.2716 0.0000 0.0000
# 5 0.0000 0.0000 0.0000 0.0000 15.5117 0.0000
# 6 0.0000 0.0000 0.0000 0.0000 0.0000 28.7679
#
#
#
# Elastic Compliance Matrix: (Units=1/GPa)
#
#
# Indices 1 2 3 4 5 6 
#
# 1 0.009767 -0.003894 -0.007520 0.000000 0.000000 0.000000
# 2 -0.003894 0.015148 -0.002630 0.000000 0.000000 0.000000
# 3 -0.007520 -0.002630 0.021988 0.000000 0.000000 0.000000
# 4 0.000000 0.000000 0.000000 0.065481 0.000000 0.000000
# 5 0.000000 0.000000 0.000000 0.000000 0.064467 0.000000
# 6 0.000000 0.000000 0.000000 0.000000 0.000000 0.034761
#
#
# Mechanical properties :
#
#
# Convention : Reuss Voigt Hill
#
# Bulk Modulus (GPa) = 53.14397 71.56295 62.35346
# Shear Modulus (GPa) = 20.32761 23.95216 22.13989
#
# Velocity S-wave (km/s) = 3.15058 3.41995 3.28803
# Velocity P-wave (km/s) = 6.25984 7.10913 6.69796
#
# Compressibility (1/GPa) = 0.01881681
#
# Stress axis : x y z
#
# Youngs Moduli (GPa) = 102.38709 66.01398 45.47986
#
# Poissons Ratio (x) = 0.25703 0.34200
# Poissons Ratio (y) = 0.39865 0.11960
# Poissons Ratio (z) = 0.76992 0.17360
#
# Static dielectric constant tensor:
#      x y z
#    x 1.759390 0.000000 0.000000 
#    y 0.000000 1.694240 0.000000 
#    z 0.000000 0.000000 1.736290 
# 
# From -- ./inp_files/17502.got.cif
#   From: 2010.05.17/outbox.cif.g08.bks.cpg/sg35_9_cif.got.tgz:17502.got - 2010.06.03 17:29:28.
