data_PCOD9349593
_publ_section_title
;
Structure prediction by ZEFSAII (Michael W. Deem and Ramdas Pophale) SiO2 
 PCOD9349593
Probable space group: C M M 2
;
_chemical_formula_sum "Si O2"
_cell_formula_units_Z 52
_cell_length_a 7.640064
_cell_length_b 27.755647
_cell_length_c 15.180008
_cell_angle_alpha 90.000000
_cell_angle_beta 90.000000
_cell_angle_gamma 90.000000
_cell_volume 3218.995374
_symmetry_space_group_name_H-M "C M M 2"
_symmetry_group_IT_number 35
_symmetry_cell_setting 'orthorhombic'
loop_
_space_group_symop_operation_xyz
x,y,z
-x,-y,z
-x,y,z
x,-y,z
1/2+x,1/2+y,z
1/2-x,1/2-y,z
1/2-x,1/2+y,z
1/2+x,1/2-y,z
loop_
_atom_site_type_symbol
_atom_site_label
_atom_site_fract_x
_atom_site_fract_y
_atom_site_fract_z
Si Si1 0.703427 0.596042 0.561800
Si Si2 0.787176 0.944725 0.748700
Si Si3 0.801635 0.195448 0.284578
Si Si4 0.000000 0.380058 0.254156
Si Si5 0.700981 0.441382 0.942116
Si Si6 0.291480 0.197126 0.489178
Si Si7 0.500000 0.941873 0.078708
Si Si8 0.500000 0.056804 0.432841
O O1 0.500000 0.581130 0.551184
O O2 0.762073 0.583416 0.660871
O O3 0.719477 0.652895 0.544717
O O4 0.830562 0.570489 0.491689
O O5 0.734038 0.925748 0.844928
O O6 0.000000 0.945455 0.752095
O O7 0.727494 0.000000 0.739073
O O8 0.750000 0.250000 0.258248
O O9 0.666986 0.155343 0.252355
O O10 0.788745 0.194741 0.391231
O O11 0.000000 0.185509 0.257930
O O12 0.000000 0.410729 0.344818
O O13 0.000000 0.415661 0.171717
O O14 0.500000 0.425870 0.956102
O O15 0.699430 0.500000 0.937637
O O16 0.830989 0.428197 0.020187
O O17 0.500000 0.191710 0.479903
O O18 0.250000 0.250000 0.525711
O O19 0.500000 0.000000 0.089596
O O20 0.500000 0.000000 0.412811
#
# Coordination Sequence:
#
# PCOD9349593 Si02
#       8
#     8   8   8   4   8   8   4   4
#     4  11  20  34  51  76 108 145 181 217 259 313
#     4   8  15  28  49  75 104 135 171 217 262 306
#     4  11  19  34  57  78 102 132 169 225 274 305
#     4  12  23  38  50  80 108 138 181 220 268 314
#     4   8  15  31  52  74  99 130 172 222 268 307
#     4  11  19  33  52  77 105 137 177 226 267 303
#     4  10  21  35  54  75 105 142 177 218 263 316
#     4  12  25  37  48  69 109 156 189 212 249 310
#
# _framework density 16.154108000000001
#
# number of rings (size 3 to 8) (size 9 to 14) (size 15 to 20)
#    0.000    1.846    3.846    3.923    0.000    2.154 
#    0.000    1.538    0.000    2.769    0.000    1.077 
#    0.000    0.000    0.000    0.000    0.000    0.000 
#
# Total GULP energy -145023.763743 kJ/mol
# GULP energy per Si atom -5577.837067 kJ/mol
# Density = 1.611734 g / cm^3
# Si number density = 16.154108 Si / 1000 Ang^3
#
#
#
# Elastic Constant Matrix: (Units=GPa)
#
#
# Indices 1 2 3 4 5 6 
#
# 1 116.1990 32.6564 47.8210 0.0000 0.0000 0.0000
# 2 32.6564 83.2664 44.9631 0.0000 0.0000 0.0000
# 3 47.8210 44.9631 112.9036 0.0000 0.0000 0.0000
# 4 0.0000 0.0000 0.0000 8.4083 0.0000 0.0000
# 5 0.0000 0.0000 0.0000 0.0000 11.4727 0.0000
# 6 0.0000 0.0000 0.0000 0.0000 0.0000 8.1895
#
#
#
# Elastic Compliance Matrix: (Units=1/GPa)
#
#
# Indices 1 2 3 4 5 6 
#
# 1 0.010740 -0.002237 -0.003658 0.000000 0.000000 0.000000
# 2 -0.002237 0.015766 -0.005331 0.000000 0.000000 0.000000
# 3 -0.003658 -0.005331 0.012530 0.000000 0.000000 0.000000
# 4 0.000000 0.000000 0.000000 0.118930 0.000000 0.000000
# 5 0.000000 0.000000 0.000000 0.000000 0.087163 0.000000
# 6 0.000000 0.000000 0.000000 0.000000 0.000000 0.122108
#
#
# Mechanical properties :
#
#
# Convention : Reuss Voigt Hill
#
# Bulk Modulus (GPa) = 60.30245 62.58332 61.44289
# Shear Modulus (GPa) = 12.65127 18.07600 15.36364
#
# Velocity S-wave (km/s) = 2.80154 3.34873 3.08728
# Velocity P-wave (km/s) = 6.91920 7.33332 7.12927
#
# Compressibility (1/GPa) = 0.01658307
#
# Stress axis : x y z
#
# Youngs Moduli (GPa) = 93.10926 63.42902 79.81042
#
# Poissons Ratio (x) = 0.14187 0.29197
# Poissons Ratio (y) = 0.20826 0.42548
# Poissons Ratio (z) = 0.34062 0.33815
#
# Static dielectric constant tensor:
#      x y z
#    x 1.579230 0.000000 0.000000 
#    y 0.000000 1.529630 0.000000 
#    z 0.000000 0.000000 1.527510 
# 
# From -- ./inp_files/15988.got.cif
#   From: 2010.05.17/outbox.cif.g08.bks.cpg/sg35_8_cif.got.tgz:15988.got - 2010.06.03 17:29:28.
