data_PCOD9349607
_publ_section_title
;
Structure prediction by ZEFSAII (Michael W. Deem and Ramdas Pophale) SiO2 
 PCOD9349607
Probable space group: C M M 2
;
_chemical_formula_sum "Si O2"
_cell_formula_units_Z 40
_cell_length_a 31.524132
_cell_length_b 7.507385
_cell_length_c 7.516194
_cell_angle_alpha 90.000000
_cell_angle_beta 90.000000
_cell_angle_gamma 90.000000
_cell_volume 1778.811001
_symmetry_space_group_name_H-M "C M M 2"
_symmetry_group_IT_number 35
_symmetry_cell_setting 'orthorhombic'
loop_
_space_group_symop_operation_xyz
x,y,z
-x,-y,z
-x,y,z
x,-y,z
1/2+x,1/2+y,z
1/2-x,1/2-y,z
1/2-x,1/2+y,z
1/2+x,1/2-y,z
loop_
_atom_site_type_symbol
_atom_site_label
_atom_site_fract_x
_atom_site_fract_y
_atom_site_fract_z
Si Si1 0.361814 0.210520 0.527060
Si Si2 0.954511 0.293077 0.087836
Si Si3 0.363195 0.780906 0.122397
Si Si4 0.200395 0.286579 0.826852
Si Si5 0.045514 0.786541 0.507826
O O1 0.359773 0.281779 0.325934
O O2 0.326651 0.283988 0.659934
O O3 0.410223 0.231390 0.594395
O O4 0.354185 0.000000 0.512125
O O5 0.955192 0.500000 0.034579
O O6 0.908305 0.219164 0.040327
O O7 0.953753 0.284742 0.304595
O O8 0.000000 0.212055 0.033192
O O9 0.365013 0.000000 0.124871
O O10 0.323599 0.724302 0.004284
O O11 0.195775 0.500000 0.825989
O O12 0.250000 0.250000 0.819987
O O13 0.000000 0.729299 0.586952
O O14 0.045633 0.000000 0.498187
#
# Coordination Sequence:
#
# PCOD9349607 Si02
#       5
#     8   8   8   8   8
#     4   9  18  33  52  72  96 128 163 197 235 283
#     4   8  13  24  45  70  96 128 161 192 231 280
#     4   8  15  30  50  71  96 123 153 192 235 280
#     4  10  21  36  52  71  95 123 159 204 249 290
#     4   9  16  26  44  72 103 131 159 194 235 279
#
# _framework density 22.486931999999999
#
# number of rings (size 3 to 8) (size 9 to 14) (size 15 to 20)
#    0.000    3.200    0.000    1.800    0.000    2.800 
#    0.000    5.000    0.000    3.600    0.000   11.200 
#    0.000    0.000    0.000    0.000    0.000    0.000 
#
# Total GULP energy -111521.553825 kJ/mol
# GULP energy per Si atom -5576.077691 kJ/mol
# Density = 2.243575 g / cm^3
# Si number density = 22.486932 Si / 1000 Ang^3
#
#
#
# Elastic Constant Matrix: (Units=GPa)
#
#
# Indices 1 2 3 4 5 6 
#
# 1 245.5646 -9.0441 86.1213 0.0000 0.0000 0.0000
# 2 -9.0441 62.7535 1.6783 0.0000 0.0000 0.0000
# 3 86.1213 1.6783 93.6568 0.0000 0.0000 0.0000
# 4 0.0000 0.0000 0.0000 -11.3488 0.0000 0.0000
# 5 0.0000 0.0000 0.0000 0.0000 -13.6259 0.0000
# 6 0.0000 0.0000 0.0000 0.0000 0.0000 19.3679
#
#
#
# Elastic Compliance Matrix: (Units=1/GPa)
#
#
# Indices 1 2 3 4 5 6 
#
# 1 0.006076 0.001026 -0.005605 0.000000 0.000000 0.000000
# 2 0.001026 0.016116 -0.001232 0.000000 0.000000 0.000000
# 3 -0.005605 -0.001232 0.015854 0.000000 0.000000 0.000000
# 4 0.000000 0.000000 0.000000 -0.088115 0.000000 0.000000
# 5 0.000000 0.000000 0.000000 0.000000 -0.073390 0.000000
# 6 0.000000 0.000000 0.000000 0.000000 0.000000 0.051632
#
#
# Mechanical properties :
#
#
# Convention : Reuss Voigt Hill
#
# Bulk Modulus (GPa) = 37.84670 62.16511 50.00591
# Shear Modulus (GPa) = -97.28369 20.42660 -38.42854
#
# Velocity S-wave (km/s) = -6.58455 3.01720 -4.13840
# Velocity P-wave (km/s) = 6.39854 6.31213 0.74103
#
# Compressibility (1/GPa) = 0.02642238
#
# Stress axis : x y z
#
# Youngs Moduli (GPa) = 164.58544 62.04974 63.07660
#
# Poissons Ratio (x) = -0.06364 0.35357
# Poissons Ratio (y) = -0.16879 0.07770
# Poissons Ratio (z) = 0.92257 0.07644
#
# Static dielectric constant tensor:
#      x y z
#    x 1.855060 0.000000 0.000000 
#    y 0.000000 1.880150 0.000000 
#    z 0.000000 0.000000 1.847870 
# 
# From -- ./inp_files/4960.got.cif
#   From: 2010.05.17/outbox.cif.g08.bks.cpg/sg35_3_cif.got.tgz:4960.got - 2010.06.03 17:29:28.
