data_PCOD9349356
_publ_section_title
;
Structure prediction by ZEFSAII (Michael W. Deem and Ramdas Pophale) SiO2 
 PCOD9349356
Probable space group: C M M 2
;
_chemical_formula_sum "Si O2"
_cell_formula_units_Z 56
_cell_length_a 13.747763
_cell_length_b 15.025908
_cell_length_c 13.592754
_cell_angle_alpha 90.000000
_cell_angle_beta 90.000000
_cell_angle_gamma 90.000000
_cell_volume 2807.890835
_symmetry_space_group_name_H-M "C M M 2"
_symmetry_group_IT_number 35
_symmetry_cell_setting 'orthorhombic'
loop_
_space_group_symop_operation_xyz
x,y,z
-x,-y,z
-x,y,z
x,-y,z
1/2+x,1/2+y,z
1/2-x,1/2-y,z
1/2-x,1/2+y,z
1/2+x,1/2-y,z
loop_
_atom_site_type_symbol
_atom_site_label
_atom_site_fract_x
_atom_site_fract_y
_atom_site_fract_z
Si Si1 0.787268 0.892566 0.760720
Si Si2 0.216236 0.150585 0.351438
Si Si3 0.615907 0.217603 0.839992
Si Si4 0.111346 0.894089 0.550681
Si Si5 0.891264 0.399925 0.245589
Si Si6 0.883032 0.902435 0.151536
Si Si7 0.882095 0.280121 0.062822
O O1 0.680026 0.849411 0.773630
O O2 0.853063 0.821058 0.821890
O O3 0.827592 0.881162 0.649969
O O4 0.791921 0.000000 0.784127
O O5 0.250000 0.250000 0.331899
O O6 0.164248 0.144589 0.455421
O O7 0.318017 0.100206 0.336584
O O8 0.147332 0.116503 0.263912
O O9 0.500000 0.208988 0.825968
O O10 0.643234 0.193216 0.952592
O O11 0.000000 0.861241 0.561684
O O12 0.106461 0.000000 0.534128
O O13 0.897083 0.500000 0.207710
O O14 0.853573 0.340395 0.155535
O O15 0.000000 0.369522 0.273288
O O16 0.849865 0.820584 0.084693
O O17 0.000000 0.903913 0.146874
O O18 0.845863 0.000000 0.122499
O O19 0.000000 0.281396 0.065061
#
# Coordination Sequence:
#
# PCOD9349356 Si02
#       7
#     8   8   8   8   8   8   8
#     4  10  23  42  64  91 123 157 204 260 319 377
#     4  12  23  34  58  88 120 154 197 248 297 358
#     4  10  22  40  65  92 126 164 208 260 312 368
#     4  10  22  42  65  88 116 152 197 250 308 373
#     4  10  21  38  57  80 120 166 202 237 283 347
#     4  10  20  36  58  85 120 159 201 250 297 346
#     4   9  19  37  57  85 121 161 206 246 290 351
#
# _framework density 19.943795000000001
#
# number of rings (size 3 to 8) (size 9 to 14) (size 15 to 20)
#    0.000    1.857    1.429    2.143    2.000    6.286 
#    0.000    3.571    0.000    0.857    0.000    0.000 
#    0.000    0.000    0.000    0.000    0.000    0.000 
#
# Total GULP energy -156157.191764 kJ/mol
# GULP energy per Si atom -5577.042563 kJ/mol
# Density = 1.989840 g / cm^3
# Si number density = 19.943795 Si / 1000 Ang^3
#
#
#
# Elastic Constant Matrix: (Units=GPa)
#
#
# Indices 1 2 3 4 5 6 
#
# 1 129.5933 26.7278 37.6244 0.0000 0.0000 0.0000
# 2 26.7278 105.8306 25.9707 0.0000 0.0000 0.0000
# 3 37.6244 25.9707 73.8443 0.0000 0.0000 0.0000
# 4 0.0000 0.0000 0.0000 17.9339 0.0000 0.0000
# 5 0.0000 0.0000 0.0000 0.0000 31.1512 0.0000
# 6 0.0000 0.0000 0.0000 0.0000 0.0000 20.5243
#
#
#
# Elastic Compliance Matrix: (Units=1/GPa)
#
#
# Indices 1 2 3 4 5 6 
#
# 1 0.009213 -0.001286 -0.004242 0.000000 0.000000 0.000000
# 2 -0.001286 0.010521 -0.003045 0.000000 0.000000 0.000000
# 3 -0.004242 -0.003045 0.016774 0.000000 0.000000 0.000000
# 4 0.000000 0.000000 0.000000 0.055760 0.000000 0.000000
# 5 0.000000 0.000000 0.000000 0.000000 0.032101 0.000000
# 6 0.000000 0.000000 0.000000 0.000000 0.000000 0.048723
#
#
# Mechanical properties :
#
#
# Convention : Reuss Voigt Hill
#
# Bulk Modulus (GPa) = 51.64554 54.43488 53.04021
# Shear Modulus (GPa) = 25.42032 28.51824 26.96928
#
# Velocity S-wave (km/s) = 3.57402 3.78554 3.68130
# Velocity P-wave (km/s) = 6.55616 6.81620 6.68744
#
# Compressibility (1/GPa) = 0.01936276
#
# Stress axis : x y z
#
# Youngs Moduli (GPa) = 108.53979 95.04746 59.61509
#
# Poissons Ratio (x) = 0.12222 0.25289
# Poissons Ratio (y) = 0.13956 0.18153
# Poissons Ratio (z) = 0.46043 0.28942
#
# Static dielectric constant tensor:
#      x y z
#    x 1.768840 0.000000 0.000000 
#    y 0.000000 1.684180 0.000000 
#    z 0.000000 0.000000 1.672190 
# 
# From -- ./inp_files/12980.got.cif
#   From: 2010.05.17/outbox.cif.g08.bks.cpg/sg35_7_cif.got.tgz:12980.got - 2010.06.03 17:29:28.
