data_PCOD9349161
_publ_section_title
;
Structure prediction by ZEFSAII (Michael W. Deem and Ramdas Pophale) SiO2 
 PCOD9349161
Probable space group: C M M 2
;
_chemical_formula_sum "Si O2"
_cell_formula_units_Z 48
_cell_length_a 15.880597
_cell_length_b 8.552805
_cell_length_c 17.736503
_cell_angle_alpha 90.000000
_cell_angle_beta 90.000000
_cell_angle_gamma 90.000000
_cell_volume 2409.036565
_symmetry_space_group_name_H-M "C M M 2"
_symmetry_group_IT_number 35
_symmetry_cell_setting 'orthorhombic'
loop_
_space_group_symop_operation_xyz
x,y,z
-x,-y,z
-x,y,z
x,-y,z
1/2+x,1/2+y,z
1/2-x,1/2-y,z
1/2-x,1/2+y,z
1/2+x,1/2-y,z
loop_
_atom_site_type_symbol
_atom_site_label
_atom_site_fract_x
_atom_site_fract_y
_atom_site_fract_z
Si Si1 0.153910 0.188329 0.496290
Si Si2 0.653563 0.186494 0.336004
Si Si3 0.500000 0.809964 0.067710
Si Si4 0.095162 0.811723 0.822807
Si Si5 0.000000 0.813464 0.237265
Si Si6 0.654746 0.311149 0.659736
Si Si7 0.337015 0.814024 0.973458
O O1 0.250000 0.250000 0.499735
O O2 0.121062 0.260643 0.418985
O O3 0.116325 0.233122 0.578115
O O4 0.152883 0.000000 0.489725
O O5 0.750000 0.250000 0.325993
O O6 0.584782 0.248964 0.277154
O O7 0.657818 0.000000 0.332749
O O8 0.500000 0.740707 0.150841
O O9 0.417291 0.760139 0.021454
O O10 0.500000 0.000000 0.072121
O O11 0.112352 0.758463 0.737301
O O12 0.000000 0.768576 0.842970
O O13 0.102947 0.000000 0.824008
O O14 0.153093 0.742028 0.887346
O O15 0.000000 0.000000 0.243170
O O16 0.655511 0.500000 0.660467
O O17 0.750000 0.250000 0.662132
O O18 0.250000 0.750000 0.005365
O O19 0.335661 0.000000 0.974116
#
# Coordination Sequence:
#
# PCOD9349161 Si02
#       7
#     8   8   4   8   4   8   8
#     4   9  16  30  52  80 114 156 205 253 304 357
#     4  11  22  40  65  93 128 166 208 255 307 366
#     4  10  24  46  66  89 126 159 192 247 304 363
#     4  10  20  35  55  81 118 160 205 253 302 355
#     4  12  26  44  68  97 126 161 202 247 308 373
#     4   9  18  31  49  77 111 153 202 252 302 352
#     4  11  23  41  65  92 122 159 201 245 301 360
#
# _framework density 19.924976999999998
#
# number of rings (size 3 to 8) (size 9 to 14) (size 15 to 20)
#    0.000    1.833    0.833    4.750    0.000    4.667 
#    1.500    1.667    0.000    0.000    0.000    0.000 
#    0.000    0.000    0.000    0.000    0.000    0.000 
#
# Total GULP energy -133958.384822 kJ/mol
# GULP energy per Si atom -5581.599368 kJ/mol
# Density = 1.987963 g / cm^3
# Si number density = 19.924977 Si / 1000 Ang^3
#
#
#
# Elastic Constant Matrix: (Units=GPa)
#
#
# Indices 1 2 3 4 5 6 
#
# 1 121.1604 37.2634 71.3828 0.0000 0.0000 0.0000
# 2 37.2634 68.1510 41.3186 0.0000 0.0000 0.0000
# 3 71.3828 41.3186 159.1405 0.0000 0.0000 0.0000
# 4 0.0000 0.0000 0.0000 32.4621 0.0000 0.0000
# 5 0.0000 0.0000 0.0000 0.0000 24.1624 0.0000
# 6 0.0000 0.0000 0.0000 0.0000 0.0000 25.3048
#
#
#
# Elastic Compliance Matrix: (Units=1/GPa)
#
#
# Indices 1 2 3 4 5 6 
#
# 1 0.012043 -0.003928 -0.004382 0.000000 0.000000 0.000000
# 2 -0.003928 0.018696 -0.003092 0.000000 0.000000 0.000000
# 3 -0.004382 -0.003092 0.009052 0.000000 0.000000 0.000000
# 4 0.000000 0.000000 0.000000 0.030805 0.000000 0.000000
# 5 0.000000 0.000000 0.000000 0.000000 0.041387 0.000000
# 6 0.000000 0.000000 0.000000 0.000000 0.000000 0.039518
#
#
# Mechanical properties :
#
#
# Convention : Reuss Voigt Hill
#
# Bulk Modulus (GPa) = 58.87047 72.04238 65.45643
# Shear Modulus (GPa) = 27.78259 29.61833 28.70046
#
# Velocity S-wave (km/s) = 3.73816 3.85969 3.79941
# Velocity P-wave (km/s) = 6.94565 7.48988 7.22289
#
# Compressibility (1/GPa) = 0.01698644
#
# Stress axis : x y z
#
# Youngs Moduli (GPa) = 83.03234 53.48784 110.47003
#
# Poissons Ratio (x) = 0.21011 0.48410
# Poissons Ratio (y) = 0.32617 0.34158
# Poissons Ratio (z) = 0.36387 0.16539
#
# Static dielectric constant tensor:
#      x y z
#    x 1.695100 0.000000 0.000000 
#    y 0.000000 1.674220 0.000000 
#    z 0.000000 0.000000 1.720730 
# 
# From -- ./inp_files/17840.got.cif
#   From: 2010.05.17/outbox.cif.g08.bks.cpg/sg35_9_cif.got.tgz:17840.got - 2010.06.03 17:29:28.
