data_PCOD9349015
_publ_section_title
;
Structure prediction by ZEFSAII (Michael W. Deem and Ramdas Pophale) SiO2 
 PCOD9349015
Probable space group: C M M 2
;
_chemical_formula_sum "Si O2"
_cell_formula_units_Z 56
_cell_length_a 18.748510
_cell_length_b 9.153648
_cell_length_c 18.355597
_cell_angle_alpha 90.000000
_cell_angle_beta 90.000000
_cell_angle_gamma 90.000000
_cell_volume 3150.137282
_symmetry_space_group_name_H-M "C M M 2"
_symmetry_group_IT_number 35
_symmetry_cell_setting 'orthorhombic'
loop_
_space_group_symop_operation_xyz
x,y,z
-x,-y,z
-x,y,z
x,-y,z
1/2+x,1/2+y,z
1/2-x,1/2-y,z
1/2-x,1/2+y,z
1/2+x,1/2-y,z
loop_
_atom_site_type_symbol
_atom_site_label
_atom_site_fract_x
_atom_site_fract_y
_atom_site_fract_z
Si Si1 0.173218 0.324215 0.798120
Si Si2 0.173649 0.826206 0.361548
Si Si3 0.914024 0.669997 0.237668
Si Si4 0.326456 0.673682 0.530680
Si Si5 0.086814 0.831896 0.090229
Si Si6 0.583546 0.175039 0.654144
Si Si7 0.584074 0.174935 0.941387
O O1 0.181269 0.500000 0.798437
O O2 0.250000 0.250000 0.795722
O O3 0.127067 0.285468 0.726938
O O4 0.130101 0.283520 0.871128
O O5 0.250000 0.750000 0.350261
O O6 0.118913 0.756385 0.305138
O O7 0.153366 0.800577 0.446129
O O8 0.179331 0.000000 0.350601
O O9 0.893363 0.500000 0.240063
O O10 0.890309 0.743009 0.161602
O O11 0.000000 0.677829 0.240441
O O12 0.319558 0.500000 0.541664
O O13 0.250000 0.750000 0.543275
O O14 0.382830 0.741827 0.585916
O O15 0.000000 0.830347 0.090562
O O16 0.110030 0.000000 0.093842
O O17 0.108119 0.756207 0.014662
O O18 0.500000 0.207429 0.663058
O O19 0.590813 0.000000 0.643471
O O20 0.500000 0.206995 0.928793
O O21 0.589662 0.000000 0.952056
#
# Coordination Sequence:
#
# PCOD9349015 Si02
#       7
#     8   8   8   8   8   8   8
#     4  10  21  36  54  77 106 140 176 215 262 315
#     4  10  21  37  56  78 107 142 179 220 267 319
#     4  10  20  34  54  80 109 142 181 222 265 316
#     4  10  21  37  57  80 107 141 179 219 266 319
#     4   9  17  30  50  77 107 137 172 217 268 317
#     4  10  21  37  57  81 109 141 178 220 266 316
#     4   9  17  32  54  76 100 133 174 218 263 314
#
# _framework density 17.777003000000001
#
# number of rings (size 3 to 8) (size 9 to 14) (size 15 to 20)
#    0.000    2.286    0.000    2.571    0.000    9.143 
#    0.000    3.571    0.000    4.286    0.000    0.000 
#    0.000    0.000    0.000    0.000    0.000    0.000 
#
# Total GULP energy -156298.994487 kJ/mol
# GULP energy per Si atom -5582.106946 kJ/mol
# Density = 1.773654 g / cm^3
# Si number density = 17.777003 Si / 1000 Ang^3
#
#
#
# Elastic Constant Matrix: (Units=GPa)
#
#
# Indices 1 2 3 4 5 6 
#
# 1 83.1848 57.7609 82.0567 0.0000 0.0000 0.0000
# 2 57.7609 91.0910 88.3198 0.0000 0.0000 0.0000
# 3 82.0567 88.3198 151.0879 0.0000 0.0000 0.0000
# 4 0.0000 0.0000 0.0000 19.5191 0.0000 0.0000
# 5 0.0000 0.0000 0.0000 0.0000 929.5551 0.0000
# 6 0.0000 0.0000 0.0000 0.0000 0.0000 30.8410
#
#
#
# Elastic Compliance Matrix: (Units=1/GPa)
#
#
# Indices 1 2 3 4 5 6 
#
# 1 0.027633 -0.006858 -0.010999 0.000000 0.000000 0.000000
# 2 -0.006858 0.027042 -0.012083 0.000000 0.000000 0.000000
# 3 -0.010999 -0.012083 0.019656 0.000000 0.000000 0.000000
# 4 0.000000 0.000000 0.000000 0.051232 0.000000 0.000000
# 5 0.000000 0.000000 0.000000 0.000000 0.001076 0.000000
# 6 0.000000 0.000000 0.000000 0.000000 0.000000 0.032424
#
#
# Mechanical properties :
#
#
# Convention : Reuss Voigt Hill
#
# Bulk Modulus (GPa) = 69.19971 86.84871 78.02421
# Shear Modulus (GPa) = 22.34540 202.46479 112.40510
#
# Velocity S-wave (km/s) = 3.54924 10.68357 7.96040
# Velocity P-wave (km/s) = 7.47042 14.18258 11.33474
#
# Compressibility (1/GPa) = 0.01445093
#
# Stress axis : x y z
#
# Youngs Moduli (GPa) = 36.18866 36.97911 50.87632
#
# Poissons Ratio (x) = 0.25360 0.55958
# Poissons Ratio (y) = 0.24818 0.61475
# Poissons Ratio (z) = 0.39803 0.44683
#
# Static dielectric constant tensor:
#      x y z
#    x 1.580430 0.000000 0.000000 
#    y 0.000000 1.594290 0.000000 
#    z 0.000000 0.000000 1.589220 
# 
# From -- ./inp_files/15585.got.cif
#   From: 2010.05.17/outbox.cif.g08.bks.cpg/sg35_8_cif.got.tgz:15585.got - 2010.06.03 17:29:28.
