data_PCOD9349035
_publ_section_title
;
Structure prediction by ZEFSAII (Michael W. Deem and Ramdas Pophale) SiO2 
 PCOD9349035
Probable space group: C M M 2
;
_chemical_formula_sum "Si O2"
_cell_formula_units_Z 48
_cell_length_a 8.421514
_cell_length_b 18.619526
_cell_length_c 16.204743
_cell_angle_alpha 90.000000
_cell_angle_beta 90.000000
_cell_angle_gamma 90.000000
_cell_volume 2540.978226
_symmetry_space_group_name_H-M "C M M 2"
_symmetry_group_IT_number 35
_symmetry_cell_setting 'orthorhombic'
loop_
_space_group_symop_operation_xyz
x,y,z
-x,-y,z
-x,y,z
x,-y,z
1/2+x,1/2+y,z
1/2-x,1/2-y,z
1/2-x,1/2+y,z
1/2+x,1/2-y,z
loop_
_atom_site_type_symbol
_atom_site_label
_atom_site_fract_x
_atom_site_fract_y
_atom_site_fract_z
Si Si1 0.308079 0.831976 0.178040
Si Si2 0.691964 0.082575 0.691232
Si Si3 0.805874 0.417376 0.016631
Si Si4 0.688347 0.332118 0.532834
Si Si5 0.307921 0.831444 0.853807
Si Si6 0.309708 0.832333 0.359044
O O1 0.500000 0.830528 0.176855
O O2 0.250000 0.750000 0.169570
O O3 0.253078 0.879285 0.101074
O O4 0.261020 0.861234 0.268881
O O5 0.500000 0.082459 0.692088
O O6 0.747424 0.121824 0.608602
O O7 0.745745 0.126250 0.772054
O O8 0.745845 0.000000 0.694222
O O9 0.755052 0.500000 0.011904
O O10 0.000000 0.417235 0.016944
O O11 0.755025 0.372521 0.936550
O O12 0.500000 0.329795 0.535233
O O13 0.750000 0.250000 0.539581
O O14 0.742182 0.363191 0.443987
O O15 0.500000 0.831441 0.853780
O O16 0.250000 0.750000 0.853010
O O17 0.500000 0.833292 0.364384
O O18 0.250000 0.750000 0.357871
#
# Coordination Sequence:
#
# PCOD9349035 Si02
#       6
#     8   8   8   8   8   8
#     4   9  17  29  49  75 101 132 170 211 253 297
#     4  10  21  37  55  76 104 137 172 211 258 311
#     4   9  17  31  51  75 103 134 169 207 247 297
#     4  11  21  34  54  78 104 136 175 217 261 308
#     4  10  20  34  55  80 103 132 169 209 252 299
#     4   9  16  28  47  73 102 132 170 213 257 301
#
# _framework density 18.890362
#
# number of rings (size 3 to 8) (size 9 to 14) (size 15 to 20)
#    0.000    2.333    0.000    4.500    0.000    5.000 
#    0.000    0.833    0.000    6.000    0.000    0.000 
#    0.000    0.000    0.000    0.000    0.000    0.000 
#
# Total GULP energy -133899.740436 kJ/mol
# GULP energy per Si atom -5579.155852 kJ/mol
# Density = 1.884737 g / cm^3
# Si number density = 18.890362 Si / 1000 Ang^3
#
#
#
# Elastic Constant Matrix: (Units=GPa)
#
#
# Indices 1 2 3 4 5 6 
#
# 1 19.5802 17.7347 25.8110 0.0000 0.0000 0.0000
# 2 17.7347 132.3167 110.6626 0.0000 0.0000 0.0000
# 3 25.8110 110.6626 235.3305 0.0000 0.0000 0.0000
# 4 0.0000 0.0000 0.0000 -6.0359 0.0000 0.0000
# 5 0.0000 0.0000 0.0000 0.0000 12.9162 0.0000
# 6 0.0000 0.0000 0.0000 0.0000 0.0000 21.9564
#
#
#
# Elastic Compliance Matrix: (Units=1/GPa)
#
#
# Indices 1 2 3 4 5 6 
#
# 1 0.061128 -0.004262 -0.004700 0.000000 0.000000 0.000000
# 2 -0.004262 0.012754 -0.005530 0.000000 0.000000 0.000000
# 3 -0.004700 -0.005530 0.007365 0.000000 0.000000 0.000000
# 4 0.000000 0.000000 0.000000 -0.165675 0.000000 0.000000
# 5 0.000000 0.000000 0.000000 0.000000 0.077422 0.000000
# 6 0.000000 0.000000 0.000000 0.000000 0.000000 0.045545
#
#
# Mechanical properties :
#
#
# Convention : Reuss Voigt Hill
#
# Bulk Modulus (GPa) = 19.13408 77.29377 48.21393
# Shear Modulus (GPa) = 58.86154 21.30195 40.08175
#
# Velocity S-wave (km/s) = 5.58813 3.36171 4.61131
# Velocity P-wave (km/s) = 7.19634 7.48826 7.34375
#
# Compressibility (1/GPa) = 0.05226277
#
# Stress axis : x y z
#
# Youngs Moduli (GPa) = 16.35904 78.40789 135.77182
#
# Poissons Ratio (x) = 0.33417 0.63818
# Poissons Ratio (y) = 0.06972 0.75081
# Poissons Ratio (z) = 0.07689 0.43359
#
# Static dielectric constant tensor:
#      x y z
#    x 1.648490 0.000000 0.000000 
#    y 0.000000 1.612950 0.000000 
#    z 0.000000 0.000000 1.680630 
# 
# From -- ./inp_files/15401.got.cif
#   From: 2010.05.17/outbox.cif.g08.bks.cpg/sg35_8_cif.got.tgz:15401.got - 2010.06.03 17:29:28.
