data_PCOD9349861
_publ_section_title
;
Structure prediction by ZEFSAII (Michael W. Deem and Ramdas Pophale) SiO2 
 PCOD9349861
Probable space group: C M M 2
;
_chemical_formula_sum "Si O2"
_cell_formula_units_Z 56
_cell_length_a 18.392629
_cell_length_b 28.306408
_cell_length_c 5.093439
_cell_angle_alpha 90.000000
_cell_angle_beta 90.000000
_cell_angle_gamma 90.000000
_cell_volume 2651.793381
_symmetry_space_group_name_H-M "C M M 2"
_symmetry_group_IT_number 35
_symmetry_cell_setting 'orthorhombic'
loop_
_space_group_symop_operation_xyz
x,y,z
-x,-y,z
-x,y,z
x,-y,z
1/2+x,1/2+y,z
1/2-x,1/2-y,z
1/2-x,1/2+y,z
1/2+x,1/2-y,z
loop_
_atom_site_type_symbol
_atom_site_label
_atom_site_fract_x
_atom_site_fract_y
_atom_site_fract_z
Si Si1 0.830901 0.853232 0.638520
Si Si2 0.078288 0.734992 0.486568
Si Si3 0.248248 0.946150 0.771352
Si Si4 0.652874 0.053877 0.272004
Si Si5 0.080259 0.649040 0.140016
Si Si6 0.583378 0.676994 0.139286
Si Si7 0.797892 0.290602 0.846576
O O1 0.810804 0.906841 0.708032
O O2 0.863314 0.847520 0.349334
O O3 0.757307 0.823296 0.683159
O O4 0.888780 0.834093 0.850263
O O5 0.085078 0.768044 0.229854
O O6 0.148825 0.739129 0.660677
O O7 0.000000 0.747793 0.610479
O O8 0.076324 0.680725 0.401093
O O9 0.313561 0.939680 0.561006
O O10 0.221946 0.000000 0.740302
O O11 0.281772 0.940919 0.061146
O O12 0.625165 0.000000 0.247971
O O13 0.596886 0.095007 0.203931
O O14 0.148728 0.673564 0.996934
O O15 0.000000 0.654108 0.012463
O O16 0.500000 0.661500 0.170837
O O17 0.750000 0.250000 0.993891
#
# Coordination Sequence:
#
# PCOD9349861 Si02
#       7
#     8   8   8   8   8   8   8
#     4  12  23  40  68  95 124 167 213 271 320 382
#     4  10  23  40  58  85 130 177 212 260 327 388
#     4  10  21  40  66  96 129 163 211 269 325 379
#     4  10  21  40  64  92 129 171 216 266 320 385
#     4  11  24  40  60  88 132 174 215 271 329 382
#     4  11  25  44  64  92 130 171 211 260 329 399
#     4  12  23  37  61  93 124 165 222 271 312 385
#
# _framework density 21.117785999999999
#
# number of rings (size 3 to 8) (size 9 to 14) (size 15 to 20)
#    0.000    1.143    2.857    3.429    2.000    0.857 
#    0.000    0.000    0.000    5.143    0.000    0.000 
#    0.000    0.000    0.000    0.000    0.000    0.000 
#
# Total GULP energy -156505.883670 kJ/mol
# GULP energy per Si atom -5589.495845 kJ/mol
# Density = 2.106972 g / cm^3
# Si number density = 21.117786 Si / 1000 Ang^3
#
#
#
# Elastic Constant Matrix: (Units=GPa)
#
#
# Indices 1 2 3 4 5 6 
#
# 1 114.3819 35.5844 0.8908 0.0000 0.0000 0.0000
# 2 35.5844 123.7384 -15.7589 0.0000 0.0000 0.0000
# 3 0.8908 -15.7589 26.9531 0.0000 0.0000 0.0000
# 4 0.0000 0.0000 0.0000 24.8050 0.0000 0.0000
# 5 0.0000 0.0000 0.0000 0.0000 29.4128 0.0000
# 6 0.0000 0.0000 0.0000 0.0000 0.0000 25.0516
#
#
#
# Elastic Compliance Matrix: (Units=1/GPa)
#
#
# Indices 1 2 3 4 5 6 
#
# 1 0.009712 -0.003062 -0.002111 0.000000 0.000000 0.000000
# 2 -0.003062 0.009697 0.005771 0.000000 0.000000 0.000000
# 3 -0.002111 0.005771 0.040545 0.000000 0.000000 0.000000
# 4 0.000000 0.000000 0.000000 0.040314 0.000000 0.000000
# 5 0.000000 0.000000 0.000000 0.000000 0.033999 0.000000
# 6 0.000000 0.000000 0.000000 0.000000 0.000000 0.039918
#
#
# Mechanical properties :
#
#
# Convention : Reuss Voigt Hill
#
# Bulk Modulus (GPa) = 16.35322 34.05621 25.20471
# Shear Modulus (GPa) = 25.85691 32.14437 29.00064
#
# Velocity S-wave (km/s) = 3.50296 3.90570 3.70980
# Velocity P-wave (km/s) = 4.91137 6.04162 5.50558
#
# Compressibility (1/GPa) = 0.06115004
#
# Stress axis : x y z
#
# Youngs Moduli (GPa) = 102.96982 103.12474 24.66375
#
# Poissons Ratio (x) = 0.31574 0.05207
# Poissons Ratio (y) = 0.31526 -0.14233
# Poissons Ratio (z) = 0.21738 -0.59511
#
# Static dielectric constant tensor:
#      x y z
#    x 1.770670 0.000000 0.000000 
#    y 0.000000 1.772640 0.000000 
#    z 0.000000 0.000000 1.781980 
# 
# From -- ./inp_files/2086.got.cif
#   From: 2010.05.17/outbox.cif.g08.bks.cpg/sg35_2_cif.got.tgz:2086.got - 2010.06.03 17:29:28.
