data_PCOD9349103
_publ_section_title
;
Structure prediction by ZEFSAII (Michael W. Deem and Ramdas Pophale) SiO2 
 PCOD9349103
Probable space group: C M M 2
;
_chemical_formula_sum "Si O2"
_cell_formula_units_Z 56
_cell_length_a 19.970059
_cell_length_b 14.393619
_cell_length_c 8.447240
_cell_angle_alpha 90.000000
_cell_angle_beta 90.000000
_cell_angle_gamma 90.000000
_cell_volume 2428.086666
_symmetry_space_group_name_H-M "C M M 2"
_symmetry_group_IT_number 35
_symmetry_cell_setting 'orthorhombic'
loop_
_space_group_symop_operation_xyz
x,y,z
-x,-y,z
-x,y,z
x,-y,z
1/2+x,1/2+y,z
1/2-x,1/2-y,z
1/2-x,1/2+y,z
1/2+x,1/2-y,z
loop_
_atom_site_type_symbol
_atom_site_label
_atom_site_fract_x
_atom_site_fract_y
_atom_site_fract_z
Si Si1 0.725713 0.893777 0.012840
Si Si2 0.860221 0.101047 0.168420
Si Si3 0.895229 0.604683 0.477125
Si Si4 0.396607 0.197752 0.144380
Si Si5 0.740331 0.640225 0.447794
Si Si6 0.684522 0.610549 0.783786
Si Si7 0.924685 0.274486 0.792338
O O1 0.807569 0.889837 0.022151
O O2 0.682606 0.825782 0.116974
O O3 0.704466 0.000000 0.041044
O O4 0.733616 0.870267 0.829543
O O5 0.904689 0.192156 0.171935
O O6 0.803072 0.104236 0.301110
O O7 0.892989 0.000000 0.165422
O O8 0.920598 0.500000 0.494703
O O9 0.918222 0.646952 0.305596
O O10 0.814758 0.601113 0.460030
O O11 0.912500 0.664193 0.634217
O O12 0.421666 0.173512 0.966242
O O13 0.750000 0.750000 0.432807
O O14 0.694476 0.618137 0.594417
O O15 0.666496 0.500000 0.801537
O O16 0.628177 0.691214 0.806065
O O17 0.000000 0.236887 0.780174
#
# Coordination Sequence:
#
# PCOD9349103 Si02
#       7
#     8   8   8   8   8   8   8
#     4  10  20  34  60  99 133 164 204 257 333 415
#     4  11  20  33  58  98 142 173 205 253 325 414
#     4  12  26  45  70 101 138 174 218 277 343 411
#     4  12  23  41  71  99 136 178 221 269 343 409
#     4  12  20  36  64 103 141 173 211 262 337 423
#     4  11  23  40  65  98 138 177 217 273 341 408
#     4  12  29  48  68  93 128 180 242 290 327 381
#
# _framework density 23.063427000000001
#
# number of rings (size 3 to 8) (size 9 to 14) (size 15 to 20)
#    0.000    0.571    5.714    3.000    0.000    3.429 
#    0.000    0.000    0.000    0.000    0.000    2.000 
#    0.000    0.000    0.000    0.000    0.000    0.000 
#
# Total GULP energy -156060.063979 kJ/mol
# GULP energy per Si atom -5573.573714 kJ/mol
# Density = 2.301093 g / cm^3
# Si number density = 23.063427 Si / 1000 Ang^3
#
#
#
# Elastic Constant Matrix: (Units=GPa)
#
#
# Indices 1 2 3 4 5 6 
#
# 1 56.4626 25.7038 49.1011 0.0000 0.0000 0.0000
# 2 25.7038 181.7716 74.3790 0.0000 0.0000 0.0000
# 3 49.1011 74.3790 155.8673 0.0000 0.0000 0.0000
# 4 0.0000 0.0000 0.0000 28.0322 0.0000 0.0000
# 5 0.0000 0.0000 0.0000 0.0000 -2.3469 0.0000
# 6 0.0000 0.0000 0.0000 0.0000 0.0000 -5.0417
#
#
#
# Elastic Compliance Matrix: (Units=1/GPa)
#
#
# Indices 1 2 3 4 5 6 
#
# 1 0.024414 -0.000379 -0.007510 0.000000 0.000000 0.000000
# 2 -0.000379 0.006842 -0.003146 0.000000 0.000000 0.000000
# 3 -0.007510 -0.003146 0.010283 0.000000 0.000000 0.000000
# 4 0.000000 0.000000 0.000000 0.035673 0.000000 0.000000
# 5 0.000000 0.000000 0.000000 0.000000 -0.426092 0.000000
# 6 0.000000 0.000000 0.000000 0.000000 0.000000 -0.198346
#
#
# Mechanical properties :
#
#
# Convention : Reuss Voigt Hill
#
# Bulk Modulus (GPa) = 51.36279 76.94104 64.15191
# Shear Modulus (GPa) = -9.64012 20.45656 5.40822
#
# Velocity S-wave (km/s) = -2.04668 2.98143 1.53298
# Velocity P-wave (km/s) = 4.09064 6.72941 5.56859
#
# Compressibility (1/GPa) = 0.01946935
#
# Stress axis : x y z
#
# Youngs Moduli (GPa) = 40.95949 146.15235 97.25248
#
# Poissons Ratio (x) = 0.05545 0.73036
# Poissons Ratio (y) = 0.01554 0.30591
# Poissons Ratio (z) = 0.30760 0.45973
#
# Static dielectric constant tensor:
#      x y z
#    x 1.930740 0.000000 0.000000 
#    y 0.000000 1.879190 0.000000 
#    z 0.000000 0.000000 2.036990 
# 
# From -- ./inp_files/9271.got.cif
#   From: 2010.05.17/outbox.cif.g08.bks.cpg/sg35_5_cif.got.tgz:9271.got - 2010.06.03 17:29:28.
