data_PCOD9349188
_publ_section_title
;
Structure prediction by ZEFSAII (Michael W. Deem and Ramdas Pophale) SiO2 
 PCOD9349188
Probable space group: C M M 2
;
_chemical_formula_sum "Si O2"
_cell_formula_units_Z 58
_cell_length_a 30.221672
_cell_length_b 8.012270
_cell_length_c 12.928593
_cell_angle_alpha 90.000000
_cell_angle_beta 90.000000
_cell_angle_gamma 90.000000
_cell_volume 3130.583756
_symmetry_space_group_name_H-M "C M M 2"
_symmetry_group_IT_number 35
_symmetry_cell_setting 'orthorhombic'
loop_
_space_group_symop_operation_xyz
x,y,z
-x,-y,z
-x,y,z
x,-y,z
1/2+x,1/2+y,z
1/2-x,1/2-y,z
1/2-x,1/2+y,z
1/2+x,1/2-y,z
loop_
_atom_site_type_symbol
_atom_site_label
_atom_site_fract_x
_atom_site_fract_y
_atom_site_fract_z
Si Si1 0.106328 0.305176 0.335120
Si Si2 0.932155 0.806390 0.763799
Si Si3 0.114794 0.302121 0.949308
Si Si4 0.051047 0.198447 0.530741
Si Si5 0.797270 0.803240 0.301898
Si Si6 0.297852 0.699469 0.066566
Si Si7 0.551372 0.204248 0.135609
Si Si8 0.500000 0.000000 0.802737
O O1 0.111681 0.500000 0.315008
O O2 0.076111 0.279032 0.435306
O O3 0.155660 0.237160 0.352454
O O4 0.080279 0.236024 0.234137
O O5 0.891045 0.790710 0.840846
O O6 0.926058 0.775095 0.641545
O O7 0.962635 0.651763 0.800066
O O8 0.948973 0.000000 0.770982
O O9 0.110780 0.500000 0.936039
O O10 0.161345 0.267092 0.002627
O O11 0.076345 0.246530 0.030292
O O12 0.000000 0.257951 0.539884
O O13 0.049957 0.000000 0.511970
O O14 0.750000 0.750000 0.348631
O O15 0.794671 0.000000 0.293196
O O16 0.800045 0.732326 0.184629
O O17 0.301126 0.500000 0.069762
O O18 0.250000 0.750000 0.024432
O O19 0.500000 0.258078 0.139984
O O20 0.550730 0.000000 0.137508
#
# Coordination Sequence:
#
# PCOD9349188 Si02
#       8
#     8   8   8   8   8   8   8   2
#     4  11  21  34  56  83 114 151 192 236 288 350
#     4  11  24  40  60  88 119 155 203 254 296 345
#     4  11  21  35  59  84 120 156 194 240 295 355
#     4  10  22  39  58  81 115 153 196 248 289 334
#     4  10  20  35  56  81 114 148 191 240 293 349
#     4  10  20  35  57  83 113 151 193 243 296 353
#     4   9  19  32  48  77 116 155 191 230 280 342
#     4  12  22  40  64  86 114 160 206 248 304 340
#
# _framework density 18.526897000000002
#
# number of rings (size 3 to 8) (size 9 to 14) (size 15 to 20)
#    0.000    1.655    2.759    2.276    1.931    1.931 
#    0.000    0.000    0.000    3.310    0.000    0.000 
#    0.000    0.000    0.000    0.000    0.000    0.000 
#
# Total GULP energy -161474.486487 kJ/mol
# GULP energy per Si atom -5568.085741 kJ/mol
# Density = 1.848473 g / cm^3
# Si number density = 18.526897 Si / 1000 Ang^3
#
#
#
# Elastic Constant Matrix: (Units=GPa)
#
#
# Indices 1 2 3 4 5 6 
#
# 1 96.1802 9.5180 37.5349 0.0000 0.0000 0.0000
# 2 9.5180 61.0275 10.1268 0.0000 0.0000 0.0000
# 3 37.5349 10.1268 75.2832 0.0000 0.0000 0.0000
# 4 0.0000 0.0000 0.0000 21.1147 0.0000 0.0000
# 5 0.0000 0.0000 0.0000 0.0000 18.9748 0.0000
# 6 0.0000 0.0000 0.0000 0.0000 0.0000 25.6161
#
#
#
# Elastic Compliance Matrix: (Units=1/GPa)
#
#
# Indices 1 2 3 4 5 6 
#
# 1 0.012965 -0.000971 -0.006333 0.000000 0.000000 0.000000
# 2 -0.000971 0.016833 -0.001780 0.000000 0.000000 0.000000
# 3 -0.006333 -0.001780 0.016680 0.000000 0.000000 0.000000
# 4 0.000000 0.000000 0.000000 0.047360 0.000000 0.000000
# 5 0.000000 0.000000 0.000000 0.000000 0.052702 0.000000
# 6 0.000000 0.000000 0.000000 0.000000 0.000000 0.039038
#
#
# Mechanical properties :
#
#
# Convention : Reuss Voigt Hill
#
# Bulk Modulus (GPa) = 35.32464 38.53893 36.93179
# Shear Modulus (GPa) = 23.45395 24.82853 24.14124
#
# Velocity S-wave (km/s) = 3.56187 3.66476 3.61368
# Velocity P-wave (km/s) = 6.00199 6.22527 6.11465
#
# Compressibility (1/GPa) = 0.02830885
#
# Stress axis : x y z
#
# Youngs Moduli (GPa) = 77.13117 59.40749 59.95067
#
# Poissons Ratio (x) = 0.05769 0.37970
# Poissons Ratio (y) = 0.07490 0.10672
# Poissons Ratio (z) = 0.48851 0.10575
#
# Static dielectric constant tensor:
#      x y z
#    x 1.647830 0.000000 0.000000 
#    y 0.000000 1.654910 0.000000 
#    z 0.000000 0.000000 1.640670 
# 
# From -- ./inp_files/14332.got.cif
#   From: 2010.05.17/outbox.cif.g08.bks.cpg/sg35_8_cif.got.tgz:14332.got - 2010.06.03 17:29:28.
