data_PCOD9349609
_publ_section_title
;
Structure prediction by ZEFSAII (Michael W. Deem and Ramdas Pophale) SiO2 
 PCOD9349609
Probable space group: C M M 2
;
_chemical_formula_sum "Si O2"
_cell_formula_units_Z 48
_cell_length_a 38.832071
_cell_length_b 9.108264
_cell_length_c 7.627854
_cell_angle_alpha 90.000000
_cell_angle_beta 90.000000
_cell_angle_gamma 90.000000
_cell_volume 2697.916691
_symmetry_space_group_name_H-M "C M M 2"
_symmetry_group_IT_number 35
_symmetry_cell_setting 'orthorhombic'
loop_
_space_group_symop_operation_xyz
x,y,z
-x,-y,z
-x,y,z
x,-y,z
1/2+x,1/2+y,z
1/2-x,1/2-y,z
1/2-x,1/2+y,z
1/2+x,1/2-y,z
loop_
_atom_site_type_symbol
_atom_site_label
_atom_site_fract_x
_atom_site_fract_y
_atom_site_fract_z
Si Si1 0.285961 0.324017 0.852350
Si Si2 0.159800 0.176933 0.555442
Si Si3 0.040342 0.825766 0.848925
Si Si4 0.540342 0.674234 0.261952
Si Si5 0.085506 0.325281 0.555439
Si Si6 0.214039 0.824017 0.258533
O O1 0.281793 0.500000 0.842216
O O2 0.250000 0.250000 0.799326
O O3 0.317087 0.283951 0.724532
O O4 0.292788 0.284642 0.055441
O O5 0.123490 0.256641 0.555440
O O6 0.182913 0.216047 0.386351
O O7 0.154608 0.000000 0.555442
O O8 0.064733 0.733647 0.724099
O O9 0.000000 0.795042 0.812823
O O10 0.045729 0.000000 0.817442
O O11 0.046395 0.798729 0.055438
O O12 0.500000 0.704957 0.298054
O O13 0.545730 0.500000 0.293434
O O14 0.564733 0.766354 0.386778
O O15 0.086974 0.500000 0.555439
O O16 0.250000 0.750000 0.311557
O O17 0.218208 0.000000 0.268666
#
# Coordination Sequence:
#
# PCOD9349609 Si02
#       6
#     8   8   8   8   8   8
#     4   9  18  33  54  78 101 129 169 217 267 316
#     4  10  21  36  52  72 103 143 183 218 255 311
#     4   9  19  38  63  85 105 138 185 229 268 319
#     4   9  19  38  63  85 105 138 185 229 268 319
#     4  12  25  36  51  81 118 150 179 220 277 329
#     4   9  18  33  54  78 101 129 169 217 267 316
#
# _framework density 17.791505000000001
#
# number of rings (size 3 to 8) (size 9 to 14) (size 15 to 20)
#    0.000    2.333    0.000    3.500    0.000    6.000 
#    0.000    5.000    0.000    0.000    0.000    0.000 
#    0.000    0.000    0.000    0.000    0.000    0.000 
#
# Total GULP energy -134006.134984 kJ/mol
# GULP energy per Si atom -5583.588958 kJ/mol
# Density = 1.775101 g / cm^3
# Si number density = 17.791505 Si / 1000 Ang^3
#
#
#
# Elastic Constant Matrix: (Units=GPa)
#
#
# Indices 1 2 3 4 5 6 
#
# 1 175.9010 95.0065 110.8943 0.0000 0.0000 0.0000
# 2 95.0065 68.4747 70.3249 0.0000 0.0000 0.0000
# 3 110.8943 70.3249 108.8345 0.0000 0.0000 0.0000
# 4 0.0000 0.0000 0.0000 -192.8254 0.0000 0.0000
# 5 0.0000 0.0000 0.0000 0.0000 36.1701 0.0000
# 6 0.0000 0.0000 0.0000 0.0000 0.0000 29.9872
#
#
#
# Elastic Compliance Matrix: (Units=1/GPa)
#
#
# Indices 1 2 3 4 5 6 
#
# 1 0.025487 -0.025838 -0.009274 0.000000 0.000000 0.000000
# 2 -0.025838 0.069610 -0.018652 0.000000 0.000000 0.000000
# 3 -0.009274 -0.018652 0.030690 0.000000 0.000000 0.000000
# 4 0.000000 0.000000 0.000000 -0.005186 0.000000 0.000000
# 5 0.000000 0.000000 0.000000 0.000000 0.027647 0.000000
# 6 0.000000 0.000000 0.000000 0.000000 0.000000 0.033348
#
#
# Mechanical properties :
#
#
# Convention : Reuss Voigt Hill
#
# Bulk Modulus (GPa) = 54.76867 100.62905 77.69886
# Shear Modulus (GPa) = 16.93711 -20.20133 -1.63211
#
# Velocity S-wave (km/s) = 3.08876 -3.37330 -0.95882
# Velocity P-wave (km/s) = 6.60083 6.44289 6.52234
#
# Compressibility (1/GPa) = 0.01825862
#
# Stress axis : x y z
#
# Youngs Moduli (GPa) = 39.23547 14.36578 32.58415
#
# Poissons Ratio (x) = 0.37119 0.30218
# Poissons Ratio (y) = 1.01378 0.60776
# Poissons Ratio (z) = 0.36386 0.26795
#
# Static dielectric constant tensor:
#      x y z
#    x 1.568210 0.000000 0.000000 
#    y 0.000000 1.586510 0.000000 
#    z 0.000000 0.000000 1.617070 
# 
# From -- ./inp_files/10480.got.cif
#   From: 2010.05.17/outbox.cif.g08.bks.cpg/sg35_6_cif.got.tgz:10480.got - 2010.06.03 17:29:28.
