data_PCOD9349919
_publ_section_title
;
Structure prediction by ZEFSAII (Michael W. Deem and Ramdas Pophale) SiO2 
 PCOD9349919
Probable space group: C M M 2
;
_chemical_formula_sum "Si O2"
_cell_formula_units_Z 32
_cell_length_a 10.480368
_cell_length_b 13.291331
_cell_length_c 11.152633
_cell_angle_alpha 90.000000
_cell_angle_beta 90.000000
_cell_angle_gamma 90.000000
_cell_volume 1553.539919
_symmetry_space_group_name_H-M "C M M 2"
_symmetry_group_IT_number 35
_symmetry_cell_setting 'orthorhombic'
loop_
_space_group_symop_operation_xyz
x,y,z
-x,-y,z
-x,y,z
x,-y,z
1/2+x,1/2+y,z
1/2-x,1/2-y,z
1/2-x,1/2+y,z
1/2+x,1/2-y,z
loop_
_atom_site_type_symbol
_atom_site_label
_atom_site_fract_x
_atom_site_fract_y
_atom_site_fract_z
Si Si1 0.640410 0.883612 0.108910
Si Si2 0.146985 0.618762 0.497765
Si Si3 0.640839 0.382776 0.913154
Si Si4 0.250000 0.750000 0.709001
Si Si5 0.750000 0.750000 0.305961
O O1 0.500000 0.878435 0.053266
O O2 0.651584 0.800379 0.212527
O O3 0.655611 0.000000 0.154944
O O4 0.749750 0.866489 0.011374
O O5 0.157196 0.500000 0.511825
O O6 0.172848 0.675728 0.621928
O O7 0.252257 0.658848 0.402465
O O8 0.000000 0.641784 0.458330
O O9 0.500000 0.364774 0.965217
O O10 0.648682 0.500000 0.878127
O O11 0.662526 0.314799 0.797634
#
# Coordination Sequence:
#
# PCOD9349919 Si02
#       5
#     8   8   8   4   4
#     4  10  22  40  62  89 122 160 201 244 293 356
#     4  10  22  39  58  83 116 155 201 251 300 354
#     4  10  22  39  59  88 126 161 195 243 301 356
#     4  11  21  36  62  88 115 155 204 246 294 355
#     4  11  21  34  60  86 111 149 196 248 298 345
#
# _framework density 20.598119000000001
#
# number of rings (size 3 to 8) (size 9 to 14) (size 15 to 20)
#    0.000    1.750    0.000    3.750    0.000    8.000 
#    0.000    2.500    0.000   30.000    0.000    0.000 
#    0.000    0.000    0.000    0.000    0.000    0.000 
#
# Total GULP energy -89140.666005 kJ/mol
# GULP energy per Si atom -5571.291625 kJ/mol
# Density = 2.055124 g / cm^3
# Si number density = 20.598119 Si / 1000 Ang^3
#
#
#
# Elastic Constant Matrix: (Units=GPa)
#
#
# Indices 1 2 3 4 5 6 
#
# 1 129.2182 55.2457 60.0982 0.0000 0.0000 0.0000
# 2 55.2457 131.5249 53.7421 0.0000 0.0000 0.0000
# 3 60.0982 53.7421 105.9602 0.0000 0.0000 0.0000
# 4 0.0000 0.0000 0.0000 30.8054 0.0000 0.0000
# 5 0.0000 0.0000 0.0000 0.0000 30.8351 0.0000
# 6 0.0000 0.0000 0.0000 0.0000 0.0000 -91.8102
#
#
#
# Elastic Compliance Matrix: (Units=1/GPa)
#
#
# Indices 1 2 3 4 5 6 
#
# 1 0.011204 -0.002661 -0.005005 0.000000 0.000000 0.000000
# 2 -0.002661 0.010223 -0.003676 0.000000 0.000000 0.000000
# 3 -0.005005 -0.003676 0.014141 0.000000 0.000000 0.000000
# 4 0.000000 0.000000 0.000000 0.032462 0.000000 0.000000
# 5 0.000000 0.000000 0.000000 0.000000 0.032431 0.000000
# 6 0.000000 0.000000 0.000000 0.000000 0.000000 -0.010892
#
#
# Mechanical properties :
#
#
# Convention : Reuss Voigt Hill
#
# Bulk Modulus (GPa) = 77.61584 78.31947 77.96766
# Shear Modulus (GPa) = 42.90127 7.14055 25.02091
#
# Velocity S-wave (km/s) = 4.56869 1.86390 3.48906
# Velocity P-wave (km/s) = 8.09898 6.53738 7.35972
#
# Compressibility (1/GPa) = 0.01288397
#
# Stress axis : x y z
#
# Youngs Moduli (GPa) = 89.25007 97.82077 70.71860
#
# Poissons Ratio (x) = 0.26032 0.35396
# Poissons Ratio (y) = 0.23751 0.25993
# Poissons Ratio (z) = 0.44671 0.35955
#
# Static dielectric constant tensor:
#      x y z
#    x 1.748420 0.000000 0.000000 
#    y 0.000000 1.758600 0.000000 
#    z 0.000000 0.000000 1.722030 
# 
# From -- ./inp_files/10883.got.cif
#   From: 2010.05.17/outbox.cif.g08.bks.cpg/sg35_6_cif.got.tgz:10883.got - 2010.06.03 17:29:28.
