data_PCOD9349071
_publ_section_title
;
Structure prediction by ZEFSAII (Michael W. Deem and Ramdas Pophale) SiO2 
 PCOD9349071
Probable space group: C M M 2
;
_chemical_formula_sum "Si O2"
_cell_formula_units_Z 64
_cell_length_a 15.979157
_cell_length_b 31.560194
_cell_length_c 7.027918
_cell_angle_alpha 90.000000
_cell_angle_beta 90.000000
_cell_angle_gamma 90.000000
_cell_volume 3544.216259
_symmetry_space_group_name_H-M "C M M 2"
_symmetry_group_IT_number 35
_symmetry_cell_setting 'orthorhombic'
loop_
_space_group_symop_operation_xyz
x,y,z
-x,-y,z
-x,y,z
x,-y,z
1/2+x,1/2+y,z
1/2-x,1/2-y,z
1/2-x,1/2+y,z
1/2+x,1/2-y,z
loop_
_atom_site_type_symbol
_atom_site_label
_atom_site_fract_x
_atom_site_fract_y
_atom_site_fract_z
Si Si1 0.405906 0.177026 0.754820
Si Si2 0.269387 0.449712 0.058797
Si Si3 0.161893 0.260274 0.051246
Si Si4 0.402142 0.103381 0.063511
Si Si5 0.601473 0.401808 0.792119
Si Si6 0.156227 0.110266 0.364966
Si Si7 0.092524 0.829891 0.060034
Si Si8 0.323469 0.834378 0.358578
O O1 0.500000 0.176053 0.682288
O O2 0.394302 0.216540 0.895834
O O3 0.348939 0.177346 0.570699
O O4 0.392206 0.135761 0.886510
O O5 0.263360 0.500000 0.061053
O O6 0.175508 0.429458 0.044549
O O7 0.310653 0.430607 0.250756
O O8 0.335158 0.434552 0.895157
O O9 0.250000 0.250000 0.954471
O O10 0.131205 0.214561 0.117053
O O11 0.175648 0.293123 0.223464
O O12 0.500000 0.088427 0.065134
O O13 0.384380 0.131727 0.252342
O O14 0.500000 0.407791 0.827692
O O15 0.618785 0.400557 0.568457
O O16 0.630129 0.356697 0.885242
O O17 0.093681 0.136354 0.230309
O O18 0.234986 0.142104 0.371452
O O19 0.000000 0.819158 0.997818
#
# Coordination Sequence:
#
# PCOD9349071 Si02
#       8
#     8   8   8   8   8   8   8   8
#     4  10  21  35  55  80 109 148 189 229 272 322
#     4  10  22  39  60  88 118 144 178 231 287 345
#     4  11  22  35  52  79 114 149 188 233 279 324
#     4   9  19  37  59  85 116 150 188 229 275 338
#     4  10  22  39  61  84 110 150 193 235 286 340
#     4  10  20  37  59  82 108 146 188 228 279 339
#     4  10  21  37  54  77 111 145 187 237 277 322
#     4  10  20  34  56  81 111 152 191 232 278 329
#
# _framework density 18.057587999999999
#
# number of rings (size 3 to 8) (size 9 to 14) (size 15 to 20)
#    0.000    2.000    1.250    1.875    3.500    4.500 
#    0.000    0.000    0.000    0.000    0.000    3.500 
#    0.000    0.000    0.000    0.000    0.000    0.000 
#
# Total GULP energy -178225.928087 kJ/mol
# GULP energy per Si atom -5569.560253 kJ/mol
# Density = 1.801649 g / cm^3
# Si number density = 18.057588 Si / 1000 Ang^3
#
#
#
# Elastic Constant Matrix: (Units=GPa)
#
#
# Indices 1 2 3 4 5 6 
#
# 1 86.8037 54.5853 28.3417 0.0000 0.0000 0.0000
# 2 54.5853 126.5755 26.9606 0.0000 0.0000 0.0000
# 3 28.3417 26.9606 97.6950 0.0000 0.0000 0.0000
# 4 0.0000 0.0000 0.0000 6.1502 0.0000 0.0000
# 5 0.0000 0.0000 0.0000 0.0000 25.0657 0.0000
# 6 0.0000 0.0000 0.0000 0.0000 0.0000 15.2050
#
#
#
# Elastic Compliance Matrix: (Units=1/GPa)
#
#
# Indices 1 2 3 4 5 6 
#
# 1 0.016604 -0.006518 -0.003018 0.000000 0.000000 0.000000
# 2 -0.006518 0.010952 -0.001132 0.000000 0.000000 0.000000
# 3 -0.003018 -0.001132 0.011424 0.000000 0.000000 0.000000
# 4 0.000000 0.000000 0.000000 0.162597 0.000000 0.000000
# 5 0.000000 0.000000 0.000000 0.000000 0.039895 0.000000
# 6 0.000000 0.000000 0.000000 0.000000 0.000000 0.065768
#
#
# Mechanical properties :
#
#
# Convention : Reuss Voigt Hill
#
# Bulk Modulus (GPa) = 56.67292 58.98326 57.82809
# Shear Modulus (GPa) = 14.94961 22.69663 18.82312
#
# Velocity S-wave (km/s) = 2.88042 3.54913 3.23212
# Velocity P-wave (km/s) = 6.52036 7.03775 6.78399
#
# Compressibility (1/GPa) = 0.01764511
#
# Stress axis : x y z
#
# Youngs Moduli (GPa) = 60.22552 91.30604 87.53616
#
# Poissons Ratio (x) = 0.59510 0.26421
# Poissons Ratio (y) = 0.39253 0.09906
# Poissons Ratio (z) = 0.18178 0.10333
#
# Static dielectric constant tensor:
#      x y z
#    x 1.779920 0.000000 0.000000 
#    y 0.000000 1.616650 0.000000 
#    z 0.000000 0.000000 1.596510 
# 
# From -- ./inp_files/2712.got.cif
#   From: 2010.05.17/outbox.cif.g08.bks.cpg/sg35_2_cif.got.tgz:2712.got - 2010.06.03 17:29:28.
