data_PCOD9349939
_publ_section_title
;
Structure prediction by ZEFSAII (Michael W. Deem and Ramdas Pophale) SiO2 
 PCOD9349939
Probable space group: C M M 2
;
_chemical_formula_sum "Si O2"
_cell_formula_units_Z 48
_cell_length_a 15.952580
_cell_length_b 7.769344
_cell_length_c 17.974508
_cell_angle_alpha 90.000000
_cell_angle_beta 90.000000
_cell_angle_gamma 90.000000
_cell_volume 2227.779965
_symmetry_space_group_name_H-M "C M M 2"
_symmetry_group_IT_number 35
_symmetry_cell_setting 'orthorhombic'
loop_
_space_group_symop_operation_xyz
x,y,z
-x,-y,z
-x,y,z
x,-y,z
1/2+x,1/2+y,z
1/2-x,1/2-y,z
1/2-x,1/2+y,z
1/2+x,1/2-y,z
loop_
_atom_site_type_symbol
_atom_site_label
_atom_site_fract_x
_atom_site_fract_y
_atom_site_fract_z
Si Si1 0.651973 0.207713 0.653260
Si Si2 0.000000 0.803698 0.916427
Si Si3 0.158714 0.295070 0.015086
Si Si4 0.500000 0.799781 0.750291
Si Si5 0.348481 0.792488 0.329633
Si Si6 0.904005 0.291434 0.169346
Si Si7 0.349049 0.206851 0.489573
O O1 0.750000 0.250000 0.665863
O O2 0.585538 0.272438 0.714094
O O3 0.623190 0.269578 0.570717
O O4 0.650385 0.000000 0.651607
O O5 0.082109 0.768761 0.965537
O O6 0.000000 0.704769 0.838911
O O7 0.000000 0.000000 0.893410
O O8 0.150673 0.500000 0.018309
O O9 0.250000 0.250000 0.984850
O O10 0.150281 0.226858 0.099999
O O11 0.500000 0.000000 0.728287
O O12 0.250000 0.750000 0.327780
O O13 0.384987 0.725354 0.252017
O O14 0.382911 0.729314 0.409681
O O15 0.359017 0.000000 0.329632
O O16 0.894445 0.500000 0.172866
O O17 0.000000 0.254979 0.150219
O O18 0.250000 0.250000 0.488187
O O19 0.359595 0.000000 0.489233
#
# Coordination Sequence:
#
# PCOD9349939 Si02
#       7
#     8   4   8   4   8   8   8
#     4   9  18  34  56  81 112 148 187 228 278 334
#     4  12  26  44  64  89 118 148 190 239 292 356
#     4  11  22  40  65  90 119 155 194 238 290 347
#     4  10  22  40  60  83 114 148 180 229 292 346
#     4   9  16  27  46  72 104 141 185 229 272 320
#     4   9  17  31  51  77 111 150 188 231 280 328
#     4   8  14  26  45  72 103 140 182 227 271 318
#
# _framework density 21.546112000000001
#
# number of rings (size 3 to 8) (size 9 to 14) (size 15 to 20)
#    0.000    2.500    0.833    1.750    0.000    1.333 
#    1.500    2.500    0.000    0.000    0.000    0.000 
#    0.000    0.000    0.000    0.000    0.000    0.000 
#
# Total GULP energy -133808.380208 kJ/mol
# GULP energy per Si atom -5575.349175 kJ/mol
# Density = 2.149707 g / cm^3
# Si number density = 21.546112 Si / 1000 Ang^3
#
#
#
# Elastic Constant Matrix: (Units=GPa)
#
#
# Indices 1 2 3 4 5 6 
#
# 1 105.2366 -4.7884 66.3610 0.0000 0.0000 0.0000
# 2 -4.7884 33.9552 -6.3571 0.0000 0.0000 0.0000
# 3 66.3610 -6.3571 138.7938 0.0000 0.0000 0.0000
# 4 0.0000 0.0000 0.0000 -39.3451 0.0000 0.0000
# 5 0.0000 0.0000 0.0000 0.0000 25.9453 0.0000
# 6 0.0000 0.0000 0.0000 0.0000 0.0000 17.3554
#
#
#
# Elastic Compliance Matrix: (Units=1/GPa)
#
#
# Indices 1 2 3 4 5 6 
#
# 1 0.013621 0.000708 -0.006480 0.000000 0.000000 0.000000
# 2 0.000708 0.029742 0.001024 0.000000 0.000000 0.000000
# 3 -0.006480 0.001024 0.010350 0.000000 0.000000 0.000000
# 4 0.000000 0.000000 0.000000 -0.025416 0.000000 0.000000
# 5 0.000000 0.000000 0.000000 0.000000 0.038543 0.000000
# 6 0.000000 0.000000 0.000000 0.000000 0.000000 0.057619
#
#
# Mechanical properties :
#
#
# Convention : Reuss Voigt Hill
#
# Bulk Modulus (GPa) = 22.61627 43.15740 32.88684
# Shear Modulus (GPa) = 33.62607 15.64247 24.63427
#
# Velocity S-wave (km/s) = 3.95480 2.69736 3.38498
# Velocity P-wave (km/s) = 5.60120 5.45662 5.52938
#
# Compressibility (1/GPa) = 0.04421595
#
# Stress axis : x y z
#
# Youngs Moduli (GPa) = 73.41673 33.62246 96.61705
#
# Poissons Ratio (x) = -0.02379 0.62609
# Poissons Ratio (y) = -0.05195 -0.09893
# Poissons Ratio (z) = 0.47575 -0.03443
#
# Static dielectric constant tensor:
#      x y z
#    x 1.753150 0.000000 0.000000 
#    y 0.000000 1.890620 0.000000 
#    z 0.000000 0.000000 1.828880 
# 
# From -- ./inp_files/17901.got.cif
#   From: 2010.05.17/outbox.cif.g08.bks.cpg/sg35_9_cif.got.tgz:17901.got - 2010.06.03 17:29:28.
