data_PCOD9349037
_publ_section_title
;
Structure prediction by ZEFSAII (Michael W. Deem and Ramdas Pophale) SiO2 
 PCOD9349037
Probable space group: C M M 2
;
_chemical_formula_sum "Si O2"
_cell_formula_units_Z 56
_cell_length_a 14.925277
_cell_length_b 14.464338
_cell_length_c 13.202293
_cell_angle_alpha 90.000000
_cell_angle_beta 90.000000
_cell_angle_gamma 90.000000
_cell_volume 2850.167139
_symmetry_space_group_name_H-M "C M M 2"
_symmetry_group_IT_number 35
_symmetry_cell_setting 'orthorhombic'
loop_
_space_group_symop_operation_xyz
x,y,z
-x,-y,z
-x,y,z
x,-y,z
1/2+x,1/2+y,z
1/2-x,1/2-y,z
1/2-x,1/2+y,z
1/2+x,1/2-y,z
loop_
_atom_site_type_symbol
_atom_site_label
_atom_site_fract_x
_atom_site_fract_y
_atom_site_fract_z
Si Si1 0.606288 0.204495 0.997910
Si Si2 0.789748 0.609566 0.814329
Si Si3 0.106241 0.396032 0.199830
Si Si4 0.101995 0.105417 0.908847
Si Si5 0.648992 0.778565 0.395680
Si Si6 0.903018 0.106574 0.507339
Si Si7 0.294710 0.109985 0.588523
O O1 0.500000 0.183990 0.985758
O O2 0.659773 0.162671 0.903228
O O3 0.640347 0.159885 0.102065
O O4 0.614934 0.315296 0.992465
O O5 0.809732 0.500000 0.822702
O O6 0.816659 0.641020 0.702087
O O7 0.682545 0.618900 0.829605
O O8 0.144263 0.500000 0.205761
O O9 0.116988 0.340756 0.303759
O O10 0.000000 0.404132 0.183681
O O11 0.000000 0.116003 0.868585
O O12 0.109977 0.000000 0.946867
O O13 0.750000 0.750000 0.371478
O O14 0.599266 0.682939 0.419305
O O15 0.653360 0.836730 0.500288
O O16 0.812217 0.123776 0.570320
O O17 0.000000 0.115007 0.560583
O O18 0.896383 0.000000 0.471439
O O19 0.311261 0.000000 0.580731
#
# Coordination Sequence:
#
# PCOD9349037 Si02
#       7
#     8   8   8   8   8   8   8
#     4  10  21  37  57  80 108 143 183 225 270 323
#     4  10  20  35  57  82 111 145 179 222 272 322
#     4  10  21  38  59  80 104 137 179 225 268 315
#     4   9  19  35  54  79 111 145 181 220 264 318
#     4  10  20  34  55  81 108 139 174 218 267 317
#     4   9  18  33  52  75 107 144 178 213 256 313
#     4   9  19  35  54  79 109 140 176 218 266 319
#
# _framework density 19.647970999999998
#
# number of rings (size 3 to 8) (size 9 to 14) (size 15 to 20)
#    0.000    2.429    0.000    1.714    0.000    6.571 
#    0.000    6.429    0.000    4.286    0.000    0.000 
#    0.000    0.000    0.000    0.000    0.000    0.000 
#
# Total GULP energy -156086.941838 kJ/mol
# GULP energy per Si atom -5574.533637 kJ/mol
# Density = 1.960325 g / cm^3
# Si number density = 19.647971 Si / 1000 Ang^3
#
#
#
# Elastic Constant Matrix: (Units=GPa)
#
#
# Indices 1 2 3 4 5 6 
#
# 1 43.5417 20.1996 26.6636 0.0000 0.0000 0.0000
# 2 20.1996 107.4287 80.5899 0.0000 0.0000 0.0000
# 3 26.6636 80.5899 146.8774 0.0000 0.0000 0.0000
# 4 0.0000 0.0000 0.0000 17.7673 0.0000 0.0000
# 5 0.0000 0.0000 0.0000 0.0000 -39.3733 0.0000
# 6 0.0000 0.0000 0.0000 0.0000 0.0000 20.8967
#
#
#
# Elastic Compliance Matrix: (Units=1/GPa)
#
#
# Indices 1 2 3 4 5 6 
#
# 1 0.026171 -0.002306 -0.003486 0.000000 0.000000 0.000000
# 2 -0.002306 0.016023 -0.008373 0.000000 0.000000 0.000000
# 3 -0.003486 -0.008373 0.012036 0.000000 0.000000 0.000000
# 4 0.000000 0.000000 0.000000 0.056283 0.000000 0.000000
# 5 0.000000 0.000000 0.000000 0.000000 -0.025398 0.000000
# 6 0.000000 0.000000 0.000000 0.000000 0.000000 0.047854
#
#
# Mechanical properties :
#
#
# Convention : Reuss Voigt Hill
#
# Bulk Modulus (GPa) = 38.61019 61.41711 50.01365
# Shear Modulus (GPa) = 29.42340 11.21777 20.32058
#
# Velocity S-wave (km/s) = 3.87399 2.39202 3.21944
# Velocity P-wave (km/s) = 6.30111 6.24145 6.27135
#
# Compressibility (1/GPa) = 0.02589990
#
# Stress axis : x y z
#
# Youngs Moduli (GPa) = 38.21052 62.40839 83.08747
#
# Poissons Ratio (x) = 0.14391 0.28962
# Poissons Ratio (y) = 0.08811 0.69572
# Poissons Ratio (z) = 0.13319 0.52256
#
# Static dielectric constant tensor:
#      x y z
#    x 1.724530 0.000000 0.000000 
#    y 0.000000 1.731400 0.000000 
#    z 0.000000 0.000000 1.652890 
# 
# From -- ./inp_files/12971.got.cif
#   From: 2010.05.17/outbox.cif.g08.bks.cpg/sg35_7_cif.got.tgz:12971.got - 2010.06.03 17:29:28.
