data_PCOD9349179
_publ_section_title
;
Structure prediction by ZEFSAII (Michael W. Deem and Ramdas Pophale) SiO2 
 PCOD9349179
Probable space group: C M M 2
;
_chemical_formula_sum "Si O2"
_cell_formula_units_Z 48
_cell_length_a 17.347243
_cell_length_b 14.218692
_cell_length_c 8.368530
_cell_angle_alpha 90.000000
_cell_angle_beta 90.000000
_cell_angle_gamma 90.000000
_cell_volume 2064.140648
_symmetry_space_group_name_H-M "C M M 2"
_symmetry_group_IT_number 35
_symmetry_cell_setting 'orthorhombic'
loop_
_space_group_symop_operation_xyz
x,y,z
-x,-y,z
-x,y,z
x,-y,z
1/2+x,1/2+y,z
1/2-x,1/2-y,z
1/2-x,1/2+y,z
1/2+x,1/2-y,z
loop_
_atom_site_type_symbol
_atom_site_label
_atom_site_fract_x
_atom_site_fract_y
_atom_site_fract_z
Si Si1 0.762363 0.861496 0.131050
Si Si2 0.584659 0.108740 0.667434
Si Si3 0.417202 0.315504 0.259199
Si Si4 0.111572 0.398089 0.290915
Si Si5 0.749121 0.104993 0.765540
Si Si6 0.587065 0.386953 0.617052
O O1 0.750000 0.750000 0.123554
O O2 0.849939 0.873590 0.178697
O O3 0.703373 0.897398 0.263616
O O4 0.746156 0.898921 0.956299
O O5 0.500000 0.149003 0.713089
O O6 0.588215 0.105050 0.475327
O O7 0.667301 0.151877 0.717589
O O8 0.584284 0.000000 0.726383
O O9 0.500000 0.351341 0.209492
O O10 0.413264 0.203254 0.221741
O O11 0.409027 0.330995 0.449638
O O12 0.085080 0.500000 0.224908
O O13 0.834842 0.137791 0.714257
O O14 0.744171 0.000000 0.694690
O O15 0.500000 0.369316 0.684837
O O16 0.589637 0.500000 0.587400
#
# Coordination Sequence:
#
# PCOD9349179 Si02
#       6
#     8   8   8   8   8   8
#     4  10  22  37  53  79 115 154 194 236 288 347
#     4   9  18  33  54  81 110 142 185 236 290 348
#     4  10  21  37  58  86 118 152 193 242 294 346
#     4  10  20  37  61  85 113 150 194 242 289 345
#     4  10  20  35  56  80 111 151 192 238 290 344
#     4   9  19  36  58  85 115 149 193 242 291 345
#
# _framework density 23.25423
#
# number of rings (size 3 to 8) (size 9 to 14) (size 15 to 20)
#    0.000    2.333    0.000    2.000    0.000    5.667 
#    0.000    4.167    0.000    8.000    0.000    0.000 
#    0.000    0.000    0.000    0.000    0.000    0.000 
#
# Total GULP energy -133754.555407 kJ/mol
# GULP energy per Si atom -5573.106475 kJ/mol
# Density = 2.320130 g / cm^3
# Si number density = 23.254230 Si / 1000 Ang^3
#
#
#
# Elastic Constant Matrix: (Units=GPa)
#
#
# Indices 1 2 3 4 5 6 
#
# 1 264.6883 11.8717 47.6891 0.0000 0.0000 0.0000
# 2 11.8717 119.1999 -6.3455 0.0000 0.0000 0.0000
# 3 47.6891 -6.3455 30.3785 0.0000 0.0000 0.0000
# 4 0.0000 0.0000 0.0000 18.2323 0.0000 0.0000
# 5 0.0000 0.0000 0.0000 0.0000 -6.2497 0.0000
# 6 0.0000 0.0000 0.0000 0.0000 0.0000 -95.5852
#
#
#
# Elastic Compliance Matrix: (Units=1/GPa)
#
#
# Indices 1 2 3 4 5 6 
#
# 1 0.005383 -0.000997 -0.008658 0.000000 0.000000 0.000000
# 2 -0.000997 0.008668 0.003376 0.000000 0.000000 0.000000
# 3 -0.008658 0.003376 0.047215 0.000000 0.000000 0.000000
# 4 0.000000 0.000000 0.000000 0.054848 0.000000 0.000000
# 5 0.000000 0.000000 0.000000 0.000000 -0.160007 0.000000
# 6 0.000000 0.000000 0.000000 0.000000 0.000000 -0.010462
#
#
# Mechanical properties :
#
#
# Convention : Reuss Voigt Hill
#
# Bulk Modulus (GPa) = 20.53083 57.85525 39.19304
# Shear Modulus (GPa) = -195.61366 7.34957 -94.13204
#
# Velocity S-wave (km/s) = -9.18162 1.77972 -6.36926
# Velocity P-wave (km/s) = 10.17619 5.39969 6.09911
#
# Compressibility (1/GPa) = 0.04870724
#
# Stress axis : x y z
#
# Youngs Moduli (GPa) = 185.78030 115.36326 21.17966
#
# Poissons Ratio (x) = 0.11502 0.18338
# Poissons Ratio (y) = 0.18522 -0.07150
# Poissons Ratio (z) = 1.60852 -0.38944
#
# Static dielectric constant tensor:
#      x y z
#    x 1.937960 0.000000 0.000000 
#    y 0.000000 1.907140 0.000000 
#    z 0.000000 0.000000 1.801160 
# 
# From -- ./inp_files/7313.got.cif
#   From: 2010.05.17/outbox.cif.g08.bks.cpg/sg35_4_cif.got.tgz:7313.got - 2010.06.03 17:29:28.
