data_PCOD9349843
_publ_section_title
;
Structure prediction by ZEFSAII (Michael W. Deem and Ramdas Pophale) SiO2 
 PCOD9349843
Probable space group: C M M 2
;
_chemical_formula_sum "Si O2"
_cell_formula_units_Z 56
_cell_length_a 14.226794
_cell_length_b 14.368743
_cell_length_c 13.629678
_cell_angle_alpha 90.000000
_cell_angle_beta 90.000000
_cell_angle_gamma 90.000000
_cell_volume 2786.194406
_symmetry_space_group_name_H-M "C M M 2"
_symmetry_group_IT_number 35
_symmetry_cell_setting 'orthorhombic'
loop_
_space_group_symop_operation_xyz
x,y,z
-x,-y,z
-x,y,z
x,-y,z
1/2+x,1/2+y,z
1/2-x,1/2-y,z
1/2-x,1/2+y,z
1/2+x,1/2-y,z
loop_
_atom_site_type_symbol
_atom_site_label
_atom_site_fract_x
_atom_site_fract_y
_atom_site_fract_z
Si Si1 0.221859 0.649470 0.621230
Si Si2 0.278809 0.388012 0.162090
Si Si3 0.388560 0.778339 0.248035
Si Si4 0.102709 0.890670 0.752784
Si Si5 0.108589 0.398587 0.435270
Si Si6 0.892497 0.386874 0.813664
Si Si7 0.784083 0.112849 0.937697
O O1 0.250000 0.750000 0.584628
O O2 0.317922 0.613766 0.669784
O O3 0.174544 0.600966 0.529546
O O4 0.148782 0.652874 0.711983
O O5 0.285593 0.500000 0.175461
O O6 0.346583 0.324605 0.229731
O O7 0.174142 0.349065 0.183007
O O8 0.303276 0.362401 0.049449
O O9 0.500000 0.781897 0.227920
O O10 0.373074 0.816705 0.358323
O O11 0.144722 0.850953 0.854271
O O12 0.000000 0.852121 0.727177
O O13 0.091966 0.000000 0.771320
O O14 0.117822 0.500000 0.384700
O O15 0.000000 0.390043 0.468079
O O16 0.888292 0.500000 0.802752
O O17 0.819901 0.361534 0.899752
O O18 0.000000 0.360933 0.831181
O O19 0.787246 0.000000 0.935568
#
# Coordination Sequence:
#
# PCOD9349843 Si02
#       7
#     8   8   8   8   8   8   8
#     4  11  22  33  53  83 121 154 188 238 296 364
#     4  10  21  39  65  91 125 166 208 256 314 369
#     4  10  23  41  62  92 124 155 206 265 314 370
#     4   9  18  35  57  80 112 155 200 237 276 342
#     4  10  21  40  66  89 111 148 197 253 316 373
#     4   9  17  33  57  83 113 152 199 246 290 347
#     4   8  16  32  55  85 115 152 198 243 291 353
#
# _framework density 20.099101000000001
#
# number of rings (size 3 to 8) (size 9 to 14) (size 15 to 20)
#    0.000    2.429    0.000    3.000    2.000    4.571 
#   10.286    2.857    0.000    0.000    0.000    0.000 
#    0.000    0.000    0.000    0.000    0.000    0.000 
#
# Total GULP energy -156139.800732 kJ/mol
# GULP energy per Si atom -5576.421455 kJ/mol
# Density = 2.005335 g / cm^3
# Si number density = 20.099101 Si / 1000 Ang^3
#
#
#
# Elastic Constant Matrix: (Units=GPa)
#
#
# Indices 1 2 3 4 5 6 
#
# 1 146.8823 31.1420 65.7423 0.0000 0.0000 0.0000
# 2 31.1420 107.5628 37.7646 0.0000 0.0000 0.0000
# 3 65.7423 37.7646 104.7191 0.0000 0.0000 0.0000
# 4 0.0000 0.0000 0.0000 10.9589 0.0000 0.0000
# 5 0.0000 0.0000 0.0000 0.0000 29.3934 0.0000
# 6 0.0000 0.0000 0.0000 0.0000 0.0000 12.0801
#
#
#
# Elastic Compliance Matrix: (Units=1/GPa)
#
#
# Indices 1 2 3 4 5 6 
#
# 1 0.009522 -0.000753 -0.005706 0.000000 0.000000 0.000000
# 2 -0.000753 0.010704 -0.003387 0.000000 0.000000 0.000000
# 3 -0.005706 -0.003387 0.014353 0.000000 0.000000 0.000000
# 4 0.000000 0.000000 0.000000 0.091250 0.000000 0.000000
# 5 0.000000 0.000000 0.000000 0.000000 0.034021 0.000000
# 6 0.000000 0.000000 0.000000 0.000000 0.000000 0.082781
#
#
# Mechanical properties :
#
#
# Convention : Reuss Voigt Hill
#
# Bulk Modulus (GPa) = 67.17838 69.82913 68.50375
# Shear Modulus (GPa) = 18.70647 25.45415 22.08031
#
# Velocity S-wave (km/s) = 3.05407 3.56256 3.31807
# Velocity P-wave (km/s) = 6.77736 7.19307 6.98831
#
# Compressibility (1/GPa) = 0.01488574
#
# Stress axis : x y z
#
# Youngs Moduli (GPa) = 105.02131 93.42059 69.67105
#
# Poissons Ratio (x) = 0.07039 0.39755
# Poissons Ratio (y) = 0.07913 0.23599
# Poissons Ratio (z) = 0.59926 0.31644
#
# Static dielectric constant tensor:
#      x y z
#    x 1.677650 0.000000 0.000000 
#    y 0.000000 1.789840 0.000000 
#    z 0.000000 0.000000 1.687790 
# 
# From -- ./inp_files/13008.got.cif
#   From: 2010.05.17/outbox.cif.g08.bks.cpg/sg35_7_cif.got.tgz:13008.got - 2010.06.03 17:29:28.
