data_PCOD9349644
_publ_section_title
;
Structure prediction by ZEFSAII (Michael W. Deem and Ramdas Pophale) SiO2 
 PCOD9349644
Probable space group: C M M 2
;
_chemical_formula_sum "Si O2"
_cell_formula_units_Z 64
_cell_length_a 24.129269
_cell_length_b 15.556880
_cell_length_c 7.472620
_cell_angle_alpha 90.000000
_cell_angle_beta 90.000000
_cell_angle_gamma 90.000000
_cell_volume 2805.043269
_symmetry_space_group_name_H-M "C M M 2"
_symmetry_group_IT_number 35
_symmetry_cell_setting 'orthorhombic'
loop_
_space_group_symop_operation_xyz
x,y,z
-x,-y,z
-x,y,z
x,-y,z
1/2+x,1/2+y,z
1/2-x,1/2-y,z
1/2-x,1/2+y,z
1/2+x,1/2-y,z
loop_
_atom_site_type_symbol
_atom_site_label
_atom_site_fract_x
_atom_site_fract_y
_atom_site_fract_z
Si Si1 0.402736 0.904438 0.038180
Si Si2 0.882521 0.593839 0.629489
Si Si3 0.355045 0.406526 0.538927
Si Si4 0.778602 0.601994 0.182706
Si Si5 0.659971 0.400765 0.104568
Si Si6 0.562053 0.735207 0.520249
Si Si7 0.440483 0.715916 0.104681
Si Si8 0.762590 0.346882 0.584476
O O1 0.338266 0.889218 0.092295
O O2 0.434161 0.818415 0.090840
O O3 0.418607 0.000000 0.107255
O O4 0.408899 0.908071 0.824710
O O5 0.887432 0.500000 0.542613
O O6 0.910618 0.670745 0.522467
O O7 0.817906 0.613256 0.663412
O O8 0.379406 0.500000 0.575090
O O9 0.345023 0.399588 0.323243
O O10 0.394335 0.330516 0.605679
O O11 0.293500 0.398645 0.617158
O O12 0.771573 0.500000 0.224401
O O13 0.723785 0.625904 0.069840
O O14 0.776268 0.651686 0.370600
O O15 0.651092 0.500000 0.047920
O O16 0.612931 0.336061 0.036147
O O17 0.500000 0.737933 0.596630
O O18 0.557703 0.701703 0.317846
O O19 0.500000 0.688363 0.028250
O O20 0.750000 0.250000 0.639437
#
# Coordination Sequence:
#
# PCOD9349644 Si02
#       8
#     8   8   8   8   8   8   8   8
#     4  10  23  39  56  79 111 149 185 226 277 330
#     4  11  23  40  57  79 114 150 185 228 279 335
#     4   9  17  32  54  82 116 147 176 219 277 333
#     4   9  18  33  55  84 112 144 182 221 269 330
#     4   8  16  31  53  83 113 141 175 218 273 329
#     4  10  21  37  58  85 111 141 190 238 278 328
#     4  10  21  36  56  82 109 142 186 234 277 322
#     4  11  19  32  57  87 115 145 179 225 275 329
#
# _framework density 22.816046
#
# number of rings (size 3 to 8) (size 9 to 14) (size 15 to 20)
#    0.000    2.250    1.250    2.625    3.500    3.000 
#    2.250    5.000    0.000    0.750    0.000    1.750 
#    0.000    0.000    0.000    0.000    0.000    0.000 
#
# Total GULP energy -178713.231395 kJ/mol
# GULP energy per Si atom -5584.788481 kJ/mol
# Density = 2.276412 g / cm^3
# Si number density = 22.816046 Si / 1000 Ang^3
#
#
#
# Elastic Constant Matrix: (Units=GPa)
#
#
# Indices 1 2 3 4 5 6 
#
# 1 88.6292 18.6615 -13.6531 0.0000 0.0000 0.0000
# 2 18.6615 80.8921 -12.1584 0.0000 0.0000 0.0000
# 3 -13.6531 -12.1584 33.7015 0.0000 0.0000 0.0000
# 4 0.0000 0.0000 0.0000 -15.8935 0.0000 0.0000
# 5 0.0000 0.0000 0.0000 0.0000 -41.6814 0.0000
# 6 0.0000 0.0000 0.0000 0.0000 0.0000 4.3640
#
#
#
# Elastic Compliance Matrix: (Units=1/GPa)
#
#
# Indices 1 2 3 4 5 6 
#
# 1 0.012402 -0.002227 0.004221 0.000000 0.000000 0.000000
# 2 -0.002227 0.013471 0.003958 0.000000 0.000000 0.000000
# 3 0.004221 0.003958 0.032810 0.000000 0.000000 0.000000
# 4 0.000000 0.000000 0.000000 -0.062919 0.000000 0.000000
# 5 0.000000 0.000000 0.000000 0.000000 -0.023992 0.000000
# 6 0.000000 0.000000 0.000000 0.000000 0.000000 0.229146
#
#
# Mechanical properties :
#
#
# Convention : Reuss Voigt Hill
#
# Bulk Modulus (GPa) = 14.16693 20.99142 17.57917
# Shear Modulus (GPa) = 23.52454 3.38267 13.45360
#
# Velocity S-wave (km/s) = 3.21448 1.21893 2.43092
# Velocity P-wave (km/s) = 4.47212 3.34684 3.94976
#
# Compressibility (1/GPa) = 0.07058693
#
# Stress axis : x y z
#
# Youngs Moduli (GPa) = 80.63188 74.23521 30.47839
#
# Poissons Ratio (x) = 0.16530 -0.12865
# Poissons Ratio (y) = 0.17954 -0.12062
# Poissons Ratio (z) = -0.34035 -0.29380
#
# Static dielectric constant tensor:
#      x y z
#    x 1.867910 0.000000 0.000000 
#    y 0.000000 1.839010 0.000000 
#    z 0.000000 0.000000 1.889140 
# 
# From -- ./inp_files/7833.got.cif
#   From: 2010.05.17/outbox.cif.g08.bks.cpg/sg35_4_cif.got.tgz:7833.got - 2010.06.03 17:29:28.
