data_PCOD9349752
_publ_section_title
;
Structure prediction by ZEFSAII (Michael W. Deem and Ramdas Pophale) SiO2 
 PCOD9349752
Probable space group: C M M 2
;
_chemical_formula_sum "Si O2"
_cell_formula_units_Z 56
_cell_length_a 19.340885
_cell_length_b 16.974200
_cell_length_c 7.714870
_cell_angle_alpha 90.000000
_cell_angle_beta 90.000000
_cell_angle_gamma 90.000000
_cell_volume 2532.761349
_symmetry_space_group_name_H-M "C M M 2"
_symmetry_group_IT_number 35
_symmetry_cell_setting 'orthorhombic'
loop_
_space_group_symop_operation_xyz
x,y,z
-x,-y,z
-x,y,z
x,-y,z
1/2+x,1/2+y,z
1/2-x,1/2-y,z
1/2-x,1/2+y,z
1/2+x,1/2-y,z
loop_
_atom_site_type_symbol
_atom_site_label
_atom_site_fract_x
_atom_site_fract_y
_atom_site_fract_z
Si Si1 0.850399 0.160912 0.412780
Si Si2 0.350399 0.339088 0.822861
Si Si3 0.420040 0.500000 0.406315
Si Si4 0.209592 0.411044 0.327660
Si Si5 0.577702 0.177417 0.914254
Si Si6 0.922298 0.677417 0.321387
Si Si7 0.790408 0.588956 0.907981
Si Si8 0.920040 0.000000 0.829326
O O1 0.862538 0.165666 0.617821
O O2 0.883846 0.079720 0.345001
O O3 0.768959 0.149927 0.381732
O O4 0.887433 0.236685 0.335038
O O5 0.387433 0.263315 0.900603
O O6 0.268959 0.350073 0.853908
O O7 0.383846 0.420280 0.890640
O O8 0.500000 0.500000 0.358110
O O9 0.415837 0.500000 0.617821
O O10 0.225916 0.500000 0.387376
O O11 0.134828 0.382792 0.393195
O O12 0.208667 0.411612 0.117820
O O13 0.500000 0.176260 0.840152
O O14 0.634828 0.117208 0.842446
O O15 0.571603 0.158862 0.117821
O O16 0.000000 0.676260 0.395489
O O17 0.774084 0.500000 0.848265
O O18 0.000000 0.000000 0.877531
#
# Coordination Sequence:
#
# PCOD9349752 Si02
#       8
#     8   8   4   8   8   8   8   4
#     4  11  21  36  58  84 115 150 189 231 281 340
#     4  11  21  36  58  84 115 150 189 231 281 340
#     4   9  18  32  51  77 110 145 180 222 271 325
#     4  10  21  38  60  84 113 150 191 235 282 334
#     4  10  22  39  58  83 115 150 190 236 284 334
#     4  10  22  39  58  83 115 150 190 236 284 334
#     4  10  21  38  60  84 113 150 191 235 282 334
#     4   9  18  32  51  77 110 145 180 222 271 325
#
# _framework density 22.110256
#
# number of rings (size 3 to 8) (size 9 to 14) (size 15 to 20)
#    0.000    1.857    1.429    2.571    0.000    6.857 
#    0.000    2.857    0.000    3.429    0.000    4.000 
#    0.000    0.000    0.000    0.000    0.000    0.000 
#
# Total GULP energy -156469.733137 kJ/mol
# GULP energy per Si atom -5588.204755 kJ/mol
# Density = 2.205993 g / cm^3
# Si number density = 22.110256 Si / 1000 Ang^3
#
#
#
# Elastic Constant Matrix: (Units=GPa)
#
#
# Indices 1 2 3 4 5 6 
#
# 1 152.3464 10.2491 -11.3661 0.0000 0.0000 0.0000
# 2 10.2491 36.8366 -15.5929 0.0000 0.0000 0.0000
# 3 -11.3661 -15.5929 34.9188 0.0000 0.0000 0.0000
# 4 0.0000 0.0000 0.0000 7.1216 0.0000 0.0000
# 5 0.0000 0.0000 0.0000 0.0000 -16.8353 0.0000
# 6 0.0000 0.0000 0.0000 0.0000 0.0000 25.4294
#
#
#
# Elastic Compliance Matrix: (Units=1/GPa)
#
#
# Indices 1 2 3 4 5 6 
#
# 1 0.006768 -0.001172 0.001680 0.000000 0.000000 0.000000
# 2 -0.001172 0.033677 0.014657 0.000000 0.000000 0.000000
# 3 0.001680 0.014657 0.035730 0.000000 0.000000 0.000000
# 4 0.000000 0.000000 0.000000 0.140418 0.000000 0.000000
# 5 0.000000 0.000000 0.000000 0.000000 -0.059399 0.000000
# 6 0.000000 0.000000 0.000000 0.000000 0.000000 0.039325
#
#
# Mechanical properties :
#
#
# Convention : Reuss Voigt Hill
#
# Bulk Modulus (GPa) = 9.38931 21.18689 15.28810
# Shear Modulus (GPa) = 24.79039 19.19725 21.99382
#
# Velocity S-wave (km/s) = 3.35209 2.94981 3.15736
# Velocity P-wave (km/s) = 4.38609 4.60489 4.49682
#
# Compressibility (1/GPa) = 0.10650408
#
# Stress axis : x y z
#
# Youngs Moduli (GPa) = 147.75071 29.69356 27.98800
#
# Poissons Ratio (x) = 0.03480 -0.04701
# Poissons Ratio (y) = 0.17318 -0.41022
# Poissons Ratio (z) = -0.24817 -0.43522
#
# Static dielectric constant tensor:
#      x y z
#    x 1.821810 0.000000 0.000000 
#    y 0.000000 1.784640 0.000000 
#    z 0.000000 0.000000 1.819380 
# 
# From -- ./inp_files/9326.got.cif
#   From: 2010.05.17/outbox.cif.g08.bks.cpg/sg35_5_cif.got.tgz:9326.got - 2010.06.03 17:29:28.
