data_PCOD9349889
_publ_section_title
;
Structure prediction by ZEFSAII (Michael W. Deem and Ramdas Pophale) SiO2 
 PCOD9349889
Probable space group: C M M 2
;
_chemical_formula_sum "Si O2"
_cell_formula_units_Z 48
_cell_length_a 9.671136
_cell_length_b 16.734956
_cell_length_c 15.229578
_cell_angle_alpha 90.000000
_cell_angle_beta 90.000000
_cell_angle_gamma 90.000000
_cell_volume 2464.846821
_symmetry_space_group_name_H-M "C M M 2"
_symmetry_group_IT_number 35
_symmetry_cell_setting 'orthorhombic'
loop_
_space_group_symop_operation_xyz
x,y,z
-x,-y,z
-x,y,z
x,-y,z
1/2+x,1/2+y,z
1/2-x,1/2-y,z
1/2-x,1/2+y,z
1/2+x,1/2-y,z
loop_
_atom_site_type_symbol
_atom_site_label
_atom_site_fract_x
_atom_site_fract_y
_atom_site_fract_z
Si Si1 0.500000 0.796503 0.226810
Si Si2 0.291453 0.413041 0.479555
Si Si3 0.162497 0.093225 0.993045
Si Si4 0.250000 0.750000 0.105422
Si Si5 0.000000 0.802734 0.388973
Si Si6 0.500000 0.874264 0.409417
Si Si7 0.664424 0.671604 0.660265
Si Si8 0.338716 0.094176 0.815948
O O1 0.366771 0.790455 0.166183
O O2 0.500000 0.717228 0.287192
O O3 0.500000 0.865516 0.302458
O O4 0.349204 0.500000 0.463139
O O5 0.366848 0.349670 0.418648
O O6 0.316870 0.389489 0.579942
O O7 0.133932 0.412166 0.450646
O O8 0.266157 0.101378 0.910680
O O9 0.000000 0.095928 0.967086
O O10 0.183728 0.000000 0.027892
O O11 0.190479 0.173152 0.051350
O O12 0.000000 0.718377 0.438061
O O13 0.500000 0.685385 0.673940
O O14 0.750000 0.750000 0.633256
O O15 0.742799 0.639433 0.746253
O O16 0.500000 0.121252 0.816332
O O17 0.339112 0.000000 0.793305
#
# Coordination Sequence:
#
# PCOD9349889 Si02
#       8
#     4   8   8   4   4   4   8   8
#     4  10  24  42  70  96 128 174 214 272 348 400
#     4  12  24  40  65  99 131 174 223 273 327 387
#     4  10  23  44  70 101 139 181 226 276 335 403
#     4  12  22  44  72 104 130 178 220 280 340 420
#     4  10  21  43  68  87 128 169 221 263 329 395
#     4  10  23  43  66  89 130 173 215 269 333 397
#     4  12  26  42  64  96 133 180 231 275 323 390
#     4  10  23  43  68  99 138 178 217 276 332 387
#
# _framework density 19.473827
#
# number of rings (size 3 to 8) (size 9 to 14) (size 15 to 20)
#    0.500    0.667    1.667    4.500    4.667    1.667 
#    0.000    5.000    0.000    0.000    0.000    0.000 
#    0.000    0.000    0.000    0.000    0.000    0.000 
#
# Total GULP energy -133818.698669 kJ/mol
# GULP energy per Si atom -5575.779111 kJ/mol
# Density = 1.942950 g / cm^3
# Si number density = 19.473827 Si / 1000 Ang^3
#
#
#
# Elastic Constant Matrix: (Units=GPa)
#
#
# Indices 1 2 3 4 5 6 
#
# 1 178.1456 33.4882 41.7612 0.0000 0.0000 0.0000
# 2 33.4882 98.4754 19.0846 0.0000 0.0000 0.0000
# 3 41.7612 19.0846 58.3772 0.0000 0.0000 0.0000
# 4 0.0000 0.0000 0.0000 42.8617 0.0000 0.0000
# 5 0.0000 0.0000 0.0000 0.0000 36.9314 0.0000
# 6 0.0000 0.0000 0.0000 0.0000 0.0000 35.4039
#
#
#
# Elastic Compliance Matrix: (Units=1/GPa)
#
#
# Indices 1 2 3 4 5 6 
#
# 1 0.006944 -0.001493 -0.004479 0.000000 0.000000 0.000000
# 2 -0.001493 0.011163 -0.002581 0.000000 0.000000 0.000000
# 3 -0.004479 -0.002581 0.021178 0.000000 0.000000 0.000000
# 4 0.000000 0.000000 0.000000 0.023331 0.000000 0.000000
# 5 0.000000 0.000000 0.000000 0.000000 0.027077 0.000000
# 6 0.000000 0.000000 0.000000 0.000000 0.000000 0.028245
#
#
# Mechanical properties :
#
#
# Convention : Reuss Voigt Hill
#
# Bulk Modulus (GPa) = 45.09058 58.18512 51.63785
# Shear Modulus (GPa) = 35.10273 39.08368 37.09320
#
# Velocity S-wave (km/s) = 4.25026 4.48480 4.36910
# Velocity P-wave (km/s) = 6.87685 7.53402 7.21292
#
# Compressibility (1/GPa) = 0.02217758
#
# Stress axis : x y z
#
# Youngs Moduli (GPa) = 144.00519 89.58270 47.21831
#
# Poissons Ratio (x) = 0.13378 0.21151
# Poissons Ratio (y) = 0.21505 0.12187
# Poissons Ratio (z) = 0.64506 0.23122
#
# Static dielectric constant tensor:
#      x y z
#    x 1.679610 0.000000 0.000000 
#    y 0.000000 1.687600 0.000000 
#    z 0.000000 0.000000 1.663970 
# 
# From -- ./inp_files/15336.got.cif
#   From: 2010.05.17/outbox.cif.g08.bks.cpg/sg35_8_cif.got.tgz:15336.got - 2010.06.03 17:29:28.
