data_PCOD9349081
_publ_section_title
;
Structure prediction by ZEFSAII (Michael W. Deem and Ramdas Pophale) SiO2 
 PCOD9349081
Probable space group: C M M 2
;
_chemical_formula_sum "Si O2"
_cell_formula_units_Z 56
_cell_length_a 22.390886
_cell_length_b 8.736679
_cell_length_c 14.818164
_cell_angle_alpha 90.000000
_cell_angle_beta 90.000000
_cell_angle_gamma 90.000000
_cell_volume 2898.758634
_symmetry_space_group_name_H-M "C M M 2"
_symmetry_group_IT_number 35
_symmetry_cell_setting 'orthorhombic'
loop_
_space_group_symop_operation_xyz
x,y,z
-x,-y,z
-x,y,z
x,-y,z
1/2+x,1/2+y,z
1/2-x,1/2-y,z
1/2-x,1/2+y,z
1/2+x,1/2-y,z
loop_
_atom_site_type_symbol
_atom_site_label
_atom_site_fract_x
_atom_site_fract_y
_atom_site_fract_z
Si Si1 0.685913 0.185146 0.027960
Si Si2 0.130528 0.682028 0.842840
Si Si3 0.000000 0.320104 0.816086
Si Si4 0.069583 0.818419 0.338660
Si Si5 0.885194 0.682287 0.517215
Si Si6 0.000000 0.182080 0.618900
Si Si7 0.187208 0.181280 0.671295
Si Si8 0.932165 0.315107 0.138802
O O1 0.750000 0.250000 0.058213
O O2 0.626225 0.234564 0.082298
O O3 0.688263 0.000000 0.031805
O O4 0.673247 0.230434 0.924000
O O5 0.138938 0.500000 0.827123
O O6 0.142083 0.769139 0.750110
O O7 0.061248 0.705594 0.869259
O O8 0.000000 0.500000 0.789102
O O9 0.000000 0.224112 0.724285
O O10 0.110222 0.746205 0.416208
O O11 0.076694 0.741829 0.241226
O O12 0.000000 0.794136 0.365666
O O13 0.079431 0.000000 0.332422
O O14 0.885950 0.500000 0.516622
O O15 0.830588 0.744108 0.576332
O O16 0.942474 0.746227 0.571056
O O17 0.000000 0.000000 0.606402
O O18 0.250000 0.250000 0.700994
O O19 0.188730 0.000000 0.663056
O O20 0.932676 0.500000 0.136302
O O21 0.000000 0.265150 0.110791
#
# Coordination Sequence:
#
# PCOD9349081 Si02
#       8
#     8   8   4   8   8   4   8   8
#     4  10  22  39  61  88 118 157 202 250 301 362
#     4  10  21  37  59  87 119 157 200 245 299 357
#     4  10  20  34  56  85 120 157 200 245 296 356
#     4  10  20  35  58  88 121 152 189 239 300 359
#     4  12  23  37  59  86 118 157 198 239 290 350
#     4  12  22  34  54  85 120 153 192 239 290 340
#     4  12  25  41  59  81 115 157 203 251 298 353
#     4   9  19  37  61  88 118 151 196 249 305 365
#
# _framework density 19.318615999999999
#
# number of rings (size 3 to 8) (size 9 to 14) (size 15 to 20)
#    0.000    1.429    2.143    4.071    1.000    2.857 
#    0.000    0.714    0.000    1.714    0.000    0.000 
#    0.000    0.000    0.000    0.000    0.000    0.000 
#
# Total GULP energy -156371.152013 kJ/mol
# GULP energy per Si atom -5584.684000 kJ/mol
# Density = 1.927465 g / cm^3
# Si number density = 19.318616 Si / 1000 Ang^3
#
#
#
# Elastic Constant Matrix: (Units=GPa)
#
#
# Indices 1 2 3 4 5 6 
#
# 1 104.7506 30.8146 38.7650 0.0000 0.0000 0.0000
# 2 30.8146 58.9363 20.7299 0.0000 0.0000 0.0000
# 3 38.7650 20.7299 77.0143 0.0000 0.0000 0.0000
# 4 0.0000 0.0000 0.0000 13.9171 0.0000 0.0000
# 5 0.0000 0.0000 0.0000 0.0000 28.9316 0.0000
# 6 0.0000 0.0000 0.0000 0.0000 0.0000 25.2876
#
#
#
# Elastic Compliance Matrix: (Units=1/GPa)
#
#
# Indices 1 2 3 4 5 6 
#
# 1 0.012911 -0.004932 -0.005171 0.000000 0.000000 0.000000
# 2 -0.004932 0.020626 -0.003069 0.000000 0.000000 0.000000
# 3 -0.005171 -0.003069 0.016414 0.000000 0.000000 0.000000
# 4 0.000000 0.000000 0.000000 0.071854 0.000000 0.000000
# 5 0.000000 0.000000 0.000000 0.000000 0.034564 0.000000
# 6 0.000000 0.000000 0.000000 0.000000 0.000000 0.039545
#
#
# Mechanical properties :
#
#
# Convention : Reuss Voigt Hill
#
# Bulk Modulus (GPa) = 42.36270 46.81334 44.58802
# Shear Modulus (GPa) = 21.72716 23.65338 22.69027
#
# Velocity S-wave (km/s) = 3.35726 3.50291 3.43086
# Velocity P-wave (km/s) = 6.08311 6.37537 6.23096
#
# Compressibility (1/GPa) = 0.02360567
#
# Stress axis : x y z
#
# Youngs Moduli (GPa) = 77.45382 48.48354 60.92447
#
# Poissons Ratio (x) = 0.23910 0.31506
# Poissons Ratio (y) = 0.38197 0.18701
# Poissons Ratio (z) = 0.40053 0.14882
#
# Static dielectric constant tensor:
#      x y z
#    x 1.691690 0.000000 0.000000 
#    y 0.000000 1.644730 0.000000 
#    z 0.000000 0.000000 1.649860 
# 
# From -- ./inp_files/15664.got.cif
#   From: 2010.05.17/outbox.cif.g08.bks.cpg/sg35_8_cif.got.tgz:15664.got - 2010.06.03 17:29:28.
