data_PCOD9349605
_publ_section_title
;
Structure prediction by ZEFSAII (Michael W. Deem and Ramdas Pophale) SiO2 
 PCOD9349605
Probable space group: C M M 2
;
_chemical_formula_sum "Si O2"
_cell_formula_units_Z 48
_cell_length_a 22.733031
_cell_length_b 14.977354
_cell_length_c 7.396866
_cell_angle_alpha 90.000000
_cell_angle_beta 90.000000
_cell_angle_gamma 90.000000
_cell_volume 2518.489764
_symmetry_space_group_name_H-M "C M M 2"
_symmetry_group_IT_number 35
_symmetry_cell_setting 'orthorhombic'
loop_
_space_group_symop_operation_xyz
x,y,z
-x,-y,z
-x,y,z
x,-y,z
1/2+x,1/2+y,z
1/2-x,1/2-y,z
1/2-x,1/2+y,z
1/2+x,1/2-y,z
loop_
_atom_site_type_symbol
_atom_site_label
_atom_site_fract_x
_atom_site_fract_y
_atom_site_fract_z
Si Si1 0.269638 0.398623 0.200100
Si Si2 0.880585 0.201407 0.054823
Si Si3 0.203981 0.331101 0.862528
Si Si4 0.668837 0.895515 0.475383
Si Si5 0.070912 0.101839 0.708293
Si Si6 0.932665 0.747150 0.414258
O O1 0.286452 0.500000 0.242169
O O2 0.326800 0.339498 0.170084
O O3 0.223698 0.366418 0.350333
O O4 0.235037 0.392416 0.010789
O O5 0.928650 0.223299 0.205175
O O6 0.853655 0.287119 0.953006
O O7 0.901663 0.135293 0.896904
O O8 0.250000 0.250000 0.825177
O O9 0.187933 0.381400 0.681307
O O10 0.612653 0.833796 0.438717
O O11 0.657502 0.000000 0.437110
O O12 0.085512 0.171682 0.548510
O O13 0.000000 0.102337 0.725263
O O14 0.089599 0.000000 0.668427
O O15 0.000000 0.723222 0.459387
#
# Coordination Sequence:
#
# PCOD9349605 Si02
#       6
#     8   8   8   8   8   8
#     4  10  22  37  58  92 123 153 197 247 306 371
#     4  11  21  38  63  89 123 161 202 250 307 373
#     4  10  21  35  61  87 120 158 194 246 304 369
#     4  11  23  40  63  90 124 162 205 253 303 363
#     4  10  22  40  62  91 125 161 206 256 307 369
#     4  11  24  41  63  89 122 165 212 257 306 357
#
# _framework density 19.059042999999999
#
# number of rings (size 3 to 8) (size 9 to 14) (size 15 to 20)
#    0.000    1.500    3.333    1.500    2.333    1.667 
#    0.000    5.000    0.000    0.000    0.000    0.000 
#    0.000    0.000    0.000    0.000    0.000    0.000 
#
# Total GULP energy -134051.910447 kJ/mol
# GULP energy per Si atom -5585.496269 kJ/mol
# Density = 1.901566 g / cm^3
# Si number density = 19.059043 Si / 1000 Ang^3
#
#
#
# Elastic Constant Matrix: (Units=GPa)
#
#
# Indices 1 2 3 4 5 6 
#
# 1 61.7355 29.4868 36.1639 0.0000 0.0000 0.0000
# 2 29.4868 78.5091 22.6417 0.0000 0.0000 0.0000
# 3 36.1639 22.6417 92.8553 0.0000 0.0000 0.0000
# 4 0.0000 0.0000 0.0000 201.2194 0.0000 0.0000
# 5 0.0000 0.0000 0.0000 0.0000 23.8352 0.0000
# 6 0.0000 0.0000 0.0000 0.0000 0.0000 23.0963
#
#
#
# Elastic Compliance Matrix: (Units=1/GPa)
#
#
# Indices 1 2 3 4 5 6 
#
# 1 0.023925 -0.006775 -0.007666 0.000000 0.000000 0.000000
# 2 -0.006775 0.015619 -0.001170 0.000000 0.000000 0.000000
# 3 -0.007666 -0.001170 0.014040 0.000000 0.000000 0.000000
# 4 0.000000 0.000000 0.000000 0.004970 0.000000 0.000000
# 5 0.000000 0.000000 0.000000 0.000000 0.041955 0.000000
# 6 0.000000 0.000000 0.000000 0.000000 0.000000 0.043297
#
#
# Mechanical properties :
#
#
# Convention : Reuss Voigt Hill
#
# Bulk Modulus (GPa) = 44.71718 45.52054 45.11886
# Shear Modulus (GPa) = 27.40005 59.28401 43.34203
#
# Velocity S-wave (km/s) = 3.79574 5.58328 4.77392
# Velocity P-wave (km/s) = 6.53632 8.09319 7.35606
#
# Compressibility (1/GPa) = 0.02236277
#
# Stress axis : x y z
#
# Youngs Moduli (GPa) = 41.79802 64.02309 71.22353
#
# Poissons Ratio (x) = 0.43375 0.54599
# Poissons Ratio (y) = 0.28318 0.08333
# Poissons Ratio (z) = 0.32042 0.07491
#
# Static dielectric constant tensor:
#      x y z
#    x 1.659310 0.000000 0.000000 
#    y 0.000000 1.409610 0.000000 
#    z 0.000000 0.000000 1.648650 
# 
# From -- ./inp_files/1925.got.cif
#   From: 2010.05.17/outbox.cif.g08.bks.cpg/sg35_1_cif.got.tgz:1925.got - 2010.06.03 17:29:28.
