data_PCOD9349051
_publ_section_title
;
Structure prediction by ZEFSAII (Michael W. Deem and Ramdas Pophale) SiO2 
 PCOD9349051
Probable space group: C M M 2
;
_chemical_formula_sum "Si O2"
_cell_formula_units_Z 40
_cell_length_a 15.999252
_cell_length_b 8.757818
_cell_length_c 14.827757
_cell_angle_alpha 90.000000
_cell_angle_beta 90.000000
_cell_angle_gamma 90.000000
_cell_volume 2077.643620
_symmetry_space_group_name_H-M "C M M 2"
_symmetry_group_IT_number 35
_symmetry_cell_setting 'orthorhombic'
loop_
_space_group_symop_operation_xyz
x,y,z
-x,-y,z
-x,y,z
x,-y,z
1/2+x,1/2+y,z
1/2-x,1/2-y,z
1/2-x,1/2+y,z
1/2+x,1/2-y,z
loop_
_atom_site_type_symbol
_atom_site_label
_atom_site_fract_x
_atom_site_fract_y
_atom_site_fract_z
Si Si1 0.341380 0.318667 0.793630
Si Si2 0.662860 0.814873 0.157754
Si Si3 0.095990 0.675840 0.970222
Si Si4 0.000000 0.685478 0.268582
Si Si5 0.843522 0.184291 0.587799
Si Si6 0.500000 0.815811 0.478333
O O1 0.337078 0.500000 0.795455
O O2 0.250000 0.250000 0.809571
O O3 0.396411 0.262060 0.876327
O O4 0.366256 0.274039 0.691877
O O5 0.750000 0.750000 0.192298
O O6 0.583769 0.764674 0.217068
O O7 0.664444 0.000000 0.157091
O O8 0.648959 0.762899 0.054115
O O9 0.120733 0.500000 0.953658
O O10 0.000000 0.676166 0.001317
O O11 0.000000 0.500000 0.265177
O O12 0.000000 0.728987 0.373095
O O13 0.750000 0.250000 0.570141
O O14 0.916280 0.251116 0.525241
O O15 0.840843 0.000000 0.580538
O O16 0.500000 0.000000 0.484958
#
# Coordination Sequence:
#
# PCOD9349051 Si02
#       6
#     8   8   8   4   8   4
#     4  10  21  36  55  80 114 153 192 236 283 336
#     4  10  20  38  61  84 115 153 191 234 285 342
#     4  10  20  34  55  83 116 156 194 231 280 340
#     4   9  20  41  62  83 114 150 191 237 290 353
#     4  10  22  41  62  87 121 158 198 245 295 351
#     4  11  23  39  64  91 116 154 197 245 304 357
#
# _framework density 19.252580999999999
#
# number of rings (size 3 to 8) (size 9 to 14) (size 15 to 20)
#    0.000    2.000    1.000    2.100    1.400    6.000 
#    0.000    4.500    0.000    0.000    0.000    0.000 
#    0.000    0.000    0.000    0.000    0.000    0.000 
#
# Total GULP energy -111637.382269 kJ/mol
# GULP energy per Si atom -5581.869113 kJ/mol
# Density = 1.920876 g / cm^3
# Si number density = 19.252581 Si / 1000 Ang^3
#
#
#
# Elastic Constant Matrix: (Units=GPa)
#
#
# Indices 1 2 3 4 5 6 
#
# 1 139.4114 32.8451 89.0519 0.0000 0.0000 0.0000
# 2 32.8451 38.2517 38.2394 0.0000 0.0000 0.0000
# 3 89.0519 38.2394 127.4341 0.0000 0.0000 0.0000
# 4 0.0000 0.0000 0.0000 9.1063 0.0000 0.0000
# 5 0.0000 0.0000 0.0000 0.0000 12.0046 0.0000
# 6 0.0000 0.0000 0.0000 0.0000 0.0000 33.8432
#
#
#
# Elastic Compliance Matrix: (Units=1/GPa)
#
#
# Indices 1 2 3 4 5 6 
#
# 1 0.013196 -0.003018 -0.008316 0.000000 0.000000 0.000000
# 2 -0.003018 0.038035 -0.009305 0.000000 0.000000 0.000000
# 3 -0.008316 -0.009305 0.016450 0.000000 0.000000 0.000000
# 4 0.000000 0.000000 0.000000 0.109814 0.000000 0.000000
# 5 0.000000 0.000000 0.000000 0.000000 0.083302 0.000000
# 6 0.000000 0.000000 0.000000 0.000000 0.000000 0.029548
#
#
# Mechanical properties :
#
#
# Convention : Reuss Voigt Hill
#
# Bulk Modulus (GPa) = 37.87092 69.48554 53.67823
# Shear Modulus (GPa) = 14.68761 20.65488 17.67124
#
# Velocity S-wave (km/s) = 2.76504 3.27897 3.03291
# Velocity P-wave (km/s) = 5.46875 7.10672 6.34085
#
# Compressibility (1/GPa) = 0.02640548
#
# Stress axis : x y z
#
# Youngs Moduli (GPa) = 75.78115 26.29139 60.78852
#
# Poissons Ratio (x) = 0.07933 0.50551
# Poissons Ratio (y) = 0.22867 0.56562
# Poissons Ratio (z) = 0.63019 0.24463
#
# Static dielectric constant tensor:
#      x y z
#    x 1.658350 0.000000 0.000000 
#    y 0.000000 1.658450 0.000000 
#    z 0.000000 0.000000 1.676720 
# 
# From -- ./inp_files/14746.got.cif
#   From: 2010.05.17/outbox.cif.g08.bks.cpg/sg35_8_cif.got.tgz:14746.got - 2010.06.03 17:29:28.
