data_PCOD9349981
_publ_section_title
;
Structure prediction by ZEFSAII (Michael W. Deem and Ramdas Pophale) SiO2 
 PCOD9349981
Probable space group: C M M 2
;
_chemical_formula_sum "Si O2"
_cell_formula_units_Z 56
_cell_length_a 14.500433
_cell_length_b 14.951282
_cell_length_c 12.924460
_cell_angle_alpha 90.000000
_cell_angle_beta 90.000000
_cell_angle_gamma 90.000000
_cell_volume 2802.023741
_symmetry_space_group_name_H-M "C M M 2"
_symmetry_group_IT_number 35
_symmetry_cell_setting 'orthorhombic'
loop_
_space_group_symop_operation_xyz
x,y,z
-x,-y,z
-x,y,z
x,-y,z
1/2+x,1/2+y,z
1/2-x,1/2-y,z
1/2-x,1/2+y,z
1/2+x,1/2-y,z
loop_
_atom_site_type_symbol
_atom_site_label
_atom_site_fract_x
_atom_site_fract_y
_atom_site_fract_z
Si Si1 0.785029 0.891173 0.760720
Si Si2 0.226084 0.148660 0.347990
Si Si3 0.607140 0.218176 0.827024
Si Si4 0.106408 0.893688 0.545350
Si Si5 0.897637 0.398817 0.250636
Si Si6 0.900114 0.903999 0.160623
Si Si7 0.856535 0.272735 0.055429
O O1 0.681957 0.847591 0.770797
O O2 0.849606 0.819654 0.823776
O O3 0.831032 0.880887 0.647134
O O4 0.786324 0.000000 0.785195
O O5 0.250000 0.250000 0.324628
O O6 0.162216 0.143504 0.447607
O O7 0.326542 0.104802 0.345606
O O8 0.173882 0.108356 0.249750
O O9 0.500000 0.216976 0.790021
O O10 0.607548 0.189924 0.947612
O O11 0.000000 0.860714 0.555758
O O12 0.100475 0.000000 0.528682
O O13 0.897918 0.500000 0.211467
O O14 0.871647 0.335991 0.154169
O O15 0.000000 0.373063 0.284960
O O16 0.899235 0.822790 0.082716
O O17 0.000000 0.903768 0.213489
O O18 0.886558 0.000000 0.108591
O O19 0.750000 0.250000 0.043015
#
# Coordination Sequence:
#
# PCOD9349981 Si02
#       7
#     8   8   8   8   8   8   8
#     4  10  23  44  68  96 129 162 210 270 327 384
#     4  12  23  36  60  90 124 160 204 257 307 368
#     4  11  24  43  68  95 130 170 214 265 323 385
#     4  10  22  42  67  93 122 159 204 258 321 385
#     4  11  23  39  59  84 124 173 210 245 298 367
#     4  11  22  37  60  89 123 162 204 255 309 361
#     4  12  22  41  61  88 125 166 209 258 308 362
#
# _framework density 19.985555999999999
#
# number of rings (size 3 to 8) (size 9 to 14) (size 15 to 20)
#    0.000    1.000    4.286    3.429    2.000    4.000 
#    0.000    0.714    0.000    0.857    0.000    0.000 
#    0.000    0.000    0.000    0.000    0.000    0.000 
#
# Total GULP energy -156050.395670 kJ/mol
# GULP energy per Si atom -5573.228417 kJ/mol
# Density = 1.994007 g / cm^3
# Si number density = 19.985556 Si / 1000 Ang^3
#
#
#
# Elastic Constant Matrix: (Units=GPa)
#
#
# Indices 1 2 3 4 5 6 
#
# 1 185.7476 37.9513 39.0983 0.0000 0.0000 0.0000
# 2 37.9513 103.9709 18.9930 0.0000 0.0000 0.0000
# 3 39.0983 18.9930 51.7298 0.0000 0.0000 0.0000
# 4 0.0000 0.0000 0.0000 12.7817 0.0000 0.0000
# 5 0.0000 0.0000 0.0000 0.0000 23.1982 0.0000
# 6 0.0000 0.0000 0.0000 0.0000 0.0000 23.3205
#
#
#
# Elastic Compliance Matrix: (Units=1/GPa)
#
#
# Indices 1 2 3 4 5 6 
#
# 1 0.006646 -0.001617 -0.004430 0.000000 0.000000 0.000000
# 2 -0.001617 0.010703 -0.002708 0.000000 0.000000 0.000000
# 3 -0.004430 -0.002708 0.023674 0.000000 0.000000 0.000000
# 4 0.000000 0.000000 0.000000 0.078237 0.000000 0.000000
# 5 0.000000 0.000000 0.000000 0.000000 0.043107 0.000000
# 6 0.000000 0.000000 0.000000 0.000000 0.000000 0.042881
#
#
# Mechanical properties :
#
#
# Convention : Reuss Voigt Hill
#
# Bulk Modulus (GPa) = 42.52749 59.28148 50.90449
# Shear Modulus (GPa) = 21.68313 28.22046 24.95179
#
# Velocity S-wave (km/s) = 3.29742 3.76179 3.53723
# Velocity P-wave (km/s) = 5.98520 6.97099 6.49682
#
# Compressibility (1/GPa) = 0.02351420
#
# Stress axis : x y z
#
# Youngs Moduli (GPa) = 150.45635 93.43286 42.24129
#
# Poissons Ratio (x) = 0.15107 0.18712
# Poissons Ratio (y) = 0.24326 0.11437
# Poissons Ratio (z) = 0.66650 0.25298
#
# Static dielectric constant tensor:
#      x y z
#    x 1.923500 0.000000 0.000000 
#    y 0.000000 1.722690 0.000000 
#    z 0.000000 0.000000 1.695490 
# 
# From -- ./inp_files/12959.got.cif
#   From: 2010.05.17/outbox.cif.g08.bks.cpg/sg35_7_cif.got.tgz:12959.got - 2010.06.03 17:29:28.
