data_PCOD9349667
_publ_section_title
;
Structure prediction by ZEFSAII (Michael W. Deem and Ramdas Pophale) SiO2 
 PCOD9349667
Probable space group: C M M 2
;
_chemical_formula_sum "Si O2"
_cell_formula_units_Z 56
_cell_length_a 7.935308
_cell_length_b 18.895847
_cell_length_c 19.066538
_cell_angle_alpha 90.000000
_cell_angle_beta 90.000000
_cell_angle_gamma 90.000000
_cell_volume 2858.919950
_symmetry_space_group_name_H-M "C M M 2"
_symmetry_group_IT_number 35
_symmetry_cell_setting 'orthorhombic'
loop_
_space_group_symop_operation_xyz
x,y,z
-x,-y,z
-x,y,z
x,-y,z
1/2+x,1/2+y,z
1/2-x,1/2-y,z
1/2-x,1/2+y,z
1/2+x,1/2-y,z
loop_
_atom_site_type_symbol
_atom_site_label
_atom_site_fract_x
_atom_site_fract_y
_atom_site_fract_z
Si Si1 0.299518 0.919333 0.852560
Si Si2 0.202941 0.167001 0.413079
Si Si3 0.706728 0.581781 0.123841
Si Si4 0.203519 0.167329 0.260102
Si Si5 0.702734 0.419194 0.698674
Si Si6 0.300125 0.668211 0.988710
Si Si7 0.703695 0.332413 0.565281
O O1 0.500000 0.923636 0.852429
O O2 0.245370 0.891653 0.776151
O O3 0.248164 0.870172 0.916688
O O4 0.230946 0.000000 0.860838
O O5 0.250000 0.250000 0.413484
O O6 0.264105 0.141040 0.336987
O O7 0.263430 0.139481 0.488847
O O8 0.000000 0.160355 0.412967
O O9 0.500000 0.582503 0.123865
O O10 0.758621 0.500000 0.121302
O O11 0.763187 0.621077 0.194706
O O12 0.767307 0.624832 0.055741
O O13 0.250000 0.250000 0.251634
O O14 0.000000 0.163852 0.260686
O O15 0.500000 0.421037 0.693691
O O16 0.765919 0.500000 0.694987
O O17 0.767382 0.374268 0.633040
O O18 0.500000 0.665548 0.993984
O O19 0.250000 0.750000 0.990047
O O20 0.500000 0.337071 0.565078
O O21 0.750000 0.250000 0.570699
#
# Coordination Sequence:
#
# PCOD9349667 Si02
#       7
#     8   8   8   8   8   8   8
#     4  10  21  37  56  77 101 129 164 205 248 298
#     4   8  14  25  42  66  94 124 158 196 240 285
#     4   9  18  32  50  73 100 130 163 198 240 291
#     4   9  16  28  48  71  96 126 161 201 241 284
#     4   9  18  33  51  70  96 131 166 199 241 293
#     4  11  22  36  55  77 102 131 165 205 248 295
#     4   9  17  29  46  69  96 126 162 202 242 286
#
# _framework density 19.587816
#
# number of rings (size 3 to 8) (size 9 to 14) (size 15 to 20)
#    0.000    2.714    0.000    1.714    0.000    2.571 
#    0.000    2.857    0.000    6.429    0.000    0.000 
#    0.000   11.429    0.000    0.000    0.000    0.000 
#
# Total GULP energy -156087.355991 kJ/mol
# GULP energy per Si atom -5574.548428 kJ/mol
# Density = 1.954323 g / cm^3
# Si number density = 19.587816 Si / 1000 Ang^3
#
#
#
# Elastic Constant Matrix: (Units=GPa)
#
#
# Indices 1 2 3 4 5 6 
#
# 1 21.1390 4.6379 13.1373 0.0000 0.0000 0.0000
# 2 4.6379 95.6888 110.9313 0.0000 0.0000 0.0000
# 3 13.1373 110.9313 257.9988 0.0000 0.0000 0.0000
# 4 0.0000 0.0000 0.0000 -70.8495 0.0000 0.0000
# 5 0.0000 0.0000 0.0000 0.0000 20.7388 0.0000
# 6 0.0000 0.0000 0.0000 0.0000 0.0000 14.0291
#
#
#
# Elastic Compliance Matrix: (Units=1/GPa)
#
#
# Indices 1 2 3 4 5 6 
#
# 1 0.048903 0.001030 -0.002933 0.000000 0.000000 0.000000
# 2 0.001030 0.020859 -0.009021 0.000000 0.000000 0.000000
# 3 -0.002933 -0.009021 0.007904 0.000000 0.000000 0.000000
# 4 0.000000 0.000000 0.000000 -0.014114 0.000000 0.000000
# 5 0.000000 0.000000 0.000000 0.000000 0.048219 0.000000
# 6 0.000000 0.000000 0.000000 0.000000 0.000000 0.071280
#
#
# Mechanical properties :
#
#
# Convention : Reuss Voigt Hill
#
# Bulk Modulus (GPa) = 17.91556 70.24885 44.08220
# Shear Modulus (GPa) = 22.37097 9.19169 15.78133
#
# Velocity S-wave (km/s) = 3.38314 2.16858 2.84151
# Velocity P-wave (km/s) = 4.94237 6.49705 5.77229
#
# Compressibility (1/GPa) = 0.05581741
#
# Stress axis : x y z
#
# Youngs Moduli (GPa) = 20.44873 47.94189 126.51707
#
# Poissons Ratio (x) = -0.04938 0.37107
# Poissons Ratio (y) = -0.02106 1.14131
# Poissons Ratio (z) = 0.05998 0.43248
#
# Static dielectric constant tensor:
#      x y z
#    x 1.695460 0.000000 0.000000 
#    y 0.000000 1.644380 0.000000 
#    z 0.000000 0.000000 1.731590 
# 
# From -- ./inp_files/18203.got.cif
#   From: 2010.05.17/outbox.cif.g08.bks.cpg/sg35_10_cif.got.tgz:18203.got - 2010.06.03 17:29:28.
