data_PCOD9349300
_publ_section_title
;
Structure prediction by ZEFSAII (Michael W. Deem and Ramdas Pophale) SiO2 
 PCOD9349300
Probable space group: C M M 2
;
_chemical_formula_sum "Si O2"
_cell_formula_units_Z 48
_cell_length_a 8.630405
_cell_length_b 35.490681
_cell_length_c 7.465836
_cell_angle_alpha 90.000000
_cell_angle_beta 90.000000
_cell_angle_gamma 90.000000
_cell_volume 2286.777733
_symmetry_space_group_name_H-M "C M M 2"
_symmetry_group_IT_number 35
_symmetry_cell_setting 'orthorhombic'
loop_
_space_group_symop_operation_xyz
x,y,z
-x,-y,z
-x,y,z
x,-y,z
1/2+x,1/2+y,z
1/2-x,1/2-y,z
1/2-x,1/2+y,z
1/2+x,1/2-y,z
loop_
_atom_site_type_symbol
_atom_site_label
_atom_site_fract_x
_atom_site_fract_y
_atom_site_fract_z
Si Si1 0.000000 0.955379 0.177210
Si Si2 0.681822 0.710326 0.566681
Si Si3 0.832924 0.456021 0.623748
Si Si4 0.327249 0.068456 0.216271
Si Si5 0.500000 0.546063 0.601503
Si Si6 0.184831 0.290089 0.961517
Si Si7 0.680514 0.157103 0.281467
O O1 0.829969 0.942211 0.111846
O O2 0.000000 0.944668 0.389350
O O3 0.000000 0.000000 0.160161
O O4 0.500000 0.715057 0.584143
O O5 0.750000 0.750000 0.496098
O O6 0.752662 0.703853 0.762479
O O7 0.722731 0.675879 0.438636
O O8 0.835225 0.500000 0.675505
O O9 0.829411 0.453747 0.405937
O O10 0.664616 0.440178 0.678830
O O11 0.000000 0.438825 0.677980
O O12 0.500000 0.062525 0.133962
O O13 0.311406 0.112383 0.265967
O O14 0.500000 0.500000 0.613459
O O15 0.250000 0.250000 0.026469
O O16 0.000000 0.287792 0.953878
O O17 0.229323 0.323156 0.096617
O O18 0.500000 0.167024 0.313736
#
# Coordination Sequence:
#
# PCOD9349300 Si02
#       7
#     4   8   8   8   4   8   8
#     4   9  16  26  42  66  98 140 184 224 272 330
#     4  11  22  36  56  79 106 143 186 230 276 332
#     4   8  12  19  33  52  79 117 155 194 241 292
#     4   9  17  28  42  67 103 139 177 223 276 330
#     4   7  10  16  26  42  66  98 140 184 224 272
#     4  10  20  36  56  78 106 141 186 231 274 331
#     4  10  21  35  53  79 112 147 181 228 286 336
#
# _framework density 20.990231999999999
#
# number of rings (size 3 to 8) (size 9 to 14) (size 15 to 20)
#    0.000    2.667    0.000    5.000    1.167    3.667 
#    0.000    0.000    0.000    0.000    0.000    0.000 
#    0.000    6.667    0.000   42.333    0.000    0.000 
#
# Total GULP energy -133815.766523 kJ/mol
# GULP energy per Si atom -5575.656938 kJ/mol
# Density = 2.094246 g / cm^3
# Si number density = 20.990232 Si / 1000 Ang^3
#
#
#
# Elastic Constant Matrix: (Units=GPa)
#
#
# Indices 1 2 3 4 5 6 
#
# 1 188.6151 25.2179 20.1514 0.0000 0.0000 0.0000
# 2 25.2179 50.0457 14.7395 0.0000 0.0000 0.0000
# 3 20.1514 14.7395 48.6396 0.0000 0.0000 0.0000
# 4 0.0000 0.0000 0.0000 -23.2399 0.0000 0.0000
# 5 0.0000 0.0000 0.0000 0.0000 -151.7272 0.0000
# 6 0.0000 0.0000 0.0000 0.0000 0.0000 34.2239
#
#
#
# Elastic Compliance Matrix: (Units=1/GPa)
#
#
# Indices 1 2 3 4 5 6 
#
# 1 0.005805 -0.002434 -0.001668 0.000000 0.000000 0.000000
# 2 -0.002434 0.022961 -0.005949 0.000000 0.000000 0.000000
# 3 -0.001668 -0.005949 0.023053 0.000000 0.000000 0.000000
# 4 0.000000 0.000000 0.000000 -0.043030 0.000000 0.000000
# 5 0.000000 0.000000 0.000000 0.000000 -0.006591 0.000000
# 6 0.000000 0.000000 0.000000 0.000000 0.000000 0.029219
#
#
# Mechanical properties :
#
#
# Convention : Reuss Voigt Hill
#
# Bulk Modulus (GPa) = 31.52897 45.27977 38.40437
# Shear Modulus (GPa) = 80.52483 -13.00252 33.76116
#
# Velocity S-wave (km/s) = 6.20051 -2.49159 4.01486
# Velocity P-wave (km/s) = 8.14341 3.65258 6.31096
#
# Compressibility (1/GPa) = 0.03171687
#
# Stress axis : x y z
#
# Youngs Moduli (GPa) = 172.25309 43.55294 43.37808
#
# Poissons Ratio (x) = 0.10602 0.07233
# Poissons Ratio (y) = 0.41930 0.25807
# Poissons Ratio (z) = 0.28724 0.25911
#
# Static dielectric constant tensor:
#      x y z
#    x 1.824370 0.000000 0.000000 
#    y 0.000000 1.714170 0.000000 
#    z 0.000000 0.000000 1.733710 
# 
# From -- ./inp_files/5422.got.cif
#   From: 2010.05.17/outbox.cif.g08.bks.cpg/sg35_3_cif.got.tgz:5422.got - 2010.06.03 17:29:28.
