data_PCOD9349485
_publ_section_title
;
Structure prediction by ZEFSAII (Michael W. Deem and Ramdas Pophale) SiO2 
 PCOD9349485
Probable space group: C M M 2
;
_chemical_formula_sum "Si O2"
_cell_formula_units_Z 48
_cell_length_a 13.938422
_cell_length_b 25.120093
_cell_length_c 6.928818
_cell_angle_alpha 90.000000
_cell_angle_beta 90.000000
_cell_angle_gamma 90.000000
_cell_volume 2426.017927
_symmetry_space_group_name_H-M "C M M 2"
_symmetry_group_IT_number 35
_symmetry_cell_setting 'orthorhombic'
loop_
_space_group_symop_operation_xyz
x,y,z
-x,-y,z
-x,y,z
x,-y,z
1/2+x,1/2+y,z
1/2-x,1/2-y,z
1/2-x,1/2+y,z
1/2+x,1/2-y,z
loop_
_atom_site_type_symbol
_atom_site_label
_atom_site_fract_x
_atom_site_fract_y
_atom_site_fract_z
Si Si1 0.610411 0.500000 0.250000
Si Si2 0.386147 0.295798 0.952946
Si Si3 0.110112 0.713410 0.303371
Si Si4 0.692779 0.586588 0.978037
Si Si5 0.750000 0.250000 0.625470
Si Si6 0.609454 0.000000 0.447890
Si Si7 0.190101 0.000000 0.663809
Si Si8 0.393715 0.094506 0.135804
O O1 0.500000 0.500000 0.193698
O O2 0.625813 0.500000 0.475670
O O3 0.660357 0.551355 0.159024
O O4 0.500000 0.292385 0.914695
O O5 0.355213 0.356140 0.995314
O O6 0.323228 0.279585 0.768182
O O7 0.366538 0.256271 0.134289
O O8 0.183503 0.716367 0.480207
O O9 0.112270 0.654269 0.216976
O O10 0.000000 0.724437 0.365858
O O11 0.667545 0.551969 0.791126
O O12 0.807757 0.589400 0.986499
O O13 0.698275 0.000000 0.595294
O O14 0.617873 0.948512 0.307342
O O15 0.500000 0.000000 0.528103
O O16 0.500000 0.086233 0.052021
#
# Coordination Sequence:
#
# PCOD9349485 Si02
#       8
#     4   8   8   8   4   4   4   8
#     4  11  24  44  64  85 122 166 211 263 321 384
#     4  11  25  43  63  95 131 170 220 273 329 392
#     4  10  23  42  63  90 128 171 214 262 322 387
#     4  11  23  41  65  91 127 167 212 264 323 387
#     4  12  22  38  66  94 124 166 216 270 322 382
#     4  10  20  37  62  93 126 160 206 259 319 387
#     4  11  24  39  62  96 122 160 213 266 322 379
#     4  10  20  39  65  91 126 167 207 259 320 382
#
# _framework density 19.785511
#
# number of rings (size 3 to 8) (size 9 to 14) (size 15 to 20)
#    0.000    1.333    1.667    4.000    2.333    4.000 
#    0.000    0.833    0.000    0.000    0.000    0.000 
#    0.000    0.000    0.000    0.000    0.000    0.000 
#
# Total GULP energy -134078.080426 kJ/mol
# GULP energy per Si atom -5586.586684 kJ/mol
# Density = 1.974048 g / cm^3
# Si number density = 19.785511 Si / 1000 Ang^3
#
#
#
# Elastic Constant Matrix: (Units=GPa)
#
#
# Indices 1 2 3 4 5 6 
#
# 1 116.7952 29.0955 30.7025 0.0000 0.0000 0.0000
# 2 29.0955 144.9983 46.8077 0.0000 0.0000 0.0000
# 3 30.7025 46.8077 82.3953 0.0000 0.0000 0.0000
# 4 0.0000 0.0000 0.0000 -15.9076 0.0000 0.0000
# 5 0.0000 0.0000 0.0000 0.0000 31.3962 0.0000
# 6 0.0000 0.0000 0.0000 0.0000 0.0000 52.5722
#
#
#
# Elastic Compliance Matrix: (Units=1/GPa)
#
#
# Indices 1 2 3 4 5 6 
#
# 1 0.009596 -0.000944 -0.003039 0.000000 0.000000 0.000000
# 2 -0.000944 0.008538 -0.004499 0.000000 0.000000 0.000000
# 3 -0.003039 -0.004499 0.015825 0.000000 0.000000 0.000000
# 4 0.000000 0.000000 0.000000 -0.062863 0.000000 0.000000
# 5 0.000000 0.000000 0.000000 0.000000 0.031851 0.000000
# 6 0.000000 0.000000 0.000000 0.000000 0.000000 0.019021
#
#
# Mechanical properties :
#
#
# Convention : Reuss Voigt Hill
#
# Bulk Modulus (GPa) = 58.84203 61.93337 60.38770
# Shear Modulus (GPa) = 112.11238 29.45103 70.78170
#
# Velocity S-wave (km/s) = 7.53571 3.86231 5.98767
# Velocity P-wave (km/s) = 10.27231 7.15963 8.85383
#
# Compressibility (1/GPa) = 0.01699466
#
# Stress axis : x y z
#
# Youngs Moduli (GPa) = 104.20766 117.11827 63.19225
#
# Poissons Ratio (x) = 0.11062 0.19206
# Poissons Ratio (y) = 0.09842 0.28428
# Poissons Ratio (z) = 0.31671 0.52687
#
# Static dielectric constant tensor:
#      x y z
#    x 1.720750 0.000000 0.000000 
#    y 0.000000 1.705490 0.000000 
#    z 0.000000 0.000000 1.663000 
# 
# From -- ./inp_files/1978.got.cif
#   From: 2010.05.17/outbox.cif.g08.bks.cpg/sg35_1_cif.got.tgz:1978.got - 2010.06.03 17:29:28.
