data_PCOD9349301
_publ_section_title
;
Structure prediction by ZEFSAII (Michael W. Deem and Ramdas Pophale) SiO2 
 PCOD9349301
Probable space group: C M M 2
;
_chemical_formula_sum "Si O2"
_cell_formula_units_Z 58
_cell_length_a 9.090417
_cell_length_b 26.173392
_cell_length_c 13.428078
_cell_angle_alpha 90.000000
_cell_angle_beta 90.000000
_cell_angle_gamma 90.000000
_cell_volume 3194.902953
_symmetry_space_group_name_H-M "C M M 2"
_symmetry_group_IT_number 35
_symmetry_cell_setting 'orthorhombic'
loop_
_space_group_symop_operation_xyz
x,y,z
-x,-y,z
-x,y,z
x,-y,z
1/2+x,1/2+y,z
1/2-x,1/2-y,z
1/2-x,1/2+y,z
1/2+x,1/2-y,z
loop_
_atom_site_type_symbol
_atom_site_label
_atom_site_fract_x
_atom_site_fract_y
_atom_site_fract_z
Si Si1 0.500000 0.000000 0.571990
Si Si2 0.824242 0.056652 0.221333
Si Si3 0.327254 0.663033 0.309499
Si Si4 0.837222 0.400109 0.636921
Si Si5 0.668856 0.440011 0.822774
Si Si6 0.824986 0.698183 0.505934
Si Si7 0.673971 0.697105 0.081518
Si Si8 0.675418 0.093706 0.021362
O O1 0.626576 0.046306 0.580779
O O2 0.785484 0.103432 0.293538
O O3 0.000000 0.061397 0.201656
O O4 0.794983 0.000000 0.261359
O O5 0.740672 0.064293 0.117283
O O6 0.500000 0.666122 0.336384
O O7 0.231547 0.688875 0.393918
O O8 0.309500 0.687916 0.200609
O O9 0.728725 0.409872 0.727812
O O10 0.789144 0.353456 0.567063
O O11 0.000000 0.385896 0.678942
O O12 0.500000 0.426860 0.846237
O O13 0.676544 0.500000 0.798323
O O14 0.768087 0.430473 0.919304
O O15 0.750000 0.750000 0.544787
O O16 0.000000 0.704395 0.506248
O O17 0.500000 0.696554 0.059852
O O18 0.750000 0.750000 0.054496
O O19 0.756078 0.650202 0.029698
O O20 0.500000 0.094585 0.026375
#
# Coordination Sequence:
#
# PCOD9349301 Si02
#       8
#     2   8   8   8   8   8   8   8
#     4   8  16  40  66  80 112 138 190 234 288 344
#     4   9  18  35  53  75 110 149 186 232 284 334
#     4   9  19  35  55  79 108 144 186 229 276 331
#     4   9  19  38  61  82 109 144 182 233 284 337
#     4  11  21  35  57  85 111 141 179 226 280 337
#     4  11  23  38  58  84 113 149 188 230 281 338
#     4  10  20  36  56  78 106 142 182 230 276 324
#     4  11  22  33  52  79 111 146 185 223 270 329
#
# _framework density 18.153915999999999
#
# number of rings (size 3 to 8) (size 9 to 14) (size 15 to 20)
#    0.414    1.655    0.690    4.138    0.000    7.724 
#    1.241    0.690    0.000    1.655    0.000    0.000 
#    0.000    0.000    0.000    0.000    0.000    0.000 
#
# Total GULP energy -161480.291750 kJ/mol
# GULP energy per Si atom -5568.285922 kJ/mol
# Density = 1.811260 g / cm^3
# Si number density = 18.153916 Si / 1000 Ang^3
#
#
#
# Elastic Constant Matrix: (Units=GPa)
#
#
# Indices 1 2 3 4 5 6 
#
# 1 68.4919 32.3232 24.3625 0.0000 0.0000 0.0000
# 2 32.3232 112.6435 20.4247 0.0000 0.0000 0.0000
# 3 24.3625 20.4247 39.0321 0.0000 0.0000 0.0000
# 4 0.0000 0.0000 0.0000 14.5774 0.0000 0.0000
# 5 0.0000 0.0000 0.0000 0.0000 21.4086 0.0000
# 6 0.0000 0.0000 0.0000 0.0000 0.0000 32.5281
#
#
#
# Elastic Compliance Matrix: (Units=1/GPa)
#
#
# Indices 1 2 3 4 5 6 
#
# 1 0.020191 -0.003877 -0.010574 0.000000 0.000000 0.000000
# 2 -0.003877 0.010552 -0.003102 0.000000 0.000000 0.000000
# 3 -0.010574 -0.003102 0.033843 0.000000 0.000000 0.000000
# 4 0.000000 0.000000 0.000000 0.068599 0.000000 0.000000
# 5 0.000000 0.000000 0.000000 0.000000 0.046710 0.000000
# 6 0.000000 0.000000 0.000000 0.000000 0.000000 0.030743
#
#
# Mechanical properties :
#
#
# Convention : Reuss Voigt Hill
#
# Bulk Modulus (GPa) = 33.92018 41.59871 37.75944
# Shear Modulus (GPa) = 19.56401 23.23995 21.40198
#
# Velocity S-wave (km/s) = 3.28636 3.58182 3.43726
# Velocity P-wave (km/s) = 5.75548 6.33009 6.04961
#
# Compressibility (1/GPa) = 0.02948098
#
# Stress axis : x y z
#
# Youngs Moduli (GPa) = 49.52736 94.76468 29.54802
#
# Poissons Ratio (x) = 0.36736 0.31244
# Poissons Ratio (y) = 0.19199 0.09167
# Poissons Ratio (z) = 0.52370 0.29399
#
# Static dielectric constant tensor:
#      x y z
#    x 1.611460 0.000000 0.000000 
#    y 0.000000 1.660330 0.000000 
#    z 0.000000 0.000000 1.596420 
# 
# From -- ./inp_files/11602.got.cif
#   From: 2010.05.17/outbox.cif.g08.bks.cpg/sg35_6_cif.got.tgz:11602.got - 2010.06.03 17:29:28.
