data_PCOD9349433
_publ_section_title
;
Structure prediction by ZEFSAII (Michael W. Deem and Ramdas Pophale) SiO2 
 PCOD9349433
Probable space group: C M M 2
;
_chemical_formula_sum "Si O2"
_cell_formula_units_Z 60
_cell_length_a 14.001506
_cell_length_b 16.834037
_cell_length_c 14.121756
_cell_angle_alpha 90.000000
_cell_angle_beta 90.000000
_cell_angle_gamma 90.000000
_cell_volume 3328.524298
_symmetry_space_group_name_H-M "C M M 2"
_symmetry_group_IT_number 35
_symmetry_cell_setting 'orthorhombic'
loop_
_space_group_symop_operation_xyz
x,y,z
-x,-y,z
-x,y,z
x,-y,z
1/2+x,1/2+y,z
1/2-x,1/2-y,z
1/2-x,1/2+y,z
1/2+x,1/2-y,z
loop_
_atom_site_type_symbol
_atom_site_label
_atom_site_fract_x
_atom_site_fract_y
_atom_site_fract_z
Si Si1 0.110517 0.594785 0.498330
Si Si2 0.500000 0.708663 0.237489
Si Si3 0.273693 0.842319 0.676188
Si Si4 0.610932 0.406191 0.800841
Si Si5 0.175182 0.094214 0.180171
Si Si6 0.227098 0.157258 0.975027
Si Si7 0.110452 0.593753 0.850256
Si Si8 0.173727 0.318206 0.307384
O O1 0.117458 0.500000 0.489404
O O2 0.179919 0.623555 0.581701
O O3 0.138875 0.636158 0.400479
O O4 0.000000 0.614614 0.521999
O O5 0.584010 0.641332 0.219084
O O6 0.584518 0.775498 0.257967
O O7 0.250000 0.750000 0.666353
O O8 0.177557 0.885976 0.711543
O O9 0.348133 0.857357 0.761847
O O10 0.500000 0.388728 0.784282
O O11 0.620889 0.500000 0.822816
O O12 0.652257 0.356961 0.889575
O O13 0.268610 0.124149 0.236954
O O14 0.164355 0.000000 0.188323
O O15 0.188735 0.119634 0.070922
O O16 0.250000 0.250000 0.987695
O O17 0.323500 0.114699 0.939137
O O18 0.120060 0.500000 0.828020
O O19 0.000000 0.611518 0.867054
O O20 0.250000 0.250000 0.335709
#
# Coordination Sequence:
#
# PCOD9349433 Si02
#       8
#     8   4   8   8   8   8   8   8
#     4  11  22  38  63  91 116 153 201 247 309 381
#     4  10  21  40  65  90 122 158 204 258 315 372
#     4  11  22  36  57  86 120 156 202 252 308 367
#     4  10  21  37  58  84 118 161 209 258 307 364
#     4  11  23  41  64  91 127 168 210 257 319 386
#     4  11  22  37  57  86 121 161 210 258 305 365
#     4  10  20  37  59  84 119 160 204 258 314 370
#     4  10  21  41  64  92 124 154 199 260 315 373
#
# _framework density 18.026005999999999
#
# number of rings (size 3 to 8) (size 9 to 14) (size 15 to 20)
#    0.000    1.467    0.667    7.400    0.933    3.733 
#    3.600    0.000    1.467    0.000    0.000    0.000 
#    0.000    0.000    0.000    0.000    0.000    0.000 
#
# Total GULP energy -167045.636066 kJ/mol
# GULP energy per Si atom -5568.187869 kJ/mol
# Density = 1.798498 g / cm^3
# Si number density = 18.026006 Si / 1000 Ang^3
#
#
#
# Elastic Constant Matrix: (Units=GPa)
#
#
# Indices 1 2 3 4 5 6 
#
# 1 165.0471 57.3516 46.3108 0.0000 0.0000 0.0000
# 2 57.3516 96.4123 44.3321 0.0000 0.0000 0.0000
# 3 46.3108 44.3321 74.4652 0.0000 0.0000 0.0000
# 4 0.0000 0.0000 0.0000 166.5774 0.0000 0.0000
# 5 0.0000 0.0000 0.0000 0.0000 12.3695 0.0000
# 6 0.0000 0.0000 0.0000 0.0000 0.0000 124.5025
#
#
#
# Elastic Compliance Matrix: (Units=1/GPa)
#
#
# Indices 1 2 3 4 5 6 
#
# 1 0.008092 -0.003442 -0.002984 0.000000 0.000000 0.000000
# 2 -0.003442 0.015746 -0.007234 0.000000 0.000000 0.000000
# 3 -0.002984 -0.007234 0.019591 0.000000 0.000000 0.000000
# 4 0.000000 0.000000 0.000000 0.006003 0.000000 0.000000
# 5 0.000000 0.000000 0.000000 0.000000 0.080844 0.000000
# 6 0.000000 0.000000 0.000000 0.000000 0.000000 0.008032
#
#
# Mechanical properties :
#
#
# Convention : Reuss Voigt Hill
#
# Bulk Modulus (GPa) = 62.06926 70.21261 66.14093
# Shear Modulus (GPa) = 29.24055 73.21857 51.22956
#
# Velocity S-wave (km/s) = 4.03194 6.38016 5.33681
# Velocity P-wave (km/s) = 7.49555 9.65974 8.64563
#
# Compressibility (1/GPa) = 0.01611104
#
# Stress axis : x y z
#
# Youngs Moduli (GPa) = 123.57931 63.51003 51.04398
#
# Poissons Ratio (x) = 0.21858 0.15229
# Poissons Ratio (y) = 0.42532 0.36923
# Poissons Ratio (z) = 0.36870 0.45940
#
# Static dielectric constant tensor:
#      x y z
#    x 1.607710 0.000000 0.000000 
#    y 0.000000 1.608220 0.000000 
#    z 0.000000 0.000000 1.597880 
# 
# From -- ./inp_files/16831.got.cif
#   From: 2010.05.17/outbox.cif.g08.bks.cpg/sg35_9_cif.got.tgz:16831.got - 2010.06.03 17:29:28.
