data_PCOD9349957
_publ_section_title
;
Structure prediction by ZEFSAII (Michael W. Deem and Ramdas Pophale) SiO2 
 PCOD9349957
Probable space group: C M M 2
;
_chemical_formula_sum "Si O2"
_cell_formula_units_Z 48
_cell_length_a 16.221962
_cell_length_b 14.023491
_cell_length_c 10.238707
_cell_angle_alpha 90.000000
_cell_angle_beta 90.000000
_cell_angle_gamma 90.000000
_cell_volume 2329.188488
_symmetry_space_group_name_H-M "C M M 2"
_symmetry_group_IT_number 35
_symmetry_cell_setting 'orthorhombic'
loop_
_space_group_symop_operation_xyz
x,y,z
-x,-y,z
-x,y,z
x,-y,z
1/2+x,1/2+y,z
1/2-x,1/2-y,z
1/2-x,1/2+y,z
1/2+x,1/2-y,z
loop_
_atom_site_type_symbol
_atom_site_label
_atom_site_fract_x
_atom_site_fract_y
_atom_site_fract_z
Si Si1 0.343446 0.790777 0.799090
Si Si2 0.901333 0.800404 0.535478
Si Si3 0.838690 0.000000 0.109523
Si Si4 0.403142 0.000000 0.839270
Si Si5 0.404780 0.179786 0.304038
Si Si6 0.600212 0.500000 0.409650
Si Si7 0.146690 0.500000 0.137905
Si Si8 0.345883 0.712326 0.067702
O O1 0.250000 0.750000 0.804053
O O2 0.383179 0.732038 0.681501
O O3 0.357849 0.904285 0.787080
O O4 0.379276 0.767244 0.942053
O O5 0.867150 0.718669 0.438017
O O6 0.000000 0.802036 0.517967
O O7 0.872417 0.904402 0.486893
O O8 0.740954 0.000000 0.101515
O O9 0.859615 0.899548 0.044174
O O10 0.866968 0.000000 0.261007
O O11 0.500000 0.000000 0.800764
O O12 0.399703 0.000000 0.998869
O O13 0.500000 0.156818 0.326242
O O14 0.368259 0.090564 0.228876
O O15 0.393550 0.264101 0.199836
O O16 0.500000 0.500000 0.403807
O O17 0.250000 0.750000 0.085904
#
# Coordination Sequence:
#
# PCOD9349957 Si02
#       8
#     8   8   4   4   8   4   4   8
#     4  11  25  42  66  97 136 174 225 279 335 401
#     4  10  23  42  62  90 130 174 224 274 330 398
#     4  12  22  37  66  95 132 167 214 272 332 397
#     4  12  24  44  72 100 136 184 224 272 346 405
#     4  11  22  38  63  92 124 163 218 268 317 388
#     4  10  22  40  62  88 124 174 220 272 334 392
#     4  12  22  37  64  99 130 167 214 270 336 396
#     4  11  22  39  61  93 128 164 211 269 324 385
#
# _framework density 20.608035999999998
#
# number of rings (size 3 to 8) (size 9 to 14) (size 15 to 20)
#    0.000    1.000    5.000    2.250    0.000    4.667 
#    0.000    0.833    0.000    0.000    0.000    0.000 
#    0.000    0.000    0.000    0.000    0.000    0.000 
#
# Total GULP energy -133888.791329 kJ/mol
# GULP energy per Si atom -5578.699639 kJ/mol
# Density = 2.056113 g / cm^3
# Si number density = 20.608036 Si / 1000 Ang^3
#
#
#
# Elastic Constant Matrix: (Units=GPa)
#
#
# Indices 1 2 3 4 5 6 
#
# 1 15.5682 10.0367 -11.5168 0.0000 0.0000 0.0000
# 2 10.0367 131.7328 -4.6570 0.0000 0.0000 0.0000
# 3 -11.5168 -4.6570 62.6559 0.0000 0.0000 0.0000
# 4 0.0000 0.0000 0.0000 31.0549 0.0000 0.0000
# 5 0.0000 0.0000 0.0000 0.0000 25.2429 0.0000
# 6 0.0000 0.0000 0.0000 0.0000 0.0000 26.1531
#
#
#
# Elastic Compliance Matrix: (Units=1/GPa)
#
#
# Indices 1 2 3 4 5 6 
#
# 1 0.078065 -0.005455 0.013944 0.000000 0.000000 0.000000
# 2 -0.005455 0.007992 -0.000409 0.000000 0.000000 0.000000
# 3 0.013944 -0.000409 0.018493 0.000000 0.000000 0.000000
# 4 0.000000 0.000000 0.000000 0.032201 0.000000 0.000000
# 5 0.000000 0.000000 0.000000 0.000000 0.039615 0.000000
# 6 0.000000 0.000000 0.000000 0.000000 0.000000 0.038236
#
#
# Mechanical properties :
#
#
# Convention : Reuss Voigt Hill
#
# Bulk Modulus (GPa) = 8.28422 21.96471 15.12447
# Shear Modulus (GPa) = 20.94860 30.89646 25.92253
#
# Velocity S-wave (km/s) = 3.19176 3.87621 3.55051
# Velocity P-wave (km/s) = 4.19663 5.54209 4.91561
#
# Compressibility (1/GPa) = 0.12071144
#
# Stress axis : x y z
#
# Youngs Moduli (GPa) = 12.80976 125.12076 54.07493
#
# Poissons Ratio (x) = 0.68251 -0.75401
# Poissons Ratio (y) = 0.06988 0.02210
# Poissons Ratio (z) = -0.17862 0.05113
#
# Static dielectric constant tensor:
#      x y z
#    x 1.746810 0.000000 0.000000 
#    y 0.000000 1.786150 0.000000 
#    z 0.000000 0.000000 1.726600 
# 
# From -- ./inp_files/8420.got.cif
#   From: 2010.05.17/outbox.cif.g08.bks.cpg/sg35_5_cif.got.tgz:8420.got - 2010.06.03 17:29:28.
