data_PCOD9349362
_publ_section_title
;
Structure prediction by ZEFSAII (Michael W. Deem and Ramdas Pophale) SiO2 
 PCOD9349362
Probable space group: C M M 2
;
_chemical_formula_sum "Si O2"
_cell_formula_units_Z 48
_cell_length_a 15.979834
_cell_length_b 8.758614
_cell_length_c 17.831351
_cell_angle_alpha 90.000000
_cell_angle_beta 90.000000
_cell_angle_gamma 90.000000
_cell_volume 2495.697244
_symmetry_space_group_name_H-M "C M M 2"
_symmetry_group_IT_number 35
_symmetry_cell_setting 'orthorhombic'
loop_
_space_group_symop_operation_xyz
x,y,z
-x,-y,z
-x,y,z
x,-y,z
1/2+x,1/2+y,z
1/2-x,1/2-y,z
1/2-x,1/2+y,z
1/2+x,1/2-y,z
loop_
_atom_site_type_symbol
_atom_site_label
_atom_site_fract_x
_atom_site_fract_y
_atom_site_fract_z
Si Si1 0.656323 0.816065 0.443920
Si Si2 0.344681 0.683533 0.070126
Si Si3 0.342852 0.182684 0.612696
Si Si4 0.842253 0.681022 0.915378
Si Si5 0.000000 0.184129 0.176028
Si Si6 0.500000 0.184871 0.342477
Si Si7 0.097871 0.168957 0.764552
O O1 0.750000 0.750000 0.432192
O O2 0.626051 0.778859 0.528868
O O3 0.584571 0.765752 0.386145
O O4 0.663589 0.000000 0.439931
O O5 0.337392 0.500000 0.067679
O O6 0.250000 0.750000 0.082335
O O7 0.414586 0.726883 0.131681
O O8 0.379958 0.742953 0.990066
O O9 0.250000 0.250000 0.614802
O O10 0.386555 0.256035 0.684136
O O11 0.342921 0.000000 0.620176
O O12 0.842732 0.500000 0.923912
O O13 0.750000 0.750000 0.915869
O O14 0.876377 0.728771 0.834759
O O15 0.000000 0.254889 0.258315
O O16 0.000000 0.000000 0.180976
O O17 0.500000 0.000000 0.342856
O O18 0.000000 0.150595 0.772146
O O19 0.139015 0.000000 0.768599
#
# Coordination Sequence:
#
# PCOD9349362 Si02
#       7
#     8   8   8   8   4   4   8
#     4   9  20  38  61  88 119 156 196 243 295 350
#     4  10  21  40  63  89 120 157 197 242 296 351
#     4  10  20  36  59  82 112 150 194 241 290 344
#     4  11  22  38  60  85 113 150 195 239 288 344
#     4  10  24  42  62  89 122 157 192 237 298 357
#     4  10  22  40  62  89 120 155 194 239 294 353
#     4  11  24  38  53  79 116 154 194 240 290 339
#
# _framework density 19.233101999999999
#
# number of rings (size 3 to 8) (size 9 to 14) (size 15 to 20)
#    0.000    1.833    0.000    4.500    2.333    4.667 
#    0.000    3.333    0.000    0.000    0.000    0.000 
#    0.000    0.000    0.000    0.000    0.000    0.000 
#
# Total GULP energy -133881.118883 kJ/mol
# GULP energy per Si atom -5578.379953 kJ/mol
# Density = 1.918933 g / cm^3
# Si number density = 19.233102 Si / 1000 Ang^3
#
#
#
# Elastic Constant Matrix: (Units=GPa)
#
#
# Indices 1 2 3 4 5 6 
#
# 1 83.0964 30.8363 77.2133 0.0000 0.0000 0.0000
# 2 30.8363 77.4316 49.9080 0.0000 0.0000 0.0000
# 3 77.2133 49.9080 167.8745 0.0000 0.0000 0.0000
# 4 0.0000 0.0000 0.0000 35.2240 0.0000 0.0000
# 5 0.0000 0.0000 0.0000 0.0000 42.7602 0.0000
# 6 0.0000 0.0000 0.0000 0.0000 0.0000 19.6945
#
#
#
# Elastic Compliance Matrix: (Units=1/GPa)
#
#
# Indices 1 2 3 4 5 6 
#
# 1 0.021464 -0.002703 -0.009069 0.000000 0.000000 0.000000
# 2 -0.002703 0.016316 -0.003608 0.000000 0.000000 0.000000
# 3 -0.009069 -0.003608 0.011201 0.000000 0.000000 0.000000
# 4 0.000000 0.000000 0.000000 0.028390 0.000000 0.000000
# 5 0.000000 0.000000 0.000000 0.000000 0.023386 0.000000
# 6 0.000000 0.000000 0.000000 0.000000 0.000000 0.050776
#
#
# Mechanical properties :
#
#
# Convention : Reuss Voigt Hill
#
# Bulk Modulus (GPa) = 54.87701 71.59085 63.23393
# Shear Modulus (GPa) = 26.54435 30.89874 28.72154
#
# Velocity S-wave (km/s) = 3.71905 4.01251 3.86857
# Velocity P-wave (km/s) = 6.85830 7.66620 7.27348
#
# Compressibility (1/GPa) = 0.01822257
#
# Stress axis : x y z
#
# Youngs Moduli (GPa) = 46.59011 61.28890 89.28171
#
# Poissons Ratio (x) = 0.16564 0.80967
# Poissons Ratio (y) = 0.12591 0.32210
# Poissons Ratio (z) = 0.42251 0.22111
#
# Static dielectric constant tensor:
#      x y z
#    x 1.635650 0.000000 0.000000 
#    y 0.000000 1.683750 0.000000 
#    z 0.000000 0.000000 1.723410 
# 
# From -- ./inp_files/15236.got.cif
#   From: 2010.05.17/outbox.cif.g08.bks.cpg/sg35_8_cif.got.tgz:15236.got - 2010.06.03 17:29:28.
