data_PCOD9349477
_publ_section_title
;
Structure prediction by ZEFSAII (Michael W. Deem and Ramdas Pophale) SiO2 
 PCOD9349477
Probable space group: C M M 2
;
_chemical_formula_sum "Si O2"
_cell_formula_units_Z 64
_cell_length_a 31.795662
_cell_length_b 8.588254
_cell_length_c 12.221467
_cell_angle_alpha 90.000000
_cell_angle_beta 90.000000
_cell_angle_gamma 90.000000
_cell_volume 3337.306477
_symmetry_space_group_name_H-M "C M M 2"
_symmetry_group_IT_number 35
_symmetry_cell_setting 'orthorhombic'
loop_
_space_group_symop_operation_xyz
x,y,z
-x,-y,z
-x,y,z
x,-y,z
1/2+x,1/2+y,z
1/2-x,1/2-y,z
1/2-x,1/2+y,z
1/2+x,1/2-y,z
loop_
_atom_site_type_symbol
_atom_site_label
_atom_site_fract_x
_atom_site_fract_y
_atom_site_fract_z
Si Si1 0.047314 0.312325 0.946240
Si Si2 0.582222 0.813648 0.708563
Si Si3 0.705088 0.312203 0.474158
Si Si4 0.873971 0.186686 0.080276
Si Si5 0.124995 0.189843 0.332021
Si Si6 0.705171 0.184767 0.945705
Si Si7 0.952528 0.188220 0.482264
Si Si8 0.676712 0.686379 0.715142
O O1 0.049327 0.500000 0.955971
O O2 0.057440 0.274408 0.819664
O O3 0.000000 0.261600 0.974489
O O4 0.083557 0.240321 0.020547
O O5 0.558421 0.757513 0.600522
O O6 0.627797 0.733683 0.712888
O O7 0.587777 0.000000 0.705291
O O8 0.705565 0.500000 0.472619
O O9 0.750000 0.250000 0.436724
O O10 0.666199 0.259644 0.399166
O O11 0.696641 0.263189 0.599670
O O12 0.873969 0.240098 0.206356
O O13 0.833770 0.251581 0.015787
O O14 0.871870 0.000000 0.077970
O O15 0.083049 0.239274 0.396331
O O16 0.125026 0.000000 0.332360
O O17 0.750000 0.250000 0.984033
O O18 0.705502 0.000000 0.951037
O O19 0.697861 0.237223 0.820436
O O20 0.000000 0.230588 0.449839
O O21 0.950275 0.000000 0.490327
O O22 0.680277 0.500000 0.724268
#
# Coordination Sequence:
#
# PCOD9349477 Si02
#       8
#     8   8   8   8   8   8   8   8
#     4  10  22  40  60  85 122 162 197 243 304 360
#     4  11  21  35  59  89 123 159 194 241 300 361
#     4  10  21  38  60  86 120 152 187 237 291 348
#     4  11  23  40  64  89 117 156 207 256 301 356
#     4   9  20  40  60  84 117 154 198 252 301 345
#     4  12  25  42  63  90 125 160 199 245 300 359
#     4  10  20  37  62  88 118 157 199 244 296 356
#     4  11  21  37  63  91 121 156 196 243 297 358
#
# _framework density 19.177140999999999
#
# number of rings (size 3 to 8) (size 9 to 14) (size 15 to 20)
#    0.000    1.500    2.500    3.000    0.000    4.500 
#    0.000    5.000    0.000    0.000    0.000    0.000 
#    0.000    0.000    0.000    0.000    0.000    0.000 
#
# Total GULP energy -178870.586198 kJ/mol
# GULP energy per Si atom -5589.705819 kJ/mol
# Density = 1.913349 g / cm^3
# Si number density = 19.177141 Si / 1000 Ang^3
#
#
#
# Elastic Constant Matrix: (Units=GPa)
#
#
# Indices 1 2 3 4 5 6 
#
# 1 187.5870 39.6946 88.0060 0.0000 0.0000 0.0000
# 2 39.6946 41.0187 36.8139 0.0000 0.0000 0.0000
# 3 88.0060 36.8139 157.5447 0.0000 0.0000 0.0000
# 4 0.0000 0.0000 0.0000 -0.8876 0.0000 0.0000
# 5 0.0000 0.0000 0.0000 0.0000 -1.2996 0.0000
# 6 0.0000 0.0000 0.0000 0.0000 0.0000 30.1385
#
#
#
# Elastic Compliance Matrix: (Units=1/GPa)
#
#
# Indices 1 2 3 4 5 6 
#
# 1 0.007866 -0.004642 -0.003309 0.000000 0.000000 0.000000
# 2 -0.004642 0.033588 -0.005256 0.000000 0.000000 0.000000
# 3 -0.003309 -0.005256 0.009424 0.000000 0.000000 0.000000
# 4 0.000000 0.000000 0.000000 -1.126582 0.000000 0.000000
# 5 0.000000 0.000000 0.000000 0.000000 -0.769456 0.000000
# 6 0.000000 0.000000 0.000000 0.000000 0.000000 0.033180
#
#
# Mechanical properties :
#
#
# Convention : Reuss Voigt Hill
#
# Bulk Modulus (GPa) = 40.87565 79.46438 60.17001
# Shear Modulus (GPa) = -2.81308 20.36597 8.77645
#
# Velocity S-wave (km/s) = -1.21247 3.26236 2.14160
# Velocity P-wave (km/s) = 4.40465 7.46442 6.12856
#
# Compressibility (1/GPa) = 0.02446444
#
# Stress axis : x y z
#
# Youngs Moduli (GPa) = 127.13673 29.77260 106.11188
#
# Poissons Ratio (x) = 0.13820 0.35114
# Poissons Ratio (y) = 0.59014 0.55769
# Poissons Ratio (z) = 0.42071 0.15647
#
# Static dielectric constant tensor:
#      x y z
#    x 1.649490 0.000000 0.000000 
#    y 0.000000 1.651840 0.000000 
#    z 0.000000 0.000000 1.648420 
# 
# From -- ./inp_files/11941.got.cif
#   From: 2010.05.17/outbox.cif.g08.bks.cpg/sg35_6_cif.got.tgz:11941.got - 2010.06.03 17:29:28.
