data_PCOD9349651
_publ_section_title
;
Structure prediction by ZEFSAII (Michael W. Deem and Ramdas Pophale) SiO2 
 PCOD9349651
Probable space group: C M M 2
;
_chemical_formula_sum "Si O2"
_cell_formula_units_Z 40
_cell_length_a 31.364050
_cell_length_b 8.553678
_cell_length_c 7.487958
_cell_angle_alpha 90.000000
_cell_angle_beta 90.000000
_cell_angle_gamma 90.000000
_cell_volume 2008.854280
_symmetry_space_group_name_H-M "C M M 2"
_symmetry_group_IT_number 35
_symmetry_cell_setting 'orthorhombic'
loop_
_space_group_symop_operation_xyz
x,y,z
-x,-y,z
-x,y,z
x,-y,z
1/2+x,1/2+y,z
1/2-x,1/2-y,z
1/2-x,1/2+y,z
1/2+x,1/2-y,z
loop_
_atom_site_type_symbol
_atom_site_label
_atom_site_fract_x
_atom_site_fract_y
_atom_site_fract_z
Si Si1 0.048785 0.188850 0.026300
Si Si2 0.387694 0.187239 0.734523
Si Si3 0.206141 0.313011 0.734138
Si Si4 0.387188 0.689080 0.331689
Si Si5 0.206507 0.186710 0.326830
O O1 0.075521 0.241006 0.199669
O O2 0.000000 0.243974 0.026620
O O3 0.048321 0.000000 0.027916
O O4 0.075171 0.243396 0.854947
O O5 0.340390 0.236929 0.804004
O O6 0.391653 0.242564 0.529818
O O7 0.389251 0.000000 0.739777
O O8 0.208118 0.500000 0.733797
O O9 0.250000 0.250000 0.816924
O O10 0.205889 0.252046 0.529520
O O11 0.388191 0.500000 0.345565
O O12 0.340187 0.732090 0.255537
O O13 0.250000 0.250000 0.241541
O O14 0.209308 0.000000 0.332021
#
# Coordination Sequence:
#
# PCOD9349651 Si02
#       5
#     8   8   8   8   8
#     4  10  22  40  60  80 104 139 185 233 276 323
#     4  10  21  36  56  84 115 145 178 221 275 328
#     4   9  16  27  46  74 107 142 178 214 256 310
#     4   9  19  36  57  81 109 143 183 225 269 319
#     4   9  15  25  45  73 105 139 174 214 260 312
#
# _framework density 19.911849
#
# number of rings (size 3 to 8) (size 9 to 14) (size 15 to 20)
#    0.000    2.600    0.000    3.000    0.000    5.200 
#    0.000    3.000    0.000    4.800    0.000    0.000 
#    0.000    0.000    0.000    0.000    0.000    0.000 
#
# Total GULP energy -111540.156287 kJ/mol
# GULP energy per Si atom -5577.007814 kJ/mol
# Density = 1.986653 g / cm^3
# Si number density = 19.911849 Si / 1000 Ang^3
#
#
#
# Elastic Constant Matrix: (Units=GPa)
#
#
# Indices 1 2 3 4 5 6 
#
# 1 246.5475 43.2203 79.3493 0.0000 0.0000 0.0000
# 2 43.2203 24.0703 11.5350 0.0000 0.0000 0.0000
# 3 79.3493 11.5350 90.9128 0.0000 0.0000 0.0000
# 4 0.0000 0.0000 0.0000 83.7611 0.0000 0.0000
# 5 0.0000 0.0000 0.0000 0.0000 40.6905 0.0000
# 6 0.0000 0.0000 0.0000 0.0000 0.0000 26.9271
#
#
#
# Elastic Compliance Matrix: (Units=1/GPa)
#
#
# Indices 1 2 3 4 5 6 
#
# 1 0.007772 -0.011397 -0.005337 0.000000 0.000000 0.000000
# 2 -0.011397 0.060948 0.002214 0.000000 0.000000 0.000000
# 3 -0.005337 0.002214 0.015377 0.000000 0.000000 0.000000
# 4 0.000000 0.000000 0.000000 0.011939 0.000000 0.000000
# 5 0.000000 0.000000 0.000000 0.000000 0.024576 0.000000
# 6 0.000000 0.000000 0.000000 0.000000 0.000000 0.037137
#
#
# Mechanical properties :
#
#
# Convention : Reuss Voigt Hill
#
# Bulk Modulus (GPa) = 18.16297 69.97109 44.06703
# Shear Modulus (GPa) = 24.37356 45.43748 34.90552
#
# Velocity S-wave (km/s) = 3.50247 4.78214 4.19143
# Velocity P-wave (km/s) = 5.04954 8.10608 6.75302
#
# Compressibility (1/GPa) = 0.05505707
#
# Stress axis : x y z
#
# Youngs Moduli (GPa) = 128.67314 16.40739 65.03286
#
# Poissons Ratio (x) = 0.18700 0.34709
# Poissons Ratio (y) = 1.46649 -0.14400
# Poissons Ratio (z) = 0.68674 -0.03633
#
# Static dielectric constant tensor:
#      x y z
#    x 1.752670 0.000000 0.000000 
#    y 0.000000 1.673500 0.000000 
#    z 0.000000 0.000000 1.705480 
# 
# From -- ./inp_files/5117.got.cif
#   From: 2010.05.17/outbox.cif.g08.bks.cpg/sg35_3_cif.got.tgz:5117.got - 2010.06.03 17:29:28.
