data_PCOD9349652
_publ_section_title
;
Structure prediction by ZEFSAII (Michael W. Deem and Ramdas Pophale) SiO2 
 PCOD9349652
Probable space group: C M M 2
;
_chemical_formula_sum "Si O2"
_cell_formula_units_Z 48
_cell_length_a 28.731660
_cell_length_b 8.691947
_cell_length_c 10.487609
_cell_angle_alpha 90.000000
_cell_angle_beta 90.000000
_cell_angle_gamma 90.000000
_cell_volume 2619.113238
_symmetry_space_group_name_H-M "C M M 2"
_symmetry_group_IT_number 35
_symmetry_cell_setting 'orthorhombic'
loop_
_space_group_symop_operation_xyz
x,y,z
-x,-y,z
-x,y,z
x,-y,z
1/2+x,1/2+y,z
1/2-x,1/2-y,z
1/2-x,1/2+y,z
1/2+x,1/2-y,z
loop_
_atom_site_type_symbol
_atom_site_label
_atom_site_fract_x
_atom_site_fract_y
_atom_site_fract_z
Si Si1 0.554857 0.316344 0.371360
Si Si2 0.108769 0.683194 0.610774
Si Si3 0.554165 0.814060 0.867168
Si Si4 0.800071 0.183315 0.502448
Si Si5 0.699675 0.183747 0.218602
Si Si6 0.391974 0.684159 0.110128
O O1 0.500000 0.285121 0.365856
O O2 0.561514 0.500000 0.391137
O O3 0.578570 0.228374 0.487517
O O4 0.578881 0.276031 0.237580
O O5 0.115815 0.500000 0.613381
O O6 0.080809 0.729567 0.737385
O O7 0.158396 0.764812 0.593918
O O8 0.500000 0.766521 0.863398
O O9 0.555268 0.000000 0.876439
O O10 0.580501 0.743526 0.987652
O O11 0.750000 0.250000 0.541685
O O12 0.809969 0.250658 0.360916
O O13 0.797776 0.000000 0.493015
O O14 0.750000 0.250000 0.180696
O O15 0.658501 0.239935 0.127485
O O16 0.701481 0.000000 0.224811
O O17 0.387215 0.500000 0.105178
#
# Coordination Sequence:
#
# PCOD9349652 Si02
#       6
#     8   8   8   8   8   8
#     4  10  21  36  56  84 117 151 194 249 299 350
#     4  11  22  38  60  87 118 157 201 247 298 354
#     4  10  23  42  61  84 119 162 205 248 298 357
#     4  11  21  36  59  89 122 156 195 243 297 356
#     4  11  21  36  60  90 122 157 195 242 297 354
#     4  11  22  38  60  88 120 157 200 247 297 353
#
# _framework density 18.326812
#
# number of rings (size 3 to 8) (size 9 to 14) (size 15 to 20)
#    0.000    1.333    1.667    6.000    0.000    4.000 
#    0.000    0.833    0.000    4.000    0.000    0.000 
#    0.000    0.000    0.000    0.000    0.000    0.000 
#
# Total GULP energy -134179.294762 kJ/mol
# GULP energy per Si atom -5590.803948 kJ/mol
# Density = 1.828510 g / cm^3
# Si number density = 18.326812 Si / 1000 Ang^3
#
#
#
# Elastic Constant Matrix: (Units=GPa)
#
#
# Indices 1 2 3 4 5 6 
#
# 1 171.1262 74.4931 87.4298 0.0000 0.0000 0.0000
# 2 74.4931 97.0614 62.9328 0.0000 0.0000 0.0000
# 3 87.4298 62.9328 133.8273 0.0000 0.0000 0.0000
# 4 0.0000 0.0000 0.0000 28.5767 0.0000 0.0000
# 5 0.0000 0.0000 0.0000 0.0000 33.4406 0.0000
# 6 0.0000 0.0000 0.0000 0.0000 0.0000 32.9729
#
#
#
# Elastic Compliance Matrix: (Units=1/GPa)
#
#
# Indices 1 2 3 4 5 6 
#
# 1 0.010257 -0.005075 -0.004315 0.000000 0.000000 0.000000
# 2 -0.005075 0.017333 -0.004836 0.000000 0.000000 0.000000
# 3 -0.004315 -0.004836 0.012565 0.000000 0.000000 0.000000
# 4 0.000000 0.000000 0.000000 0.034994 0.000000 0.000000
# 5 0.000000 0.000000 0.000000 0.000000 0.029904 0.000000
# 6 0.000000 0.000000 0.000000 0.000000 0.000000 0.030328
#
#
# Mechanical properties :
#
#
# Convention : Reuss Voigt Hill
#
# Bulk Modulus (GPa) = 85.43159 94.63626 90.03392
# Shear Modulus (GPa) = 29.80959 30.80864 30.30912
#
# Velocity S-wave (km/s) = 4.03743 4.10453 4.07112
# Velocity P-wave (km/s) = 8.27353 8.61471 8.44584
#
# Compressibility (1/GPa) = 0.01170527
#
# Stress axis : x y z
#
# Youngs Moduli (GPa) = 97.49405 57.69444 79.58625
#
# Poissons Ratio (x) = 0.29278 0.34338
# Poissons Ratio (y) = 0.49474 0.38484
# Poissons Ratio (z) = 0.42065 0.27898
#
# Static dielectric constant tensor:
#      x y z
#    x 1.628360 0.000000 0.000000 
#    y 0.000000 1.610950 0.000000 
#    z 0.000000 0.000000 1.596170 
# 
# From -- ./inp_files/10470.got.cif
#   From: 2010.05.17/outbox.cif.g08.bks.cpg/sg35_6_cif.got.tgz:10470.got - 2010.06.03 17:29:28.
