data_PCOD9349345
_publ_section_title
;
Structure prediction by ZEFSAII (Michael W. Deem and Ramdas Pophale) SiO2 
 PCOD9349345
Probable space group: C M M 2
;
_chemical_formula_sum "Si O2"
_cell_formula_units_Z 48
_cell_length_a 9.987255
_cell_length_b 15.370468
_cell_length_c 17.301514
_cell_angle_alpha 90.000000
_cell_angle_beta 90.000000
_cell_angle_gamma 90.000000
_cell_volume 2655.934365
_symmetry_space_group_name_H-M "C M M 2"
_symmetry_group_IT_number 35
_symmetry_cell_setting 'orthorhombic'
loop_
_space_group_symop_operation_xyz
x,y,z
-x,-y,z
-x,y,z
x,-y,z
1/2+x,1/2+y,z
1/2-x,1/2-y,z
1/2-x,1/2+y,z
1/2+x,1/2-y,z
loop_
_atom_site_type_symbol
_atom_site_label
_atom_site_fract_x
_atom_site_fract_y
_atom_site_fract_z
Si Si1 0.654415 0.106482 0.206720
Si Si2 0.158312 0.169858 0.895531
Si Si3 0.337297 0.100315 0.376524
Si Si4 0.654974 0.394861 0.067819
Si Si5 0.341716 0.827262 0.541255
Si Si6 0.842237 0.000000 0.791627
Si Si7 0.155298 0.500000 0.643222
O O1 0.500000 0.133369 0.195543
O O2 0.703950 0.133874 0.291993
O O3 0.747776 0.134095 0.136395
O O4 0.654799 0.000000 0.208644
O O5 0.250000 0.250000 0.871433
O O6 0.183600 0.085191 0.843460
O O7 0.000000 0.190534 0.890152
O O8 0.187483 0.145844 0.984846
O O9 0.500000 0.098475 0.374752
O O10 0.299457 0.152216 0.452852
O O11 0.292710 0.000000 0.385011
O O12 0.500000 0.375335 0.086254
O O13 0.665837 0.500000 0.060345
O O14 0.500000 0.805177 0.541964
O O15 0.250000 0.750000 0.571963
O O16 0.324746 0.914861 0.590525
O O17 0.752574 0.000000 0.715800
O O18 0.000000 0.000000 0.771726
O O19 0.000000 0.500000 0.668772
#
# Coordination Sequence:
#
# PCOD9349345 Si02
#       7
#     8   8   8   8   8   4   4
#     4   8  14  24  44  75 104 135 182 229 265 305
#     4  10  21  38  59  83 110 145 183 221 268 325
#     4   8  13  27  51  74 101 142 185 222 262 313
#     4   9  16  30  51  73 104 144 181 218 267 320
#     4  10  20  36  58  83 111 145 183 223 268 321
#     4  10  22  42  64  83 110 144 176 217 276 332
#     4  10  22  40  62  85 110 142 180 219 268 330
#
# _framework density 18.072737
#
# number of rings (size 3 to 8) (size 9 to 14) (size 15 to 20)
#    0.000    2.833    1.667    1.000    0.000    2.667 
#    0.000    5.000    0.000    5.000    0.000    0.000 
#    0.000    0.000    0.000    0.000    0.000    0.000 
#
# Total GULP energy -133836.751849 kJ/mol
# GULP energy per Si atom -5576.531327 kJ/mol
# Density = 1.803160 g / cm^3
# Si number density = 18.072737 Si / 1000 Ang^3
#
#
#
# Elastic Constant Matrix: (Units=GPa)
#
#
# Indices 1 2 3 4 5 6 
#
# 1 68.6041 62.3700 73.3063 0.0000 0.0000 0.0000
# 2 62.3700 93.1889 45.4299 0.0000 0.0000 0.0000
# 3 73.3063 45.4299 119.4612 0.0000 0.0000 0.0000
# 4 0.0000 0.0000 0.0000 -7.6469 0.0000 0.0000
# 5 0.0000 0.0000 0.0000 0.0000 32.8773 0.0000
# 6 0.0000 0.0000 0.0000 0.0000 0.0000 24.3967
#
#
#
# Elastic Compliance Matrix: (Units=1/GPa)
#
#
# Indices 1 2 3 4 5 6 
#
# 1 0.125819 -0.057168 -0.055467 0.000000 0.000000 0.000000
# 2 -0.057168 0.039149 0.020193 0.000000 0.000000 0.000000
# 3 -0.055467 0.020193 0.034729 0.000000 0.000000 0.000000
# 4 0.000000 0.000000 0.000000 -0.130772 0.000000 0.000000
# 5 0.000000 0.000000 0.000000 0.000000 0.030416 0.000000
# 6 0.000000 0.000000 0.000000 0.000000 0.000000 0.040989
#
#
# Mechanical properties :
#
#
# Convention : Reuss Voigt Hill
#
# Bulk Modulus (GPa) = 67.51612 71.49630 69.50621
# Shear Modulus (GPa) = 15.14462 16.60196 15.87329
#
# Velocity S-wave (km/s) = 2.89793 3.03416 2.96683
# Velocity P-wave (km/s) = 6.97398 7.20562 7.09075
#
# Compressibility (1/GPa) = 0.01481128
#
# Stress axis : x y z
#
# Youngs Moduli (GPa) = 7.94795 25.54366 28.79476
#
# Poissons Ratio (x) = 1.46029 1.59716
# Poissons Ratio (y) = 0.45437 -0.58145
# Poissons Ratio (z) = 0.44085 -0.51580
#
# Static dielectric constant tensor:
#      x y z
#    x 1.596640 0.000000 0.000000 
#    y 0.000000 1.630750 0.000000 
#    z 0.000000 0.000000 1.615820 
# 
# From -- ./inp_files/16718.got.cif
#   From: 2010.05.17/outbox.cif.g08.bks.cpg/sg35_9_cif.got.tgz:16718.got - 2010.06.03 17:29:28.
