data_PCOD9349166
_publ_section_title
;
Structure prediction by ZEFSAII (Michael W. Deem and Ramdas Pophale) SiO2 
 PCOD9349166
Probable space group: C M M 2
;
_chemical_formula_sum "Si O2"
_cell_formula_units_Z 56
_cell_length_a 21.880681
_cell_length_b 8.526354
_cell_length_c 14.644576
_cell_angle_alpha 90.000000
_cell_angle_beta 90.000000
_cell_angle_gamma 90.000000
_cell_volume 2732.127714
_symmetry_space_group_name_H-M "C M M 2"
_symmetry_group_IT_number 35
_symmetry_cell_setting 'orthorhombic'
loop_
_space_group_symop_operation_xyz
x,y,z
-x,-y,z
-x,y,z
x,-y,z
1/2+x,1/2+y,z
1/2-x,1/2-y,z
1/2-x,1/2+y,z
1/2+x,1/2-y,z
loop_
_atom_site_type_symbol
_atom_site_label
_atom_site_fract_x
_atom_site_fract_y
_atom_site_fract_z
Si Si1 0.685657 0.310577 0.674030
Si Si2 0.369220 0.688160 0.857571
Si Si3 0.567382 0.310307 0.561061
Si Si4 0.814269 0.686882 0.243009
Si Si5 0.500000 0.177809 0.849349
Si Si6 0.067450 0.310348 0.354106
Si Si7 0.500000 0.821917 0.070883
Si Si8 0.868315 0.812651 0.065294
O O1 0.686252 0.500000 0.672885
O O2 0.750000 0.250000 0.637531
O O3 0.676163 0.256332 0.778840
O O4 0.626075 0.257012 0.618108
O O5 0.366775 0.500000 0.861266
O O6 0.437494 0.734781 0.826322
O O7 0.358346 0.745281 0.961003
O O8 0.500000 0.261811 0.597080
O O9 0.568310 0.500000 0.560352
O O10 0.571957 0.249300 0.457724
O O11 0.813640 0.500000 0.247335
O O12 0.750000 0.750000 0.279257
O O13 0.873983 0.745714 0.297503
O O14 0.823214 0.739543 0.138610
O O15 0.500000 0.000000 0.815040
O O16 0.500000 0.171822 0.960293
O O17 0.068648 0.500000 0.354034
O O18 0.000000 0.262131 0.318303
O O19 0.562957 0.736735 0.094126
O O20 0.500000 0.000000 0.107158
O O21 0.863349 0.000000 0.066368
#
# Coordination Sequence:
#
# PCOD9349166 Si02
#       8
#     8   8   8   8   4   8   4   8
#     4  10  22  38  57  83 116 155 194 235 286 341
#     4   9  19  35  55  78 112 157 196 236 285 339
#     4   9  19  37  62  89 113 144 187 233 284 343
#     4  11  24  40  59  84 117 157 195 238 293 351
#     4   9  17  29  49  79 108 139 186 241 287 330
#     4   9  20  40  64  88 113 146 186 232 292 350
#     4   9  17  31  51  77 110 147 188 235 291 342
#     4  10  20  35  55  83 115 151 200 246 288 339
#
# _framework density 20.496846000000001
#
# number of rings (size 3 to 8) (size 9 to 14) (size 15 to 20)
#    0.000    2.429    0.000    1.286    2.000    5.714 
#    0.000    4.286    0.000    0.000    0.000    0.000 
#    0.000    0.000    0.000    0.000    0.000    0.000 
#
# Total GULP energy -156291.694239 kJ/mol
# GULP energy per Si atom -5581.846223 kJ/mol
# Density = 2.045019 g / cm^3
# Si number density = 20.496846 Si / 1000 Ang^3
#
#
#
# Elastic Constant Matrix: (Units=GPa)
#
#
# Indices 1 2 3 4 5 6 
#
# 1 175.2845 19.5904 71.3903 0.0000 0.0000 0.0000
# 2 19.5904 15.2337 9.6445 0.0000 0.0000 0.0000
# 3 71.3903 9.6445 74.5923 0.0000 0.0000 0.0000
# 4 0.0000 0.0000 0.0000 19.6414 0.0000 0.0000
# 5 0.0000 0.0000 0.0000 0.0000 69.2378 0.0000
# 6 0.0000 0.0000 0.0000 0.0000 0.0000 29.2527
#
#
#
# Elastic Compliance Matrix: (Units=1/GPa)
#
#
# Indices 1 2 3 4 5 6 
#
# 1 0.010072 -0.007460 -0.008675 0.000000 0.000000 0.000000
# 2 -0.007460 0.077022 -0.002819 0.000000 0.000000 0.000000
# 3 -0.008675 -0.002819 0.022073 0.000000 0.000000 0.000000
# 4 0.000000 0.000000 0.000000 0.050913 0.000000 0.000000
# 5 0.000000 0.000000 0.000000 0.000000 0.014443 0.000000
# 6 0.000000 0.000000 0.000000 0.000000 0.000000 0.034185
#
#
# Mechanical properties :
#
#
# Convention : Reuss Voigt Hill
#
# Bulk Modulus (GPa) = 14.03319 51.81786 32.92553
# Shear Modulus (GPa) = 18.49321 34.59207 26.54264
#
# Velocity S-wave (km/s) = 3.00700 4.11259 3.60246
# Velocity P-wave (km/s) = 4.34942 6.92004 5.77947
#
# Compressibility (1/GPa) = 0.07125965
#
# Stress axis : x y z
#
# Youngs Moduli (GPa) = 99.28517 12.98325 45.30356
#
# Poissons Ratio (x) = 0.09686 0.39301
# Poissons Ratio (y) = 0.74069 0.12769
# Poissons Ratio (z) = 0.86130 0.03660
#
# Static dielectric constant tensor:
#      x y z
#    x 1.725850 0.000000 0.000000 
#    y 0.000000 1.701290 0.000000 
#    z 0.000000 0.000000 1.745700 
# 
# From -- ./inp_files/15692.got.cif
#   From: 2010.05.17/outbox.cif.g08.bks.cpg/sg35_8_cif.got.tgz:15692.got - 2010.06.03 17:29:28.
