data_PCOD9349461
_publ_section_title
;
Structure prediction by ZEFSAII (Michael W. Deem and Ramdas Pophale) SiO2 
 PCOD9349461
Probable space group: C M M 2
;
_chemical_formula_sum "Si O2"
_cell_formula_units_Z 48
_cell_length_a 15.503602
_cell_length_b 17.070009
_cell_length_c 8.315633
_cell_angle_alpha 90.000000
_cell_angle_beta 90.000000
_cell_angle_gamma 90.000000
_cell_volume 2200.704214
_symmetry_space_group_name_H-M "C M M 2"
_symmetry_group_IT_number 35
_symmetry_cell_setting 'orthorhombic'
loop_
_space_group_symop_operation_xyz
x,y,z
-x,-y,z
-x,y,z
x,-y,z
1/2+x,1/2+y,z
1/2-x,1/2-y,z
1/2-x,1/2+y,z
1/2+x,1/2-y,z
loop_
_atom_site_type_symbol
_atom_site_label
_atom_site_fract_x
_atom_site_fract_y
_atom_site_fract_z
Si Si1 0.156410 0.085455 0.688630
Si Si2 0.400412 0.295118 0.149120
Si Si3 0.599484 0.251278 0.790998
Si Si4 0.097589 0.615839 0.193125
Si Si5 0.279228 0.416287 0.327692
Si Si6 0.164841 0.412428 0.829464
O O1 0.107357 0.168045 0.693496
O O2 0.203109 0.085900 0.516620
O O3 0.231495 0.086066 0.823023
O O4 0.110823 0.000000 0.702584
O O5 0.500000 0.325895 0.145608
O O6 0.403823 0.208855 0.223517
O O7 0.333052 0.349244 0.239759
O O8 0.369579 0.277354 0.967876
O O9 0.500000 0.230352 0.809654
O O10 0.642666 0.169501 0.739012
O O11 0.177585 0.586476 0.295790
O O12 0.000000 0.587522 0.221142
O O13 0.124155 0.598205 0.007126
O O14 0.311917 0.500000 0.264292
O O15 0.137513 0.500000 0.770182
#
# Coordination Sequence:
#
# PCOD9349461 Si02
#       6
#     8   8   8   8   8   8
#     4  10  23  40  56  81 118 159 200 240 288 345
#     4   9  20  38  59  86 116 148 193 243 289 343
#     4  10  21  37  59  87 117 151 193 242 294 346
#     4  10  21  38  61  87 115 150 192 238 291 351
#     4  11  23  38  58  85 119 156 193 240 295 347
#     4  10  20  37  61  86 115 150 191 239 289 348
#
# _framework density 21.811198999999998
#
# number of rings (size 3 to 8) (size 9 to 14) (size 15 to 20)
#    0.000    2.000    0.000    4.000    0.000   11.000 
#    0.000    6.667    0.000    6.000    0.000    0.000 
#    0.000    0.000    0.000    0.000    0.000    0.000 
#
# Total GULP energy -133761.296711 kJ/mol
# GULP energy per Si atom -5573.387363 kJ/mol
# Density = 2.176156 g / cm^3
# Si number density = 21.811199 Si / 1000 Ang^3
#
#
#
# Elastic Constant Matrix: (Units=GPa)
#
#
# Indices 1 2 3 4 5 6 
#
# 1 69.8268 45.5031 21.8536 0.0000 0.0000 0.0000
# 2 45.5031 185.3435 24.5590 0.0000 0.0000 0.0000
# 3 21.8536 24.5590 21.3362 0.0000 0.0000 0.0000
# 4 0.0000 0.0000 0.0000 -2.9763 0.0000 0.0000
# 5 0.0000 0.0000 0.0000 0.0000 4.8938 0.0000
# 6 0.0000 0.0000 0.0000 0.0000 0.0000 -135.8186
#
#
#
# Elastic Compliance Matrix: (Units=1/GPa)
#
#
# Indices 1 2 3 4 5 6 
#
# 1 0.022318 -0.002891 -0.019531 0.000000 0.000000 0.000000
# 2 -0.002891 0.006741 -0.004798 0.000000 0.000000 0.000000
# 3 -0.019531 -0.004798 0.072396 0.000000 0.000000 0.000000
# 4 0.000000 0.000000 0.000000 -0.335982 0.000000 0.000000
# 5 0.000000 0.000000 0.000000 0.000000 0.204340 0.000000
# 6 0.000000 0.000000 0.000000 0.000000 0.000000 -0.007363
#
#
# Mechanical properties :
#
#
# Convention : Reuss Voigt Hill
#
# Bulk Modulus (GPa) = 21.27010 51.14866 36.20938
# Shear Modulus (GPa) = 153.55580 -14.47418 69.54081
#
# Velocity S-wave (km/s) = 8.39971 -2.57886 5.65264
# Velocity P-wave (km/s) = 10.19051 3.82546 7.69678
#
# Compressibility (1/GPa) = 0.04701436
#
# Stress axis : x y z
#
# Youngs Moduli (GPa) = 44.80720 148.34739 13.81297
#
# Poissons Ratio (x) = 0.42890 0.26978
# Poissons Ratio (y) = 0.12955 0.06627
# Poissons Ratio (z) = 0.87513 0.71174
#
# Static dielectric constant tensor:
#      x y z
#    x 1.773980 0.000000 0.000000 
#    y 0.000000 1.893220 0.000000 
#    z 0.000000 0.000000 1.794050 
# 
# From -- ./inp_files/7295.got.cif
#   From: 2010.05.17/outbox.cif.g08.bks.cpg/sg35_4_cif.got.tgz:7295.got - 2010.06.03 17:29:28.
