data_PCOD9349547
_publ_section_title
;
Structure prediction by ZEFSAII (Michael W. Deem and Ramdas Pophale) SiO2 
 PCOD9349547
Probable space group: C M M 2
;
_chemical_formula_sum "Si O2"
_cell_formula_units_Z 40
_cell_length_a 23.520738
_cell_length_b 8.633627
_cell_length_c 10.362093
_cell_angle_alpha 90.000000
_cell_angle_beta 90.000000
_cell_angle_gamma 90.000000
_cell_volume 2104.222751
_symmetry_space_group_name_H-M "C M M 2"
_symmetry_group_IT_number 35
_symmetry_cell_setting 'orthorhombic'
loop_
_space_group_symop_operation_xyz
x,y,z
-x,-y,z
-x,y,z
x,-y,z
1/2+x,1/2+y,z
1/2-x,1/2-y,z
1/2-x,1/2+y,z
1/2+x,1/2-y,z
loop_
_atom_site_type_symbol
_atom_site_label
_atom_site_fract_x
_atom_site_fract_y
_atom_site_fract_z
Si Si1 0.500000 0.815136 0.834350
Si Si2 0.879826 0.812534 0.413944
Si Si3 0.187541 0.814140 0.667897
Si Si4 0.881490 0.186511 0.921339
Si Si5 0.500000 0.312796 0.539716
Si Si6 0.314292 0.184924 0.167442
O O1 0.444685 0.752612 0.908742
O O2 0.500000 0.754882 0.685101
O O3 0.500000 0.000000 0.832115
O O4 0.839957 0.765036 0.533381
O O5 0.943647 0.770492 0.458808
O O6 0.853985 0.737993 0.286247
O O7 0.878204 0.000000 0.399998
O O8 0.250000 0.750000 0.683253
O O9 0.148995 0.767084 0.787967
O O10 0.189274 0.000000 0.667301
O O11 0.883600 0.000000 0.929481
O O12 0.844469 0.250967 0.038869
O O13 0.500000 0.500000 0.555508
O O14 0.250000 0.250000 0.180626
O O15 0.311024 0.000000 0.162595
#
# Coordination Sequence:
#
# PCOD9349547 Si02
#       6
#     4   8   8   8   4   8
#     4  12  24  39  64  99 134 166 208 266 322 379
#     4  10  21  40  65  93 124 168 215 261 318 382
#     4  10  21  36  60  90 121 158 210 262 313 375
#     4  11  23  43  67  91 124 172 216 262 320 381
#     4  10  20  41  68  93 128 168 214 262 316 383
#     4  12  26  44  64  93 131 171 215 267 323 386
#
# _framework density 19.009395000000001
#
# number of rings (size 3 to 8) (size 9 to 14) (size 15 to 20)
#    0.000    1.200    2.000    4.500    0.000    7.200 
#    0.000    3.000    0.000    0.000    0.000    0.000 
#    0.000    0.000    0.000    0.000    0.000    0.000 
#
# Total GULP energy -111807.208733 kJ/mol
# GULP energy per Si atom -5590.360437 kJ/mol
# Density = 1.896613 g / cm^3
# Si number density = 19.009395 Si / 1000 Ang^3
#
#
#
# Elastic Constant Matrix: (Units=GPa)
#
#
# Indices 1 2 3 4 5 6 
#
# 1 107.0286 31.5104 0.3464 0.0000 0.0000 0.0000
# 2 31.5104 70.6728 31.0170 0.0000 0.0000 0.0000
# 3 0.3464 31.0170 78.1724 0.0000 0.0000 0.0000
# 4 0.0000 0.0000 0.0000 23.3785 0.0000 0.0000
# 5 0.0000 0.0000 0.0000 0.0000 34.3310 0.0000
# 6 0.0000 0.0000 0.0000 0.0000 0.0000 -1.4665
#
#
#
# Elastic Compliance Matrix: (Units=1/GPa)
#
#
# Indices 1 2 3 4 5 6 
#
# 1 0.011091 -0.005962 0.002316 0.000000 0.000000 0.000000
# 2 -0.005962 0.020338 -0.008043 0.000000 0.000000 0.000000
# 3 0.002316 -0.008043 0.015973 0.000000 0.000000 0.000000
# 4 0.000000 0.000000 0.000000 0.042774 0.000000 0.000000
# 5 0.000000 0.000000 0.000000 0.000000 0.029128 0.000000
# 6 0.000000 0.000000 0.000000 0.000000 0.000000 -0.681913
#
#
# Mechanical properties :
#
#
# Convention : Reuss Voigt Hill
#
# Bulk Modulus (GPa) = 41.62318 42.40240 42.01279
# Shear Modulus (GPa) = -9.41225 24.11526 7.35151
#
# Velocity S-wave (km/s) = -2.22758 3.56560 1.96868
# Velocity P-wave (km/s) = 3.91503 6.26943 5.22653
#
# Compressibility (1/GPa) = 0.02402507
#
# Stress axis : x y z
#
# Youngs Moduli (GPa) = 90.16338 49.16952 62.60441
#
# Poissons Ratio (x) = 0.29313 -0.14501
# Poissons Ratio (y) = 0.53752 0.50354
# Poissons Ratio (z) = -0.20885 0.39548
#
# Static dielectric constant tensor:
#      x y z
#    x 1.610330 0.000000 0.000000 
#    y 0.000000 1.645320 0.000000 
#    z 0.000000 0.000000 1.632060 
# 
# From -- ./inp_files/9667.got.cif
#   From: 2010.05.17/outbox.cif.g08.bks.cpg/sg35_5_cif.got.tgz:9667.got - 2010.06.03 17:29:28.
