data_PCOD9349565
_publ_section_title
;
Structure prediction by ZEFSAII (Michael W. Deem and Ramdas Pophale) SiO2 
 PCOD9349565
Probable space group: C M M 2
;
_chemical_formula_sum "Si O2"
_cell_formula_units_Z 64
_cell_length_a 17.536832
_cell_length_b 14.135502
_cell_length_c 15.919526
_cell_angle_alpha 90.000000
_cell_angle_beta 90.000000
_cell_angle_gamma 90.000000
_cell_volume 3946.321926
_symmetry_space_group_name_H-M "C M M 2"
_symmetry_group_IT_number 35
_symmetry_cell_setting 'orthorhombic'
loop_
_space_group_symop_operation_xyz
x,y,z
-x,-y,z
-x,y,z
x,-y,z
1/2+x,1/2+y,z
1/2-x,1/2-y,z
1/2-x,1/2+y,z
1/2+x,1/2-y,z
loop_
_atom_site_type_symbol
_atom_site_label
_atom_site_fract_x
_atom_site_fract_y
_atom_site_fract_z
Si Si1 0.911928 0.609009 0.777400
Si Si2 0.838270 0.775834 0.687672
Si Si3 0.592531 0.389318 0.347636
Si Si4 0.585182 0.610860 0.831432
Si Si5 0.647401 0.309679 0.992592
Si Si6 0.091478 0.886695 0.532904
Si Si7 0.410843 0.614282 0.165327
Si Si8 0.812497 0.389180 0.946000
O O1 0.908093 0.500000 0.750043
O O2 0.886976 0.681524 0.705974
O O3 0.852450 0.619597 0.854658
O O4 0.000000 0.627720 0.804043
O O5 0.750000 0.750000 0.682848
O O6 0.855837 0.840802 0.768765
O O7 0.866480 0.831003 0.605953
O O8 0.500000 0.386558 0.345639
O O9 0.613955 0.500000 0.348653
O O10 0.615116 0.352044 0.439240
O O11 0.617401 0.350301 0.256954
O O12 0.500000 0.621887 0.794767
O O13 0.600992 0.500000 0.840266
O O14 0.587266 0.657993 0.922799
O O15 0.724763 0.355680 0.953414
O O16 0.648648 0.195892 0.997940
O O17 0.633685 0.350291 0.084477
O O18 0.000000 0.874516 0.540921
O O19 0.105572 0.000000 0.539231
O O20 0.500000 0.640578 0.155618
O O21 0.407870 0.500000 0.166940
O O22 0.819547 0.500000 0.970779
#
# Coordination Sequence:
#
# PCOD9349565 Si02
#       8
#     8   8   8   8   8   8   8   8
#     4  10  21  37  53  66  88 131 181 217 239 274
#     4  12  23  33  48  72 101 133 162 203 253 307
#     4   7  12  25  47  75 102 127 157 195 245 301
#     4  11  22  34  50  74 102 131 165 207 255 303
#     4  11  20  31  50  74 102 136 166 202 254 301
#     4   9  17  32  55  79 102 128 160 203 254 305
#     4   9  16  27  47  77 108 133 160 200 249 302
#     4  10  21  35  49  67  97 134 175 211 244 289
#
# _framework density 16.217632999999999
#
# number of rings (size 3 to 8) (size 9 to 14) (size 15 to 20)
#    0.000    2.125    1.250    5.250    0.000    4.500 
#    0.000    0.000    2.750    0.000    0.000    0.875 
#    0.000    3.000    0.000    0.000    0.000    0.000 
#
# Total GULP energy -178198.837322 kJ/mol
# GULP energy per Si atom -5568.713666 kJ/mol
# Density = 1.618072 g / cm^3
# Si number density = 16.217633 Si / 1000 Ang^3
#
#
#
# Elastic Constant Matrix: (Units=GPa)
#
#
# Indices 1 2 3 4 5 6 
#
# 1 67.2440 34.5809 47.9827 0.0000 0.0000 0.0000
# 2 34.5809 86.7661 43.4091 0.0000 0.0000 0.0000
# 3 47.9827 43.4091 137.1508 0.0000 0.0000 0.0000
# 4 0.0000 0.0000 0.0000 2.5662 0.0000 0.0000
# 5 0.0000 0.0000 0.0000 0.0000 -3.5016 0.0000
# 6 0.0000 0.0000 0.0000 0.0000 0.0000 18.0114
#
#
#
# Elastic Compliance Matrix: (Units=1/GPa)
#
#
# Indices 1 2 3 4 5 6 
#
# 1 0.022072 -0.005862 -0.005867 0.000000 0.000000 0.000000
# 2 -0.005862 0.015250 -0.002776 0.000000 0.000000 0.000000
# 3 -0.005867 -0.002776 0.010222 0.000000 0.000000 0.000000
# 4 0.000000 0.000000 0.000000 0.389677 0.000000 0.000000
# 5 0.000000 0.000000 0.000000 0.000000 -0.285587 0.000000
# 6 0.000000 0.000000 0.000000 0.000000 0.000000 0.055521
#
#
# Mechanical properties :
#
#
# Convention : Reuss Voigt Hill
#
# Bulk Modulus (GPa) = 53.95006 60.34511 57.14759
# Shear Modulus (GPa) = 20.63203 14.42776 17.52989
#
# Velocity S-wave (km/s) = 3.57066 2.98591 3.29129
# Velocity P-wave (km/s) = 7.09493 7.01269 7.05393
#
# Compressibility (1/GPa) = 0.01853566
#
# Stress axis : x y z
#
# Youngs Moduli (GPa) = 45.30651 65.57239 97.82481
#
# Poissons Ratio (x) = 0.38437 0.57390
# Poissons Ratio (y) = 0.26557 0.27157
# Poissons Ratio (z) = 0.26580 0.18203
#
# Static dielectric constant tensor:
#      x y z
#    x 1.583810 0.000000 0.000000 
#    y 0.000000 1.555150 0.000000 
#    z 0.000000 0.000000 1.553530 
# 
# From -- ./inp_files/16914.got.cif
#   From: 2010.05.17/outbox.cif.g08.bks.cpg/sg35_9_cif.got.tgz:16914.got - 2010.06.03 17:29:28.
