data_PCOD9349228
_publ_section_title
;
Structure prediction by ZEFSAII (Michael W. Deem and Ramdas Pophale) SiO2 
 PCOD9349228
Probable space group: C M M 2
;
_chemical_formula_sum "Si O2"
_cell_formula_units_Z 56
_cell_length_a 14.946945
_cell_length_b 15.316147
_cell_length_c 11.966609
_cell_angle_alpha 90.000000
_cell_angle_beta 90.000000
_cell_angle_gamma 90.000000
_cell_volume 2739.511093
_symmetry_space_group_name_H-M "C M M 2"
_symmetry_group_IT_number 35
_symmetry_cell_setting 'orthorhombic'
loop_
_space_group_symop_operation_xyz
x,y,z
-x,-y,z
-x,y,z
x,-y,z
1/2+x,1/2+y,z
1/2-x,1/2-y,z
1/2-x,1/2+y,z
1/2+x,1/2-y,z
loop_
_atom_site_type_symbol
_atom_site_label
_atom_site_fract_x
_atom_site_fract_y
_atom_site_fract_z
Si Si1 0.103679 0.171196 0.929680
Si Si2 0.802529 0.103695 0.145978
Si Si3 0.098959 0.600738 0.207271
Si Si4 0.903600 0.789252 0.594712
Si Si5 0.647139 0.269591 0.345482
Si Si6 0.901914 0.345871 0.783353
Si Si7 0.711947 0.407216 0.735418
O O1 0.110056 0.266464 0.871703
O O2 0.145047 0.106822 0.838114
O O3 0.000000 0.153636 0.951070
O O4 0.158252 0.156508 0.041908
O O5 0.693747 0.110215 0.143333
O O6 0.844318 0.151961 0.255055
O O7 0.824439 0.000000 0.142777
O O8 0.101982 0.500000 0.252434
O O9 0.105151 0.681695 0.292646
O O10 0.000000 0.608133 0.150764
O O11 0.899229 0.789016 0.462318
O O12 0.903899 0.697008 0.659181
O O13 0.817881 0.836753 0.645421
O O14 0.000000 0.830106 0.629961
O O15 0.750000 0.250000 0.373339
O O16 0.811456 0.399530 0.783628
O O17 0.000000 0.385959 0.803640
O O18 0.699900 0.500000 0.680653
#
# Coordination Sequence:
#
# PCOD9349228 Si02
#       7
#     8   8   8   8   8   8   8
#     4  10  21  39  61  80 106 148 194 236 277 331
#     4  10  22  38  57  86 120 153 192 238 291 352
#     4   9  19  37  59  83 114 153 198 244 290 346
#     4  10  20  36  58  82 111 149 192 231 272 333
#     4  10  20  35  57  84 118 157 193 239 295 347
#     4   9  20  39  61  82 106 143 189 234 281 334
#     4  11  22  36  58  86 115 145 181 231 287 343
#
# _framework density 20.441604999999999
#
# number of rings (size 3 to 8) (size 9 to 14) (size 15 to 20)
#    0.000    2.143    0.000    4.714    0.000    7.429 
#    0.000    5.714    0.000    3.429    0.000    0.000 
#    0.000    0.000    0.000    0.000    0.000    0.000 
#
# Total GULP energy -156011.852608 kJ/mol
# GULP energy per Si atom -5571.851879 kJ/mol
# Density = 2.039508 g / cm^3
# Si number density = 20.441605 Si / 1000 Ang^3
#
#
#
# Elastic Constant Matrix: (Units=GPa)
#
#
# Indices 1 2 3 4 5 6 
#
# 1 122.1170 35.1589 32.7654 0.0000 0.0000 0.0000
# 2 35.1589 55.2220 12.1732 0.0000 0.0000 0.0000
# 3 32.7654 12.1732 97.6440 0.0000 0.0000 0.0000
# 4 0.0000 0.0000 0.0000 -5.6312 0.0000 0.0000
# 5 0.0000 0.0000 0.0000 0.0000 19.0085 0.0000
# 6 0.0000 0.0000 0.0000 0.0000 0.0000 -8.8483
#
#
#
# Elastic Compliance Matrix: (Units=1/GPa)
#
#
# Indices 1 2 3 4 5 6 
#
# 1 0.010736 -0.006212 -0.002828 0.000000 0.000000 0.000000
# 2 -0.006212 0.022215 -0.000685 0.000000 0.000000 0.000000
# 3 -0.002828 -0.000685 0.011276 0.000000 0.000000 0.000000
# 4 0.000000 0.000000 0.000000 -0.177583 0.000000 0.000000
# 5 0.000000 0.000000 0.000000 0.000000 0.052608 0.000000
# 6 0.000000 0.000000 0.000000 0.000000 0.000000 -0.113016
#
#
# Mechanical properties :
#
#
# Convention : Reuss Voigt Hill
#
# Bulk Modulus (GPa) = 40.36123 48.35309 44.35716
# Shear Modulus (GPa) = -30.11049 13.89818 -8.10616
#
# Velocity S-wave (km/s) = -3.84213 2.61031 -1.99352
# Velocity P-wave (km/s) = 0.32384 5.72631 4.05558
#
# Compressibility (1/GPa) = 0.02477625
#
# Stress axis : x y z
#
# Youngs Moduli (GPa) = 93.14246 45.01490 88.68627
#
# Poissons Ratio (x) = 0.27964 0.25082
# Poissons Ratio (y) = 0.57861 0.06075
# Poissons Ratio (z) = 0.26342 0.03083
#
# Static dielectric constant tensor:
#      x y z
#    x 1.752370 0.000000 0.000000 
#    y 0.000000 1.757960 0.000000 
#    z 0.000000 0.000000 1.714320 
# 
# From -- ./inp_files/12995.got.cif
#   From: 2010.05.17/outbox.cif.g08.bks.cpg/sg35_7_cif.got.tgz:12995.got - 2010.06.03 17:29:28.
