data_PCOD9349863
_publ_section_title
;
Structure prediction by ZEFSAII (Michael W. Deem and Ramdas Pophale) SiO2 
 PCOD9349863
Probable space group: C M M 2
;
_chemical_formula_sum "Si O2"
_cell_formula_units_Z 40
_cell_length_a 8.623031
_cell_length_b 14.727155
_cell_length_c 17.007553
_cell_angle_alpha 90.000000
_cell_angle_beta 90.000000
_cell_angle_gamma 90.000000
_cell_volume 2159.835316
_symmetry_space_group_name_H-M "C M M 2"
_symmetry_group_IT_number 35
_symmetry_cell_setting 'orthorhombic'
loop_
_space_group_symop_operation_xyz
x,y,z
-x,-y,z
-x,y,z
x,-y,z
1/2+x,1/2+y,z
1/2-x,1/2-y,z
1/2-x,1/2+y,z
1/2+x,1/2-y,z
loop_
_atom_site_type_symbol
_atom_site_label
_atom_site_fract_x
_atom_site_fract_y
_atom_site_fract_z
Si Si1 0.814077 0.000000 0.288900
Si Si2 0.685489 0.500000 0.863510
Si Si3 0.184302 0.500000 0.462943
Si Si4 0.813758 0.852136 0.158380
Si Si5 0.685450 0.000000 0.039514
Si Si6 0.685829 0.851828 0.746386
Si Si7 0.814447 0.851477 0.578109
O O1 0.775446 0.911433 0.236249
O O2 0.729830 0.000000 0.371825
O O3 0.000000 0.000000 0.301373
O O4 0.500000 0.500000 0.862875
O O5 0.749653 0.586143 0.815645
O O6 0.747356 0.500000 0.952036
O O7 0.256193 0.413804 0.507657
O O8 0.000000 0.500000 0.472246
O O9 0.750000 0.750000 0.161022
O O10 0.000000 0.850322 0.151135
O O11 0.745049 0.911558 0.086950
O O12 0.500000 0.000000 0.037844
O O13 0.500000 0.851913 0.745946
O O14 0.750000 0.750000 0.755232
O O15 0.747470 0.885356 0.661651
O O16 0.750000 0.750000 0.567909
O O17 0.000000 0.850653 0.582040
#
# Coordination Sequence:
#
# PCOD9349863 Si02
#       7
#     4   4   4   8   4   8   8
#     4   9  21  40  59  85 120 153 192 239 285 340
#     4  12  24  40  60  86 119 155 194 240 292 341
#     4  12  24  38  58  86 119 155 194 240 292 343
#     4  10  21  40  65  90 118 153 190 232 285 345
#     4  11  23  40  61  89 120 151 192 239 287 342
#     4  11  22  39  60  86 117 153 197 242 290 344
#     4  11  22  39  60  84 115 154 198 243 291 343
#
# _framework density 18.519929999999999
#
# number of rings (size 3 to 8) (size 9 to 14) (size 15 to 20)
#    0.000    1.200    0.000    9.300    0.000    4.000 
#    0.000    6.000    0.000    0.000    0.000    0.000 
#    0.000    0.000    0.000    0.000    0.000    0.000 
#
# Total GULP energy -111855.341361 kJ/mol
# GULP energy per Si atom -5592.767068 kJ/mol
# Density = 1.847778 g / cm^3
# Si number density = 18.519930 Si / 1000 Ang^3
#
#
#
# Elastic Constant Matrix: (Units=GPa)
#
#
# Indices 1 2 3 4 5 6 
#
# 1 194.6357 72.8813 95.4475 0.0000 0.0000 0.0000
# 2 72.8813 145.5508 86.9784 0.0000 0.0000 0.0000
# 3 95.4475 86.9784 174.3005 0.0000 0.0000 0.0000
# 4 0.0000 0.0000 0.0000 23.6459 0.0000 0.0000
# 5 0.0000 0.0000 0.0000 0.0000 36.6986 0.0000
# 6 0.0000 0.0000 0.0000 0.0000 0.0000 28.8780
#
#
#
# Elastic Compliance Matrix: (Units=1/GPa)
#
#
# Indices 1 2 3 4 5 6 
#
# 1 0.007346 -0.001816 -0.003117 0.000000 0.000000 0.000000
# 2 -0.001816 0.010239 -0.004115 0.000000 0.000000 0.000000
# 3 -0.003117 -0.004115 0.009497 0.000000 0.000000 0.000000
# 4 0.000000 0.000000 0.000000 0.042291 0.000000 0.000000
# 5 0.000000 0.000000 0.000000 0.000000 0.027249 0.000000
# 6 0.000000 0.000000 0.000000 0.000000 0.000000 0.034628
#
#
# Mechanical properties :
#
#
# Convention : Reuss Voigt Hill
#
# Bulk Modulus (GPa) = 111.26811 113.90014 112.58413
# Shear Modulus (GPa) = 32.82119 35.12316 33.97217
#
# Velocity S-wave (km/s) = 4.21433 4.35961 4.28759
# Velocity P-wave (km/s) = 9.15922 9.32612 9.24305
#
# Compressibility (1/GPa) = 0.00898730
#
# Stress axis : x y z
#
# Youngs Moduli (GPa) = 136.12591 97.66844 105.29416
#
# Poissons Ratio (x) = 0.17737 0.32815
# Poissons Ratio (y) = 0.24721 0.43327
# Poissons Ratio (z) = 0.42424 0.40189
#
# Static dielectric constant tensor:
#      x y z
#    x 1.613570 0.000000 0.000000 
#    y 0.000000 1.608470 0.000000 
#    z 0.000000 0.000000 1.610010 
# 
# From -- ./inp_files/14858.got.cif
#   From: 2010.05.17/outbox.cif.g08.bks.cpg/sg35_8_cif.got.tgz:14858.got - 2010.06.03 17:29:28.
