data_PCOD9349537
_publ_section_title
;
Structure prediction by ZEFSAII (Michael W. Deem and Ramdas Pophale) SiO2 
 PCOD9349537
Probable space group: C M M 2
;
_chemical_formula_sum "Si O2"
_cell_formula_units_Z 48
_cell_length_a 15.917084
_cell_length_b 8.720140
_cell_length_c 17.816469
_cell_angle_alpha 90.000000
_cell_angle_beta 90.000000
_cell_angle_gamma 90.000000
_cell_volume 2472.911660
_symmetry_space_group_name_H-M "C M M 2"
_symmetry_group_IT_number 35
_symmetry_cell_setting 'orthorhombic'
loop_
_space_group_symop_operation_xyz
x,y,z
-x,-y,z
-x,y,z
x,-y,z
1/2+x,1/2+y,z
1/2-x,1/2-y,z
1/2-x,1/2+y,z
1/2+x,1/2-y,z
loop_
_atom_site_type_symbol
_atom_site_label
_atom_site_fract_x
_atom_site_fract_y
_atom_site_fract_z
Si Si1 0.500000 0.813793 0.942651
Si Si2 0.656709 0.316916 0.381029
Si Si3 0.654791 0.815638 0.838607
Si Si4 0.000000 0.684814 0.116640
Si Si5 0.157330 0.818649 0.684091
Si Si6 0.098053 0.330703 0.533109
Si Si7 0.344965 0.684272 0.210724
O O1 0.585876 0.766395 0.900336
O O2 0.500000 0.000000 0.940360
O O3 0.500000 0.767587 0.029402
O O4 0.656579 0.500000 0.389348
O O5 0.750000 0.250000 0.384043
O O6 0.611980 0.241846 0.451763
O O7 0.626480 0.280650 0.296724
O O8 0.750000 0.750000 0.849709
O O9 0.618717 0.759981 0.757960
O O10 0.661435 0.000000 0.838171
O O11 0.915694 0.747587 0.156414
O O12 0.000000 0.500000 0.121095
O O13 0.250000 0.750000 0.685145
O O14 0.124738 0.773821 0.602411
O O15 0.156347 0.000000 0.694162
O O16 0.139693 0.500000 0.537567
O O17 0.000000 0.349225 0.542447
O O18 0.340893 0.500000 0.203142
O O19 0.250000 0.750000 0.200033
#
# Coordination Sequence:
#
# PCOD9349537 Si02
#       7
#     4   8   8   4   8   8   8
#     4   9  22  41  63  90 123 160 197 241 304 367
#     4  10  21  38  60  83 114 152 196 245 295 348
#     4  10  20  39  63  89 120 158 200 247 300 358
#     4  11  23  41  65  94 127 164 203 249 308 373
#     4  11  22  38  59  84 114 152 196 242 292 347
#     4  11  24  38  54  81 116 155 197 240 292 347
#     4  10  22  41  64  93 125 164 207 255 309 366
#
# _framework density 19.410318
#
# number of rings (size 3 to 8) (size 9 to 14) (size 15 to 20)
#    0.000    1.667    0.000    5.250    2.333    4.000 
#    0.000    6.250    0.000    0.000    0.000    0.000 
#    0.000    0.000    0.000    0.000    0.000    0.000 
#
# Total GULP energy -133916.094293 kJ/mol
# GULP energy per Si atom -5579.837262 kJ/mol
# Density = 1.936614 g / cm^3
# Si number density = 19.410318 Si / 1000 Ang^3
#
#
#
# Elastic Constant Matrix: (Units=GPa)
#
#
# Indices 1 2 3 4 5 6 
#
# 1 84.4365 35.5220 73.8953 0.0000 0.0000 0.0000
# 2 35.5220 100.4232 55.1331 0.0000 0.0000 0.0000
# 3 73.8953 55.1331 155.4309 0.0000 0.0000 0.0000
# 4 0.0000 0.0000 0.0000 35.3046 0.0000 0.0000
# 5 0.0000 0.0000 0.0000 0.0000 42.2993 0.0000
# 6 0.0000 0.0000 0.0000 0.0000 0.0000 24.5294
#
#
#
# Elastic Compliance Matrix: (Units=1/GPa)
#
#
# Indices 1 2 3 4 5 6 
#
# 1 0.020733 -0.002387 -0.009010 0.000000 0.000000 0.000000
# 2 -0.002387 0.012641 -0.003349 0.000000 0.000000 0.000000
# 3 -0.009010 -0.003349 0.011905 0.000000 0.000000 0.000000
# 4 0.000000 0.000000 0.000000 0.028325 0.000000 0.000000
# 5 0.000000 0.000000 0.000000 0.000000 0.023641 0.000000
# 6 0.000000 0.000000 0.000000 0.000000 0.000000 0.040767
#
#
# Mechanical properties :
#
#
# Convention : Reuss Voigt Hill
#
# Bulk Modulus (GPa) = 63.34504 74.37681 68.86092
# Shear Modulus (GPa) = 28.94082 32.14268 30.54175
#
# Velocity S-wave (km/s) = 3.86554 4.07376 3.97101
# Velocity P-wave (km/s) = 7.25457 7.78002 7.52188
#
# Compressibility (1/GPa) = 0.01578656
#
# Stress axis : x y z
#
# Youngs Moduli (GPa) = 48.23314 79.10871 83.99664
#
# Poissons Ratio (x) = 0.18883 0.75681
# Poissons Ratio (y) = 0.11513 0.28131
# Poissons Ratio (z) = 0.43458 0.26494
#
# Static dielectric constant tensor:
#      x y z
#    x 1.645110 0.000000 0.000000 
#    y 0.000000 1.685110 0.000000 
#    z 0.000000 0.000000 1.731480 
# 
# From -- ./inp_files/17099.got.cif
#   From: 2010.05.17/outbox.cif.g08.bks.cpg/sg35_9_cif.got.tgz:17099.got - 2010.06.03 17:29:28.
