data_PCOD9349597
_publ_section_title
;
Structure prediction by ZEFSAII (Michael W. Deem and Ramdas Pophale) SiO2 
 PCOD9349597
Probable space group: C M M 2
;
_chemical_formula_sum "Si O2"
_cell_formula_units_Z 64
_cell_length_a 31.214177
_cell_length_b 17.557234
_cell_length_c 5.658213
_cell_angle_alpha 90.000000
_cell_angle_beta 90.000000
_cell_angle_gamma 90.000000
_cell_volume 3100.896553
_symmetry_space_group_name_H-M "C M M 2"
_symmetry_group_IT_number 35
_symmetry_cell_setting 'orthorhombic'
loop_
_space_group_symop_operation_xyz
x,y,z
-x,-y,z
-x,y,z
x,-y,z
1/2+x,1/2+y,z
1/2-x,1/2-y,z
1/2-x,1/2+y,z
1/2+x,1/2-y,z
loop_
_atom_site_type_symbol
_atom_site_label
_atom_site_fract_x
_atom_site_fract_y
_atom_site_fract_z
Si Si1 0.670307 0.588619 0.246880
Si Si2 0.950722 0.083944 0.927337
Si Si3 0.662454 0.091328 0.583940
Si Si4 0.632267 0.160280 0.084240
Si Si5 0.398832 0.669459 0.562027
Si Si6 0.753879 0.828964 0.506041
Si Si7 0.175804 0.794390 0.879381
Si Si8 0.450764 0.744392 0.201146
O O1 0.665030 0.500000 0.259691
O O2 0.630610 0.631293 0.365258
O O3 0.714691 0.614062 0.368402
O O4 0.670911 0.621813 0.985672
O O5 0.919958 0.102510 0.711559
O O6 0.000000 0.081730 0.845899
O O7 0.941394 0.000000 0.033393
O O8 0.947645 0.159780 0.085835
O O9 0.639755 0.117159 0.335607
O O10 0.709142 0.132342 0.572659
O O11 0.667093 0.000000 0.580082
O O12 0.640681 0.114302 0.837919
O O13 0.585093 0.199178 0.096187
O O14 0.667565 0.228880 0.070719
O O15 0.364506 0.717723 0.708028
O O16 0.435278 0.725435 0.466184
O O17 0.750000 0.750000 0.361424
O O18 0.781659 0.800496 0.729834
O O19 0.500000 0.769851 0.183566
#
# Coordination Sequence:
#
# PCOD9349597 Si02
#       8
#     8   8   8   8   8   8   8   8
#     4  11  24  38  59  91 137 182 233 287 346 413
#     4  10  21  35  54  86 130 179 233 289 343 405
#     4  12  28  49  78 108 144 188 235 294 359 430
#     4  12  24  49  74 105 145 181 239 291 360 427
#     4  11  20  38  57  88 131 179 234 281 348 411
#     4  11  24  42  67  97 135 187 232 291 339 414
#     4  11  23  39  65  96 133 185 231 286 340 416
#     4  11  24  41  68 100 134 180 239 296 359 434
#
# _framework density 20.639192999999999
#
# number of rings (size 3 to 8) (size 9 to 14) (size 15 to 20)
#    0.000    0.875    3.750    3.000    1.750    5.500 
#    0.000    1.250    0.000    2.250    0.000    0.000 
#    0.000    0.000    0.000    0.000    0.000    0.000 
#
# Total GULP energy -178579.487202 kJ/mol
# GULP energy per Si atom -5580.608975 kJ/mol
# Density = 2.059222 g / cm^3
# Si number density = 20.639193 Si / 1000 Ang^3
#
#
#
# Elastic Constant Matrix: (Units=GPa)
#
#
# Indices 1 2 3 4 5 6 
#
# 1 148.4377 51.5360 62.9709 0.0000 0.0000 0.0000
# 2 51.5360 117.8879 37.3525 0.0000 0.0000 0.0000
# 3 62.9709 37.3525 82.6843 0.0000 0.0000 0.0000
# 4 0.0000 0.0000 0.0000 28.1702 0.0000 0.0000
# 5 0.0000 0.0000 0.0000 0.0000 15.3750 0.0000
# 6 0.0000 0.0000 0.0000 0.0000 0.0000 25.8227
#
#
#
# Elastic Compliance Matrix: (Units=1/GPa)
#
#
# Indices 1 2 3 4 5 6 
#
# 1 0.010504 -0.002401 -0.006915 0.000000 0.000000 0.000000
# 2 -0.002401 0.010448 -0.002892 0.000000 0.000000 0.000000
# 3 -0.006915 -0.002892 0.018667 0.000000 0.000000 0.000000
# 4 0.000000 0.000000 0.000000 0.035499 0.000000 0.000000
# 5 0.000000 0.000000 0.000000 0.000000 0.065041 0.000000
# 6 0.000000 0.000000 0.000000 0.000000 0.000000 0.038726
#
#
# Mechanical properties :
#
#
# Convention : Reuss Voigt Hill
#
# Bulk Modulus (GPa) = 65.77138 72.52544 69.14841
# Shear Modulus (GPa) = 23.99615 27.01694 25.50655
#
# Velocity S-wave (km/s) = 3.41346 3.62195 3.51925
# Velocity P-wave (km/s) = 6.89000 7.25998 7.07741
#
# Compressibility (1/GPa) = 0.01520418
#
# Stress axis : x y z
#
# Youngs Moduli (GPa) = 95.20269 95.70843 53.57110
#
# Poissons Ratio (x) = 0.22979 0.37044
# Poissons Ratio (y) = 0.22857 0.15490
# Poissons Ratio (z) = 0.65833 0.27675
#
# Static dielectric constant tensor:
#      x y z
#    x 1.746500 0.000000 0.000000 
#    y 0.000000 1.755760 0.000000 
#    z 0.000000 0.000000 1.843860 
# 
# From -- ./inp_files/4077.got.cif
#   From: 2010.05.17/outbox.cif.g08.bks.cpg/sg35_3_cif.got.tgz:4077.got - 2010.06.03 17:29:28.
