data_PCOD9349912
_publ_section_title
;
Structure prediction by ZEFSAII (Michael W. Deem and Ramdas Pophale) SiO2 
 PCOD9349912
Probable space group: C M M 2
;
_chemical_formula_sum "Si O2"
_cell_formula_units_Z 56
_cell_length_a 15.313649
_cell_length_b 13.955705
_cell_length_c 13.645484
_cell_angle_alpha 90.000000
_cell_angle_beta 90.000000
_cell_angle_gamma 90.000000
_cell_volume 2916.214155
_symmetry_space_group_name_H-M "C M M 2"
_symmetry_group_IT_number 35
_symmetry_cell_setting 'orthorhombic'
loop_
_space_group_symop_operation_xyz
x,y,z
-x,-y,z
-x,y,z
x,-y,z
1/2+x,1/2+y,z
1/2-x,1/2-y,z
1/2-x,1/2+y,z
1/2+x,1/2-y,z
loop_
_atom_site_type_symbol
_atom_site_label
_atom_site_fract_x
_atom_site_fract_y
_atom_site_fract_z
Si Si1 0.197766 0.385237 0.364520
Si Si2 0.270127 0.106464 0.676062
Si Si3 0.101004 0.613138 0.171333
Si Si4 0.726131 0.612787 0.891761
Si Si5 0.604779 0.780681 0.965503
Si Si6 0.593859 0.194670 0.549251
Si Si7 0.643915 0.393446 0.488516
O O1 0.194624 0.500000 0.362496
O O2 0.163028 0.353638 0.259465
O O3 0.137170 0.353312 0.454227
O O4 0.296403 0.361301 0.396380
O O5 0.218038 0.128102 0.774712
O O6 0.343916 0.180104 0.642526
O O7 0.208502 0.099701 0.581660
O O8 0.309676 0.000000 0.690282
O O9 0.119199 0.500000 0.146685
O O10 0.108254 0.681115 0.077239
O O11 0.000000 0.615802 0.205494
O O12 0.716044 0.500000 0.914121
O O13 0.654335 0.679037 0.946628
O O14 0.825969 0.647141 0.913012
O O15 0.500000 0.780541 0.938022
O O16 0.500000 0.151844 0.569481
O O17 0.586674 0.305017 0.519560
O O18 0.607639 0.500000 0.471535
#
# Coordination Sequence:
#
# PCOD9349912 Si02
#       7
#     8   8   8   8   8   8   8
#     4   9  17  32  56  81 108 144 182 226 282 341
#     4   9  19  36  56  75 105 141 179 229 281 337
#     4   9  17  32  56  86 117 145 183 241 300 351
#     4  10  22  40  60  85 117 156 197 246 305 358
#     4  10  22  38  60  88 116 152 200 251 301 356
#     4  11  21  31  51  82 115 147 183 229 283 344
#     4   9  19  35  52  74 105 145 186 223 268 330
#
# _framework density 19.20298
#
# number of rings (size 3 to 8) (size 9 to 14) (size 15 to 20)
#    0.000    2.429    0.000    3.857    4.000    3.714 
#    5.143    1.429    0.000    2.571    0.000    2.000 
#    0.000    0.000    0.000    0.000    0.000    0.000 
#
# Total GULP energy -155875.198938 kJ/mol
# GULP energy per Si atom -5566.971391 kJ/mol
# Density = 1.915927 g / cm^3
# Si number density = 19.202980 Si / 1000 Ang^3
#
#
#
# Elastic Constant Matrix: (Units=GPa)
#
#
# Indices 1 2 3 4 5 6 
#
# 1 97.3885 46.2373 35.8032 0.0000 0.0000 0.0000
# 2 46.2373 87.1581 35.7684 0.0000 0.0000 0.0000
# 3 35.8032 35.7684 84.2825 0.0000 0.0000 0.0000
# 4 0.0000 0.0000 0.0000 28.0155 0.0000 0.0000
# 5 0.0000 0.0000 0.0000 0.0000 -624.6017 0.0000
# 6 0.0000 0.0000 0.0000 0.0000 0.0000 -24.6833
#
#
#
# Elastic Compliance Matrix: (Units=1/GPa)
#
#
# Indices 1 2 3 4 5 6 
#
# 1 0.014537 -0.006269 -0.003515 0.000000 0.000000 0.000000
# 2 -0.006269 0.016597 -0.004380 0.000000 0.000000 0.000000
# 3 -0.003515 -0.004380 0.015217 0.000000 0.000000 0.000000
# 4 0.000000 0.000000 0.000000 0.035695 0.000000 0.000000
# 5 0.000000 0.000000 0.000000 0.000000 -0.001601 0.000000
# 6 0.000000 0.000000 0.000000 0.000000 0.000000 -0.040513
#
#
# Mechanical properties :
#
#
# Convention : Reuss Voigt Hill
#
# Bulk Modulus (GPa) = 55.48784 56.04966 55.76875
# Shear Modulus (GPa) = 67.32498 -114.18590 -23.43046
#
# Velocity S-wave (km/s) = 5.92754 -7.71957 -3.49685
# Velocity P-wave (km/s) = 8.70666 7.08549 3.57782
#
# Compressibility (1/GPa) = 0.01802197
#
# Stress axis : x y z
#
# Youngs Moduli (GPa) = 68.79104 60.25212 65.71692
#
# Poissons Ratio (x) = 0.37775 0.23097
# Poissons Ratio (y) = 0.43128 0.28786
# Poissons Ratio (z) = 0.24177 0.26392
#
# Static dielectric constant tensor:
#      x y z
#    x 1.837220 0.000000 0.000000 
#    y 0.000000 1.728690 0.000000 
#    z 0.000000 0.000000 1.661270 
# 
# From -- ./inp_files/12974.got.cif
#   From: 2010.05.17/outbox.cif.g08.bks.cpg/sg35_7_cif.got.tgz:12974.got - 2010.06.03 17:29:28.
