data_PCOD9349681
_publ_section_title
;
Structure prediction by ZEFSAII (Michael W. Deem and Ramdas Pophale) SiO2 
 PCOD9349681
Probable space group: C M M 2
;
_chemical_formula_sum "Si O2"
_cell_formula_units_Z 40
_cell_length_a 7.528972
_cell_length_b 29.109372
_cell_length_c 8.235937
_cell_angle_alpha 90.000000
_cell_angle_beta 90.000000
_cell_angle_gamma 90.000000
_cell_volume 1805.017987
_symmetry_space_group_name_H-M "C M M 2"
_symmetry_group_IT_number 35
_symmetry_cell_setting 'orthorhombic'
loop_
_space_group_symop_operation_xyz
x,y,z
-x,-y,z
-x,y,z
x,-y,z
1/2+x,1/2+y,z
1/2-x,1/2-y,z
1/2-x,1/2+y,z
1/2+x,1/2-y,z
loop_
_atom_site_type_symbol
_atom_site_label
_atom_site_fract_x
_atom_site_fract_y
_atom_site_fract_z
Si Si1 0.714633 0.448809 0.533260
Si Si2 0.292026 0.851781 0.398490
Si Si3 0.286666 0.196169 0.722144
Si Si4 0.207974 0.351781 0.045797
Si Si5 0.285367 0.551192 0.911028
O O1 0.500000 0.448124 0.529391
O O2 0.771666 0.500000 0.482373
O O3 0.779683 0.406289 0.429085
O O4 0.768387 0.442252 0.722144
O O5 0.500000 0.839381 0.392827
O O6 0.215192 0.827168 0.557696
O O7 0.214102 0.840220 0.222144
O O8 0.500000 0.188741 0.722144
O O9 0.250000 0.250000 0.722144
O O10 0.215192 0.172832 0.886590
O O11 0.220314 0.406289 0.015203
O O12 0.000000 0.339380 0.051460
O O13 0.500000 0.551877 0.914899
O O14 0.228337 0.500000 0.961915
#
# Coordination Sequence:
#
# PCOD9349681 Si02
#       5
#     8   8   8   8   8
#     4   9  18  33  54  81 113 148 185 223 264 314
#     4  10  21  37  57  82 111 143 181 222 267 322
#     4  10  22  40  59  80 107 139 176 225 277 324
#     4  10  21  37  57  82 111 143 181 222 267 322
#     4   9  18  33  54  81 113 148 185 223 264 314
#
# _framework density 22.160443000000001
#
# number of rings (size 3 to 8) (size 9 to 14) (size 15 to 20)
#    0.000    2.400    2.000    1.200    0.000    4.800 
#    0.000    6.000    0.000    0.000    0.000    0.000 
#    0.000    0.000    0.000    0.000    0.000    0.000 
#
# Total GULP energy -111692.925803 kJ/mol
# GULP energy per Si atom -5584.646290 kJ/mol
# Density = 2.211001 g / cm^3
# Si number density = 22.160443 Si / 1000 Ang^3
#
#
#
# Elastic Constant Matrix: (Units=GPa)
#
#
# Indices 1 2 3 4 5 6 
#
# 1 56.7814 -12.1708 14.0071 0.0000 0.0000 0.0000
# 2 -12.1708 111.7234 93.3120 0.0000 0.0000 0.0000
# 3 14.0071 93.3120 211.2498 0.0000 0.0000 0.0000
# 4 0.0000 0.0000 0.0000 -3.6767 0.0000 0.0000
# 5 0.0000 0.0000 0.0000 0.0000 -0.4238 0.0000
# 6 0.0000 0.0000 0.0000 0.0000 0.0000 27.0701
#
#
#
# Elastic Compliance Matrix: (Units=1/GPa)
#
#
# Indices 1 2 3 4 5 6 
#
# 1 0.019580 0.005098 -0.003550 0.000000 0.000000 0.000000
# 2 0.005098 0.015511 -0.007189 0.000000 0.000000 0.000000
# 3 -0.003550 -0.007189 0.008145 0.000000 0.000000 0.000000
# 4 0.000000 0.000000 0.000000 -0.271986 0.000000 0.000000
# 5 0.000000 0.000000 0.000000 0.000000 -2.359822 0.000000
# 6 0.000000 0.000000 0.000000 0.000000 0.000000 0.036941
#
#
# Mechanical properties :
#
#
# Convention : Reuss Voigt Hill
#
# Bulk Modulus (GPa) = 31.29640 63.33901 47.31771
# Shear Modulus (GPa) = -1.97652 23.56769 10.79559
#
# Velocity S-wave (km/s) = -0.94544 3.26468 2.20955
# Velocity P-wave (km/s) = 3.60021 6.54636 5.28282
#
# Compressibility (1/GPa) = 0.03195256
#
# Stress axis : x y z
#
# Youngs Moduli (GPa) = 51.07271 64.47218 122.77876
#
# Poissons Ratio (x) = -0.32869 0.43589
# Poissons Ratio (y) = -0.26037 0.88269
# Poissons Ratio (z) = 0.18132 0.46351
#
# Static dielectric constant tensor:
#      x y z
#    x 1.825060 0.000000 0.000000 
#    y 0.000000 1.760180 0.000000 
#    z 0.000000 0.000000 1.846210 
# 
# From -- ./inp_files/4838.got.cif
#   From: 2010.05.17/outbox.cif.g08.bks.cpg/sg35_3_cif.got.tgz:4838.got - 2010.06.03 17:29:28.
