data_PCOD9349831
_publ_section_title
;
Structure prediction by ZEFSAII (Michael W. Deem and Ramdas Pophale) SiO2 
 PCOD9349831
Probable space group: C M M 2
;
_chemical_formula_sum "Si O2"
_cell_formula_units_Z 48
_cell_length_a 8.066987
_cell_length_b 28.628586
_cell_length_c 10.491395
_cell_angle_alpha 90.000000
_cell_angle_beta 90.000000
_cell_angle_gamma 90.000000
_cell_volume 2422.950232
_symmetry_space_group_name_H-M "C M M 2"
_symmetry_group_IT_number 35
_symmetry_cell_setting 'orthorhombic'
loop_
_space_group_symop_operation_xyz
x,y,z
-x,-y,z
-x,y,z
x,-y,z
1/2+x,1/2+y,z
1/2-x,1/2-y,z
1/2-x,1/2+y,z
1/2+x,1/2-y,z
loop_
_atom_site_type_symbol
_atom_site_label
_atom_site_fract_x
_atom_site_fract_y
_atom_site_fract_z
Si Si1 0.297496 0.621345 0.434410
Si Si2 0.688330 0.444471 0.968436
Si Si3 0.307894 0.362213 0.145382
Si Si4 0.500000 0.056104 0.502832
Si Si5 0.310329 0.197799 0.915745
Si Si6 0.191990 0.803709 0.642942
Si Si7 0.000000 0.556456 0.799762
O O1 0.500000 0.611343 0.444918
O O2 0.268393 0.642068 0.293258
O O3 0.242407 0.658963 0.541227
O O4 0.170751 0.578018 0.448055
O O5 0.500000 0.435293 0.920773
O O6 0.703220 0.500000 0.987877
O O7 0.833285 0.428636 0.872951
O O8 0.708449 0.415750 0.098586
O O9 0.500000 0.348688 0.128502
O O10 0.209878 0.332325 0.042238
O O11 0.500000 0.069134 0.652847
O O12 0.500000 0.000000 0.489780
O O13 0.500000 0.199793 0.875834
O O14 0.250000 0.250000 0.943673
O O15 0.216790 0.180580 0.789296
O O16 0.250000 0.750000 0.632880
O O17 0.000000 0.802091 0.614461
O O18 0.000000 0.500000 0.804256
#
# Coordination Sequence:
#
# PCOD9349831 Si02
#       7
#     8   8   8   4   8   8   4
#     4  10  25  43  63  93 130 171 218 264 324 389
#     4   9  19  35  58  87 119 157 200 251 313 374
#     4  10  22  40  60  88 124 160 205 258 311 372
#     4  11  26  43  65  93 129 173 223 275 322 386
#     4  11  23  38  62  93 125 163 207 259 316 378
#     4  10  21  39  63  92 125 168 212 263 323 388
#     4   9  20  37  57  87 121 153 203 261 313 368
#
# _framework density 19.810559000000001
#
# number of rings (size 3 to 8) (size 9 to 14) (size 15 to 20)
#    0.000    2.000    0.000    3.000    7.000    2.333 
#    0.000    5.833    0.000    0.000    0.000    0.000 
#    0.000    0.000    0.000    0.000    0.000    0.000 
#
# Total GULP energy -133864.957870 kJ/mol
# GULP energy per Si atom -5577.706578 kJ/mol
# Density = 1.976547 g / cm^3
# Si number density = 19.810559 Si / 1000 Ang^3
#
#
#
# Elastic Constant Matrix: (Units=GPa)
#
#
# Indices 1 2 3 4 5 6 
#
# 1 56.7437 32.9242 23.4070 0.0000 0.0000 0.0000
# 2 32.9242 83.2528 41.6087 0.0000 0.0000 0.0000
# 3 23.4070 41.6087 94.3190 0.0000 0.0000 0.0000
# 4 0.0000 0.0000 0.0000 19.4287 0.0000 0.0000
# 5 0.0000 0.0000 0.0000 0.0000 15.3076 0.0000
# 6 0.0000 0.0000 0.0000 0.0000 0.0000 24.0040
#
#
#
# Elastic Compliance Matrix: (Units=1/GPa)
#
#
# Indices 1 2 3 4 5 6 
#
# 1 0.023220 -0.008086 -0.002196 0.000000 0.000000 0.000000
# 2 -0.008086 0.018225 -0.006033 0.000000 0.000000 0.000000
# 3 -0.002196 -0.006033 0.013809 0.000000 0.000000 0.000000
# 4 0.000000 0.000000 0.000000 0.051470 0.000000 0.000000
# 5 0.000000 0.000000 0.000000 0.000000 0.065327 0.000000
# 6 0.000000 0.000000 0.000000 0.000000 0.000000 0.041660
#
#
# Mechanical properties :
#
#
# Convention : Reuss Voigt Hill
#
# Bulk Modulus (GPa) = 44.19925 47.79947 45.99936
# Shear Modulus (GPa) = 19.69427 20.83976 20.26702
#
# Velocity S-wave (km/s) = 3.15640 3.24690 3.20197
# Velocity P-wave (km/s) = 5.97020 6.18362 6.07784
#
# Compressibility (1/GPa) = 0.02262482
#
# Stress axis : x y z
#
# Youngs Moduli (GPa) = 43.06569 54.87101 72.41820
#
# Poissons Ratio (x) = 0.44367 0.15900
# Poissons Ratio (y) = 0.34822 0.43691
# Poissons Ratio (z) = 0.09455 0.33104
#
# Static dielectric constant tensor:
#      x y z
#    x 1.720630 0.000000 0.000000 
#    y 0.000000 1.724420 0.000000 
#    z 0.000000 0.000000 1.670380 
# 
# From -- ./inp_files/5359.got.cif
#   From: 2010.05.17/outbox.cif.g08.bks.cpg/sg35_3_cif.got.tgz:5359.got - 2010.06.03 17:29:28.
