data_PCOD9349749
_publ_section_title
;
Structure prediction by ZEFSAII (Michael W. Deem and Ramdas Pophale) SiO2 
 PCOD9349749
Probable space group: C M M 2
;
_chemical_formula_sum "Si O2"
_cell_formula_units_Z 64
_cell_length_a 31.936782
_cell_length_b 8.411632
_cell_length_c 12.253574
_cell_angle_alpha 90.000000
_cell_angle_beta 90.000000
_cell_angle_gamma 90.000000
_cell_volume 3291.805725
_symmetry_space_group_name_H-M "C M M 2"
_symmetry_group_IT_number 35
_symmetry_cell_setting 'orthorhombic'
loop_
_space_group_symop_operation_xyz
x,y,z
-x,-y,z
-x,y,z
x,-y,z
1/2+x,1/2+y,z
1/2-x,1/2-y,z
1/2-x,1/2+y,z
1/2+x,1/2-y,z
loop_
_atom_site_type_symbol
_atom_site_label
_atom_site_fract_x
_atom_site_fract_y
_atom_site_fract_z
Si Si1 0.204966 0.188678 0.898660
Si Si2 0.579235 0.806557 0.132653
Si Si3 0.953249 0.305726 0.368134
Si Si4 0.626734 0.807572 0.507282
Si Si5 0.873267 0.692427 0.758023
Si Si6 0.453249 0.805725 0.897173
Si Si7 0.704967 0.311322 0.366641
Si Si8 0.676905 0.190880 0.132650
O O1 0.250000 0.250000 0.859546
O O2 0.166894 0.252200 0.825724
O O3 0.204740 0.000000 0.897149
O O4 0.197824 0.247268 0.022476
O O5 0.557299 0.754976 0.244361
O O6 0.627976 0.759986 0.132653
O O7 0.578291 0.000000 0.132654
O O8 0.557299 0.754977 0.020946
O O9 0.952967 0.500000 0.368589
O O10 0.915823 0.253853 0.447154
O O11 0.000000 0.254862 0.399574
O O12 0.628268 0.754406 0.632653
O O13 0.666894 0.752189 0.439582
O O14 0.626547 0.000000 0.506110
O O15 0.873457 0.500000 0.759192
O O16 0.915823 0.746150 0.818153
O O17 0.500000 0.754863 0.865732
O O18 0.452967 0.000000 0.896717
O O19 0.704741 0.500000 0.368139
O O20 0.750000 0.250000 0.405759
O O21 0.697824 0.252713 0.242829
O O22 0.678545 0.000000 0.132642
#
# Coordination Sequence:
#
# PCOD9349749 Si02
#       8
#     8   8   8   8   8   8   8   8
#     4  12  25  41  62  88 118 153 195 240 296 356
#     4   9  15  26  51  83 118 152 186 232 288 342
#     4   9  16  28  51  86 122 154 192 241 294 344
#     4  10  21  38  59  85 118 157 202 250 296 343
#     4  10  21  38  59  85 118 157 202 250 296 343
#     4   9  16  28  51  86 122 154 192 241 294 344
#     4  12  25  41  62  88 118 153 195 240 296 356
#     4  11  20  37  63  90 123 156 190 235 293 349
#
# _framework density 19.442215999999998
#
# number of rings (size 3 to 8) (size 9 to 14) (size 15 to 20)
#    0.000    1.750    2.500    3.375    0.000    3.000 
#    0.000    2.500    0.000    0.750    0.000    3.500 
#    0.000    0.000    0.000    0.000    0.000    0.000 
#
# Total GULP energy -178791.529652 kJ/mol
# GULP energy per Si atom -5587.235302 kJ/mol
# Density = 1.939796 g / cm^3
# Si number density = 19.442216 Si / 1000 Ang^3
#
#
#
# Elastic Constant Matrix: (Units=GPa)
#
#
# Indices 1 2 3 4 5 6 
#
# 1 203.2505 22.9580 93.4828 0.0000 0.0000 0.0000
# 2 22.9580 28.0623 23.9649 0.0000 0.0000 0.0000
# 3 93.4828 23.9649 158.9102 0.0000 0.0000 0.0000
# 4 0.0000 0.0000 0.0000 12.8333 0.0000 0.0000
# 5 0.0000 0.0000 0.0000 0.0000 -18.4065 0.0000
# 6 0.0000 0.0000 0.0000 0.0000 0.0000 19.3395
#
#
#
# Elastic Compliance Matrix: (Units=1/GPa)
#
#
# Indices 1 2 3 4 5 6 
#
# 1 0.006894 -0.002499 -0.003679 0.000000 0.000000 0.000000
# 2 -0.002499 0.041808 -0.004835 0.000000 0.000000 0.000000
# 3 -0.003679 -0.004835 0.009186 0.000000 0.000000 0.000000
# 4 0.000000 0.000000 0.000000 0.077922 0.000000 0.000000
# 5 0.000000 0.000000 0.000000 0.000000 -0.054329 0.000000
# 6 0.000000 0.000000 0.000000 0.000000 0.000000 0.051708
#
#
# Mechanical properties :
#
#
# Convention : Reuss Voigt Hill
#
# Bulk Modulus (GPa) = 27.88350 74.55938 51.22144
# Shear Modulus (GPa) = 29.90968 19.40775 24.65871
#
# Velocity S-wave (km/s) = 3.92648 3.16290 3.56519
# Velocity P-wave (km/s) = 5.91010 7.19521 6.58408
#
# Compressibility (1/GPa) = 0.03586350
#
# Stress axis : x y z
#
# Youngs Moduli (GPa) = 145.04606 23.91872 108.85780
#
# Poissons Ratio (x) = 0.05976 0.40049
# Poissons Ratio (y) = 0.36240 0.52635
# Poissons Ratio (z) = 0.53362 0.11565
#
# Static dielectric constant tensor:
#      x y z
#    x 1.675210 0.000000 0.000000 
#    y 0.000000 1.675900 0.000000 
#    z 0.000000 0.000000 1.667600 
# 
# From -- ./inp_files/14564.got.cif
#   From: 2010.05.17/outbox.cif.g08.bks.cpg/sg35_8_cif.got.tgz:14564.got - 2010.06.03 17:29:28.
