data_PCOD9349970
_publ_section_title
;
Structure prediction by ZEFSAII (Michael W. Deem and Ramdas Pophale) SiO2 
 PCOD9349970
Probable space group: C M M 2
;
_chemical_formula_sum "Si O2"
_cell_formula_units_Z 48
_cell_length_a 27.804097
_cell_length_b 10.156435
_cell_length_c 9.035458
_cell_angle_alpha 90.000000
_cell_angle_beta 90.000000
_cell_angle_gamma 90.000000
_cell_volume 2551.527538
_symmetry_space_group_name_H-M "C M M 2"
_symmetry_group_IT_number 35
_symmetry_cell_setting 'orthorhombic'
loop_
_space_group_symop_operation_xyz
x,y,z
-x,-y,z
-x,y,z
x,-y,z
1/2+x,1/2+y,z
1/2-x,1/2-y,z
1/2-x,1/2+y,z
1/2+x,1/2-y,z
loop_
_atom_site_type_symbol
_atom_site_label
_atom_site_fract_x
_atom_site_fract_y
_atom_site_fract_z
Si Si1 0.787744 0.000000 0.242540
Si Si2 0.943995 0.347197 0.767681
Si Si3 0.643865 0.749291 0.220584
Si Si4 0.555938 0.346540 0.043387
Si Si5 0.808227 0.000000 0.585418
Si Si6 0.707713 0.000000 0.722223
Si Si7 0.855364 0.720225 0.567240
Si Si8 0.187036 0.500000 0.069090
O O1 0.818081 0.130349 0.203461
O O2 0.737212 0.000000 0.159559
O O3 0.783999 0.000000 0.421360
O O4 0.936897 0.500000 0.812928
O O5 0.906497 0.314804 0.638795
O O6 0.000000 0.332465 0.723148
O O7 0.935133 0.248174 0.903465
O O8 0.592222 0.694260 0.172286
O O9 0.644357 0.795447 0.390567
O O10 0.658605 0.870209 0.117846
O O11 0.500000 0.331107 0.085966
O O12 0.563746 0.500000 0.004461
O O13 0.840333 0.870254 0.598259
O O14 0.764702 0.000000 0.699834
O O15 0.683913 0.125713 0.642480
O O16 0.695446 0.000000 0.894568
#
# Coordination Sequence:
#
# PCOD9349970 Si02
#       8
#     4   8   8   8   4   4   8   4
#     4  10  22  44  61  88 123 161 204 252 305 361
#     4  10  22  41  64  92 126 163 203 252 305 362
#     4  11  23  41  64  91 122 162 205 253 306 362
#     4  10  22  41  65  93 126 162 202 252 308 364
#     4  10  24  40  63  88 123 163 202 252 305 363
#     4  12  24  42  59  92 125 160 206 252 303 366
#     4  11  23  41  64  90 123 162 206 252 305 361
#     4  12  26  38  63  92 123 160 204 254 307 366
#
# _framework density 18.812259999999998
#
# number of rings (size 3 to 8) (size 9 to 14) (size 15 to 20)
#    0.000    1.333    1.667    3.500    2.333    7.333 
#    0.000    0.000    0.000    0.000    0.000    0.000 
#    0.000    0.000    0.000    0.000    0.000    0.000 
#
# Total GULP energy -134179.994538 kJ/mol
# GULP energy per Si atom -5590.833106 kJ/mol
# Density = 1.876944 g / cm^3
# Si number density = 18.812260 Si / 1000 Ang^3
#
#
#
# Elastic Constant Matrix: (Units=GPa)
#
#
# Indices 1 2 3 4 5 6 
#
# 1 77.1567 34.9867 39.6615 0.0000 0.0000 0.0000
# 2 34.9867 130.0296 60.3013 0.0000 0.0000 0.0000
# 3 39.6615 60.3013 75.0891 0.0000 0.0000 0.0000
# 4 0.0000 0.0000 0.0000 10.2308 0.0000 0.0000
# 5 0.0000 0.0000 0.0000 0.0000 34.6348 0.0000
# 6 0.0000 0.0000 0.0000 0.0000 0.0000 32.3400
#
#
#
# Elastic Compliance Matrix: (Units=1/GPa)
#
#
# Indices 1 2 3 4 5 6 
#
# 1 0.017829 -0.000685 -0.008867 0.000000 0.000000 0.000000
# 2 -0.000685 0.012281 -0.009500 0.000000 0.000000 0.000000
# 3 -0.008867 -0.009500 0.025630 0.000000 0.000000 0.000000
# 4 0.000000 0.000000 0.000000 0.097744 0.000000 0.000000
# 5 0.000000 0.000000 0.000000 0.000000 0.028873 0.000000
# 6 0.000000 0.000000 0.000000 0.000000 0.000000 0.030921
#
#
# Mechanical properties :
#
#
# Convention : Reuss Voigt Hill
#
# Bulk Modulus (GPa) = 56.70435 61.35272 59.02853
# Shear Modulus (GPa) = 19.43545 25.26287 22.34916
#
# Velocity S-wave (km/s) = 3.21772 3.66853 3.45049
# Velocity P-wave (km/s) = 6.63420 7.11534 6.87898
#
# Compressibility (1/GPa) = 0.01763533
#
# Stress axis : x y z
#
# Youngs Moduli (GPa) = 56.08725 81.42892 39.01628
#
# Poissons Ratio (x) = 0.05579 0.34596
# Poissons Ratio (y) = 0.03843 0.37066
# Poissons Ratio (z) = 0.49733 0.77359
#
# Static dielectric constant tensor:
#      x y z
#    x 1.640780 0.000000 0.000000 
#    y 0.000000 1.644840 0.000000 
#    z 0.000000 0.000000 1.618550 
# 
# From -- ./inp_files/10535.got.cif
#   From: 2010.05.17/outbox.cif.g08.bks.cpg/sg35_6_cif.got.tgz:10535.got - 2010.06.03 17:29:28.
