data_PCOD9349052
_publ_section_title
;
Structure prediction by ZEFSAII (Michael W. Deem and Ramdas Pophale) SiO2 
 PCOD9349052
Probable space group: C M M 2
;
_chemical_formula_sum "Si O2"
_cell_formula_units_Z 48
_cell_length_a 15.550422
_cell_length_b 8.649165
_cell_length_c 17.545169
_cell_angle_alpha 90.000000
_cell_angle_beta 90.000000
_cell_angle_gamma 90.000000
_cell_volume 2359.793047
_symmetry_space_group_name_H-M "C M M 2"
_symmetry_group_IT_number 35
_symmetry_cell_setting 'orthorhombic'
loop_
_space_group_symop_operation_xyz
x,y,z
-x,-y,z
-x,y,z
x,-y,z
1/2+x,1/2+y,z
1/2-x,1/2-y,z
1/2-x,1/2+y,z
1/2+x,1/2-y,z
loop_
_atom_site_type_symbol
_atom_site_label
_atom_site_fract_x
_atom_site_fract_y
_atom_site_fract_z
Si Si1 0.652284 0.815262 0.139000
Si Si2 0.847164 0.814443 0.466057
Si Si3 0.500000 0.183283 0.867876
Si Si4 0.652591 0.314257 0.298853
Si Si5 0.000000 0.184264 0.036962
Si Si6 0.159234 0.182142 0.775357
Si Si7 0.399777 0.176319 0.623884
O O1 0.750000 0.750000 0.129811
O O2 0.617374 0.760434 0.221945
O O3 0.585339 0.752360 0.077151
O O4 0.656545 0.000000 0.136781
O O5 0.750000 0.750000 0.467513
O O6 0.885406 0.777184 0.382248
O O7 0.892041 0.740131 0.538675
O O8 0.846137 0.000000 0.473142
O O9 0.416932 0.234079 0.820036
O O10 0.500000 0.000000 0.879063
O O11 0.500000 0.267609 0.948948
O O12 0.653473 0.500000 0.290531
O O13 0.750000 0.250000 0.302237
O O14 0.000000 0.000000 0.045365
O O15 0.250000 0.250000 0.800955
O O16 0.148036 0.219950 0.685725
O O17 0.154491 0.000000 0.787794
O O18 0.500000 0.175283 0.645117
O O19 0.366916 0.000000 0.627457
#
# Coordination Sequence:
#
# PCOD9349052 Si02
#       7
#     8   8   4   8   4   8   8
#     4  11  22  40  66  97 131 172 216 265 321 381
#     4  10  20  34  55  83 118 160 211 263 316 373
#     4  12  26  48  72 101 136 165 206 262 318 383
#     4   9  17  32  55  84 118 163 210 263 317 371
#     4  12  26  46  70  99 132 169 212 260 318 383
#     4  12  25  44  71 100 131 172 215 260 317 380
#     4  11  23  39  59  85 123 167 213 267 321 374
#
# _framework density 20.340765000000001
#
# number of rings (size 3 to 8) (size 9 to 14) (size 15 to 20)
#    0.000    1.167    0.833    7.500    0.000    3.667 
#    1.500    3.333    0.000    0.000    0.000    0.000 
#    0.000    0.000    0.000    0.000    0.000    0.000 
#
# Total GULP energy -134181.335666 kJ/mol
# GULP energy per Si atom -5590.888986 kJ/mol
# Density = 2.029447 g / cm^3
# Si number density = 20.340765 Si / 1000 Ang^3
#
#
#
# Elastic Constant Matrix: (Units=GPa)
#
#
# Indices 1 2 3 4 5 6 
#
# 1 95.6992 25.8717 37.8535 0.0000 0.0000 0.0000
# 2 25.8717 129.3946 23.1434 0.0000 0.0000 0.0000
# 3 37.8535 23.1434 115.8558 0.0000 0.0000 0.0000
# 4 0.0000 0.0000 0.0000 37.8162 0.0000 0.0000
# 5 0.0000 0.0000 0.0000 0.0000 37.0713 0.0000
# 6 0.0000 0.0000 0.0000 0.0000 0.0000 27.4612
#
#
#
# Elastic Compliance Matrix: (Units=1/GPa)
#
#
# Indices 1 2 3 4 5 6 
#
# 1 0.012400 -0.001820 -0.003688 0.000000 0.000000 0.000000
# 2 -0.001820 0.008282 -0.001060 0.000000 0.000000 0.000000
# 3 -0.003688 -0.001060 0.010048 0.000000 0.000000 0.000000
# 4 0.000000 0.000000 0.000000 0.026444 0.000000 0.000000
# 5 0.000000 0.000000 0.000000 0.000000 0.026975 0.000000
# 6 0.000000 0.000000 0.000000 0.000000 0.000000 0.036415
#
#
# Mechanical properties :
#
#
# Convention : Reuss Voigt Hill
#
# Bulk Modulus (GPa) = 56.83453 57.18742 57.01097
# Shear Modulus (GPa) = 35.82597 37.40848 36.61723
#
# Velocity S-wave (km/s) = 4.20132 4.29311 4.24747
# Velocity P-wave (km/s) = 7.17891 7.26293 7.22104
#
# Compressibility (1/GPa) = 0.01759494
#
# Stress axis : x y z
#
# Youngs Moduli (GPa) = 80.64443 120.74822 99.52137
#
# Poissons Ratio (x) = 0.21973 0.36703
# Poissons Ratio (y) = 0.14675 0.10547
# Poissons Ratio (z) = 0.29741 0.12797
#
# Static dielectric constant tensor:
#      x y z
#    x 1.738450 0.000000 0.000000 
#    y 0.000000 1.680720 0.000000 
#    z 0.000000 0.000000 1.730130 
# 
# From -- ./inp_files/18770.got.cif
#   From: 2010.05.17/outbox.cif.g08.bks.cpg/sg35_10_cif.got.tgz:18770.got - 2010.06.03 17:29:28.
