data_PCOD9349730
_publ_section_title
;
Structure prediction by ZEFSAII (Michael W. Deem and Ramdas Pophale) SiO2 
 PCOD9349730
Probable space group: C M M 2
;
_chemical_formula_sum "Si O2"
_cell_formula_units_Z 58
_cell_length_a 18.635094
_cell_length_b 14.290264
_cell_length_c 11.586654
_cell_angle_alpha 90.000000
_cell_angle_beta 90.000000
_cell_angle_gamma 90.000000
_cell_volume 3085.530745
_symmetry_space_group_name_H-M "C M M 2"
_symmetry_group_IT_number 35
_symmetry_cell_setting 'orthorhombic'
loop_
_space_group_symop_operation_xyz
x,y,z
-x,-y,z
-x,y,z
x,-y,z
1/2+x,1/2+y,z
1/2-x,1/2-y,z
1/2-x,1/2+y,z
1/2+x,1/2-y,z
loop_
_atom_site_type_symbol
_atom_site_label
_atom_site_fract_x
_atom_site_fract_y
_atom_site_fract_z
Si Si1 0.313866 0.110451 0.931160
Si Si2 0.829126 0.732433 0.702651
Si Si3 0.918365 0.389263 0.131946
Si Si4 0.334222 0.746235 0.279619
Si Si5 0.500000 0.000000 0.432867
Si Si6 0.578836 0.811181 0.488212
Si Si7 0.084586 0.888786 0.834561
Si Si8 0.668324 0.388882 0.066601
O O1 0.317056 0.168439 0.815052
O O2 0.305902 0.000000 0.906812
O O3 0.386380 0.124347 0.004387
O O4 0.245754 0.137095 0.011028
O O5 0.750000 0.750000 0.653364
O O6 0.878094 0.684191 0.606935
O O7 0.868351 0.826007 0.748590
O O8 0.919547 0.500000 0.155288
O O9 0.863522 0.338274 0.215239
O O10 0.000000 0.354502 0.145619
O O11 0.250000 0.750000 0.303614
O O12 0.378900 0.747156 0.397299
O O13 0.346271 0.665386 0.184611
O O14 0.561246 0.915311 0.440090
O O15 0.500000 0.769440 0.510603
O O16 0.000000 0.869250 0.823026
O O17 0.096618 0.000000 0.816049
O O18 0.111325 0.868200 0.965237
O O19 0.669008 0.500000 0.087223
#
# Coordination Sequence:
#
# PCOD9349730 Si02
#       8
#     8   8   8   8   2   8   8   8
#     4  10  21  37  60  94 134 169 207 269 336 401
#     4  12  23  38  67  96 130 167 222 274 326 395
#     4  10  22  37  59  93 129 168 212 267 336 400
#     4  12  23  37  65  90 126 168 217 267 320 393
#     4   8  24  52  68  88 132 176 218 284 336 390
#     4  10  25  45  65  92 127 172 221 270 329 388
#     4  10  22  40  62  90 128 176 220 263 325 391
#     4  10  21  40  60  92 131 172 212 265 332 390
#
# _framework density 18.797414
#
# number of rings (size 3 to 8) (size 9 to 14) (size 15 to 20)
#    0.414    1.103    2.759    2.069    1.931    3.310 
#    0.000    0.690    0.000    0.828    0.000    0.000 
#    0.000    0.000    0.000    0.000    0.000    0.000 
#
# Total GULP energy -161625.570717 kJ/mol
# GULP energy per Si atom -5573.295542 kJ/mol
# Density = 1.875463 g / cm^3
# Si number density = 18.797414 Si / 1000 Ang^3
#
#
#
# Elastic Constant Matrix: (Units=GPa)
#
#
# Indices 1 2 3 4 5 6 
#
# 1 138.8209 38.5309 33.5478 0.0000 0.0000 0.0000
# 2 38.5309 69.0508 29.9143 0.0000 0.0000 0.0000
# 3 33.5478 29.9143 69.5449 0.0000 0.0000 0.0000
# 4 0.0000 0.0000 0.0000 9.6699 0.0000 0.0000
# 5 0.0000 0.0000 0.0000 0.0000 -20.3311 0.0000
# 6 0.0000 0.0000 0.0000 0.0000 0.0000 27.8262
#
#
#
# Elastic Compliance Matrix: (Units=1/GPa)
#
#
# Indices 1 2 3 4 5 6 
#
# 1 0.008905 -0.003820 -0.002653 0.000000 0.000000 0.000000
# 2 -0.003820 0.019437 -0.006518 0.000000 0.000000 0.000000
# 3 -0.002653 -0.006518 0.018463 0.000000 0.000000 0.000000
# 4 0.000000 0.000000 0.000000 0.103414 0.000000 0.000000
# 5 0.000000 0.000000 0.000000 0.000000 -0.049186 0.000000
# 6 0.000000 0.000000 0.000000 0.000000 0.000000 0.035937
#
#
# Mechanical properties :
#
#
# Convention : Reuss Voigt Hill
#
# Bulk Modulus (GPa) = 48.02248 53.48918 50.75583
# Shear Modulus (GPa) = 29.43037 15.12789 22.27913
#
# Velocity S-wave (km/s) = 3.96114 2.83995 3.44644
# Velocity P-wave (km/s) = 6.82082 6.26667 6.54961
#
# Compressibility (1/GPa) = 0.02082358
#
# Stress axis : x y z
#
# Youngs Moduli (GPa) = 112.29954 51.44717 54.16370
#
# Poissons Ratio (x) = 0.19652 0.14367
# Poissons Ratio (y) = 0.42896 0.35305
# Poissons Ratio (z) = 0.29788 0.33535
#
# Static dielectric constant tensor:
#      x y z
#    x 1.676300 0.000000 0.000000 
#    y 0.000000 1.651660 0.000000 
#    z 0.000000 0.000000 1.657190 
# 
# From -- ./inp_files/13125.got.cif
#   From: 2010.05.17/outbox.cif.g08.bks.cpg/sg35_7_cif.got.tgz:13125.got - 2010.06.03 17:29:28.
