data_PCOD9349729
_publ_section_title
;
Structure prediction by ZEFSAII (Michael W. Deem and Ramdas Pophale) SiO2 
 PCOD9349729
Probable space group: C M M 2
;
_chemical_formula_sum "Si O2"
_cell_formula_units_Z 56
_cell_length_a 14.223170
_cell_length_b 14.725254
_cell_length_c 12.872469
_cell_angle_alpha 90.000000
_cell_angle_beta 90.000000
_cell_angle_gamma 90.000000
_cell_volume 2696.007216
_symmetry_space_group_name_H-M "C M M 2"
_symmetry_group_IT_number 35
_symmetry_cell_setting 'orthorhombic'
loop_
_space_group_symop_operation_xyz
x,y,z
-x,-y,z
-x,y,z
x,-y,z
1/2+x,1/2+y,z
1/2-x,1/2-y,z
1/2-x,1/2+y,z
1/2+x,1/2-y,z
loop_
_atom_site_type_symbol
_atom_site_label
_atom_site_fract_x
_atom_site_fract_y
_atom_site_fract_z
Si Si1 0.276990 0.852500 0.661770
Si Si2 0.799431 0.393419 0.257741
Si Si3 0.388543 0.209329 0.061712
Si Si4 0.110151 0.901765 0.525488
Si Si5 0.610316 0.898215 0.863480
Si Si6 0.888267 0.300472 0.457539
Si Si7 0.393510 0.396884 0.162323
O O1 0.250000 0.750000 0.690566
O O2 0.181369 0.898673 0.622262
O O3 0.330126 0.894184 0.758828
O O4 0.344779 0.845203 0.561150
O O5 0.824826 0.500000 0.258199
O O6 0.839392 0.343791 0.155517
O O7 0.840256 0.344126 0.357812
O O8 0.686914 0.386669 0.247677
O O9 0.500000 0.189781 0.068490
O O10 0.377258 0.316894 0.079685
O O11 0.356702 0.172489 0.950578
O O12 0.129824 0.807878 0.465735
O O13 0.000000 0.897300 0.555370
O O14 0.124569 0.000000 0.471603
O O15 0.500000 0.880463 0.839343
O O16 0.616318 0.000000 0.908524
O O17 0.000000 0.314319 0.453146
O O18 0.500000 0.385421 0.203537
O O19 0.385823 0.500000 0.120623
#
# Coordination Sequence:
#
# PCOD9349729 Si02
#       7
#     8   8   8   8   8   8   8
#     4  10  21  37  60  88 121 161 201 246 298 354
#     4  11  23  39  62  90 122 159 198 243 297 357
#     4  10  21  38  61  89 123 159 198 246 298 356
#     4   9  19  38  63  89 120 159 202 248 297 352
#     4  10  21  38  62  91 122 158 200 246 298 356
#     4  10  22  40  61  89 124 158 197 246 299 357
#     4   9  20  40  64  89 119 157 201 248 297 352
#
# _framework density 20.771457999999999
#
# number of rings (size 3 to 8) (size 9 to 14) (size 15 to 20)
#    0.000    2.143    0.000    2.143    0.000    8.000 
#    0.000    4.286    0.000   14.571    0.000   14.000 
#    0.000    0.000    0.000    0.000    0.000    0.000 
#
# Total GULP energy -156461.202368 kJ/mol
# GULP energy per Si atom -5587.900085 kJ/mol
# Density = 2.072418 g / cm^3
# Si number density = 20.771458 Si / 1000 Ang^3
#
#
#
# Elastic Constant Matrix: (Units=GPa)
#
#
# Indices 1 2 3 4 5 6 
#
# 1 93.5804 63.8767 63.4847 0.0000 0.0000 0.0000
# 2 63.8767 134.4469 66.9723 0.0000 0.0000 0.0000
# 3 63.4847 66.9723 128.9139 0.0000 0.0000 0.0000
# 4 0.0000 0.0000 0.0000 14.3194 0.0000 0.0000
# 5 0.0000 0.0000 0.0000 0.0000 24.4162 0.0000
# 6 0.0000 0.0000 0.0000 0.0000 0.0000 24.3477
#
#
#
# Elastic Compliance Matrix: (Units=1/GPa)
#
#
# Indices 1 2 3 4 5 6 
#
# 1 0.018962 -0.005879 -0.006284 0.000000 0.000000 0.000000
# 2 -0.005879 0.011857 -0.003265 0.000000 0.000000 0.000000
# 3 -0.006284 -0.003265 0.012548 0.000000 0.000000 0.000000
# 4 0.000000 0.000000 0.000000 0.069835 0.000000 0.000000
# 5 0.000000 0.000000 0.000000 0.000000 0.040956 0.000000
# 6 0.000000 0.000000 0.000000 0.000000 0.000000 0.041072
#
#
# Mechanical properties :
#
#
# Convention : Reuss Voigt Hill
#
# Bulk Modulus (GPa) = 79.92429 82.84541 81.38485
# Shear Modulus (GPa) = 21.71500 23.45715 22.58608
#
# Velocity S-wave (km/s) = 3.23681 3.36415 3.30109
# Velocity P-wave (km/s) = 7.24781 7.42030 7.33456
#
# Compressibility (1/GPa) = 0.01251184
#
# Stress axis : x y z
#
# Youngs Moduli (GPa) = 52.73827 84.33638 79.69515
#
# Poissons Ratio (x) = 0.49578 0.50078
# Poissons Ratio (y) = 0.31003 0.26021
# Poissons Ratio (z) = 0.33139 0.27536
#
# Static dielectric constant tensor:
#      x y z
#    x 1.759240 0.000000 0.000000 
#    y 0.000000 1.761910 0.000000 
#    z 0.000000 0.000000 1.696010 
# 
# From -- ./inp_files/12972.got.cif
#   From: 2010.05.17/outbox.cif.g08.bks.cpg/sg35_7_cif.got.tgz:12972.got - 2010.06.03 17:29:28.
