data_PCOD9349618
_publ_section_title
;
Structure prediction by ZEFSAII (Michael W. Deem and Ramdas Pophale) SiO2 
 PCOD9349618
Probable space group: C M M 2
;
_chemical_formula_sum "Si O2"
_cell_formula_units_Z 64
_cell_length_a 9.419596
_cell_length_b 18.641554
_cell_length_c 20.974487
_cell_angle_alpha 90.000000
_cell_angle_beta 90.000000
_cell_angle_gamma 90.000000
_cell_volume 3683.034079
_symmetry_space_group_name_H-M "C M M 2"
_symmetry_group_IT_number 35
_symmetry_cell_setting 'orthorhombic'
loop_
_space_group_symop_operation_xyz
x,y,z
-x,-y,z
-x,y,z
x,-y,z
1/2+x,1/2+y,z
1/2-x,1/2-y,z
1/2-x,1/2+y,z
1/2+x,1/2-y,z
loop_
_atom_site_type_symbol
_atom_site_label
_atom_site_fract_x
_atom_site_fract_y
_atom_site_fract_z
Si Si1 0.169798 0.825103 0.208790
Si Si2 0.331956 0.415308 0.081478
Si Si3 0.668111 0.825301 0.978399
Si Si4 0.337211 0.087466 0.460919
Si Si5 0.167564 0.324679 0.830166
Si Si6 0.169499 0.084534 0.334127
Si Si7 0.833717 0.086130 0.727383
Si Si8 0.663990 0.412668 0.583721
O O1 0.250000 0.750000 0.205304
O O2 0.200439 0.873234 0.146738
O O3 0.208324 0.868851 0.272614
O O4 0.000000 0.813103 0.210230
O O5 0.500000 0.404581 0.067441
O O6 0.308415 0.500000 0.089466
O O7 0.237651 0.382587 0.025360
O O8 0.500000 0.816153 0.990500
O O9 0.750000 0.750000 0.987869
O O10 0.686145 0.846664 0.904215
O O11 0.500000 0.110737 0.457819
O O12 0.251296 0.108035 0.397674
O O13 0.261719 0.112252 0.525849
O O14 0.335461 0.000000 0.462295
O O15 0.250000 0.250000 0.822204
O O16 0.236055 0.379557 0.780810
O O17 0.000000 0.315521 0.818890
O O18 0.000000 0.090355 0.344391
O O19 0.199968 0.000000 0.322521
O O20 0.793823 0.109478 0.655288
O O21 0.000000 0.104926 0.737255
O O22 0.823881 0.000000 0.729739
O O23 0.500000 0.392038 0.573024
O O24 0.667013 0.500000 0.583622
#
# Coordination Sequence:
#
# PCOD9349618 Si02
#       8
#     8   8   8   8   8   8   8   8
#     4  10  21  36  54  76 102 134 171 208 249 300
#     4  10  21  37  57  81 108 137 170 210 255 303
#     4  10  21  37  56  78 104 136 174 213 255 306
#     4   9  16  25  41  69 101 129 161 205 253 298
#     4  10  21  36  54  75 102 137 175 214 256 306
#     4   9  17  31  51  72  96 129 167 206 249 299
#     4   9  18  32  51  76 105 136 172 215 260 307
#     4   8  14  26  44  67  97 133 169 203 245 300
#
# _framework density 17.376978000000001
#
# number of rings (size 3 to 8) (size 9 to 14) (size 15 to 20)
#    0.000    2.625    0.000    2.625    0.000    8.000 
#    0.000    3.750    0.000    3.000    0.000    3.500 
#    0.000    0.000    0.000    0.000    0.000    0.000 
#
# Total GULP energy -178467.409133 kJ/mol
# GULP energy per Si atom -5577.106535 kJ/mol
# Density = 1.733743 g / cm^3
# Si number density = 17.376978 Si / 1000 Ang^3
#
#
#
# Elastic Constant Matrix: (Units=GPa)
#
#
# Indices 1 2 3 4 5 6 
#
# 1 96.7586 57.2968 100.5713 0.0000 0.0000 0.0000
# 2 57.2968 64.6104 71.8925 0.0000 0.0000 0.0000
# 3 100.5713 71.8925 147.4528 0.0000 0.0000 0.0000
# 4 0.0000 0.0000 0.0000 -41.9166 0.0000 0.0000
# 5 0.0000 0.0000 0.0000 0.0000 10.0079 0.0000
# 6 0.0000 0.0000 0.0000 0.0000 0.0000 27.0191
#
#
#
# Elastic Compliance Matrix: (Units=1/GPa)
#
#
# Indices 1 2 3 4 5 6 
#
# 1 0.038679 -0.010811 -0.021110 0.000000 0.000000 0.000000
# 2 -0.010811 0.036853 -0.010594 0.000000 0.000000 0.000000
# 3 -0.021110 -0.010594 0.026346 0.000000 0.000000 0.000000
# 4 0.000000 0.000000 0.000000 -0.023857 0.000000 0.000000
# 5 0.000000 0.000000 0.000000 0.000000 0.099921 0.000000
# 6 0.000000 0.000000 0.000000 0.000000 0.000000 0.037011
#
#
# Mechanical properties :
#
#
# Convention : Reuss Voigt Hill
#
# Bulk Modulus (GPa) = 59.36018 85.37143 72.36581
# Shear Modulus (GPa) = 16.36123 4.29282 10.32703
#
# Velocity S-wave (km/s) = 3.07179 1.57346 2.44046
# Velocity P-wave (km/s) = 6.84219 7.24822 7.04813
#
# Compressibility (1/GPa) = 0.01684631
#
# Stress axis : x y z
#
# Youngs Moduli (GPa) = 25.85381 27.13456 37.95700
#
# Poissons Ratio (x) = 0.29336 0.80128
# Poissons Ratio (y) = 0.27951 0.40213
# Poissons Ratio (z) = 0.54578 0.28747
#
# Static dielectric constant tensor:
#      x y z
#    x 1.577050 0.000000 0.000000 
#    y 0.000000 1.568020 0.000000 
#    z 0.000000 0.000000 1.583590 
# 
# From -- ./inp_files/18415.got.cif
#   From: 2010.05.17/outbox.cif.g08.bks.cpg/sg35_10_cif.got.tgz:18415.got - 2010.06.03 17:29:28.
