data_PCOD9349984
_publ_section_title
;
Structure prediction by ZEFSAII (Michael W. Deem and Ramdas Pophale) SiO2 
 PCOD9349984
Probable space group: C M M 2
;
_chemical_formula_sum "Si O2"
_cell_formula_units_Z 48
_cell_length_a 15.378531
_cell_length_b 10.221464
_cell_length_c 15.787868
_cell_angle_alpha 90.000000
_cell_angle_beta 90.000000
_cell_angle_gamma 90.000000
_cell_volume 2481.712353
_symmetry_space_group_name_H-M "C M M 2"
_symmetry_group_IT_number 35
_symmetry_cell_setting 'orthorhombic'
loop_
_space_group_symop_operation_xyz
x,y,z
-x,-y,z
-x,y,z
x,-y,z
1/2+x,1/2+y,z
1/2-x,1/2-y,z
1/2-x,1/2+y,z
1/2+x,1/2-y,z
loop_
_atom_site_type_symbol
_atom_site_label
_atom_site_fract_x
_atom_site_fract_y
_atom_site_fract_z
Si Si1 0.148331 0.244686 0.264660
Si Si2 0.105599 0.648980 0.899303
Si Si3 0.895831 0.156214 0.748191
Si Si4 0.593853 0.000000 0.359298
Si Si5 0.894905 0.650773 0.091724
Si Si6 0.403401 0.500000 0.376108
Si Si7 0.750000 0.750000 0.617695
Si Si8 0.258943 0.000000 0.500049
O O1 0.250000 0.250000 0.285189
O O2 0.103616 0.374061 0.300549
O O3 0.137496 0.250849 0.163559
O O4 0.109607 0.123267 0.314540
O O5 0.134488 0.500000 0.877306
O O6 0.128479 0.759439 0.831525
O O7 0.000000 0.644895 0.900866
O O8 0.133377 0.679641 0.995523
O O9 0.832963 0.210569 0.674987
O O10 0.000000 0.175500 0.731824
O O11 0.882335 0.000000 0.758824
O O12 0.500000 0.000000 0.401604
O O13 0.669001 0.000000 0.427647
O O14 0.868012 0.500000 0.110672
O O15 0.000000 0.653330 0.093667
O O16 0.500000 0.500000 0.412491
O O17 0.332898 0.500000 0.450696
O O18 0.731140 0.873128 0.558037
#
# Coordination Sequence:
#
# PCOD9349984 Si02
#       8
#     8   8   8   4   8   4   4   4
#     4  12  22  40  63  93 134 170 210 263 312 367
#     4   8  16  33  61  94 128 167 215 262 299 358
#     4  10  22  43  68  96 130 169 206 252 323 386
#     4  12  24  44  72  93 119 168 215 255 312 382
#     4   9  17  33  60  93 125 169 222 259 298 358
#     4  12  26  44  66  93 129 170 207 261 328 380
#     4  12  26  44  70  94 130 162 200 266 330 382
#     4  12  26  46  66  96 128 156 208 270 324 380
#
# _framework density 19.341486
#
# number of rings (size 3 to 8) (size 9 to 14) (size 15 to 20)
#    0.000    1.500    3.333    3.500    1.167    1.333 
#    3.000    0.000    0.000    0.000    0.000    0.000 
#    0.000    0.000    0.000    0.000    0.000    0.000 
#
# Total GULP energy -134034.590181 kJ/mol
# GULP energy per Si atom -5584.774591 kJ/mol
# Density = 1.929746 g / cm^3
# Si number density = 19.341486 Si / 1000 Ang^3
#
#
#
# Elastic Constant Matrix: (Units=GPa)
#
#
# Indices 1 2 3 4 5 6 
#
# 1 95.2566 29.1876 35.2598 0.0000 0.0000 0.0000
# 2 29.1876 142.9782 69.4591 0.0000 0.0000 0.0000
# 3 35.2598 69.4591 123.7621 0.0000 0.0000 0.0000
# 4 0.0000 0.0000 0.0000 7.6872 0.0000 0.0000
# 5 0.0000 0.0000 0.0000 0.0000 34.6087 0.0000
# 6 0.0000 0.0000 0.0000 0.0000 0.0000 24.0721
#
#
#
# Elastic Compliance Matrix: (Units=1/GPa)
#
#
# Indices 1 2 3 4 5 6 
#
# 1 0.011854 -0.001071 -0.002776 0.000000 0.000000 0.000000
# 2 -0.001071 0.009713 -0.005146 0.000000 0.000000 0.000000
# 3 -0.002776 -0.005146 0.011759 0.000000 0.000000 0.000000
# 4 0.000000 0.000000 0.000000 0.130086 0.000000 0.000000
# 5 0.000000 0.000000 0.000000 0.000000 0.028894 0.000000
# 6 0.000000 0.000000 0.000000 0.000000 0.000000 0.041542
#
#
# Mechanical properties :
#
#
# Convention : Reuss Voigt Hill
#
# Bulk Modulus (GPa) = 65.19234 69.97888 67.58561
# Shear Modulus (GPa) = 19.45931 28.47964 23.96947
#
# Velocity S-wave (km/s) = 3.17534 3.84143 3.52416
# Velocity P-wave (km/s) = 6.87189 7.47895 7.18184
#
# Compressibility (1/GPa) = 0.01533923
#
# Stress axis : x y z
#
# Youngs Moduli (GPa) = 84.36169 102.95893 85.04231
#
# Poissons Ratio (x) = 0.11030 0.23607
# Poissons Ratio (y) = 0.09038 0.43761
# Poissons Ratio (z) = 0.23418 0.52981
#
# Static dielectric constant tensor:
#      x y z
#    x 1.693230 0.000000 0.000000 
#    y 0.000000 1.738050 0.000000 
#    z 0.000000 0.000000 1.662000 
# 
# From -- ./inp_files/18811.got.cif
#   From: 2010.05.17/outbox.cif.g08.bks.cpg/sg35_10_cif.got.tgz:18811.got - 2010.06.03 17:29:28.
