data_PCOD9349892
_publ_section_title
;
Structure prediction by ZEFSAII (Michael W. Deem and Ramdas Pophale) SiO2 
 PCOD9349892
Probable space group: C M M 2
;
_chemical_formula_sum "Si O2"
_cell_formula_units_Z 30
_cell_length_a 15.778359
_cell_length_b 10.604168
_cell_length_c 8.299934
_cell_angle_alpha 90.000000
_cell_angle_beta 90.000000
_cell_angle_gamma 90.000000
_cell_volume 1388.714825
_symmetry_space_group_name_H-M "C M M 2"
_symmetry_group_IT_number 35
_symmetry_cell_setting 'orthorhombic'
loop_
_space_group_symop_operation_xyz
x,y,z
-x,-y,z
-x,y,z
x,-y,z
1/2+x,1/2+y,z
1/2-x,1/2-y,z
1/2-x,1/2+y,z
1/2+x,1/2-y,z
loop_
_atom_site_type_symbol
_atom_site_label
_atom_site_fract_x
_atom_site_fract_y
_atom_site_fract_z
Si Si1 0.500000 0.766199 0.143050
Si Si2 0.500000 0.640603 0.839129
Si Si3 0.177293 0.853841 0.703254
Si Si4 0.000000 0.500000 0.893006
Si Si5 0.902998 0.500000 0.571301
Si Si6 0.157548 0.740472 0.380236
O O1 0.417512 0.765425 0.254079
O O2 0.500000 0.644631 0.030160
O O3 0.500000 0.880734 0.013274
O O4 0.500000 0.500000 0.771683
O O5 0.410772 0.694158 0.781013
O O6 0.250000 0.750000 0.739027
O O7 0.158055 0.851236 0.511973
O O8 0.196004 0.000000 0.752178
O O9 0.078624 0.500000 0.763776
O O10 0.855392 0.380783 0.496695
O O11 0.000000 0.500000 0.504613
O O12 0.250000 0.750000 0.300984
#
# Coordination Sequence:
#
# PCOD9349892 Si02
#       6
#     4   4   8   2   4   8
#     4  12  22  43  62 105 138 195 217 287 364 440
#     4  10  23  43  67  91 139 181 226 281 357 420
#     4  10  23  44  68  99 131 179 238 293 337 407
#     4  10  22  40  78  98 134 182 248 300 346 396
#     4  10  21  46  75 101 127 187 254 297 333 407
#     4  11  24  39  71 101 141 176 236 296 348 414
#
# _framework density 21.602708
#
# number of rings (size 3 to 8) (size 9 to 14) (size 15 to 20)
#    0.400    1.067    1.333    3.200    7.467    2.133 
#    2.400    1.333    0.000    0.000    0.000    0.000 
#    0.000    0.000    0.000    0.000    0.000    0.000 
#
# Total GULP energy -83636.808968 kJ/mol
# GULP energy per Si atom -5575.787265 kJ/mol
# Density = 2.155354 g / cm^3
# Si number density = 21.602708 Si / 1000 Ang^3
#
#
#
# Elastic Constant Matrix: (Units=GPa)
#
#
# Indices 1 2 3 4 5 6 
#
# 1 229.4302 68.8729 97.5882 0.0000 0.0000 0.0000
# 2 68.8729 122.2412 16.4576 0.0000 0.0000 0.0000
# 3 97.5882 16.4576 93.1747 0.0000 0.0000 0.0000
# 4 0.0000 0.0000 0.0000 30.2921 0.0000 0.0000
# 5 0.0000 0.0000 0.0000 0.0000 884.2954 0.0000
# 6 0.0000 0.0000 0.0000 0.0000 0.0000 21.7073
#
#
#
# Elastic Compliance Matrix: (Units=1/GPa)
#
#
# Indices 1 2 3 4 5 6 
#
# 1 0.009535 -0.004126 -0.009258 0.000000 0.000000 0.000000
# 2 -0.004126 0.010165 0.002526 0.000000 0.000000 0.000000
# 3 -0.009258 0.002526 0.019983 0.000000 0.000000 0.000000
# 4 0.000000 0.000000 0.000000 0.033012 0.000000 0.000000
# 5 0.000000 0.000000 0.000000 0.000000 0.001131 0.000000
# 6 0.000000 0.000000 0.000000 0.000000 0.000000 0.046067
#
#
# Mechanical properties :
#
#
# Convention : Reuss Voigt Hill
#
# Bulk Modulus (GPa) = 55.65766 90.07594 72.86680
# Shear Modulus (GPa) = 33.87579 204.72078 119.29828
#
# Velocity S-wave (km/s) = 3.96425 9.74536 7.43933
# Velocity P-wave (km/s) = 6.83914 12.97754 10.37281
#
# Compressibility (1/GPa) = 0.01796698
#
# Stress axis : x y z
#
# Youngs Moduli (GPa) = 104.87683 98.37646 50.04295
#
# Poissons Ratio (x) = 0.40588 0.46329
# Poissons Ratio (y) = 0.43270 -0.12640
# Poissons Ratio (z) = 0.97094 -0.24847
#
# Static dielectric constant tensor:
#      x y z
#    x 1.487040 0.000000 0.000000 
#    y 0.000000 1.892120 0.000000 
#    z 0.000000 0.000000 1.755820 
# 
# From -- ./inp_files/6725.got.cif
#   From: 2010.05.17/outbox.cif.g08.bks.cpg/sg35_4_cif.got.tgz:6725.got - 2010.06.03 17:29:28.
