data_PCOD9349279
_publ_section_title
;
Structure prediction by ZEFSAII (Michael W. Deem and Ramdas Pophale) SiO2 
 PCOD9349279
Probable space group: C M M 2
;
_chemical_formula_sum "Si O2"
_cell_formula_units_Z 64
_cell_length_a 14.340315
_cell_length_b 18.469351
_cell_length_c 12.399264
_cell_angle_alpha 90.000000
_cell_angle_beta 90.000000
_cell_angle_gamma 90.000000
_cell_volume 3284.023324
_symmetry_space_group_name_H-M "C M M 2"
_symmetry_group_IT_number 35
_symmetry_cell_setting 'orthorhombic'
loop_
_space_group_symop_operation_xyz
x,y,z
-x,-y,z
-x,y,z
x,-y,z
1/2+x,1/2+y,z
1/2-x,1/2-y,z
1/2-x,1/2+y,z
1/2+x,1/2-y,z
loop_
_atom_site_type_symbol
_atom_site_label
_atom_site_fract_x
_atom_site_fract_y
_atom_site_fract_z
Si Si1 0.854512 0.143234 0.914270
Si Si2 0.605321 0.207430 0.810363
Si Si3 0.110241 0.413824 0.417673
Si Si4 0.223302 0.670872 0.598776
Si Si5 0.398255 0.415507 0.689430
Si Si6 0.318237 0.851750 0.192481
Si Si7 0.392802 0.688687 0.153975
Si Si8 0.153115 0.417592 0.966827
O O1 0.845635 0.223481 0.864119
O O2 0.901007 0.099110 0.817755
O O3 0.759593 0.100694 0.936106
O O4 0.897694 0.159493 0.030968
O O5 0.500000 0.229954 0.782857
O O6 0.659921 0.183014 0.704574
O O7 0.601238 0.142345 0.896016
O O8 0.126581 0.500000 0.416807
O O9 0.168183 0.376191 0.512434
O O10 0.142306 0.379661 0.304741
O O11 0.000000 0.401371 0.433276
O O12 0.250000 0.750000 0.554536
O O13 0.316827 0.631310 0.637706
O O14 0.500000 0.396684 0.644291
O O15 0.380250 0.500000 0.671028
O O16 0.362337 0.773117 0.162625
O O17 0.204039 0.848056 0.197973
O O18 0.351079 0.902515 0.094112
O O19 0.500000 0.679760 0.198199
O O20 0.127959 0.500000 0.941268
#
# Coordination Sequence:
#
# PCOD9349279 Si02
#       8
#     8   8   8   8   8   8   8   8
#     4  11  20  37  58  90 129 173 210 247 301 369
#     4  12  23  38  62  92 128 167 207 256 313 377
#     4  11  26  48  70  91 122 166 214 264 320 386
#     4  12  25  42  67  94 126 163 209 266 321 373
#     4  11  23  39  62  92 128 171 213 252 303 372
#     4  10  22  39  65  92 124 164 213 262 317 379
#     4  10  20  35  61  96 132 165 207 261 314 370
#     4  11  22  37  60  93 130 167 206 256 316 373
#
# _framework density 19.488289000000002
#
# number of rings (size 3 to 8) (size 9 to 14) (size 15 to 20)
#    0.000    1.000    3.750    3.375    1.750    1.750 
#    0.000    0.625    0.000    9.000    0.000    0.000 
#    0.000    0.000    0.000    0.000    0.000    0.000 
#
# Total GULP energy -178604.028623 kJ/mol
# GULP energy per Si atom -5581.375894 kJ/mol
# Density = 1.944393 g / cm^3
# Si number density = 19.488289 Si / 1000 Ang^3
#
#
#
# Elastic Constant Matrix: (Units=GPa)
#
#
# Indices 1 2 3 4 5 6 
#
# 1 101.1992 17.1226 19.1749 0.0000 0.0000 0.0000
# 2 17.1226 72.5602 20.1233 0.0000 0.0000 0.0000
# 3 19.1749 20.1233 71.9849 0.0000 0.0000 0.0000
# 4 0.0000 0.0000 0.0000 13.1459 0.0000 0.0000
# 5 0.0000 0.0000 0.0000 0.0000 -3.2556 0.0000
# 6 0.0000 0.0000 0.0000 0.0000 0.0000 16.7445
#
#
#
# Elastic Compliance Matrix: (Units=1/GPa)
#
#
# Indices 1 2 3 4 5 6 
#
# 1 0.010636 -0.001869 -0.002311 0.000000 0.000000 0.000000
# 2 -0.001869 0.015268 -0.003770 0.000000 0.000000 0.000000
# 3 -0.002311 -0.003770 0.015561 0.000000 0.000000 0.000000
# 4 0.000000 0.000000 0.000000 0.076070 0.000000 0.000000
# 5 0.000000 0.000000 0.000000 0.000000 -0.307162 0.000000
# 6 0.000000 0.000000 0.000000 0.000000 0.000000 0.059721
#
#
# Mechanical properties :
#
#
# Convention : Reuss Voigt Hill
#
# Bulk Modulus (GPa) = 39.11548 39.84285 39.47917
# Shear Modulus (GPa) = -47.40018 17.94852 -14.72583
#
# Velocity S-wave (km/s) = -4.93712 3.03807 -2.75184
# Velocity P-wave (km/s) = 3.51929 5.72673 3.19453
#
# Compressibility (1/GPa) = 0.02556533
#
# Stress axis : x y z
#
# Youngs Moduli (GPa) = 94.02453 65.49496 64.26201
#
# Poissons Ratio (x) = 0.12241 0.14848
# Poissons Ratio (y) = 0.17573 0.24229
# Poissons Ratio (z) = 0.21725 0.24694
#
# Static dielectric constant tensor:
#      x y z
#    x 1.767420 0.000000 0.000000 
#    y 0.000000 1.664900 0.000000 
#    z 0.000000 0.000000 1.647210 
# 
# From -- ./inp_files/13159.got.cif
#   From: 2010.05.17/outbox.cif.g08.bks.cpg/sg35_7_cif.got.tgz:13159.got - 2010.06.03 17:29:28.
