data_PCOD9349011
_publ_section_title
;
Structure prediction by ZEFSAII (Michael W. Deem and Ramdas Pophale) SiO2 
 PCOD9349011
Probable space group: C M M 2
;
_chemical_formula_sum "Si O2"
_cell_formula_units_Z 64
_cell_length_a 8.939085
_cell_length_b 19.291854
_cell_length_c 21.166858
_cell_angle_alpha 90.000000
_cell_angle_beta 90.000000
_cell_angle_gamma 90.000000
_cell_volume 3650.256893
_symmetry_space_group_name_H-M "C M M 2"
_symmetry_group_IT_number 35
_symmetry_cell_setting 'orthorhombic'
loop_
_space_group_symop_operation_xyz
x,y,z
-x,-y,z
-x,y,z
x,-y,z
1/2+x,1/2+y,z
1/2-x,1/2-y,z
1/2-x,1/2+y,z
1/2+x,1/2-y,z
loop_
_atom_site_type_symbol
_atom_site_label
_atom_site_fract_x
_atom_site_fract_y
_atom_site_fract_z
Si Si1 0.178990 0.825896 0.617970
Si Si2 0.822256 0.917890 0.238725
Si Si3 0.680078 0.173707 0.128980
Si Si4 0.318019 0.920527 0.011258
Si Si5 0.827721 0.415876 0.369212
Si Si6 0.180536 0.418715 0.509563
Si Si7 0.177088 0.582659 0.868757
Si Si8 0.178213 0.825578 0.761275
O O1 0.250000 0.750000 0.610053
O O2 0.244477 0.875946 0.565042
O O3 0.216028 0.849311 0.689721
O O4 0.000000 0.821557 0.612626
O O5 0.736549 0.871953 0.187731
O O6 0.771808 0.896844 0.309345
O O7 0.000000 0.909885 0.231543
O O8 0.785898 0.000000 0.230672
O O9 0.500000 0.178145 0.129938
O O10 0.750000 0.250000 0.130767
O O11 0.727736 0.132475 0.065514
O O12 0.500000 0.922020 0.010620
O O13 0.271537 0.900225 0.940264
O O14 0.269190 0.000000 0.024171
O O15 0.829324 0.500000 0.372022
O O16 0.776241 0.393400 0.438962
O O17 0.000000 0.393723 0.359231
O O18 0.219315 0.500000 0.515117
O O19 0.000000 0.413410 0.513063
O O20 0.194835 0.500000 0.861570
O O21 0.261958 0.623434 0.814627
O O22 0.000000 0.598183 0.864293
O O23 0.250000 0.750000 0.770052
O O24 0.000000 0.819585 0.765342
#
# Coordination Sequence:
#
# PCOD9349011 Si02
#       8
#     8   8   8   8   8   8   8   8
#     4  10  21  36  53  73 101 138 177 217 259 307
#     4  10  20  34  54  80 107 135 171 214 257 305
#     4  11  22  36  54  76 106 140 173 213 259 305
#     4   8  16  33  56  79 102 133 173 211 251 305
#     4   8  15  30  52  77 104 135 171 209 252 304
#     4   9  18  33  54  80 108 136 169 211 256 305
#     4   9  18  34  56  81 108 136 168 209 256 306
#     4  10  21  36  53  74 102 137 177 217 258 307
#
# _framework density 17.533011999999999
#
# number of rings (size 3 to 8) (size 9 to 14) (size 15 to 20)
#    0.000    2.625    0.000    3.375    0.000    4.750 
#    0.000    6.875    0.000    4.500    0.000    0.000 
#    0.000    0.000    0.000    0.000    0.000    0.000 
#
# Total GULP energy -178459.737092 kJ/mol
# GULP energy per Si atom -5576.866784 kJ/mol
# Density = 1.749311 g / cm^3
# Si number density = 17.533012 Si / 1000 Ang^3
#
#
#
# Elastic Constant Matrix: (Units=GPa)
#
#
# Indices 1 2 3 4 5 6 
#
# 1 52.1276 46.3329 66.2345 0.0000 0.0000 0.0000
# 2 46.3329 74.5316 90.3335 0.0000 0.0000 0.0000
# 3 66.2345 90.3335 179.8238 0.0000 0.0000 0.0000
# 4 0.0000 0.0000 0.0000 -43.6438 0.0000 0.0000
# 5 0.0000 0.0000 0.0000 0.0000 26.1744 0.0000
# 6 0.0000 0.0000 0.0000 0.0000 0.0000 26.9529
#
#
#
# Elastic Compliance Matrix: (Units=1/GPa)
#
#
# Indices 1 2 3 4 5 6 
#
# 1 0.045703 -0.020474 -0.006548 0.000000 0.000000 0.000000
# 2 -0.020474 0.043474 -0.014298 0.000000 0.000000 0.000000
# 3 -0.006548 -0.014298 0.015155 0.000000 0.000000 0.000000
# 4 0.000000 0.000000 0.000000 -0.022913 0.000000 0.000000
# 5 0.000000 0.000000 0.000000 0.000000 0.038205 0.000000
# 6 0.000000 0.000000 0.000000 0.000000 0.000000 0.037102
#
#
# Mechanical properties :
#
#
# Convention : Reuss Voigt Hill
#
# Bulk Modulus (GPa) = 46.10193 79.14275 62.62234
# Shear Modulus (GPa) = 20.27593 8.80219 14.53906
#
# Velocity S-wave (km/s) = 3.40434 2.24304 2.88278
# Velocity P-wave (km/s) = 6.46561 7.20733 6.84652
#
# Compressibility (1/GPa) = 0.02169107
#
# Stress axis : x y z
#
# Youngs Moduli (GPa) = 21.88056 23.00215 65.98339
#
# Poissons Ratio (x) = 0.47096 0.43209
# Poissons Ratio (y) = 0.44799 0.94341
# Poissons Ratio (z) = 0.14328 0.32888
#
# Static dielectric constant tensor:
#      x y z
#    x 1.585500 0.000000 0.000000 
#    y 0.000000 1.568330 0.000000 
#    z 0.000000 0.000000 1.602630 
# 
# From -- ./inp_files/18391.got.cif
#   From: 2010.05.17/outbox.cif.g08.bks.cpg/sg35_10_cif.got.tgz:18391.got - 2010.06.03 17:29:28.
