data_PCOD9349756
_publ_section_title
;
Structure prediction by ZEFSAII (Michael W. Deem and Ramdas Pophale) SiO2 
 PCOD9349756
Probable space group: C M M 2
;
_chemical_formula_sum "Si O2"
_cell_formula_units_Z 56
_cell_length_a 18.538227
_cell_length_b 8.660734
_cell_length_c 18.457615
_cell_angle_alpha 90.000000
_cell_angle_beta 90.000000
_cell_angle_gamma 90.000000
_cell_volume 2963.455969
_symmetry_space_group_name_H-M "C M M 2"
_symmetry_group_IT_number 35
_symmetry_cell_setting 'orthorhombic'
loop_
_space_group_symop_operation_xyz
x,y,z
-x,-y,z
-x,y,z
x,-y,z
1/2+x,1/2+y,z
1/2-x,1/2-y,z
1/2-x,1/2+y,z
1/2+x,1/2-y,z
loop_
_atom_site_type_symbol
_atom_site_label
_atom_site_fract_x
_atom_site_fract_y
_atom_site_fract_z
Si Si1 0.583807 0.686519 0.012270
Si Si2 0.084395 0.315155 0.293915
Si Si3 0.830420 0.185282 0.157233
Si Si4 0.417136 0.811926 0.731110
Si Si5 0.084526 0.815218 0.451113
Si Si6 0.669215 0.185437 0.874612
Si Si7 0.169524 0.685496 0.587869
O O1 0.500000 0.733382 0.012098
O O2 0.586693 0.500000 0.007168
O O3 0.622484 0.731590 0.087202
O O4 0.625976 0.757016 0.944622
O O5 0.089966 0.500000 0.295109
O O6 0.132128 0.247766 0.229650
O O7 0.105677 0.248991 0.372317
O O8 0.000000 0.273387 0.282114
O O9 0.750000 0.250000 0.150269
O O10 0.828088 0.000000 0.159980
O O11 0.500000 0.759040 0.733340
O O12 0.372866 0.763324 0.802033
O O13 0.377110 0.763764 0.657654
O O14 0.418230 0.000000 0.731324
O O15 0.131750 0.744854 0.515049
O O16 0.000000 0.774365 0.462442
O O17 0.090770 0.000000 0.451197
O O18 0.750000 0.250000 0.875107
O O19 0.671911 0.000000 0.875086
O O20 0.171624 0.500000 0.587024
O O21 0.250000 0.750000 0.593597
#
# Coordination Sequence:
#
# PCOD9349756 Si02
#       7
#     8   8   8   8   8   8   8
#     4  10  22  40  61  86 116 150 190 236 286 340
#     4  10  21  38  61  88 116 148 189 234 282 339
#     4  11  23  39  59  84 116 152 190 234 286 339
#     4   9  19  36  58  84 113 148 191 237 285 338
#     4  10  21  38  60  86 116 149 188 234 284 340
#     4  11  22  37  59  86 118 154 192 235 284 338
#     4  11  22  37  58  83 115 152 191 236 286 339
#
# _framework density 18.896856
#
# number of rings (size 3 to 8) (size 9 to 14) (size 15 to 20)
#    0.000    1.714    0.000    4.286    0.000    6.571 
#    0.000    5.000    0.000    5.143    0.000    0.000 
#    0.000    0.000    0.000    0.000    0.000    0.000 
#
# Total GULP energy -156537.255464 kJ/mol
# GULP energy per Si atom -5590.616267 kJ/mol
# Density = 1.885385 g / cm^3
# Si number density = 18.896856 Si / 1000 Ang^3
#
#
#
# Elastic Constant Matrix: (Units=GPa)
#
#
# Indices 1 2 3 4 5 6 
#
# 1 191.9205 50.8773 137.3835 0.0000 0.0000 0.0000
# 2 50.8773 42.4647 51.2959 0.0000 0.0000 0.0000
# 3 137.3835 51.2959 204.5422 0.0000 0.0000 0.0000
# 4 0.0000 0.0000 0.0000 9.5326 0.0000 0.0000
# 5 0.0000 0.0000 0.0000 0.0000 96.2418 0.0000
# 6 0.0000 0.0000 0.0000 0.0000 0.0000 20.1033
#
#
#
# Elastic Compliance Matrix: (Units=1/GPa)
#
#
# Indices 1 2 3 4 5 6 
#
# 1 0.011046 -0.006129 -0.005882 0.000000 0.000000 0.000000
# 2 -0.006129 0.037184 -0.005209 0.000000 0.000000 0.000000
# 3 -0.005882 -0.005209 0.010146 0.000000 0.000000 0.000000
# 4 0.000000 0.000000 0.000000 0.104903 0.000000 0.000000
# 5 0.000000 0.000000 0.000000 0.000000 0.010390 0.000000
# 6 0.000000 0.000000 0.000000 0.000000 0.000000 0.049743
#
#
# Mechanical properties :
#
#
# Convention : Reuss Voigt Hill
#
# Bulk Modulus (GPa) = 41.77704 102.00451 71.89077
# Shear Modulus (GPa) = 18.80907 38.46693 28.63800
#
# Velocity S-wave (km/s) = 3.15835 4.51669 3.89715
# Velocity P-wave (km/s) = 5.95450 9.01651 7.64047
#
# Compressibility (1/GPa) = 0.02393659
#
# Stress axis : x y z
#
# Youngs Moduli (GPa) = 90.53241 26.89357 98.56123
#
# Poissons Ratio (x) = 0.16482 0.57974
# Poissons Ratio (y) = 0.55484 0.51337
# Poissons Ratio (z) = 0.53252 0.14008
#
# Static dielectric constant tensor:
#      x y z
#    x 1.626800 0.000000 0.000000 
#    y 0.000000 1.637760 0.000000 
#    z 0.000000 0.000000 1.619300 
# 
# From -- ./inp_files/17411.got.cif
#   From: 2010.05.17/outbox.cif.g08.bks.cpg/sg35_9_cif.got.tgz:17411.got - 2010.06.03 17:29:28.
