data_PCOD9349913
_publ_section_title
;
Structure prediction by ZEFSAII (Michael W. Deem and Ramdas Pophale) SiO2 
 PCOD9349913
Probable space group: C M M 2
;
_chemical_formula_sum "Si O2"
_cell_formula_units_Z 64
_cell_length_a 19.934037
_cell_length_b 30.991202
_cell_length_c 5.188847
_cell_angle_alpha 90.000000
_cell_angle_beta 90.000000
_cell_angle_gamma 90.000000
_cell_volume 3205.564692
_symmetry_space_group_name_H-M "C M M 2"
_symmetry_group_IT_number 35
_symmetry_cell_setting 'orthorhombic'
loop_
_space_group_symop_operation_xyz
x,y,z
-x,-y,z
-x,y,z
x,-y,z
1/2+x,1/2+y,z
1/2-x,1/2-y,z
1/2-x,1/2+y,z
1/2+x,1/2-y,z
loop_
_atom_site_type_symbol
_atom_site_label
_atom_site_fract_x
_atom_site_fract_y
_atom_site_fract_z
Si Si1 0.266556 0.380143 0.548820
Si Si2 0.573311 0.953188 0.497206
Si Si3 0.074625 0.789302 0.782458
Si Si4 0.794356 0.548540 0.838926
Si Si5 0.355413 0.882496 0.208440
Si Si6 0.921597 0.702820 0.113744
Si Si7 0.825329 0.161809 0.064024
Si Si8 0.680449 0.738685 0.397964
O O1 0.257409 0.429734 0.638681
O O2 0.192945 0.366467 0.440476
O O3 0.288692 0.355621 0.808901
O O4 0.314437 0.369893 0.306185
O O5 0.500000 0.950446 0.619600
O O6 0.633890 0.953232 0.696492
O O7 0.585709 0.912450 0.317599
O O8 0.577118 0.000000 0.358097
O O9 0.076770 0.740963 0.902209
O O10 0.098873 0.824618 0.989946
O O11 0.130901 0.789999 0.566835
O O12 0.000000 0.797211 0.687219
O O13 0.776662 0.500000 0.921113
O O14 0.807807 0.583857 0.058245
O O15 0.388522 0.843390 0.050879
O O16 0.000000 0.697753 0.198881
O O17 0.868380 0.722755 0.315695
O O18 0.796691 0.208137 0.160506
O O19 0.750000 0.750000 0.534100
#
# Coordination Sequence:
#
# PCOD9349913 Si02
#       8
#     8   8   8   8   8   8   8   8
#     4  11  22  40  64  93 126 158 211 267 317 387
#     4   9  19  34  51  77 112 159 219 275 326 379
#     4  10  23  42  64  91 133 172 214 267 329 389
#     4  10  22  38  60  88 126 168 208 271 340 390
#     4  11  21  36  60  83 122 166 220 269 326 378
#     4  10  23  38  53  86 124 170 219 272 332 382
#     4  11  22  42  62  94 122 164 208 264 317 383
#     4  11  23  38  63  87 122 167 221 269 326 382
#
# _framework density 19.965281999999998
#
# number of rings (size 3 to 8) (size 9 to 14) (size 15 to 20)
#    0.000    1.625    2.500    1.875    0.000    8.000 
#    0.000    2.500    0.000    0.000    0.000    0.000 
#    0.000    3.000    0.000    0.000    0.000    0.000 
#
# Total GULP energy -178269.361508 kJ/mol
# GULP energy per Si atom -5570.917547 kJ/mol
# Density = 1.991984 g / cm^3
# Si number density = 19.965282 Si / 1000 Ang^3
#
#
#
# Elastic Constant Matrix: (Units=GPa)
#
#
# Indices 1 2 3 4 5 6 
#
# 1 106.2707 42.9626 40.9410 0.0000 0.0000 0.0000
# 2 42.9626 105.1123 42.0586 0.0000 0.0000 0.0000
# 3 40.9410 42.0586 82.3894 0.0000 0.0000 0.0000
# 4 0.0000 0.0000 0.0000 20.2348 0.0000 0.0000
# 5 0.0000 0.0000 0.0000 0.0000 18.3265 0.0000
# 6 0.0000 0.0000 0.0000 0.0000 0.0000 21.0390
#
#
#
# Elastic Compliance Matrix: (Units=1/GPa)
#
#
# Indices 1 2 3 4 5 6 
#
# 1 0.012483 -0.003293 -0.004522 0.000000 0.000000 0.000000
# 2 -0.003293 0.012824 -0.004910 0.000000 0.000000 0.000000
# 3 -0.004522 -0.004910 0.016891 0.000000 0.000000 0.000000
# 4 0.000000 0.000000 0.000000 0.049420 0.000000 0.000000
# 5 0.000000 0.000000 0.000000 0.000000 0.054566 0.000000
# 6 0.000000 0.000000 0.000000 0.000000 0.000000 0.047531
#
#
# Mechanical properties :
#
#
# Convention : Reuss Voigt Hill
#
# Bulk Modulus (GPa) = 59.70832 60.63298 60.17065
# Shear Modulus (GPa) = 22.24703 23.10740 22.67721
#
# Velocity S-wave (km/s) = 3.34171 3.40572 3.37387
# Velocity P-wave (km/s) = 6.69779 6.77498 6.73650
#
# Compressibility (1/GPa) = 0.01674808
#
# Stress axis : x y z
#
# Youngs Moduli (GPa) = 80.10659 77.97700 59.20185
#
# Poissons Ratio (x) = 0.25676 0.26773
# Poissons Ratio (y) = 0.26378 0.29070
# Poissons Ratio (z) = 0.36227 0.38289
#
# Static dielectric constant tensor:
#      x y z
#    x 1.734670 0.000000 0.000000 
#    y 0.000000 1.767950 0.000000 
#    z 0.000000 0.000000 1.816800 
# 
# From -- ./inp_files/2737.got.cif
#   From: 2010.05.17/outbox.cif.g08.bks.cpg/sg35_2_cif.got.tgz:2737.got - 2010.06.03 17:29:28.
