data_PCOD9349582
_publ_section_title
;
Structure prediction by ZEFSAII (Michael W. Deem and Ramdas Pophale) SiO2 
 PCOD9349582
Probable space group: C M M 2
;
_chemical_formula_sum "Si O2"
_cell_formula_units_Z 64
_cell_length_a 29.795589
_cell_length_b 8.802904
_cell_length_c 12.715416
_cell_angle_alpha 90.000000
_cell_angle_beta 90.000000
_cell_angle_gamma 90.000000
_cell_volume 3335.097339
_symmetry_space_group_name_H-M "C M M 2"
_symmetry_group_IT_number 35
_symmetry_cell_setting 'orthorhombic'
loop_
_space_group_symop_operation_xyz
x,y,z
-x,-y,z
-x,y,z
x,-y,z
1/2+x,1/2+y,z
1/2-x,1/2-y,z
1/2-x,1/2+y,z
1/2+x,1/2-y,z
loop_
_atom_site_type_symbol
_atom_site_label
_atom_site_fract_x
_atom_site_fract_y
_atom_site_fract_z
Si Si1 0.183098 0.325591 0.057050
Si Si2 0.886391 0.182824 0.734649
Si Si3 0.296745 0.680010 0.278061
Si Si4 0.297656 0.182358 0.816200
Si Si5 0.891507 0.316585 0.339609
Si Si6 0.421554 0.172964 0.115087
Si Si7 0.952371 0.181408 0.911733
Si Si8 0.552805 0.816695 0.549570
O O1 0.199584 0.500000 0.069776
O O2 0.200051 0.225812 0.154329
O O3 0.129542 0.329398 0.072552
O O4 0.194384 0.272203 0.939366
O O5 0.837212 0.253856 0.743205
O O6 0.911668 0.236422 0.840896
O O7 0.918029 0.239026 0.640714
O O8 0.883200 0.000000 0.732624
O O9 0.296220 0.500000 0.288679
O O10 0.250000 0.750000 0.318582
O O11 0.341639 0.746372 0.332995
O O12 0.250000 0.250000 0.784100
O O13 0.297734 0.000000 0.813192
O O14 0.886238 0.500000 0.332882
O O15 0.917822 0.268960 0.233770
O O16 0.921300 0.280438 0.440857
O O17 0.438590 0.000000 0.115902
O O18 0.448102 0.270500 0.031696
O O19 0.000000 0.237360 0.868106
O O20 0.951780 0.000000 0.905313
O O21 0.500000 0.772122 0.549147
O O22 0.554236 0.000000 0.562458
#
# Coordination Sequence:
#
# PCOD9349582 Si02
#       8
#     8   8   8   8   8   8   8   8
#     4   9  18  33  53  80 117 157 198 241 285 339
#     4  11  23  40  61  85 119 157 197 247 300 351
#     4  11  21  33  54  84 120 160 201 240 287 346
#     4  11  22  37  58  86 120 157 200 244 294 353
#     4   9  20  39  60  85 118 151 192 245 298 349
#     4   9  17  32  54  82 115 151 188 233 286 341
#     4  10  21  35  52  79 116 155 191 232 288 349
#     4  10  22  42  68  92 114 149 198 250 303 359
#
# _framework density 19.189844000000001
#
# number of rings (size 3 to 8) (size 9 to 14) (size 15 to 20)
#    0.000    2.000    1.250    3.375    0.000    6.500 
#    0.000    1.875    0.000    3.000    0.000    0.000 
#    0.000    0.000    0.000    0.000    0.000    0.000 
#
# Total GULP energy -178577.675435 kJ/mol
# GULP energy per Si atom -5580.552357 kJ/mol
# Density = 1.914617 g / cm^3
# Si number density = 19.189844 Si / 1000 Ang^3
#
#
#
# Elastic Constant Matrix: (Units=GPa)
#
#
# Indices 1 2 3 4 5 6 
#
# 1 151.0653 47.6153 65.8349 0.0000 0.0000 0.0000
# 2 47.6153 47.3708 33.3456 0.0000 0.0000 0.0000
# 3 65.8349 33.3456 99.3632 0.0000 0.0000 0.0000
# 4 0.0000 0.0000 0.0000 13.0156 0.0000 0.0000
# 5 0.0000 0.0000 0.0000 0.0000 18.5246 0.0000
# 6 0.0000 0.0000 0.0000 0.0000 0.0000 19.8644
#
#
#
# Elastic Compliance Matrix: (Units=1/GPa)
#
#
# Indices 1 2 3 4 5 6 
#
# 1 0.011180 -0.007887 -0.004761 0.000000 0.000000 0.000000
# 2 -0.007887 0.033203 -0.005917 0.000000 0.000000 0.000000
# 3 -0.004761 -0.005917 0.015204 0.000000 0.000000 0.000000
# 4 0.000000 0.000000 0.000000 0.076831 0.000000 0.000000
# 5 0.000000 0.000000 0.000000 0.000000 0.053982 0.000000
# 6 0.000000 0.000000 0.000000 0.000000 0.000000 0.050341
#
#
# Mechanical properties :
#
#
# Convention : Reuss Voigt Hill
#
# Bulk Modulus (GPa) = 44.52815 65.71009 55.11912
# Shear Modulus (GPa) = 17.52188 20.34781 18.93485
#
# Velocity S-wave (km/s) = 3.02500 3.25982 3.14460
# Velocity P-wave (km/s) = 5.95443 6.96312 6.47844
#
# Compressibility (1/GPa) = 0.02245770
#
# Stress axis : x y z
#
# Youngs Moduli (GPa) = 89.44220 30.11811 65.77052
#
# Poissons Ratio (x) = 0.23753 0.31314
# Poissons Ratio (y) = 0.70540 0.38917
# Poissons Ratio (z) = 0.42584 0.17821
#
# Static dielectric constant tensor:
#      x y z
#    x 1.686260 0.000000 0.000000 
#    y 0.000000 1.650320 0.000000 
#    z 0.000000 0.000000 1.662900 
# 
# From -- ./inp_files/14561.got.cif
#   From: 2010.05.17/outbox.cif.g08.bks.cpg/sg35_8_cif.got.tgz:14561.got - 2010.06.03 17:29:28.
