data_PCOD9349268
_publ_section_title
;
Structure prediction by ZEFSAII (Michael W. Deem and Ramdas Pophale) SiO2 
 PCOD9349268
Probable space group: C M M 2
;
_chemical_formula_sum "Si O2"
_cell_formula_units_Z 56
_cell_length_a 18.552061
_cell_length_b 15.420177
_cell_length_c 9.931190
_cell_angle_alpha 90.000000
_cell_angle_beta 90.000000
_cell_angle_gamma 90.000000
_cell_volume 2841.075749
_symmetry_space_group_name_H-M "C M M 2"
_symmetry_group_IT_number 35
_symmetry_cell_setting 'orthorhombic'
loop_
_space_group_symop_operation_xyz
x,y,z
-x,-y,z
-x,y,z
x,-y,z
1/2+x,1/2+y,z
1/2-x,1/2-y,z
1/2-x,1/2+y,z
1/2+x,1/2-y,z
loop_
_atom_site_type_symbol
_atom_site_label
_atom_site_fract_x
_atom_site_fract_y
_atom_site_fract_z
Si Si1 0.081100 0.237084 0.088370
Si Si2 0.083394 0.602481 0.288341
Si Si3 0.706903 0.096448 0.850095
Si Si4 0.790240 0.102998 0.108840
Si Si5 0.196481 0.826853 0.652470
Si Si6 0.773236 0.600395 0.405526
Si Si7 0.918434 0.717443 0.772372
O O1 0.092884 0.328173 0.167623
O O2 0.140288 0.164280 0.117381
O O3 0.000000 0.208354 0.126449
O O4 0.081675 0.252394 0.928154
O O5 0.096336 0.500000 0.250625
O O6 0.142270 0.625139 0.402783
O O7 0.000000 0.608197 0.331885
O O8 0.775305 0.097870 0.749592
O O9 0.638605 0.139296 0.777420
O O10 0.684588 0.000000 0.885854
O O11 0.738123 0.135753 0.988633
O O12 0.750642 0.108422 0.251427
O O13 0.806855 0.000000 0.084612
O O14 0.250000 0.750000 0.700020
O O15 0.220318 0.847372 0.501829
O O16 0.117081 0.792847 0.681447
O O17 0.768394 0.500000 0.446338
O O18 0.000000 0.695859 0.733536
#
# Coordination Sequence:
#
# PCOD9349268 Si02
#       7
#     8   8   8   8   8   8   8
#     4  10  20  35  59  87 120 158 192 243 311 365
#     4   9  19  35  56  89 128 158 191 243 311 382
#     4  10  20  37  61  86 116 154 194 244 300 354
#     4  10  21  36  58  89 118 150 201 255 298 355
#     4  10  21  37  57  83 112 155 198 242 284 347
#     4  10  21  36  57  85 116 152 196 244 294 353
#     4  10  21  37  57  86 121 155 197 244 297 365
#
# _framework density 19.710842
#
# number of rings (size 3 to 8) (size 9 to 14) (size 15 to 20)
#    0.000    2.143    1.429    1.286    2.000    3.429 
#    0.000    5.000    0.000    6.000    0.000    0.000 
#    0.000    0.000    0.000    0.000    0.000    0.000 
#
# Total GULP energy -156077.162016 kJ/mol
# GULP energy per Si atom -5574.184358 kJ/mol
# Density = 1.966598 g / cm^3
# Si number density = 19.710842 Si / 1000 Ang^3
#
#
#
# Elastic Constant Matrix: (Units=GPa)
#
#
# Indices 1 2 3 4 5 6 
#
# 1 139.1070 51.9209 25.2664 0.0000 0.0000 0.0000
# 2 51.9209 64.4393 13.9951 0.0000 0.0000 0.0000
# 3 25.2664 13.9951 73.0719 0.0000 0.0000 0.0000
# 4 0.0000 0.0000 0.0000 26.1770 0.0000 0.0000
# 5 0.0000 0.0000 0.0000 0.0000 22.5337 0.0000
# 6 0.0000 0.0000 0.0000 0.0000 0.0000 22.0584
#
#
#
# Elastic Compliance Matrix: (Units=1/GPa)
#
#
# Indices 1 2 3 4 5 6 
#
# 1 0.010584 -0.008069 -0.002114 0.000000 0.000000 0.000000
# 2 -0.008069 0.022343 -0.001489 0.000000 0.000000 0.000000
# 3 -0.002114 -0.001489 0.014702 0.000000 0.000000 0.000000
# 4 0.000000 0.000000 0.000000 0.038202 0.000000 0.000000
# 5 0.000000 0.000000 0.000000 0.000000 0.044378 0.000000
# 6 0.000000 0.000000 0.000000 0.000000 0.000000 0.045334
#
#
# Mechanical properties :
#
#
# Convention : Reuss Voigt Hill
#
# Bulk Modulus (GPa) = 41.17944 50.99810 46.08877
# Shear Modulus (GPa) = 24.15655 26.51620 25.33638
#
# Velocity S-wave (km/s) = 3.50458 3.67176 3.58914
# Velocity P-wave (km/s) = 6.10845 6.62609 6.37253
#
# Compressibility (1/GPa) = 0.02428396
#
# Stress axis : x y z
#
# Youngs Moduli (GPa) = 94.47782 44.75588 68.02027
#
# Poissons Ratio (x) = 0.36114 0.14382
# Poissons Ratio (y) = 0.76235 0.10130
# Poissons Ratio (z) = 0.19977 0.06665
#
# Static dielectric constant tensor:
#      x y z
#    x 1.706020 0.000000 0.000000 
#    y 0.000000 1.748460 0.000000 
#    z 0.000000 0.000000 1.709390 
# 
# From -- ./inp_files/9282.got.cif
#   From: 2010.05.17/outbox.cif.g08.bks.cpg/sg35_5_cif.got.tgz:9282.got - 2010.06.03 17:29:28.
