data_PCOD9349050
_publ_section_title
;
Structure prediction by ZEFSAII (Michael W. Deem and Ramdas Pophale) SiO2 
 PCOD9349050
Probable space group: C M M 2
;
_chemical_formula_sum "Si O2"
_cell_formula_units_Z 58
_cell_length_a 31.129790
_cell_length_b 8.029670
_cell_length_c 12.526372
_cell_angle_alpha 90.000000
_cell_angle_beta 90.000000
_cell_angle_gamma 90.000000
_cell_volume 3131.116257
_symmetry_space_group_name_H-M "C M M 2"
_symmetry_group_IT_number 35
_symmetry_cell_setting 'orthorhombic'
loop_
_space_group_symop_operation_xyz
x,y,z
-x,-y,z
-x,y,z
x,-y,z
1/2+x,1/2+y,z
1/2-x,1/2-y,z
1/2-x,1/2+y,z
1/2+x,1/2-y,z
loop_
_atom_site_type_symbol
_atom_site_label
_atom_site_fract_x
_atom_site_fract_y
_atom_site_fract_z
Si Si1 0.798477 0.199181 0.536350
Si Si2 0.548131 0.302902 0.042490
Si Si3 0.385271 0.808787 0.213294
Si Si4 0.066183 0.814356 0.412440
Si Si5 0.885438 0.302389 0.616971
Si Si6 0.000000 0.500000 0.411197
Si Si7 0.048128 0.701016 0.797359
Si Si8 0.201648 0.801163 0.290310
O O1 0.750000 0.250000 0.564241
O O2 0.834651 0.270708 0.614548
O O3 0.806127 0.258330 0.413235
O O4 0.801571 0.000000 0.536582
O O5 0.500000 0.241091 0.074993
O O6 0.549155 0.500000 0.062560
O O7 0.586586 0.220940 0.107836
O O8 0.552348 0.271100 0.916364
O O9 0.405902 0.696853 0.305339
O O10 0.334889 0.768344 0.212539
O O11 0.390134 0.000000 0.244839
O O12 0.096258 0.793404 0.515054
O O13 0.036334 0.651035 0.412128
O O14 0.046662 0.000000 0.416089
O O15 0.893031 0.500000 0.604396
O O16 0.913632 0.247536 0.718836
O O17 0.049035 0.500000 0.804956
O O18 0.000000 0.746533 0.756206
O O19 0.250000 0.750000 0.261764
O O20 0.198899 0.000000 0.290858
#
# Coordination Sequence:
#
# PCOD9349050 Si02
#       8
#     8   8   8   8   8   2   8   8
#     4  10  20  34  55  83 116 155 195 241 297 355
#     4  10  22  39  59  84 113 151 202 253 299 351
#     4  12  23  38  59  85 120 157 198 246 297 355
#     4  12  25  40  58  85 120 161 204 243 296 360
#     4  11  21  36  60  86 122 157 197 246 296 356
#     4  12  26  44  52  82 122 168 198 244 300 360
#     4   9  20  38  60  83 113 154 199 246 296 353
#     4  10  20  35  56  84 117 154 194 240 296 355
#
# _framework density 18.523745999999999
#
# number of rings (size 3 to 8) (size 9 to 14) (size 15 to 20)
#    0.000    1.379    2.759    3.103    1.931    3.034 
#    0.000    0.000    0.000    0.828    0.000    1.931 
#    0.000    0.000    0.000    0.000    0.000    0.000 
#
# Total GULP energy -161625.269689 kJ/mol
# GULP energy per Si atom -5573.285162 kJ/mol
# Density = 1.848159 g / cm^3
# Si number density = 18.523746 Si / 1000 Ang^3
#
#
#
# Elastic Constant Matrix: (Units=GPa)
#
#
# Indices 1 2 3 4 5 6 
#
# 1 161.6785 32.7134 57.5305 0.0000 0.0000 0.0000
# 2 32.7134 95.0859 11.7405 0.0000 0.0000 0.0000
# 3 57.5305 11.7405 58.4567 0.0000 0.0000 0.0000
# 4 0.0000 0.0000 0.0000 -15.5799 0.0000 0.0000
# 5 0.0000 0.0000 0.0000 0.0000 15.0922 0.0000
# 6 0.0000 0.0000 0.0000 0.0000 0.0000 8.1354
#
#
#
# Elastic Compliance Matrix: (Units=1/GPa)
#
#
# Indices 1 2 3 4 5 6 
#
# 1 0.009977 -0.002277 -0.009362 0.000000 0.000000 0.000000
# 2 -0.002277 0.011304 -0.000030 0.000000 0.000000 0.000000
# 3 -0.009362 -0.000030 0.026326 0.000000 0.000000 0.000000
# 4 0.000000 0.000000 0.000000 -0.064185 0.000000 0.000000
# 5 0.000000 0.000000 0.000000 0.000000 0.066259 0.000000
# 6 0.000000 0.000000 0.000000 0.000000 0.000000 0.122919
#
#
# Mechanical properties :
#
#
# Convention : Reuss Voigt Hill
#
# Bulk Modulus (GPa) = 41.20194 57.68777 49.44486
# Shear Modulus (GPa) = 24.50671 15.74533 20.12602
#
# Velocity S-wave (km/s) = 3.64124 2.91865 3.29978
# Velocity P-wave (km/s) = 6.32212 6.52444 6.42407
#
# Compressibility (1/GPa) = 0.02427070
#
# Stress axis : x y z
#
# Youngs Moduli (GPa) = 100.23138 88.46658 37.98534
#
# Poissons Ratio (x) = 0.20140 0.35560
# Poissons Ratio (y) = 0.22818 0.00113
# Poissons Ratio (z) = 0.93833 0.00263
#
# Static dielectric constant tensor:
#      x y z
#    x 1.668230 0.000000 0.000000 
#    y 0.000000 1.664060 0.000000 
#    z 0.000000 0.000000 1.614510 
# 
# From -- ./inp_files/14475.got.cif
#   From: 2010.05.17/outbox.cif.g08.bks.cpg/sg35_8_cif.got.tgz:14475.got - 2010.06.03 17:29:28.
