data_PCOD9349215
_publ_section_title
;
Structure prediction by ZEFSAII (Michael W. Deem and Ramdas Pophale) SiO2 
 PCOD9349215
Probable space group: C M M 2
;
_chemical_formula_sum "Si O2"
_cell_formula_units_Z 58
_cell_length_a 18.152900
_cell_length_b 14.507516
_cell_length_c 12.406284
_cell_angle_alpha 90.000000
_cell_angle_beta 90.000000
_cell_angle_gamma 90.000000
_cell_volume 3267.238155
_symmetry_space_group_name_H-M "C M M 2"
_symmetry_group_IT_number 35
_symmetry_cell_setting 'orthorhombic'
loop_
_space_group_symop_operation_xyz
x,y,z
-x,-y,z
-x,y,z
x,-y,z
1/2+x,1/2+y,z
1/2-x,1/2-y,z
1/2-x,1/2+y,z
1/2+x,1/2-y,z
loop_
_atom_site_type_symbol
_atom_site_label
_atom_site_fract_x
_atom_site_fract_y
_atom_site_fract_z
Si Si1 0.339482 0.109439 0.666970
Si Si2 0.332714 0.609041 0.668964
Si Si3 0.500000 0.500000 0.269166
Si Si4 0.587669 0.108655 0.894437
Si Si5 0.837387 0.758389 0.045117
Si Si6 0.918728 0.194759 0.264198
Si Si7 0.662053 0.253023 0.482284
Si Si8 0.915309 0.110665 0.884465
O O1 0.253258 0.129273 0.692421
O O2 0.385454 0.134086 0.773546
O O3 0.357444 0.166022 0.558841
O O4 0.347284 0.000000 0.648593
O O5 0.340100 0.500000 0.655547
O O6 0.352777 0.660595 0.560348
O O7 0.383709 0.637646 0.768123
O O8 0.436597 0.584321 0.267960
O O9 0.500000 0.120693 0.901922
O O10 0.604951 0.000000 0.908578
O O11 0.627800 0.170731 0.983166
O O12 0.750000 0.750000 0.046770
O O13 0.869535 0.775735 0.163399
O O14 0.864400 0.844606 0.973894
O O15 0.882434 0.231754 0.373569
O O16 0.000000 0.237563 0.250190
O O17 0.750000 0.250000 0.460210
O O18 0.000000 0.140355 0.898678
O O19 0.913295 0.000000 0.891623
#
# Coordination Sequence:
#
# PCOD9349215 Si02
#       8
#     8   8   2   8   8   8   8   8
#     4   9  18  34  55  83 117 156 198 237 284 338
#     4   9  18  31  51  82 119 155 191 237 290 347
#     4   8  24  44  64  88 108 156 186 236 300 354
#     4  10  21  38  59  84 116 153 195 238 282 336
#     4  12  24  38  60  84 114 150 195 240 291 348
#     4  10  23  41  61  85 113 146 191 235 290 355
#     4  10  20  35  57  82 118 154 196 239 285 342
#     4  10  21  35  56  88 122 154 191 242 302 356
#
# _framework density 17.751996999999999
#
# number of rings (size 3 to 8) (size 9 to 14) (size 15 to 20)
#    0.414    1.655    0.000    3.310    1.931    3.862 
#    0.000    0.690    0.000    0.828    0.000    0.000 
#    0.000    0.000    0.000    0.000    0.000    0.000 
#
# Total GULP energy -161512.397066 kJ/mol
# GULP energy per Si atom -5569.393002 kJ/mol
# Density = 1.771159 g / cm^3
# Si number density = 17.751997 Si / 1000 Ang^3
#
#
#
# Elastic Constant Matrix: (Units=GPa)
#
#
# Indices 1 2 3 4 5 6 
#
# 1 119.5190 45.9185 84.0546 0.0000 0.0000 0.0000
# 2 45.9185 89.1762 52.4831 0.0000 0.0000 0.0000
# 3 84.0546 52.4831 137.0236 0.0000 0.0000 0.0000
# 4 0.0000 0.0000 0.0000 32.1333 0.0000 0.0000
# 5 0.0000 0.0000 0.0000 0.0000 49.5782 0.0000
# 6 0.0000 0.0000 0.0000 0.0000 0.0000 21.8918
#
#
#
# Elastic Compliance Matrix: (Units=1/GPa)
#
#
# Indices 1 2 3 4 5 6 
#
# 1 0.015330 -0.003046 -0.008237 0.000000 0.000000 0.000000
# 2 -0.003046 0.015082 -0.003908 0.000000 0.000000 0.000000
# 3 -0.008237 -0.003908 0.013848 0.000000 0.000000 0.000000
# 4 0.000000 0.000000 0.000000 0.031120 0.000000 0.000000
# 5 0.000000 0.000000 0.000000 0.000000 0.020170 0.000000
# 6 0.000000 0.000000 0.000000 0.000000 0.000000 0.045679
#
#
# Mechanical properties :
#
#
# Convention : Reuss Voigt Hill
#
# Bulk Modulus (GPa) = 72.06021 78.95902 75.50961
# Shear Modulus (GPa) = 28.37046 31.60483 29.98764
#
# Velocity S-wave (km/s) = 4.00203 4.22400 4.11451
# Velocity P-wave (km/s) = 7.87628 8.26832 8.07468
#
# Compressibility (1/GPa) = 0.01387728
#
# Stress axis : x y z
#
# Youngs Moduli (GPa) = 65.23059 66.30252 72.21183
#
# Poissons Ratio (x) = 0.20195 0.59484
# Poissons Ratio (y) = 0.19868 0.28224
# Poissons Ratio (z) = 0.53733 0.25914
#
# Static dielectric constant tensor:
#      x y z
#    x 1.601830 0.000000 0.000000 
#    y 0.000000 1.628830 0.000000 
#    z 0.000000 0.000000 1.601950 
# 
# From -- ./inp_files/13115.got.cif
#   From: 2010.05.17/outbox.cif.g08.bks.cpg/sg35_7_cif.got.tgz:13115.got - 2010.06.03 17:29:28.
