data_PCOD9349974
_publ_section_title
;
Structure prediction by ZEFSAII (Michael W. Deem and Ramdas Pophale) SiO2 
 PCOD9349974
Probable space group: C M M 2
;
_chemical_formula_sum "Si O2"
_cell_formula_units_Z 40
_cell_length_a 14.549210
_cell_length_b 16.237700
_cell_length_c 7.218453
_cell_angle_alpha 90.000000
_cell_angle_beta 90.000000
_cell_angle_gamma 90.000000
_cell_volume 1705.328534
_symmetry_space_group_name_H-M "C M M 2"
_symmetry_group_IT_number 35
_symmetry_cell_setting 'orthorhombic'
loop_
_space_group_symop_operation_xyz
x,y,z
-x,-y,z
-x,y,z
x,-y,z
1/2+x,1/2+y,z
1/2-x,1/2-y,z
1/2-x,1/2+y,z
1/2+x,1/2-y,z
loop_
_atom_site_type_symbol
_atom_site_label
_atom_site_fract_x
_atom_site_fract_y
_atom_site_fract_z
Si Si1 0.109151 0.092233 0.950180
Si Si2 0.099206 0.095542 0.505421
Si Si3 0.888772 0.729731 0.097410
Si Si4 0.785080 0.332109 0.460686
Si Si5 0.609860 0.092695 0.793543
O O1 0.114924 0.102010 0.726715
O O2 0.141760 0.178484 0.036389
O O3 0.000000 0.088490 0.993690
O O4 0.146520 0.000000 0.996240
O O5 0.189879 0.125581 0.406243
O O6 0.000000 0.135995 0.461779
O O7 0.090906 0.000000 0.463000
O O8 0.864513 0.662467 0.940831
O O9 0.000000 0.729820 0.111912
O O10 0.844342 0.698592 0.287952
O O11 0.750000 0.250000 0.564682
O O12 0.841466 0.388401 0.599761
O O13 0.500000 0.097134 0.767939
O O14 0.632996 0.000000 0.856132
#
# Coordination Sequence:
#
# PCOD9349974 Si02
#       5
#     8   8   8   8   8
#     4   8  15  33  64  97 130 174 225 279 345 412
#     4   9  19  38  65  95 128 171 223 279 340 402
#     4  10  22  41  66 100 140 180 226 280 338 404
#     4  12  25  39  63  97 135 178 225 275 331 397
#     4  10  23  45  72 100 134 178 225 277 337 400
#
# _framework density 23.455891999999999
#
# number of rings (size 3 to 8) (size 9 to 14) (size 15 to 20)
#    0.000    2.200    0.000    3.600    0.000    7.200 
#    0.000    4.000    0.000    4.800    0.000    8.400 
#    0.000    0.000    0.000    0.000    0.000    0.000 
#
# Total GULP energy -111844.837428 kJ/mol
# GULP energy per Si atom -5592.241871 kJ/mol
# Density = 2.340250 g / cm^3
# Si number density = 23.455892 Si / 1000 Ang^3
#
#
#
# Elastic Constant Matrix: (Units=GPa)
#
#
# Indices 1 2 3 4 5 6 
#
# 1 109.1416 64.3756 49.9887 0.0000 0.0000 0.0000
# 2 64.3756 190.3120 73.9404 0.0000 0.0000 0.0000
# 3 49.9887 73.9404 104.9889 0.0000 0.0000 0.0000
# 4 0.0000 0.0000 0.0000 18.7505 0.0000 0.0000
# 5 0.0000 0.0000 0.0000 0.0000 25.3646 0.0000
# 6 0.0000 0.0000 0.0000 0.0000 0.0000 10.2549
#
#
#
# Elastic Compliance Matrix: (Units=1/GPa)
#
#
# Indices 1 2 3 4 5 6 
#
# 1 0.012629 -0.002665 -0.004136 0.000000 0.000000 0.000000
# 2 -0.002665 0.007796 -0.004222 0.000000 0.000000 0.000000
# 3 -0.004136 -0.004222 0.014467 0.000000 0.000000 0.000000
# 4 0.000000 0.000000 0.000000 0.053332 0.000000 0.000000
# 5 0.000000 0.000000 0.000000 0.000000 0.039425 0.000000
# 6 0.000000 0.000000 0.000000 0.000000 0.000000 0.097514
#
#
# Mechanical properties :
#
#
# Convention : Reuss Voigt Hill
#
# Bulk Modulus (GPa) = 77.84087 86.78355 82.31221
# Shear Modulus (GPa) = 19.88141 25.28319 22.58230
#
# Velocity S-wave (km/s) = 2.91453 3.28671 3.10620
# Velocity P-wave (km/s) = 6.67713 7.17511 6.93059
#
# Compressibility (1/GPa) = 0.01284672
#
# Stress axis : x y z
#
# Youngs Moduli (GPa) = 79.18504 128.26745 69.12050
#
# Poissons Ratio (x) = 0.34181 0.28589
# Poissons Ratio (y) = 0.21101 0.29181
# Poissons Ratio (z) = 0.32752 0.54152
#
# Static dielectric constant tensor:
#      x y z
#    x 1.966790 0.000000 0.000000 
#    y 0.000000 1.936180 0.000000 
#    z 0.000000 0.000000 1.874930 
# 
# From -- ./inp_files/6997.got.cif
#   From: 2010.05.17/outbox.cif.g08.bks.cpg/sg35_4_cif.got.tgz:6997.got - 2010.06.03 17:29:28.
