data_PCOD9349595
_publ_section_title
;
Structure prediction by ZEFSAII (Michael W. Deem and Ramdas Pophale) SiO2 
 PCOD9349595
Probable space group: C M M 2
;
_chemical_formula_sum "Si O2"
_cell_formula_units_Z 64
_cell_length_a 30.197649
_cell_length_b 8.691304
_cell_length_c 12.439383
_cell_angle_alpha 90.000000
_cell_angle_beta 90.000000
_cell_angle_gamma 90.000000
_cell_volume 3264.802492
_symmetry_space_group_name_H-M "C M M 2"
_symmetry_group_IT_number 35
_symmetry_cell_setting 'orthorhombic'
loop_
_space_group_symop_operation_xyz
x,y,z
-x,-y,z
-x,y,z
x,-y,z
1/2+x,1/2+y,z
1/2-x,1/2-y,z
1/2-x,1/2+y,z
1/2+x,1/2-y,z
loop_
_atom_site_type_symbol
_atom_site_label
_atom_site_fract_x
_atom_site_fract_y
_atom_site_fract_z
Si Si1 0.951162 0.813767 0.852740
Si Si2 0.295905 0.315605 0.470393
Si Si3 0.548555 0.814898 0.379848
Si Si4 0.067556 0.177388 0.611413
Si Si5 0.643085 0.180924 0.911809
Si Si6 0.799770 0.817025 0.104810
Si Si7 0.358747 0.815925 0.297254
Si Si8 0.167568 0.176627 0.691441
O O1 0.950532 0.766214 0.726517
O O2 0.907557 0.743786 0.907710
O O3 0.000000 0.774783 0.897219
O O4 0.946400 0.000000 0.853560
O O5 0.298888 0.500000 0.457193
O O6 0.250000 0.250000 0.426421
O O7 0.335066 0.232608 0.407546
O O8 0.299188 0.280297 0.597074
O O9 0.500000 0.759744 0.344479
O O10 0.555256 0.767164 0.504247
O O11 0.590339 0.761896 0.309011
O O12 0.548950 0.000000 0.375656
O O13 0.120104 0.178175 0.631720
O O14 0.053508 0.000000 0.597077
O O15 0.663671 0.217033 0.794671
O O16 0.642318 0.000000 0.932934
O O17 0.673685 0.263276 0.999192
O O18 0.750000 0.750000 0.108334
O O19 0.829746 0.759036 0.203802
O O20 0.796523 0.000000 0.108042
O O21 0.357985 0.000000 0.284224
O O22 0.175462 0.000000 0.726951
#
# Coordination Sequence:
#
# PCOD9349595 Si02
#       8
#     8   8   8   8   8   8   8   8
#     4   9  18  34  56  85 124 169 212 253 300 355
#     4  11  22  37  58  86 120 158 200 244 299 363
#     4  10  21  35  54  84 122 161 199 244 297 351
#     4   9  16  30  52  80 116 161 207 248 290 342
#     4  11  23  39  62  92 125 159 202 252 308 365
#     4  12  26  47  72  93 116 150 200 254 310 369
#     4  11  23  41  63  88 122 158 200 250 304 361
#     4   9  19  36  56  81 121 165 203 246 299 356
#
# _framework density 19.603023
#
# number of rings (size 3 to 8) (size 9 to 14) (size 15 to 20)
#    0.000    1.750    1.250    4.500    0.000    5.000 
#    0.000    1.875    0.000    2.250    0.000    0.000 
#    0.000    0.000    0.000    0.000    0.000    0.000 
#
# Total GULP energy -178641.852851 kJ/mol
# GULP energy per Si atom -5582.557902 kJ/mol
# Density = 1.955841 g / cm^3
# Si number density = 19.603023 Si / 1000 Ang^3
#
#
#
# Elastic Constant Matrix: (Units=GPa)
#
#
# Indices 1 2 3 4 5 6 
#
# 1 170.2626 55.6649 62.0742 0.0000 0.0000 0.0000
# 2 55.6649 80.9756 43.8362 0.0000 0.0000 0.0000
# 3 62.0742 43.8362 70.3885 0.0000 0.0000 0.0000
# 4 0.0000 0.0000 0.0000 15.2956 0.0000 0.0000
# 5 0.0000 0.0000 0.0000 0.0000 15.6694 0.0000
# 6 0.0000 0.0000 0.0000 0.0000 0.0000 7.7511
#
#
#
# Elastic Compliance Matrix: (Units=1/GPa)
#
#
# Indices 1 2 3 4 5 6 
#
# 1 0.009080 -0.002877 -0.006216 0.000000 0.000000 0.000000
# 2 -0.002877 0.019542 -0.009633 0.000000 0.000000 0.000000
# 3 -0.006216 -0.009633 0.025688 0.000000 0.000000 0.000000
# 4 0.000000 0.000000 0.000000 0.065378 0.000000 0.000000
# 5 0.000000 0.000000 0.000000 0.000000 0.063819 0.000000
# 6 0.000000 0.000000 0.000000 0.000000 0.000000 0.129014
#
#
# Mechanical properties :
#
#
# Convention : Reuss Voigt Hill
#
# Bulk Modulus (GPa) = 59.31908 71.64192 65.48050
# Shear Modulus (GPa) = 14.06107 18.41332 16.23719
#
# Velocity S-wave (km/s) = 2.68113 3.06814 2.88114
# Velocity P-wave (km/s) = 6.31748 7.01263 6.67411
#
# Compressibility (1/GPa) = 0.01685798
#
# Stress axis : x y z
#
# Youngs Moduli (GPa) = 110.13221 51.17184 38.92903
#
# Poissons Ratio (x) = 0.14722 0.24198
# Poissons Ratio (y) = 0.31684 0.37501
# Poissons Ratio (z) = 0.68456 0.49295
#
# Static dielectric constant tensor:
#      x y z
#    x 1.780530 0.000000 0.000000 
#    y 0.000000 1.662680 0.000000 
#    z 0.000000 0.000000 1.680310 
# 
# From -- ./inp_files/14563.got.cif
#   From: 2010.05.17/outbox.cif.g08.bks.cpg/sg35_8_cif.got.tgz:14563.got - 2010.06.03 17:29:28.
