data_PCOD9349560
_publ_section_title
;
Structure prediction by ZEFSAII (Michael W. Deem and Ramdas Pophale) SiO2 
 PCOD9349560
Probable space group: C M M 2
;
_chemical_formula_sum "Si O2"
_cell_formula_units_Z 58
_cell_length_a 29.098891
_cell_length_b 7.835123
_cell_length_c 12.289784
_cell_angle_alpha 90.000000
_cell_angle_beta 90.000000
_cell_angle_gamma 90.000000
_cell_volume 2801.989518
_symmetry_space_group_name_H-M "C M M 2"
_symmetry_group_IT_number 35
_symmetry_cell_setting 'orthorhombic'
loop_
_space_group_symop_operation_xyz
x,y,z
-x,-y,z
-x,y,z
x,-y,z
1/2+x,1/2+y,z
1/2-x,1/2-y,z
1/2-x,1/2+y,z
1/2+x,1/2-y,z
loop_
_atom_site_type_symbol
_atom_site_label
_atom_site_fract_x
_atom_site_fract_y
_atom_site_fract_z
Si Si1 0.113608 0.699093 0.290490
Si Si2 0.303530 0.699736 0.154245
Si Si3 0.552477 0.303319 0.848208
Si Si4 0.000000 0.500000 0.542367
Si Si5 0.553900 0.202443 0.090311
Si Si6 0.303527 0.203782 0.910023
Si Si7 0.422463 0.307690 0.520783
Si Si8 0.365369 0.192282 0.715264
O O1 0.101615 0.500000 0.305188
O O2 0.165303 0.711899 0.245291
O O3 0.083404 0.767852 0.190116
O O4 0.099496 0.789146 0.401065
O O5 0.307532 0.500000 0.171861
O O6 0.250000 0.750000 0.159640
O O7 0.319622 0.738230 0.030008
O O8 0.500000 0.247147 0.832099
O O9 0.556795 0.500000 0.813181
O O10 0.587246 0.189543 0.782706
O O11 0.562763 0.291132 0.975898
O O12 0.959354 0.654185 0.538555
O O13 0.500000 0.220732 0.115422
O O14 0.563416 0.000000 0.075370
O O15 0.250000 0.250000 0.902052
O O16 0.330332 0.270964 0.803881
O O17 0.309025 0.000000 0.909174
O O18 0.441803 0.500000 0.533622
O O19 0.380493 0.286220 0.606328
O O20 0.350179 0.000000 0.688210
#
# Coordination Sequence:
#
# PCOD9349560 Si02
#       8
#     8   8   8   2   8   8   8   8
#     4  11  22  40  64  89 128 166 211 273 326 385
#     4  11  22  38  63  96 130 168 217 269 330 403
#     4  10  21  34  51  81 117 154 201 254 309 379
#     4  12  26  52  68  94 134 176 222 292 320 380
#     4   9  19  34  55  81 114 158 199 244 312 382
#     4  10  21  38  64  95 129 169 213 266 332 399
#     4  12  27  45  70  98 127 175 230 271 331 390
#     4  11  23  41  61  87 125 165 211 271 326 385
#
# _framework density 20.699577999999999
#
# number of rings (size 3 to 8) (size 9 to 14) (size 15 to 20)
#    0.000    1.379    1.379    4.759    1.931    7.448 
#    0.000    0.690    0.000    1.655    0.000    0.000 
#    0.000    0.000    0.000    0.000    0.000    0.000 
#
# Total GULP energy -161738.720297 kJ/mol
# GULP energy per Si atom -5577.197252 kJ/mol
# Density = 2.065246 g / cm^3
# Si number density = 20.699578 Si / 1000 Ang^3
#
#
#
# Elastic Constant Matrix: (Units=GPa)
#
#
# Indices 1 2 3 4 5 6 
#
# 1 46.3181 6.0914 37.9141 0.0000 0.0000 0.0000
# 2 6.0914 88.6631 8.4117 0.0000 0.0000 0.0000
# 3 37.9141 8.4117 80.7139 0.0000 0.0000 0.0000
# 4 0.0000 0.0000 0.0000 32.4666 0.0000 0.0000
# 5 0.0000 0.0000 0.0000 0.0000 -2.5776 0.0000
# 6 0.0000 0.0000 0.0000 0.0000 0.0000 17.1958
#
#
#
# Elastic Compliance Matrix: (Units=1/GPa)
#
#
# Indices 1 2 3 4 5 6 
#
# 1 0.035141 -0.000857 -0.016418 0.000000 0.000000 0.000000
# 2 -0.000857 0.011412 -0.000787 0.000000 0.000000 0.000000
# 3 -0.016418 -0.000787 0.020184 0.000000 0.000000 0.000000
# 4 0.000000 0.000000 0.000000 0.030801 0.000000 0.000000
# 5 0.000000 0.000000 0.000000 0.000000 -0.387958 0.000000
# 6 0.000000 0.000000 0.000000 0.000000 0.000000 0.058154
#
#
# Mechanical properties :
#
#
# Convention : Reuss Voigt Hill
#
# Bulk Modulus (GPa) = 32.66467 35.61442 34.13954
# Shear Modulus (GPa) = -26.89060 20.30215 -3.29422
#
# Velocity S-wave (km/s) = -3.60820 3.13517 -1.26289
# Velocity P-wave (km/s) = 1.24265 5.50894 3.79502
#
# Compressibility (1/GPa) = 0.03061412
#
# Stress axis : x y z
#
# Youngs Moduli (GPa) = 28.45639 87.62582 49.54542
#
# Poissons Ratio (x) = 0.07507 0.81343
# Poissons Ratio (y) = 0.02438 0.03899
# Poissons Ratio (z) = 0.46719 0.06895
#
# Static dielectric constant tensor:
#      x y z
#    x 1.767200 0.000000 0.000000 
#    y 0.000000 1.750530 0.000000 
#    z 0.000000 0.000000 1.748620 
# 
# From -- ./inp_files/14343.got.cif
#   From: 2010.05.17/outbox.cif.g08.bks.cpg/sg35_8_cif.got.tgz:14343.got - 2010.06.03 17:29:28.
