data_PCOD9349857
_publ_section_title
;
Structure prediction by ZEFSAII (Michael W. Deem and Ramdas Pophale) SiO2 
 PCOD9349857
Probable space group: C M M 2
;
_chemical_formula_sum "Si O2"
_cell_formula_units_Z 48
_cell_length_a 16.108855
_cell_length_b 27.011181
_cell_length_c 5.145243
_cell_angle_alpha 90.000000
_cell_angle_beta 90.000000
_cell_angle_gamma 90.000000
_cell_volume 2238.794008
_symmetry_space_group_name_H-M "C M M 2"
_symmetry_group_IT_number 35
_symmetry_cell_setting 'orthorhombic'
loop_
_space_group_symop_operation_xyz
x,y,z
-x,-y,z
-x,y,z
x,-y,z
1/2+x,1/2+y,z
1/2-x,1/2-y,z
1/2-x,1/2+y,z
1/2+x,1/2-y,z
loop_
_atom_site_type_symbol
_atom_site_label
_atom_site_fract_x
_atom_site_fract_y
_atom_site_fract_z
Si Si1 0.678841 0.895930 0.720250
Si Si2 0.748330 0.944574 0.216122
Si Si3 0.500000 0.144414 0.680043
Si Si4 0.000000 0.292518 0.182789
Si Si5 0.597764 0.557022 0.891938
Si Si6 0.332209 0.659506 0.703692
Si Si7 0.341159 0.275656 0.191616
O O1 0.709748 0.910213 0.433834
O O2 0.582790 0.886072 0.730061
O O3 0.735122 0.847997 0.779072
O O4 0.705481 0.934985 0.938511
O O5 0.734197 0.000000 0.305549
O O6 0.845496 0.938081 0.149574
O O7 0.500000 0.162086 0.383286
O O8 0.500000 0.189411 0.885203
O O9 0.915579 0.262714 0.238914
O O10 0.500000 0.560412 0.940346
O O11 0.614142 0.500000 0.793415
O O12 0.626643 0.604728 0.724663
O O13 0.339918 0.684900 0.426292
O O14 0.364575 0.695589 0.927369
O O15 0.250000 0.250000 0.177078
#
# Coordination Sequence:
#
# PCOD9349857 Si02
#       7
#     8   8   4   4   8   8   8
#     4  11  22  41  65  93 123 173 212 265 320 385
#     4  10  21  40  63  94 132 171 214 262 322 384
#     4  12  24  44  67  92 124 162 223 266 326 402
#     4  12  26  42  66  94 124 166 212 276 332 388
#     4   9  20  39  66  98 136 179 222 268 326 397
#     4  11  23  41  66  93 132 171 217 270 332 396
#     4  12  25  43  65  95 130 172 220 278 340 395
#
# _framework density 21.440113
#
# number of rings (size 3 to 8) (size 9 to 14) (size 15 to 20)
#    0.000    1.167    0.000    7.000    2.333    0.667 
#    0.000    6.667    0.000   22.000    0.000    0.000 
#    0.000    0.000    0.000    0.000    0.000    0.000 
#
# Total GULP energy -134130.847644 kJ/mol
# GULP energy per Si atom -5588.785319 kJ/mol
# Density = 2.139131 g / cm^3
# Si number density = 21.440113 Si / 1000 Ang^3
#
#
#
# Elastic Constant Matrix: (Units=GPa)
#
#
# Indices 1 2 3 4 5 6 
#
# 1 165.2306 40.5210 11.5197 0.0000 0.0000 0.0000
# 2 40.5210 83.1489 28.5207 0.0000 0.0000 0.0000
# 3 11.5197 28.5207 65.8845 0.0000 0.0000 0.0000
# 4 0.0000 0.0000 0.0000 29.4589 0.0000 0.0000
# 5 0.0000 0.0000 0.0000 0.0000 19.9441 0.0000
# 6 0.0000 0.0000 0.0000 0.0000 0.0000 31.9919
#
#
#
# Elastic Compliance Matrix: (Units=1/GPa)
#
#
# Indices 1 2 3 4 5 6 
#
# 1 0.006878 -0.003452 0.000292 0.000000 0.000000 0.000000
# 2 -0.003452 0.015856 -0.006260 0.000000 0.000000 0.000000
# 3 0.000292 -0.006260 0.017837 0.000000 0.000000 0.000000
# 4 0.000000 0.000000 0.000000 0.033946 0.000000 0.000000
# 5 0.000000 0.000000 0.000000 0.000000 0.050140 0.000000
# 6 0.000000 0.000000 0.000000 0.000000 0.000000 0.031258
#
#
# Mechanical properties :
#
#
# Convention : Reuss Voigt Hill
#
# Bulk Modulus (GPa) = 46.01893 52.82075 49.41984
# Shear Modulus (GPa) = 27.47245 31.85917 29.66581
#
# Velocity S-wave (km/s) = 3.58349 3.85900 3.72379
# Velocity P-wave (km/s) = 6.21550 6.67426 6.44896
#
# Compressibility (1/GPa) = 0.02173019
#
# Stress axis : x y z
#
# Youngs Moduli (GPa) = 145.38257 63.06630 56.06279
#
# Poissons Ratio (x) = 0.21771 -0.01635
# Poissons Ratio (y) = 0.50188 0.35098
# Poissons Ratio (z) = -0.04241 0.39482
#
# Static dielectric constant tensor:
#      x y z
#    x 1.755540 0.000000 0.000000 
#    y 0.000000 1.769350 0.000000 
#    z 0.000000 0.000000 1.742380 
# 
# From -- ./inp_files/1944.got.cif
#   From: 2010.05.17/outbox.cif.g08.bks.cpg/sg35_1_cif.got.tgz:1944.got - 2010.06.03 17:29:28.
