data_PCOD9349019
_publ_section_title
;
Structure prediction by ZEFSAII (Michael W. Deem and Ramdas Pophale) SiO2 
 PCOD9349019
Probable space group: C M M 2
;
_chemical_formula_sum "Si O2"
_cell_formula_units_Z 64
_cell_length_a 8.078414
_cell_length_b 29.171091
_cell_length_c 13.418362
_cell_angle_alpha 90.000000
_cell_angle_beta 90.000000
_cell_angle_gamma 90.000000
_cell_volume 3162.119527
_symmetry_space_group_name_H-M "C M M 2"
_symmetry_group_IT_number 35
_symmetry_cell_setting 'orthorhombic'
loop_
_space_group_symop_operation_xyz
x,y,z
-x,-y,z
-x,y,z
x,-y,z
1/2+x,1/2+y,z
1/2-x,1/2-y,z
1/2-x,1/2+y,z
1/2+x,1/2-y,z
loop_
_atom_site_type_symbol
_atom_site_label
_atom_site_fract_x
_atom_site_fract_y
_atom_site_fract_z
Si Si1 0.187873 0.444346 0.514630
Si Si2 0.804019 0.143190 0.817202
Si Si3 0.199493 0.696936 0.401573
Si Si4 0.196554 0.948535 0.732504
Si Si5 0.698722 0.196741 0.621447
Si Si6 0.702842 0.143661 0.204434
Si Si7 0.195361 0.697416 0.011458
Si Si8 0.202606 0.552140 0.295023
O O1 0.180407 0.500000 0.510442
O O2 0.277916 0.433796 0.617323
O O3 0.256831 0.432029 0.406110
O O4 0.000000 0.426345 0.522484
O O5 0.735287 0.091657 0.802234
O O6 0.771472 0.169493 0.713970
O O7 0.733478 0.171176 0.909461
O O8 0.000000 0.140235 0.832430
O O9 0.250000 0.750000 0.392512
O O10 0.254616 0.680248 0.511317
O O11 0.257645 0.669479 0.305081
O O12 0.000000 0.694498 0.402016
O O13 0.000000 0.951278 0.748968
O O14 0.266490 0.000000 0.745236
O O15 0.500000 0.193651 0.626455
O O16 0.750000 0.250000 0.629012
O O17 0.500000 0.144450 0.203598
O O18 0.751723 0.090530 0.215970
O O19 0.764924 0.169762 0.106660
O O20 0.250000 0.750000 0.007938
O O21 0.000000 0.698216 0.024362
O O22 0.257399 0.500000 0.275968
O O23 0.000000 0.551155 0.299838
#
# Coordination Sequence:
#
# PCOD9349019 Si02
#       8
#     8   8   8   8   8   8   8   8
#     4   8  14  25  46  76 107 141 179 218 257 304
#     4  11  23  38  57  79 107 142 184 227 272 326
#     4   9  18  32  51  76 107 139 170 211 263 320
#     4   9  19  35  53  75 107 146 183 220 267 321
#     4  10  20  34  54  80 111 143 175 218 271 330
#     4   9  18  32  52  78 107 140 179 218 264 320
#     4  11  23  40  61  82 106 138 181 232 280 328
#     4   8  14  26  47  77 112 145 176 213 261 316
#
# _framework density 20.23959
#
# number of rings (size 3 to 8) (size 9 to 14) (size 15 to 20)
#    0.000    2.625    0.000    2.625    1.750    1.500 
#    0.000    1.250    0.000    2.250    0.000    0.000 
#    0.000    0.000    0.000    0.000    0.000    0.000 
#
# Total GULP energy -178532.717725 kJ/mol
# GULP energy per Si atom -5579.147429 kJ/mol
# Density = 2.019352 g / cm^3
# Si number density = 20.239590 Si / 1000 Ang^3
#
#
#
# Elastic Constant Matrix: (Units=GPa)
#
#
# Indices 1 2 3 4 5 6 
#
# 1 14.6079 7.0535 5.7460 0.0000 0.0000 0.0000
# 2 7.0535 146.7717 97.5067 0.0000 0.0000 0.0000
# 3 5.7460 97.5067 137.8940 0.0000 0.0000 0.0000
# 4 0.0000 0.0000 0.0000 34.8229 0.0000 0.0000
# 5 0.0000 0.0000 0.0000 0.0000 5.1756 0.0000
# 6 0.0000 0.0000 0.0000 0.0000 0.0000 5.1572
#
#
#
# Elastic Compliance Matrix: (Units=1/GPa)
#
#
# Indices 1 2 3 4 5 6 
#
# 1 0.070158 -0.002696 -0.001017 0.000000 0.000000 0.000000
# 2 -0.002696 0.012953 -0.009047 0.000000 0.000000 0.000000
# 3 -0.001017 -0.009047 0.013692 0.000000 0.000000 0.000000
# 4 0.000000 0.000000 0.000000 0.028717 0.000000 0.000000
# 5 0.000000 0.000000 0.000000 0.000000 0.193215 0.000000
# 6 0.000000 0.000000 0.000000 0.000000 0.000000 0.193903
#
#
# Mechanical properties :
#
#
# Convention : Reuss Voigt Hill
#
# Bulk Modulus (GPa) = 14.02866 57.76511 35.89689
# Shear Modulus (GPa) = 8.89810 21.62897 15.26353
#
# Velocity S-wave (km/s) = 2.09903 3.27256 2.74914
# Velocity P-wave (km/s) = 3.58063 6.54845 5.27746
#
# Compressibility (1/GPa) = 0.07128264
#
# Stress axis : x y z
#
# Youngs Moduli (GPa) = 14.25354 77.20107 73.03743
#
# Poissons Ratio (x) = 0.20813 0.07429
# Poissons Ratio (y) = 0.03843 0.66077
# Poissons Ratio (z) = 0.01450 0.69844
#
# Static dielectric constant tensor:
#      x y z
#    x 1.713800 0.000000 0.000000 
#    y 0.000000 1.744450 0.000000 
#    z 0.000000 0.000000 1.708130 
# 
# From -- ./inp_files/11912.got.cif
#   From: 2010.05.17/outbox.cif.g08.bks.cpg/sg35_6_cif.got.tgz:11912.got - 2010.06.03 17:29:28.
