data_PCOD9349691
_publ_section_title
;
Structure prediction by ZEFSAII (Michael W. Deem and Ramdas Pophale) SiO2 
 PCOD9349691
Probable space group: C M M 2
;
_chemical_formula_sum "Si O2"
_cell_formula_units_Z 64
_cell_length_a 28.957765
_cell_length_b 8.541320
_cell_length_c 13.335939
_cell_angle_alpha 90.000000
_cell_angle_beta 90.000000
_cell_angle_gamma 90.000000
_cell_volume 3298.478311
_symmetry_space_group_name_H-M "C M M 2"
_symmetry_group_IT_number 35
_symmetry_cell_setting 'orthorhombic'
loop_
_space_group_symop_operation_xyz
x,y,z
-x,-y,z
-x,y,z
x,-y,z
1/2+x,1/2+y,z
1/2-x,1/2-y,z
1/2-x,1/2+y,z
1/2+x,1/2-y,z
loop_
_atom_site_type_symbol
_atom_site_label
_atom_site_fract_x
_atom_site_fract_y
_atom_site_fract_z
Si Si1 0.052989 0.189707 0.225630
Si Si2 0.197665 0.812168 0.334042
Si Si3 0.302081 0.810606 0.945999
Si Si4 0.142565 0.312814 0.748701
Si Si5 0.943870 0.178145 0.445998
Si Si6 0.447011 0.310293 0.666367
Si Si7 0.802335 0.812168 0.557955
Si Si8 0.357435 0.187186 0.143296
O O1 0.067086 0.248754 0.337714
O O2 0.090516 0.249457 0.148097
O O3 0.000000 0.236122 0.205809
O O4 0.053998 0.000000 0.229877
O O5 0.250000 0.750000 0.325511
O O6 0.180477 0.768074 0.445999
O O7 0.168105 0.745767 0.243257
O O8 0.197876 0.000000 0.328048
O O9 0.250000 0.750000 0.945998
O O10 0.329259 0.758999 0.846353
O O11 0.300901 0.000000 0.945999
O O12 0.329259 0.758999 0.045645
O O13 0.141750 0.500000 0.748962
O O14 0.090516 0.249457 0.743900
O O15 0.168105 0.254233 0.648740
O O16 0.932914 0.248754 0.554283
O O17 0.000000 0.167116 0.445998
O O18 0.925045 0.000000 0.445998
O O19 0.500000 0.263878 0.686188
O O20 0.446002 0.500000 0.662120
O O21 0.750000 0.750000 0.566486
O O22 0.802124 0.000000 0.563950
O O23 0.358250 0.000000 0.143035
#
# Coordination Sequence:
#
# PCOD9349691 Si02
#       8
#     8   8   8   8   8   8   8   8
#     4   9  18  34  56  83 116 154 195 237 283 335
#     4  10  21  37  57  83 116 150 184 228 286 348
#     4  10  24  44  63  84 111 147 190 241 293 342
#     4  11  23  38  58  84 115 150 193 238 288 344
#     4   7  12  26  49  75 106 145 184 223 269 321
#     4   9  18  34  56  83 116 154 195 237 283 335
#     4  10  21  37  57  83 116 150 184 228 286 348
#     4  11  23  38  58  84 115 150 193 238 288 344
#
# _framework density 19.402885999999999
#
# number of rings (size 3 to 8) (size 9 to 14) (size 15 to 20)
#    0.000    2.375    0.000    3.750    1.750    6.000 
#    0.000    0.625    0.000    6.000    0.000    0.000 
#    0.000    0.000    0.000    0.000    0.000    0.000 
#
# Total GULP energy -178624.095662 kJ/mol
# GULP energy per Si atom -5582.002989 kJ/mol
# Density = 1.935872 g / cm^3
# Si number density = 19.402886 Si / 1000 Ang^3
#
#
#
# Elastic Constant Matrix: (Units=GPa)
#
#
# Indices 1 2 3 4 5 6 
#
# 1 145.3521 29.7148 100.7226 0.0000 0.0000 0.0000
# 2 29.7148 26.7074 32.2261 0.0000 0.0000 0.0000
# 3 100.7226 32.2261 139.8196 0.0000 0.0000 0.0000
# 4 0.0000 0.0000 0.0000 22.3620 0.0000 0.0000
# 5 0.0000 0.0000 0.0000 0.0000 40.3445 0.0000
# 6 0.0000 0.0000 0.0000 0.0000 0.0000 31.1278
#
#
#
# Elastic Compliance Matrix: (Units=1/GPa)
#
#
# Indices 1 2 3 4 5 6 
#
# 1 0.014164 -0.004775 -0.009103 0.000000 0.000000 0.000000
# 2 -0.004775 0.053478 -0.008886 0.000000 0.000000 0.000000
# 3 -0.009103 -0.008886 0.015757 0.000000 0.000000 0.000000
# 4 0.000000 0.000000 0.000000 0.044719 0.000000 0.000000
# 5 0.000000 0.000000 0.000000 0.000000 0.024787 0.000000
# 6 0.000000 0.000000 0.000000 0.000000 0.000000 0.032126
#
#
# Mechanical properties :
#
#
# Convention : Reuss Voigt Hill
#
# Bulk Modulus (GPa) = 26.40502 70.80068 48.60285
# Shear Modulus (GPa) = 20.56084 28.71455 24.63770
#
# Velocity S-wave (km/s) = 3.25880 3.85114 3.56728
# Velocity P-wave (km/s) = 5.27239 7.50626 6.48622
#
# Compressibility (1/GPa) = 0.03787159
#
# Stress axis : x y z
#
# Youngs Moduli (GPa) = 70.60260 18.69944 63.46218
#
# Poissons Ratio (x) = 0.08929 0.57767
# Poissons Ratio (y) = 0.33714 0.56391
# Poissons Ratio (z) = 0.64267 0.16616
#
# Static dielectric constant tensor:
#      x y z
#    x 1.689320 0.000000 0.000000 
#    y 0.000000 1.668000 0.000000 
#    z 0.000000 0.000000 1.687480 
# 
# From -- ./inp_files/14512.got.cif
#   From: 2010.05.17/outbox.cif.g08.bks.cpg/sg35_8_cif.got.tgz:14512.got - 2010.06.03 17:29:28.
