data_PCOD9349754
_publ_section_title
;
Structure prediction by ZEFSAII (Michael W. Deem and Ramdas Pophale) SiO2 
 PCOD9349754
Probable space group: C M M 2
;
_chemical_formula_sum "Si O2"
_cell_formula_units_Z 64
_cell_length_a 31.191816
_cell_length_b 14.313280
_cell_length_c 7.404237
_cell_angle_alpha 90.000000
_cell_angle_beta 90.000000
_cell_angle_gamma 90.000000
_cell_volume 3305.674890
_symmetry_space_group_name_H-M "C M M 2"
_symmetry_group_IT_number 35
_symmetry_cell_setting 'orthorhombic'
loop_
_space_group_symop_operation_xyz
x,y,z
-x,-y,z
-x,y,z
x,-y,z
1/2+x,1/2+y,z
1/2-x,1/2-y,z
1/2-x,1/2+y,z
1/2+x,1/2-y,z
loop_
_atom_site_type_symbol
_atom_site_label
_atom_site_fract_x
_atom_site_fract_y
_atom_site_fract_z
Si Si1 0.047877 0.264282 0.859700
Si Si2 0.436780 0.393084 0.574233
Si Si3 0.300406 0.746055 0.289530
Si Si4 0.665541 0.604551 0.574235
Si Si5 0.128176 0.393109 0.293461
Si Si6 0.800406 0.753946 0.858940
Si Si7 0.952123 0.264280 0.288763
Si Si8 0.128176 0.393109 0.855005
O O1 0.050234 0.168718 0.747142
O O2 0.086318 0.333044 0.800778
O O3 0.000000 0.304757 0.831757
O O4 0.053035 0.247019 0.074231
O O5 0.452226 0.500000 0.574234
O O6 0.385523 0.396995 0.574236
O O7 0.449765 0.331285 0.401319
O O8 0.250000 0.750000 0.330706
O O9 0.319422 0.660136 0.398846
O O10 0.328750 0.836463 0.343095
O O11 0.305163 0.734343 0.074235
O O12 0.682690 0.500000 0.574233
O O13 0.680579 0.660134 0.749626
O O14 0.127479 0.500000 0.357304
O O15 0.086318 0.333043 0.347686
O O16 0.127226 0.396143 0.074233
O O17 0.750000 0.750000 0.817764
O O18 0.828750 0.663539 0.805373
O O19 0.000000 0.304753 0.316709
O O20 0.127481 0.500000 0.791162
#
# Coordination Sequence:
#
# PCOD9349754 Si02
#       8
#     8   8   8   8   8   8   8   8
#     4  10  21  38  60  85 116 154 195 243 297 351
#     4  11  23  39  60  84 115 156 197 240 293 348
#     4  10  21  39  62  87 119 155 193 240 291 347
#     4  11  23  38  59  86 117 155 196 239 290 347
#     4   9  18  35  59  86 116 151 192 237 290 349
#     4  10  21  39  62  87 119 155 193 240 291 347
#     4  10  21  38  60  85 116 154 195 243 297 351
#     4   9  18  35  59  86 116 151 192 237 290 349
#
# _framework density 19.360644000000001
#
# number of rings (size 3 to 8) (size 9 to 14) (size 15 to 20)
#    0.000    2.000    2.500    0.750    0.000    3.500 
#    0.000   11.250    0.000    1.500    0.000    0.000 
#    0.000    0.000    0.000    0.000    0.000    0.000 
#
# Total GULP energy -178619.812612 kJ/mol
# GULP energy per Si atom -5581.869144 kJ/mol
# Density = 1.931658 g / cm^3
# Si number density = 19.360644 Si / 1000 Ang^3
#
#
#
# Elastic Constant Matrix: (Units=GPa)
#
#
# Indices 1 2 3 4 5 6 
#
# 1 170.2384 88.4537 39.5932 0.0000 0.0000 0.0000
# 2 88.4537 182.8769 42.8849 0.0000 0.0000 0.0000
# 3 39.5932 42.8849 63.8804 0.0000 0.0000 0.0000
# 4 0.0000 0.0000 0.0000 26.7434 0.0000 0.0000
# 5 0.0000 0.0000 0.0000 0.0000 17.3266 0.0000
# 6 0.0000 0.0000 0.0000 0.0000 0.0000 4.9216
#
#
#
# Elastic Compliance Matrix: (Units=1/GPa)
#
#
# Indices 1 2 3 4 5 6 
#
# 1 0.008275 -0.003323 -0.002898 0.000000 0.000000 0.000000
# 2 -0.003323 0.007824 -0.003193 0.000000 0.000000 0.000000
# 3 -0.002898 -0.003193 0.019594 0.000000 0.000000 0.000000
# 4 0.000000 0.000000 0.000000 0.037392 0.000000 0.000000
# 5 0.000000 0.000000 0.000000 0.000000 0.057715 0.000000
# 6 0.000000 0.000000 0.000000 0.000000 0.000000 0.203188
#
#
# Mechanical properties :
#
#
# Convention : Reuss Voigt Hill
#
# Bulk Modulus (GPa) = 59.29394 84.31771 71.80582
# Shear Modulus (GPa) = 13.94946 26.20255 20.07600
#
# Velocity S-wave (km/s) = 2.68714 3.68284 3.22366
# Velocity P-wave (km/s) = 6.34981 7.85685 7.14318
#
# Compressibility (1/GPa) = 0.01686513
#
# Stress axis : x y z
#
# Youngs Moduli (GPa) = 120.85314 127.81112 51.03579
#
# Poissons Ratio (x) = 0.42467 0.14790
# Poissons Ratio (y) = 0.40155 0.16297
# Poissons Ratio (z) = 0.35023 0.40812
#
# Static dielectric constant tensor:
#      x y z
#    x 1.689650 0.000000 0.000000 
#    y 0.000000 1.644950 0.000000 
#    z 0.000000 0.000000 1.680970 
# 
# From -- ./inp_files/10621.got.cif
#   From: 2010.05.17/outbox.cif.g08.bks.cpg/sg35_6_cif.got.tgz:10621.got - 2010.06.03 17:29:28.
