data_PCOD9349111
_publ_section_title
;
Structure prediction by ZEFSAII (Michael W. Deem and Ramdas Pophale) SiO2 
 PCOD9349111
Probable space group: C M M 2
;
_chemical_formula_sum "Si O2"
_cell_formula_units_Z 48
_cell_length_a 8.978680
_cell_length_b 18.864526
_cell_length_c 16.167183
_cell_angle_alpha 90.000000
_cell_angle_beta 90.000000
_cell_angle_gamma 90.000000
_cell_volume 2738.373890
_symmetry_space_group_name_H-M "C M M 2"
_symmetry_group_IT_number 35
_symmetry_cell_setting 'orthorhombic'
loop_
_space_group_symop_operation_xyz
x,y,z
-x,-y,z
-x,y,z
x,-y,z
1/2+x,1/2+y,z
1/2-x,1/2-y,z
1/2-x,1/2+y,z
1/2+x,1/2-y,z
loop_
_atom_site_type_symbol
_atom_site_label
_atom_site_fract_x
_atom_site_fract_y
_atom_site_fract_z
Si Si1 0.673097 0.086171 0.294750
Si Si2 0.678529 0.918022 0.631110
Si Si3 0.172167 0.913730 0.462064
Si Si4 0.321823 0.915167 0.110018
Si Si5 0.320114 0.172175 0.792649
Si Si6 0.321415 0.328160 0.963133
O O1 0.500000 0.105254 0.303546
O O2 0.760413 0.111704 0.375201
O O3 0.723995 0.107999 0.203037
O O4 0.680153 0.000000 0.294371
O O5 0.500000 0.917207 0.623514
O O6 0.745605 0.889876 0.545294
O O7 0.718061 0.874000 0.712394
O O8 0.726016 0.000000 0.641318
O O9 0.000000 0.895261 0.467049
O O10 0.185201 0.000000 0.461037
O O11 0.500000 0.901833 0.101541
O O12 0.301094 0.000000 0.103713
O O13 0.231190 0.875435 0.039687
O O14 0.500000 0.176060 0.800792
O O15 0.250000 0.250000 0.782049
O O16 0.248443 0.143068 0.877312
O O17 0.500000 0.323535 0.957563
O O18 0.250000 0.250000 0.973348
#
# Coordination Sequence:
#
# PCOD9349111 Si02
#       6
#     8   8   8   8   8   8
#     4   8  14  26  45  68  96 131 165 195 233 286
#     4   9  18  32  50  72  97 127 163 200 240 288
#     4   9  16  25  41  68 100 130 159 196 240 283
#     4   9  18  33  53  77 104 133 166 206 251 296
#     4  10  20  35  54  73  95 127 165 203 246 296
#     4  11  22  36  54  74  99 132 169 207 249 300
#
# _framework density 17.528649999999999
#
# number of rings (size 3 to 8) (size 9 to 14) (size 15 to 20)
#    0.000    2.667    0.000    4.500    0.000    5.000 
#    0.000    3.333    0.000    1.000    0.000    4.667 
#    0.000    0.000    0.000    0.000    0.000    0.000 
#
# Total GULP energy -133761.502343 kJ/mol
# GULP energy per Si atom -5573.395931 kJ/mol
# Density = 1.748875 g / cm^3
# Si number density = 17.528650 Si / 1000 Ang^3
#
#
#
# Elastic Constant Matrix: (Units=GPa)
#
#
# Indices 1 2 3 4 5 6 
#
# 1 76.3132 26.8631 83.4007 0.0000 0.0000 0.0000
# 2 26.8631 21.4863 50.4066 0.0000 0.0000 0.0000
# 3 83.4007 50.4066 207.6108 0.0000 0.0000 0.0000
# 4 0.0000 0.0000 0.0000 -23.6642 0.0000 0.0000
# 5 0.0000 0.0000 0.0000 0.0000 29.2209 0.0000
# 6 0.0000 0.0000 0.0000 0.0000 0.0000 19.5413
#
#
#
# Elastic Compliance Matrix: (Units=1/GPa)
#
#
# Indices 1 2 3 4 5 6 
#
# 1 0.026261 -0.018781 -0.005989 0.000000 0.000000 0.000000
# 2 -0.018781 0.121565 -0.021970 0.000000 0.000000 0.000000
# 3 -0.005989 -0.021970 0.012557 0.000000 0.000000 0.000000
# 4 0.000000 0.000000 0.000000 -0.042258 0.000000 0.000000
# 5 0.000000 0.000000 0.000000 0.000000 0.034222 0.000000
# 6 0.000000 0.000000 0.000000 0.000000 0.000000 0.051174
#
#
# Mechanical properties :
#
#
# Convention : Reuss Voigt Hill
#
# Bulk Modulus (GPa) = 14.94759 69.63901 42.29330
# Shear Modulus (GPa) = 15.65913 14.66892 15.16403
#
# Velocity S-wave (km/s) = 2.99213 2.89598 2.94445
# Velocity P-wave (km/s) = 4.52583 7.14123 5.97831
#
# Compressibility (1/GPa) = 0.06690041
#
# Stress axis : x y z
#
# Youngs Moduli (GPa) = 38.07963 8.22607 79.63647
#
# Poissons Ratio (x) = 0.15449 0.47698
# Poissons Ratio (y) = 0.71518 1.74965
# Poissons Ratio (z) = 0.22808 0.18073
#
# Static dielectric constant tensor:
#      x y z
#    x 1.584790 0.000000 0.000000 
#    y 0.000000 1.585070 0.000000 
#    z 0.000000 0.000000 1.610750 
# 
# From -- ./inp_files/14080.got.cif
#   From: 2010.05.17/outbox.cif.g08.bks.cpg/sg35_8_cif.got.tgz:14080.got - 2010.06.03 17:29:28.
