data_PCOD9349698
_publ_section_title
;
Structure prediction by ZEFSAII (Michael W. Deem and Ramdas Pophale) SiO2 
 PCOD9349698
Probable space group: C M M 2
;
_chemical_formula_sum "Si O2"
_cell_formula_units_Z 56
_cell_length_a 8.673544
_cell_length_b 18.540925
_cell_length_c 18.417896
_cell_angle_alpha 90.000000
_cell_angle_beta 90.000000
_cell_angle_gamma 90.000000
_cell_volume 2961.883684
_symmetry_space_group_name_H-M "C M M 2"
_symmetry_group_IT_number 35
_symmetry_cell_setting 'orthorhombic'
loop_
_space_group_symop_operation_xyz
x,y,z
-x,-y,z
-x,y,z
x,-y,z
1/2+x,1/2+y,z
1/2-x,1/2-y,z
1/2-x,1/2+y,z
1/2+x,1/2-y,z
loop_
_atom_site_type_symbol
_atom_site_label
_atom_site_fract_x
_atom_site_fract_y
_atom_site_fract_z
Si Si1 0.813479 0.583823 0.753190
Si Si2 0.686196 0.169377 0.608386
Si Si3 0.684992 0.669310 0.891027
Si Si4 0.683797 0.830175 0.171831
Si Si5 0.686000 0.915786 0.463391
Si Si6 0.183852 0.169784 0.328068
Si Si7 0.314244 0.584068 0.036750
O O1 0.766873 0.500000 0.752156
O O2 0.765772 0.624332 0.679365
O O3 0.746110 0.624785 0.822394
O O4 0.000000 0.586258 0.756792
O O5 0.500000 0.172204 0.608513
O O6 0.750000 0.250000 0.610721
O O7 0.733952 0.128609 0.534822
O O8 0.500000 0.671854 0.888379
O O9 0.750000 0.750000 0.889779
O O10 0.731177 0.628902 0.965300
O O11 0.500000 0.826238 0.175867
O O12 0.750000 0.750000 0.157639
O O13 0.750310 0.853599 0.249877
O O14 0.737061 0.882124 0.107606
O O15 0.500000 0.909868 0.456800
O O16 0.761933 0.882008 0.392238
O O17 0.723897 0.000000 0.471622
O O18 0.250000 0.250000 0.342045
O O19 0.000000 0.173553 0.324444
O O20 0.500000 0.589462 0.044306
O O21 0.274767 0.500000 0.028001
#
# Coordination Sequence:
#
# PCOD9349698 Si02
#       7
#     8   8   8   8   8   8   8
#     4  10  21  38  60  86 117 152 191 236 286 339
#     4  10  21  37  58  84 114 151 192 235 284 337
#     4  11  23  39  60  86 116 152 193 236 284 338
#     4  11  22  38  61  87 115 149 191 235 282 338
#     4  10  21  38  59  83 114 151 191 236 286 339
#     4  11  22  38  60  85 115 150 190 235 284 339
#     4  10  22  40  60  84 116 151 188 234 287 339
#
# _framework density 18.906887999999999
#
# number of rings (size 3 to 8) (size 9 to 14) (size 15 to 20)
#    0.000    1.571    0.000    6.000    0.000    9.429 
#    0.000    0.000    0.000    2.571    0.000    0.000 
#    0.000    0.000    0.000    0.000    0.000    0.000 
#
# Total GULP energy -156564.135657 kJ/mol
# GULP energy per Si atom -5591.576273 kJ/mol
# Density = 1.886386 g / cm^3
# Si number density = 18.906888 Si / 1000 Ang^3
#
#
#
# Elastic Constant Matrix: (Units=GPa)
#
#
# Indices 1 2 3 4 5 6 
#
# 1 61.3388 62.5372 62.9284 0.0000 0.0000 0.0000
# 2 62.5372 181.5790 131.9768 0.0000 0.0000 0.0000
# 3 62.9284 131.9768 184.3453 0.0000 0.0000 0.0000
# 4 0.0000 0.0000 0.0000 142.0482 0.0000 0.0000
# 5 0.0000 0.0000 0.0000 0.0000 -9.4406 0.0000
# 6 0.0000 0.0000 0.0000 0.0000 0.0000 23.9552
#
#
#
# Elastic Compliance Matrix: (Units=1/GPa)
#
#
# Indices 1 2 3 4 5 6 
#
# 1 0.027513 -0.005524 -0.005437 0.000000 0.000000 0.000000
# 2 -0.005524 0.012591 -0.007128 0.000000 0.000000 0.000000
# 3 -0.005437 -0.007128 0.012384 0.000000 0.000000 0.000000
# 4 0.000000 0.000000 0.000000 0.007040 0.000000 0.000000
# 5 0.000000 0.000000 0.000000 0.000000 -0.105926 0.000000
# 6 0.000000 0.000000 0.000000 0.000000 0.000000 0.041745
#
#
# Mechanical properties :
#
#
# Convention : Reuss Voigt Hill
#
# Bulk Modulus (GPa) = 61.31659 104.68309 82.99984
# Shear Modulus (GPa) = 135.27714 42.63396 88.95555
#
# Velocity S-wave (km/s) = 8.46785 4.75378 6.86669
# Velocity P-wave (km/s) = 11.31844 9.25306 10.33746
#
# Compressibility (1/GPa) = 0.01630880
#
# Stress axis : x y z
#
# Youngs Moduli (GPa) = 36.34700 79.42319 80.74855
#
# Poissons Ratio (x) = 0.43870 0.43905
# Poissons Ratio (y) = 0.20076 0.57561
# Poissons Ratio (z) = 0.19763 0.56617
#
# Static dielectric constant tensor:
#      x y z
#    x 1.642760 0.000000 0.000000 
#    y 0.000000 1.621640 0.000000 
#    z 0.000000 0.000000 1.628430 
# 
# From -- ./inp_files/15598.got.cif
#   From: 2010.05.17/outbox.cif.g08.bks.cpg/sg35_8_cif.got.tgz:15598.got - 2010.06.03 17:29:28.
