data_PCOD9349014
_publ_section_title
;
Structure prediction by ZEFSAII (Michael W. Deem and Ramdas Pophale) SiO2 
 PCOD9349014
Probable space group: C M M 2
;
_chemical_formula_sum "Si O2"
_cell_formula_units_Z 56
_cell_length_a 8.718667
_cell_length_b 19.840793
_cell_length_c 18.062015
_cell_angle_alpha 90.000000
_cell_angle_beta 90.000000
_cell_angle_gamma 90.000000
_cell_volume 3124.462491
_symmetry_space_group_name_H-M "C M M 2"
_symmetry_group_IT_number 35
_symmetry_cell_setting 'orthorhombic'
loop_
_space_group_symop_operation_xyz
x,y,z
-x,-y,z
-x,y,z
x,-y,z
1/2+x,1/2+y,z
1/2-x,1/2-y,z
1/2-x,1/2+y,z
1/2+x,1/2-y,z
loop_
_atom_site_type_symbol
_atom_site_label
_atom_site_fract_x
_atom_site_fract_y
_atom_site_fract_z
Si Si1 0.316484 0.176489 0.431820
Si Si2 0.184700 0.323648 0.262362
Si Si3 0.316834 0.419860 0.722408
Si Si4 0.684791 0.578244 0.554385
Si Si5 0.683398 0.323615 0.006490
Si Si6 0.317634 0.177612 0.843642
Si Si7 0.314282 0.921473 0.130110
O O1 0.500000 0.178824 0.433814
O O2 0.250000 0.250000 0.449347
O O3 0.268678 0.160541 0.346986
O O4 0.256504 0.123580 0.491128
O O5 0.250000 0.250000 0.242569
O O6 0.231313 0.380907 0.204327
O O7 0.000000 0.319148 0.260729
O O8 0.500000 0.408243 0.730230
O O9 0.291469 0.500000 0.730670
O O10 0.271775 0.401155 0.638208
O O11 0.228381 0.377601 0.783472
O O12 0.500000 0.582094 0.550474
O O13 0.728302 0.500000 0.544803
O O14 0.500000 0.320341 0.006890
O O15 0.750000 0.250000 0.028037
O O16 0.743501 0.337650 0.923578
O O17 0.743166 0.380552 0.061959
O O18 0.500000 0.182512 0.852010
O O19 0.250000 0.250000 0.820220
O O20 0.500000 0.918854 0.124573
O O21 0.269278 0.000000 0.131700
#
# Coordination Sequence:
#
# PCOD9349014 Si02
#       7
#     8   8   8   8   8   8   8
#     4  10  20  34  54  80 109 141 180 224 268 317
#     4   9  19  35  55  78 105 141 180 220 268 318
#     4   9  19  37  58  79 107 143 180 219 267 321
#     4   9  19  36  56  78 107 143 180 220 269 321
#     4  11  22  38  59  81 108 141 179 220 265 318
#     4  11  22  37  58  83 110 140 178 221 266 316
#     4  10  21  37  56  80 111 143 177 219 266 316
#
# _framework density 17.923082000000001
#
# number of rings (size 3 to 8) (size 9 to 14) (size 15 to 20)
#    0.000    2.143    0.000    5.143    0.000    5.429 
#    0.000    2.857    0.000    0.000    0.000    0.000 
#    0.000    0.000    0.000    0.000    0.000    0.000 
#
# Total GULP energy -156336.780265 kJ/mol
# GULP energy per Si atom -5583.456438 kJ/mol
# Density = 1.788229 g / cm^3
# Si number density = 17.923082 Si / 1000 Ang^3
#
#
#
# Elastic Constant Matrix: (Units=GPa)
#
#
# Indices 1 2 3 4 5 6 
#
# 1 63.8595 52.6296 49.5988 0.0000 0.0000 0.0000
# 2 52.6296 128.2126 103.9991 0.0000 0.0000 0.0000
# 3 49.5988 103.9991 116.6249 0.0000 0.0000 0.0000
# 4 0.0000 0.0000 0.0000 58.0660 0.0000 0.0000
# 5 0.0000 0.0000 0.0000 0.0000 22.1651 0.0000
# 6 0.0000 0.0000 0.0000 0.0000 0.0000 28.8449
#
#
#
# Elastic Compliance Matrix: (Units=1/GPa)
#
#
# Indices 1 2 3 4 5 6 
#
# 1 0.024524 -0.005808 -0.005251 0.000000 0.000000 0.000000
# 2 -0.005808 0.029566 -0.023895 0.000000 0.000000 0.000000
# 3 -0.005251 -0.023895 0.032116 0.000000 0.000000 0.000000
# 4 0.000000 0.000000 0.000000 0.017222 0.000000 0.000000
# 5 0.000000 0.000000 0.000000 0.000000 0.045116 0.000000
# 6 0.000000 0.000000 0.000000 0.000000 0.000000 0.034668
#
#
# Mechanical properties :
#
#
# Convention : Reuss Voigt Hill
#
# Bulk Modulus (GPa) = 61.35529 80.12799 70.74164
# Shear Modulus (GPa) = 19.33844 28.64652 23.99248
#
# Velocity S-wave (km/s) = 3.28833 4.00222 3.66271
# Velocity P-wave (km/s) = 6.98028 8.13392 7.57908
#
# Compressibility (1/GPa) = 0.01629851
#
# Stress axis : x y z
#
# Youngs Moduli (GPa) = 40.77661 33.82246 31.13704
#
# Poissons Ratio (x) = 0.19643 0.16349
# Poissons Ratio (y) = 0.23681 0.74403
# Poissons Ratio (z) = 0.21411 0.80820
#
# Static dielectric constant tensor:
#      x y z
#    x 1.602200 0.000000 0.000000 
#    y 0.000000 1.582830 0.000000 
#    z 0.000000 0.000000 1.606760 
# 
# From -- ./inp_files/15624.got.cif
#   From: 2010.05.17/outbox.cif.g08.bks.cpg/sg35_8_cif.got.tgz:15624.got - 2010.06.03 17:29:28.
