data_PCOD9349887
_publ_section_title
;
Structure prediction by ZEFSAII (Michael W. Deem and Ramdas Pophale) SiO2 
 PCOD9349887
Probable space group: C M M 2
;
_chemical_formula_sum "Si O2"
_cell_formula_units_Z 24
_cell_length_a 16.563222
_cell_length_b 11.254994
_cell_length_c 3.967650
_cell_angle_alpha 90.000000
_cell_angle_beta 90.000000
_cell_angle_gamma 90.000000
_cell_volume 739.645203
_symmetry_space_group_name_H-M "C M M 2"
_symmetry_group_IT_number 35
_symmetry_cell_setting 'orthorhombic'
loop_
_space_group_symop_operation_xyz
x,y,z
-x,-y,z
-x,y,z
x,-y,z
1/2+x,1/2+y,z
1/2-x,1/2-y,z
1/2-x,1/2+y,z
1/2+x,1/2-y,z
loop_
_atom_site_type_symbol
_atom_site_label
_atom_site_fract_x
_atom_site_fract_y
_atom_site_fract_z
Si Si1 0.175185 0.500000 0.975821
Si Si2 0.000000 0.747638 0.872849
Si Si3 0.000000 0.500000 0.932989
Si Si4 0.162941 0.258926 0.429950
Si Si5 0.333882 0.500000 0.493754
Si Si6 0.000000 0.000000 0.907134
O O1 0.089374 0.500000 0.771566
O O2 0.253558 0.500000 0.733168
O O3 0.169414 0.377164 0.196224
O O4 0.917224 0.741716 0.659115
O O5 0.000000 0.870635 0.072931
O O6 0.000000 0.628958 0.100683
O O7 0.250000 0.250000 0.617940
O O8 0.163764 0.123542 0.284867
O O9 0.418453 0.500000 0.689237
#
# Coordination Sequence:
#
# PCOD9349887 Si02
#       6
#     4   4   2   8   4   2
#     4  12  26  43  70 106 140 186 241 287 351 431
#     4  10  21  42  70  98 139 186 225 290 358 412
#     4  12  24  40  66 104 140 178 234 286 354 432
#     4  11  23  44  69 101 142 184 233 290 351 417
#     4  10  23  46  71  99 140 184 236 298 352 416
#     4   8  20  40  68  96 126 182 234 278 348 412
#
# _framework density 32.447994000000001
#
# number of rings (size 3 to 8) (size 9 to 14) (size 15 to 20)
#    0.000    1.333    0.000    5.000    0.000    6.667 
#    0.000    5.000    0.000    0.000    0.000    0.000 
#    0.000    0.000    0.000    0.000    0.000    0.000 
#
# Total GULP energy -67015.719557 kJ/mol
# GULP energy per Si atom -5584.643296 kJ/mol
# Density = 3.237414 g / cm^3
# Si number density = 32.447994 Si / 1000 Ang^3
#
#
#
# Elastic Constant Matrix: (Units=GPa)
#
#
# Indices 1 2 3 4 5 6 
#
# 1 432.5108 6.5874 117.5365 0.0000 0.0000 0.0000
# 2 6.5874 487.6620 105.2818 0.0000 0.0000 0.0000
# 3 117.5365 105.2818 106.9733 0.0000 0.0000 0.0000
# 4 0.0000 0.0000 0.0000 67.3424 0.0000 0.0000
# 5 0.0000 0.0000 0.0000 0.0000 96.0381 0.0000
# 6 0.0000 0.0000 0.0000 0.0000 0.0000 38.7868
#
#
#
# Elastic Compliance Matrix: (Units=1/GPa)
#
#
# Indices 1 2 3 4 5 6 
#
# 1 0.003671 0.001043 -0.005060 0.000000 0.000000 0.000000
# 2 0.001043 0.002900 -0.004000 0.000000 0.000000 0.000000
# 3 -0.005060 -0.004000 0.018845 0.000000 0.000000 0.000000
# 4 0.000000 0.000000 0.000000 0.014849 0.000000 0.000000
# 5 0.000000 0.000000 0.000000 0.000000 0.010413 0.000000
# 6 0.000000 0.000000 0.000000 0.000000 0.000000 0.025782
#
#
# Mechanical properties :
#
#
# Convention : Reuss Voigt Hill
#
# Bulk Modulus (GPa) = 106.59393 165.10638 135.85015
# Shear Modulus (GPa) = 52.28900 93.61615 72.95257
#
# Velocity S-wave (km/s) = 4.01867 5.37715 4.74676
# Velocity P-wave (km/s) = 7.37936 9.46285 8.48530
#
# Compressibility (1/GPa) = 0.00938140
#
# Stress axis : x y z
#
# Youngs Moduli (GPa) = 272.38005 344.81600 53.06473
#
# Poissons Ratio (x) = -0.35960 0.26852
# Poissons Ratio (y) = -0.28406 0.21226
# Poissons Ratio (z) = 1.37831 1.37930
#
# Static dielectric constant tensor:
#      x y z
#    x 2.500390 0.000000 0.000000 
#    y 0.000000 2.519360 0.000000 
#    z 0.000000 0.000000 2.546000 
# 
# From -- ./inp_files/880.got.cif
#   From: 2010.05.17/outbox.cif.g08.bks.cpg/sg35_1_cif.got.tgz:880.got - 2010.06.03 17:29:28.
