data_PCOD9349088
_publ_section_title
;
Structure prediction by ZEFSAII (Michael W. Deem and Ramdas Pophale) SiO2 
 PCOD9349088
Probable space group: C M M 2
;
_chemical_formula_sum "Si O2"
_cell_formula_units_Z 32
_cell_length_a 10.426042
_cell_length_b 15.520577
_cell_length_c 8.156734
_cell_angle_alpha 90.000000
_cell_angle_beta 90.000000
_cell_angle_gamma 90.000000
_cell_volume 1319.907913
_symmetry_space_group_name_H-M "C M M 2"
_symmetry_group_IT_number 35
_symmetry_cell_setting 'orthorhombic'
loop_
_space_group_symop_operation_xyz
x,y,z
-x,-y,z
-x,y,z
x,-y,z
1/2+x,1/2+y,z
1/2-x,1/2-y,z
1/2-x,1/2+y,z
1/2+x,1/2-y,z
loop_
_atom_site_type_symbol
_atom_site_label
_atom_site_fract_x
_atom_site_fract_y
_atom_site_fract_z
Si Si1 0.267142 0.000000 0.878340
Si Si2 0.152013 0.831275 0.024081
Si Si3 0.000000 0.500000 0.123498
Si Si4 0.750000 0.750000 0.459169
Si Si5 0.000000 0.653759 0.369424
Si Si6 0.500000 0.000000 0.626181
Si Si7 0.650501 0.406283 0.394421
O O1 0.185437 0.912519 0.905924
O O2 0.367469 0.000000 0.728529
O O3 0.370029 0.000000 0.024290
O O4 0.250000 0.750000 0.000457
O O5 0.000000 0.807392 0.006884
O O6 0.169408 0.869826 0.209734
O O7 0.000000 0.411450 0.221629
O O8 0.877244 0.714756 0.370664
O O9 0.701128 0.660497 0.530011
O O10 0.000000 0.588487 0.522439
O O11 0.500000 0.413666 0.417052
O O12 0.712026 0.500000 0.404432
#
# Coordination Sequence:
#
# PCOD9349088 Si02
#       7
#     4   8   2   4   4   2   8
#     4  11  23  46  72  98 138 184 230 284 344 406
#     4  11  23  37  62 102 143 181 224 280 343 408
#     4  10  24  40  72 106 134 178 232 282 348 398
#     4  12  22  40  66  98 132 180 228 274 340 404
#     4  11  26  46  69 100 137 179 226 283 341 412
#     4  10  28  52  72  94 136 184 230 288 344 406
#     4  10  20  34  56  97 147 176 210 270 342 401
#
# _framework density 24.244114
#
# number of rings (size 3 to 8) (size 9 to 14) (size 15 to 20)
#    0.000    1.250    3.750    1.875    7.000    0.000 
#    2.250    0.000    2.750    0.000    0.000    0.000 
#    0.000    0.000    0.000    0.000    0.000    0.000 
#
# Total GULP energy -89311.730273 kJ/mol
# GULP energy per Si atom -5581.983142 kJ/mol
# Density = 2.418893 g / cm^3
# Si number density = 24.244114 Si / 1000 Ang^3
#
#
#
# Elastic Constant Matrix: (Units=GPa)
#
#
# Indices 1 2 3 4 5 6 
#
# 1 187.4997 68.7328 33.3612 0.0000 0.0000 0.0000
# 2 68.7328 230.7326 46.4353 0.0000 0.0000 0.0000
# 3 33.3612 46.4353 68.3628 0.0000 0.0000 0.0000
# 4 0.0000 0.0000 0.0000 27.3877 0.0000 0.0000
# 5 0.0000 0.0000 0.0000 0.0000 22.6423 0.0000
# 6 0.0000 0.0000 0.0000 0.0000 0.0000 57.7903
#
#
#
# Elastic Compliance Matrix: (Units=1/GPa)
#
#
# Indices 1 2 3 4 5 6 
#
# 1 0.006228 -0.001441 -0.002061 0.000000 0.000000 0.000000
# 2 -0.001441 0.005353 -0.002933 0.000000 0.000000 0.000000
# 3 -0.002061 -0.002933 0.017626 0.000000 0.000000 0.000000
# 4 0.000000 0.000000 0.000000 0.036513 0.000000 0.000000
# 5 0.000000 0.000000 0.000000 0.000000 0.044165 0.000000
# 6 0.000000 0.000000 0.000000 0.000000 0.000000 0.017304
#
#
# Mechanical properties :
#
#
# Convention : Reuss Voigt Hill
#
# Bulk Modulus (GPa) = 61.20657 87.07262 74.13960
# Shear Modulus (GPa) = 34.36309 44.10177 39.23243
#
# Velocity S-wave (km/s) = 3.76889 4.26968 4.02708
# Velocity P-wave (km/s) = 6.65133 7.76530 7.22980
#
# Compressibility (1/GPa) = 0.01633811
#
# Stress axis : x y z
#
# Youngs Moduli (GPa) = 160.56303 186.79418 56.73435
#
# Poissons Ratio (x) = 0.26908 0.11692
# Poissons Ratio (y) = 0.23130 0.16642
# Poissons Ratio (z) = 0.33089 0.54794
#
# Static dielectric constant tensor:
#      x y z
#    x 1.924490 0.000000 0.000000 
#    y 0.000000 2.020550 0.000000 
#    z 0.000000 0.000000 1.988550 
# 
# From -- ./inp_files/5654.got.cif
#   From: 2010.05.17/outbox.cif.g08.bks.cpg/sg35_3_cif.got.tgz:5654.got - 2010.06.03 17:29:28.
