data_PCOD9349783
_publ_section_title
;
Structure prediction by ZEFSAII (Michael W. Deem and Ramdas Pophale) SiO2 
 PCOD9349783
Probable space group: C M M 2
;
_chemical_formula_sum "Si O2"
_cell_formula_units_Z 48
_cell_length_a 15.555134
_cell_length_b 9.163027
_cell_length_c 17.413735
_cell_angle_alpha 90.000000
_cell_angle_beta 90.000000
_cell_angle_gamma 90.000000
_cell_volume 2482.016442
_symmetry_space_group_name_H-M "C M M 2"
_symmetry_group_IT_number 35
_symmetry_cell_setting 'orthorhombic'
loop_
_space_group_symop_operation_xyz
x,y,z
-x,-y,z
-x,y,z
x,-y,z
1/2+x,1/2+y,z
1/2-x,1/2-y,z
1/2-x,1/2+y,z
1/2+x,1/2-y,z
loop_
_atom_site_type_symbol
_atom_site_label
_atom_site_fract_x
_atom_site_fract_y
_atom_site_fract_z
Si Si1 0.664035 0.825448 0.283050
Si Si2 0.338910 0.175605 0.637119
Si Si3 0.898125 0.328032 0.808683
Si Si4 0.000000 0.824347 0.553004
Si Si5 0.500000 0.825732 0.389458
Si Si6 0.394887 0.332130 0.961904
Si Si7 0.103289 0.672777 0.116206
O O1 0.750000 0.750000 0.311677
O O2 0.583290 0.795755 0.337444
O O3 0.644222 0.775190 0.195901
O O4 0.674765 0.000000 0.280489
O O5 0.250000 0.250000 0.612922
O O6 0.352484 0.202224 0.728249
O O7 0.417055 0.252908 0.593520
O O8 0.339775 0.000000 0.624845
O O9 0.891045 0.500000 0.825150
O O10 0.866020 0.240980 0.882624
O O11 0.000000 0.295686 0.797839
O O12 0.000000 0.771119 0.465171
O O13 0.000000 0.000000 0.559785
O O14 0.500000 0.000000 0.408745
O O15 0.500000 0.323407 0.961497
O O16 0.369813 0.500000 0.963943
O O17 0.366293 0.252371 0.039404
O O18 0.118494 0.500000 0.108327
O O19 0.000000 0.692700 0.123040
#
# Coordination Sequence:
#
# PCOD9349783 Si02
#       7
#     8   8   8   4   4   8   8
#     4  10  21  38  62  90 119 155 198 244 298 356
#     4  11  23  42  66  95 127 163 206 254 308 367
#     4   9  17  33  56  81 114 158 203 246 299 358
#     4  12  26  44  68  97 126 161 202 247 306 371
#     4  10  22  44  68  89 120 159 196 241 300 367
#     4   9  17  27  45  79 116 151 196 249 300 343
#     4   9  16  31  54  78 109 153 201 241 289 354
#
# _framework density 19.339115
#
# number of rings (size 3 to 8) (size 9 to 14) (size 15 to 20)
#    0.000    2.167    1.667    1.750    0.000    5.333 
#    0.000    2.500    0.000    0.000    0.000    0.000 
#    0.000    0.000    0.000    0.000    0.000    0.000 
#
# Total GULP energy -134054.554817 kJ/mol
# GULP energy per Si atom -5585.606451 kJ/mol
# Density = 1.929510 g / cm^3
# Si number density = 19.339115 Si / 1000 Ang^3
#
#
#
# Elastic Constant Matrix: (Units=GPa)
#
#
# Indices 1 2 3 4 5 6 
#
# 1 117.8543 68.5138 59.9292 0.0000 0.0000 0.0000
# 2 68.5138 78.6241 74.4166 0.0000 0.0000 0.0000
# 3 59.9292 74.4166 118.3770 0.0000 0.0000 0.0000
# 4 0.0000 0.0000 0.0000 22.4490 0.0000 0.0000
# 5 0.0000 0.0000 0.0000 0.0000 -12.2579 0.0000
# 6 0.0000 0.0000 0.0000 0.0000 0.0000 22.3693
#
#
#
# Elastic Compliance Matrix: (Units=1/GPa)
#
#
# Indices 1 2 3 4 5 6 
#
# 1 0.017347 -0.016801 0.001780 0.000000 0.000000 0.000000
# 2 -0.016801 0.047676 -0.021465 0.000000 0.000000 0.000000
# 3 0.001780 -0.021465 0.021041 0.000000 0.000000 0.000000
# 4 0.000000 0.000000 0.000000 0.044545 0.000000 0.000000
# 5 0.000000 0.000000 0.000000 0.000000 -0.081580 0.000000
# 6 0.000000 0.000000 0.000000 0.000000 0.000000 0.044704
#
#
# Mechanical properties :
#
#
# Convention : Reuss Voigt Hill
#
# Bulk Modulus (GPa) = 76.39223 80.06384 78.22803
# Shear Modulus (GPa) = 29.22772 13.97845 21.60308
#
# Velocity S-wave (km/s) = 3.89180 2.69142 3.34588
# Velocity P-wave (km/s) = 7.73188 7.15180 7.44749
#
# Compressibility (1/GPa) = 0.01309034
#
# Stress axis : x y z
#
# Youngs Moduli (GPa) = 57.64619 20.97500 47.52692
#
# Poissons Ratio (x) = 0.35240 -0.08457
# Poissons Ratio (y) = 0.96850 1.02018
# Poissons Ratio (z) = -0.10258 0.45024
#
# Static dielectric constant tensor:
#      x y z
#    x 1.694470 0.000000 0.000000 
#    y 0.000000 1.639600 0.000000 
#    z 0.000000 0.000000 1.659100 
# 
# From -- ./inp_files/17923.got.cif
#   From: 2010.05.17/outbox.cif.g08.bks.cpg/sg35_9_cif.got.tgz:17923.got - 2010.06.03 17:29:28.
