data_PCOD9349954
_publ_section_title
;
Structure prediction by ZEFSAII (Michael W. Deem and Ramdas Pophale) SiO2 
 PCOD9349954
Probable space group: C M M 2
;
_chemical_formula_sum "Si O2"
_cell_formula_units_Z 48
_cell_length_a 18.127279
_cell_length_b 7.830221
_cell_length_c 17.756327
_cell_angle_alpha 90.000000
_cell_angle_beta 90.000000
_cell_angle_gamma 90.000000
_cell_volume 2520.343721
_symmetry_space_group_name_H-M "C M M 2"
_symmetry_group_IT_number 35
_symmetry_cell_setting 'orthorhombic'
loop_
_space_group_symop_operation_xyz
x,y,z
-x,-y,z
-x,y,z
x,-y,z
1/2+x,1/2+y,z
1/2-x,1/2-y,z
1/2-x,1/2+y,z
1/2+x,1/2-y,z
loop_
_atom_site_type_symbol
_atom_site_label
_atom_site_fract_x
_atom_site_fract_y
_atom_site_fract_z
Si Si1 0.089778 0.500000 0.176090
Si Si2 0.911192 0.500000 0.351004
Si Si3 0.590031 0.303338 0.067946
Si Si4 0.583826 0.294714 0.901079
Si Si5 0.664945 0.799761 0.748970
Si Si6 0.663799 0.293865 0.447781
Si Si7 0.917726 0.201665 0.599134
O O1 0.111001 0.500000 0.263145
O O2 0.114044 0.669072 0.130855
O O3 0.000000 0.500000 0.174068
O O4 0.879699 0.328995 0.390360
O O5 0.000000 0.500000 0.356603
O O6 0.500000 0.305843 0.066902
O O7 0.613809 0.500000 0.080323
O O8 0.611453 0.241865 0.983857
O O9 0.500000 0.229856 0.889607
O O10 0.579835 0.500000 0.904896
O O11 0.633519 0.248865 0.830476
O O12 0.750000 0.750000 0.742312
O O13 0.617752 0.723799 0.680819
O O14 0.658798 0.000000 0.740630
O O15 0.653315 0.500000 0.436572
O O16 0.750000 0.250000 0.442450
O O17 0.634204 0.240992 0.530819
O O18 0.000000 0.278059 0.595519
O O19 0.924723 0.000000 0.587301
#
# Coordination Sequence:
#
# PCOD9349954 Si02
#       7
#     4   4   8   8   8   8   8
#     4   9  18  32  54  87 123 154 191 247 305 360
#     4  11  24  40  64  99 132 164 207 265 320 374
#     4   8  15  29  52  82 116 152 191 242 303 360
#     4   9  18  34  56  82 113 149 191 244 300 350
#     4  12  25  37  53  79 112 159 201 245 293 355
#     4  11  23  42  67  94 125 171 211 255 313 383
#     4  10  22  40  62  88 120 153 195 250 304 356
#
# _framework density 19.045021999999999
#
# number of rings (size 3 to 8) (size 9 to 14) (size 15 to 20)
#    0.000    2.000    0.833    4.000    2.333    5.667 
#    0.000    1.667    0.000    1.000    0.000    0.000 
#    0.000    0.000    0.000    0.000    0.000    0.000 
#
# Total GULP energy -133911.639995 kJ/mol
# GULP energy per Si atom -5579.651666 kJ/mol
# Density = 1.900167 g / cm^3
# Si number density = 19.045022 Si / 1000 Ang^3
#
#
#
# Elastic Constant Matrix: (Units=GPa)
#
#
# Indices 1 2 3 4 5 6 
#
# 1 86.9660 25.5265 51.4540 0.0000 0.0000 0.0000
# 2 25.5265 80.6067 46.6016 0.0000 0.0000 0.0000
# 3 51.4540 46.6016 138.7292 0.0000 0.0000 0.0000
# 4 0.0000 0.0000 0.0000 113.6232 0.0000 0.0000
# 5 0.0000 0.0000 0.0000 0.0000 -0.6815 0.0000
# 6 0.0000 0.0000 0.0000 0.0000 0.0000 18.9085
#
#
#
# Elastic Compliance Matrix: (Units=1/GPa)
#
#
# Indices 1 2 3 4 5 6 
#
# 1 0.014962 -0.001899 -0.004912 0.000000 0.000000 0.000000
# 2 -0.001899 0.015637 -0.004549 0.000000 0.000000 0.000000
# 3 -0.004912 -0.004549 0.010558 0.000000 0.000000 0.000000
# 4 0.000000 0.000000 0.000000 0.008801 0.000000 0.000000
# 5 0.000000 0.000000 0.000000 0.000000 -1.467428 0.000000
# 6 0.000000 0.000000 0.000000 0.000000 0.000000 0.052886
#
#
# Mechanical properties :
#
#
# Convention : Reuss Voigt Hill
#
# Bulk Modulus (GPa) = 54.23185 61.49627 57.86406
# Shear Modulus (GPa) = -3.74330 38.55137 17.40404
#
# Velocity S-wave (km/s) = -1.40348 4.50402 3.02625
# Velocity P-wave (km/s) = 5.09029 7.70768 6.53144
#
# Compressibility (1/GPa) = 0.01843935
#
# Stress axis : x y z
#
# Youngs Moduli (GPa) = 66.83608 63.95165 94.71594
#
# Poissons Ratio (x) = 0.12142 0.46520
# Poissons Ratio (y) = 0.12690 0.43082
# Poissons Ratio (z) = 0.32827 0.29088
#
# Static dielectric constant tensor:
#      x y z
#    x 1.640950 0.000000 0.000000 
#    y 0.000000 1.665940 0.000000 
#    z 0.000000 0.000000 1.718180 
# 
# From -- ./inp_files/15186.got.cif
#   From: 2010.05.17/outbox.cif.g08.bks.cpg/sg35_8_cif.got.tgz:15186.got - 2010.06.03 17:29:28.
