data_PCOD9349489
_publ_section_title
;
Structure prediction by ZEFSAII (Michael W. Deem and Ramdas Pophale) SiO2 
 PCOD9349489
Probable space group: C M M 2
;
_chemical_formula_sum "Si O2"
_cell_formula_units_Z 38
_cell_length_a 25.028611
_cell_length_b 7.448387
_cell_length_c 11.175083
_cell_angle_alpha 90.000000
_cell_angle_beta 90.000000
_cell_angle_gamma 90.000000
_cell_volume 2083.290049
_symmetry_space_group_name_H-M "C M M 2"
_symmetry_group_IT_number 35
_symmetry_cell_setting 'orthorhombic'
loop_
_space_group_symop_operation_xyz
x,y,z
-x,-y,z
-x,y,z
x,-y,z
1/2+x,1/2+y,z
1/2-x,1/2-y,z
1/2-x,1/2+y,z
1/2+x,1/2-y,z
loop_
_atom_site_type_symbol
_atom_site_label
_atom_site_fract_x
_atom_site_fract_y
_atom_site_fract_z
Si Si1 0.408751 0.214248 0.958600
Si Si2 0.000000 0.000000 0.359511
Si Si3 0.388390 0.500000 0.503883
Si Si4 0.437694 0.500000 0.761411
Si Si5 0.812748 0.285895 0.384264
Si Si6 0.688852 0.213364 0.110078
Si Si7 0.500000 0.209589 0.154027
O O1 0.426282 0.327971 0.844943
O O2 0.408656 0.000000 0.933452
O O3 0.351930 0.277793 0.010197
O O4 0.449496 0.244836 0.068416
O O5 0.054512 0.000000 0.435935
O O6 0.000000 0.170069 0.270720
O O7 0.401513 0.500000 0.644005
O O8 0.352875 0.671448 0.464713
O O9 0.500000 0.500000 0.727144
O O10 0.822022 0.500000 0.392365
O O11 0.750000 0.250000 0.411680
O O12 0.820957 0.223204 0.245972
O O13 0.750000 0.250000 0.079927
O O14 0.680931 0.000000 0.115920
O O15 0.500000 0.000000 0.186381
#
# Coordination Sequence:
#
# PCOD9349489 Si02
#       7
#     8   2   4   4   8   8   4
#     4  10  21  39  62  88 120 158 204 251 310 373
#     4  12  24  38  58  94 138 160 204 272 318 368
#     4  12  26  41  62  91 126 173 225 258 303 373
#     4  12  25  44  62  84 117 173 221 254 301 356
#     4  10  20  40  67  95 126 164 203 258 324 382
#     4   9  19  33  58  94 126 151 187 242 317 383
#     4  10  20  37  63  93 121 158 199 258 328 386
#
# _framework density 18.240378
#
# number of rings (size 3 to 8) (size 9 to 14) (size 15 to 20)
#    0.000    1.684    2.632    1.895    2.947    3.368 
#    0.000    1.053    0.000    0.000    0.000    0.000 
#    0.000    0.000    0.000    0.000    0.000    0.000 
#
# Total GULP energy -106110.065373 kJ/mol
# GULP energy per Si atom -5584.740283 kJ/mol
# Density = 1.819886 g / cm^3
# Si number density = 18.240378 Si / 1000 Ang^3
#
#
#
# Elastic Constant Matrix: (Units=GPa)
#
#
# Indices 1 2 3 4 5 6 
#
# 1 100.7119 35.3153 45.6511 0.0000 0.0000 0.0000
# 2 35.3153 97.7788 40.8923 0.0000 0.0000 0.0000
# 3 45.6511 40.8923 75.8387 0.0000 0.0000 0.0000
# 4 0.0000 0.0000 0.0000 -21.1999 0.0000 0.0000
# 5 0.0000 0.0000 0.0000 0.0000 27.3570 0.0000
# 6 0.0000 0.0000 0.0000 0.0000 0.0000 12.3278
#
#
#
# Elastic Compliance Matrix: (Units=1/GPa)
#
#
# Indices 1 2 3 4 5 6 
#
# 1 0.013943 -0.001970 -0.007331 0.000000 0.000000 0.000000
# 2 -0.001970 0.013483 -0.006084 0.000000 0.000000 0.000000
# 3 -0.007331 -0.006084 0.020879 0.000000 0.000000 0.000000
# 4 0.000000 0.000000 0.000000 -0.047170 0.000000 0.000000
# 5 0.000000 0.000000 0.000000 0.000000 0.036554 0.000000
# 6 0.000000 0.000000 0.000000 0.000000 0.000000 0.081118
#
#
# Mechanical properties :
#
#
# Convention : Reuss Voigt Hill
#
# Bulk Modulus (GPa) = 57.02771 57.56076 57.29423
# Shear Modulus (GPa) = 32.17047 13.86170 23.01608
#
# Velocity S-wave (km/s) = 4.20419 2.75970 3.55607
# Velocity P-wave (km/s) = 7.40941 6.46374 6.95267
#
# Compressibility (1/GPa) = 0.01753533
#
# Stress axis : x y z
#
# Youngs Moduli (GPa) = 71.72034 74.16623 47.89444
#
# Poissons Ratio (x) = 0.14611 0.35110
# Poissons Ratio (y) = 0.14130 0.29140
# Poissons Ratio (z) = 0.52576 0.45125
#
# Static dielectric constant tensor:
#      x y z
#    x 1.616030 0.000000 0.000000 
#    y 0.000000 1.650180 0.000000 
#    z 0.000000 0.000000 1.581390 
# 
# From -- ./inp_files/9670.got.cif
#   From: 2010.05.17/outbox.cif.g08.bks.cpg/sg35_5_cif.got.tgz:9670.got - 2010.06.03 17:29:28.
