data_PCOD9349423
_publ_section_title
;
Structure prediction by ZEFSAII (Michael W. Deem and Ramdas Pophale) SiO2 
 PCOD9349423
Probable space group: C M M 2
;
_chemical_formula_sum "Si O2"
_cell_formula_units_Z 48
_cell_length_a 8.307615
_cell_length_b 15.907367
_cell_length_c 19.270087
_cell_angle_alpha 90.000000
_cell_angle_beta 90.000000
_cell_angle_gamma 90.000000
_cell_volume 2546.585946
_symmetry_space_group_name_H-M "C M M 2"
_symmetry_group_IT_number 35
_symmetry_cell_setting 'orthorhombic'
loop_
_space_group_symop_operation_xyz
x,y,z
-x,-y,z
-x,y,z
x,-y,z
1/2+x,1/2+y,z
1/2-x,1/2-y,z
1/2-x,1/2+y,z
1/2+x,1/2-y,z
loop_
_atom_site_type_symbol
_atom_site_label
_atom_site_fract_x
_atom_site_fract_y
_atom_site_fract_z
Si Si1 0.192281 0.000000 0.178301
Si Si2 0.194218 0.157320 0.429156
Si Si3 0.805738 0.657542 0.929429
Si Si4 0.194278 0.157290 0.588745
Si Si5 0.192570 0.342619 0.089043
Si Si6 0.802793 0.000000 0.337244
Si Si7 0.805160 0.000000 0.680203
Si Si8 0.805178 0.500000 0.838244
O O1 0.247947 0.082843 0.137619
O O2 0.251562 0.000000 0.257726
O O3 0.000000 0.000000 0.180063
O O4 0.250000 0.250000 0.407550
O O5 0.248260 0.143347 0.508945
O O6 0.249498 0.083035 0.378869
O O7 0.000000 0.156289 0.429551
O O8 0.750000 0.750000 0.907193
O O9 0.749600 0.582968 0.879586
O O10 0.000000 0.656456 0.929945
O O11 0.751002 0.644264 0.009197
O O12 0.250000 0.250000 0.610357
O O13 0.000000 0.156195 0.588396
O O14 0.250396 0.083036 0.638929
O O15 0.250000 0.250000 0.111121
O O16 0.000000 0.343549 0.088555
O O17 0.000000 0.000000 0.337397
O O18 0.750065 0.000000 0.759238
O O19 0.000000 0.000000 0.678801
O O20 0.000000 0.500000 0.839586
#
# Coordination Sequence:
#
# PCOD9349423 Si02
#       8
#     4   8   8   8   8   4   4   4
#     4  11  22  35  52  79 112 145 178 214 260 317
#     4   9  17  33  55  76  98 130 170 212 254 298
#     4   9  19  36  57  78 101 131 171 214 257 303
#     4   9  18  33  54  76  99 129 169 212 253 297
#     4  10  20  37  59  81 105 137 177 222 266 312
#     4   9  19  34  52  74 104 139 172 206 252 307
#     4  10  21  35  50  73 103 136 170 204 246 302
#     4  10  21  36  52  74 105 138 166 202 254 306
#
# _framework density 18.848766000000001
#
# number of rings (size 3 to 8) (size 9 to 14) (size 15 to 20)
#    0.000    2.500    0.000    1.750    0.000    6.667 
#    0.000    7.917    0.000    4.000    0.000    0.000 
#    0.000    0.000    0.000    0.000    0.000    0.000 
#
# Total GULP energy -133954.119661 kJ/mol
# GULP energy per Si atom -5581.421653 kJ/mol
# Density = 1.880587 g / cm^3
# Si number density = 18.848766 Si / 1000 Ang^3
#
#
#
# Elastic Constant Matrix: (Units=GPa)
#
#
# Indices 1 2 3 4 5 6 
#
# 1 12.7119 23.0884 17.9430 0.0000 0.0000 0.0000
# 2 23.0884 223.2238 143.9631 0.0000 0.0000 0.0000
# 3 17.9430 143.9631 135.0001 0.0000 0.0000 0.0000
# 4 0.0000 0.0000 0.0000 -3.4706 0.0000 0.0000
# 5 0.0000 0.0000 0.0000 0.0000 21.8440 0.0000
# 6 0.0000 0.0000 0.0000 0.0000 0.0000 33.4177
#
#
#
# Elastic Compliance Matrix: (Units=1/GPa)
#
#
# Indices 1 2 3 4 5 6 
#
# 1 0.098982 -0.005615 -0.007168 0.000000 0.000000 0.000000
# 2 -0.005615 0.014665 -0.014893 0.000000 0.000000 0.000000
# 3 -0.007168 -0.014893 0.024241 0.000000 0.000000 0.000000
# 4 0.000000 0.000000 0.000000 -0.288131 0.000000 0.000000
# 5 0.000000 0.000000 0.000000 0.000000 0.045779 0.000000
# 6 0.000000 0.000000 0.000000 0.000000 0.000000 0.029924
#
#
# Mechanical properties :
#
#
# Convention : Reuss Voigt Hill
#
# Bulk Modulus (GPa) = 12.11565 82.32499 47.22032
# Shear Modulus (GPa) = 600.60439 22.75430 311.67935
#
# Velocity S-wave (km/s) = 17.86996 3.47825 12.87311
# Velocity P-wave (km/s) = 20.78996 7.73966 15.68638
#
# Compressibility (1/GPa) = 0.08253787
#
# Stress axis : x y z
#
# Youngs Moduli (GPa) = 10.10280 68.18848 41.25169
#
# Poissons Ratio (x) = 0.38289 0.29568
# Poissons Ratio (y) = 0.05673 0.61434
# Poissons Ratio (z) = 0.07242 1.01550
#
# Static dielectric constant tensor:
#      x y z
#    x 1.661640 0.000000 0.000000 
#    y 0.000000 1.625640 0.000000 
#    z 0.000000 0.000000 1.639060 
# 
# From -- ./inp_files/17142.got.cif
#   From: 2010.05.17/outbox.cif.g08.bks.cpg/sg35_9_cif.got.tgz:17142.got - 2010.06.03 17:29:28.
