data_PCOD9349395
_publ_section_title
;
Structure prediction by ZEFSAII (Michael W. Deem and Ramdas Pophale) SiO2 
 PCOD9349395
Probable space group: C M M 2
;
_chemical_formula_sum "Si O2"
_cell_formula_units_Z 48
_cell_length_a 14.239104
_cell_length_b 10.287377
_cell_length_c 16.277404
_cell_angle_alpha 90.000000
_cell_angle_beta 90.000000
_cell_angle_gamma 90.000000
_cell_volume 2384.363475
_symmetry_space_group_name_H-M "C M M 2"
_symmetry_group_IT_number 35
_symmetry_cell_setting 'orthorhombic'
loop_
_space_group_symop_operation_xyz
x,y,z
-x,-y,z
-x,y,z
x,-y,z
1/2+x,1/2+y,z
1/2-x,1/2-y,z
1/2-x,1/2+y,z
1/2+x,1/2-y,z
loop_
_atom_site_type_symbol
_atom_site_label
_atom_site_fract_x
_atom_site_fract_y
_atom_site_fract_z
Si Si1 0.886678 0.500000 0.864491
Si Si2 0.385711 0.351717 0.331256
Si Si3 0.613334 0.238652 0.978871
Si Si4 0.112209 0.000000 0.884344
Si Si5 0.887070 0.347876 0.473861
Si Si6 0.385460 0.649769 0.144843
Si Si7 0.737089 0.500000 0.725788
Si Si8 0.750000 0.750000 0.612793
O O1 0.857197 0.377389 0.919931
O O2 0.834511 0.500000 0.777430
O O3 0.000000 0.500000 0.853831
O O4 0.500000 0.354232 0.330648
O O5 0.355490 0.500000 0.352014
O O6 0.359326 0.242364 0.396686
O O7 0.355739 0.321129 0.237926
O O8 0.500000 0.229400 0.981519
O O9 0.638489 0.372656 0.935019
O O10 0.644224 0.251238 0.073448
O O11 0.159050 0.000000 0.796134
O O12 0.000000 0.000000 0.876224
O O13 0.862473 0.500000 0.462577
O O14 0.835306 0.291018 0.553343
O O15 0.000000 0.340361 0.482929
O O16 0.500000 0.650021 0.144764
O O17 0.358196 0.500000 0.125600
O O18 0.728647 0.626978 0.669857
#
# Coordination Sequence:
#
# PCOD9349395 Si02
#       8
#     4   8   8   4   8   8   4   4
#     4  10  22  38  56  81 117 159 197 238 296 356
#     4   8  15  28  53  88 120 154 197 241 283 339
#     4   9  16  30  53  82 116 155 193 232 284 342
#     4  10  20  36  60  85 109 143 187 240 296 348
#     4  10  22  42  64  89 124 160 193 241 308 366
#     4   8  12  23  47  83 120 151 194 240 275 328
#     4  12  26  42  62  86 114 146 196 254 310 356
#     4  12  26  44  64  90 114 154 200 248 310 374
#
# _framework density 20.131160000000001
#
# number of rings (size 3 to 8) (size 9 to 14) (size 15 to 20)
#    0.000    2.500    1.667    2.000    1.167    1.333 
#    1.500    0.000    0.000    2.000    0.000    0.000 
#    0.000    0.000    0.000    0.000    0.000    0.000 
#
# Total GULP energy -133988.008002 kJ/mol
# GULP energy per Si atom -5582.833667 kJ/mol
# Density = 2.008534 g / cm^3
# Si number density = 20.131160 Si / 1000 Ang^3
#
#
#
# Elastic Constant Matrix: (Units=GPa)
#
#
# Indices 1 2 3 4 5 6 
#
# 1 77.7837 22.6717 23.0385 0.0000 0.0000 0.0000
# 2 22.6717 149.5952 89.5183 0.0000 0.0000 0.0000
# 3 23.0385 89.5183 160.8102 0.0000 0.0000 0.0000
# 4 0.0000 0.0000 0.0000 -3.4308 0.0000 0.0000
# 5 0.0000 0.0000 0.0000 0.0000 81.4782 0.0000
# 6 0.0000 0.0000 0.0000 0.0000 0.0000 -6.4315
#
#
#
# Elastic Compliance Matrix: (Units=1/GPa)
#
#
# Indices 1 2 3 4 5 6 
#
# 1 0.013603 -0.001343 -0.001201 0.000000 0.000000 0.000000
# 2 -0.001343 0.010156 -0.005461 0.000000 0.000000 0.000000
# 3 -0.001201 -0.005461 0.009431 0.000000 0.000000 0.000000
# 4 0.000000 0.000000 0.000000 -0.291479 0.000000 0.000000
# 5 0.000000 0.000000 0.000000 0.000000 0.012273 0.000000
# 6 0.000000 0.000000 0.000000 0.000000 0.000000 -0.155484
#
#
# Mechanical properties :
#
#
# Convention : Reuss Voigt Hill
#
# Bulk Modulus (GPa) = 58.20891 73.18289 65.69590
# Shear Modulus (GPa) = -13.16615 31.18721 9.01053
#
# Velocity S-wave (km/s) = -2.56015 3.94026 2.11793
# Velocity P-wave (km/s) = 4.49871 7.55863 6.21978
#
# Compressibility (1/GPa) = 0.01717950
#
# Stress axis : x y z
#
# Youngs Moduli (GPa) = 73.51115 98.46114 106.03539
#
# Poissons Ratio (x) = 0.13220 0.12740
# Poissons Ratio (y) = 0.09870 0.57910
# Poissons Ratio (z) = 0.08832 0.53773
#
# Static dielectric constant tensor:
#      x y z
#    x 1.751330 0.000000 0.000000 
#    y 0.000000 1.691100 0.000000 
#    z 0.000000 0.000000 1.684870 
# 
# From -- ./inp_files/17154.got.cif
#   From: 2010.05.17/outbox.cif.g08.bks.cpg/sg35_9_cif.got.tgz:17154.got - 2010.06.03 17:29:28.
