data_PCOD9349095
_publ_section_title
;
Structure prediction by ZEFSAII (Michael W. Deem and Ramdas Pophale) SiO2 
 PCOD9349095
Probable space group: C M M 2
;
_chemical_formula_sum "Si O2"
_cell_formula_units_Z 40
_cell_length_a 8.987614
_cell_length_b 15.671165
_cell_length_c 14.653157
_cell_angle_alpha 90.000000
_cell_angle_beta 90.000000
_cell_angle_gamma 90.000000
_cell_volume 2063.844148
_symmetry_space_group_name_H-M "C M M 2"
_symmetry_group_IT_number 35
_symmetry_cell_setting 'orthorhombic'
loop_
_space_group_symop_operation_xyz
x,y,z
-x,-y,z
-x,y,z
x,-y,z
1/2+x,1/2+y,z
1/2-x,1/2-y,z
1/2-x,1/2+y,z
1/2+x,1/2-y,z
loop_
_atom_site_type_symbol
_atom_site_label
_atom_site_fract_x
_atom_site_fract_y
_atom_site_fract_z
Si Si1 0.326346 0.103081 0.834880
Si Si2 0.178247 0.500000 0.327689
Si Si3 0.824755 0.101906 0.021737
Si Si4 0.823213 0.162961 0.650516
Si Si5 0.178989 0.160630 0.224633
Si Si6 0.178443 0.000000 0.525294
O O1 0.500000 0.122974 0.825234
O O2 0.237009 0.143320 0.751633
O O3 0.307749 0.000000 0.830314
O O4 0.267364 0.130683 0.933907
O O5 0.248082 0.417125 0.279123
O O6 0.230599 0.500000 0.432322
O O7 0.000000 0.500000 0.319633
O O8 0.787982 0.146231 0.117092
O O9 0.000000 0.113869 0.003007
O O10 0.800116 0.000000 0.034166
O O11 0.750000 0.250000 0.616625
O O12 0.000000 0.171998 0.653754
O O13 0.786988 0.083193 0.585710
O O14 0.250000 0.250000 0.253922
O O15 0.000000 0.159801 0.235842
O O16 0.000000 0.000000 0.506308
#
# Coordination Sequence:
#
# PCOD9349095 Si02
#       6
#     8   4   8   8   8   4
#     4  10  20  34  57  90 127 167 208 254 301 360
#     4  12  26  44  69  96 125 164 205 258 320 380
#     4   9  18  35  59  86 122 170 212 253 305 361
#     4  11  23  41  65  93 124 163 206 254 308 367
#     4  11  23  42  66  95 129 167 211 261 313 372
#     4  10  24  46  69  90 121 162 203 256 318 376
#
# _framework density 19.381309999999999
#
# number of rings (size 3 to 8) (size 9 to 14) (size 15 to 20)
#    0.000    1.600    2.000    2.700    0.000    5.600 
#    0.000    4.000    0.000    0.000    0.000    0.000 
#    0.000    0.000    0.000    0.000    0.000    0.000 
#
# Total GULP energy -111838.052636 kJ/mol
# GULP energy per Si atom -5591.902632 kJ/mol
# Density = 1.933720 g / cm^3
# Si number density = 19.381310 Si / 1000 Ang^3
#
#
#
# Elastic Constant Matrix: (Units=GPa)
#
#
# Indices 1 2 3 4 5 6 
#
# 1 95.5134 85.8201 79.6627 0.0000 0.0000 0.0000
# 2 85.8201 148.0327 76.7770 0.0000 0.0000 0.0000
# 3 79.6627 76.7770 118.7633 0.0000 0.0000 0.0000
# 4 0.0000 0.0000 0.0000 -9.3911 0.0000 0.0000
# 5 0.0000 0.0000 0.0000 0.0000 27.3520 0.0000
# 6 0.0000 0.0000 0.0000 0.0000 0.0000 30.8245
#
#
#
# Elastic Compliance Matrix: (Units=1/GPa)
#
#
# Indices 1 2 3 4 5 6 
#
# 1 0.033214 -0.011585 -0.014790 0.000000 0.000000 0.000000
# 2 -0.011585 0.014203 -0.001411 0.000000 0.000000 0.000000
# 3 -0.014790 -0.001411 0.019253 0.000000 0.000000 0.000000
# 4 0.000000 0.000000 0.000000 -0.106483 0.000000 0.000000
# 5 0.000000 0.000000 0.000000 0.000000 0.036560 0.000000
# 6 0.000000 0.000000 0.000000 0.000000 0.000000 0.032442
#
#
# Mechanical properties :
#
#
# Convention : Reuss Voigt Hill
#
# Bulk Modulus (GPa) = 90.10049 94.09211 92.09630
# Shear Modulus (GPa) = 56.52187 17.76038 37.14113
#
# Velocity S-wave (km/s) = 5.40614 3.03044 4.38235
# Velocity P-wave (km/s) = 9.24975 7.80372 8.55733
#
# Compressibility (1/GPa) = 0.01109872
#
# Stress axis : x y z
#
# Youngs Moduli (GPa) = 30.10748 70.40556 51.93967
#
# Poissons Ratio (x) = 0.81564 0.76818
# Poissons Ratio (y) = 0.34879 0.07331
# Poissons Ratio (z) = 0.44529 0.09937
#
# Static dielectric constant tensor:
#      x y z
#    x 1.642570 0.000000 0.000000 
#    y 0.000000 1.689800 0.000000 
#    z 0.000000 0.000000 1.643520 
# 
# From -- ./inp_files/14756.got.cif
#   From: 2010.05.17/outbox.cif.g08.bks.cpg/sg35_8_cif.got.tgz:14756.got - 2010.06.03 17:29:28.
