data_PCOD9349813
_publ_section_title
;
Structure prediction by ZEFSAII (Michael W. Deem and Ramdas Pophale) SiO2 
 PCOD9349813
Probable space group: C M M 2
;
_chemical_formula_sum "Si O2"
_cell_formula_units_Z 40
_cell_length_a 24.558881
_cell_length_b 14.279051
_cell_length_c 4.979025
_cell_angle_alpha 90.000000
_cell_angle_beta 90.000000
_cell_angle_gamma 90.000000
_cell_volume 1746.032111
_symmetry_space_group_name_H-M "C M M 2"
_symmetry_group_IT_number 35
_symmetry_cell_setting 'orthorhombic'
loop_
_space_group_symop_operation_xyz
x,y,z
-x,-y,z
-x,y,z
x,-y,z
1/2+x,1/2+y,z
1/2-x,1/2-y,z
1/2-x,1/2+y,z
1/2+x,1/2-y,z
loop_
_atom_site_type_symbol
_atom_site_label
_atom_site_fract_x
_atom_site_fract_y
_atom_site_fract_z
Si Si1 0.709675 0.000000 0.225721
Si Si2 0.560838 0.637262 0.050620
Si Si3 0.372749 0.360593 0.557403
Si Si4 0.126429 0.636455 0.508797
Si Si5 0.939475 0.363598 0.015123
Si Si6 0.216682 0.000000 0.706783
O O1 0.675644 0.087907 0.347639
O O2 0.763310 0.000000 0.401988
O O3 0.733198 0.000000 0.920559
O O4 0.500000 0.608018 0.125892
O O5 0.607224 0.609129 0.262669
O O6 0.577402 0.611966 0.750848
O O7 0.560795 0.750632 0.032068
O O8 0.364783 0.248296 0.533644
O O9 0.321643 0.408510 0.704253
O O10 0.107379 0.606465 0.805964
O O11 0.075887 0.610792 0.316850
O O12 0.000000 0.392994 0.936055
#
# Coordination Sequence:
#
# PCOD9349813 Si02
#       6
#     4   8   8   8   8   4
#     4  12  26  44  63  86 119 162 214 272 320 362
#     4   9  17  33  60  91 124 159 193 238 300 372
#     4  10  21  39  61  88 121 158 202 250 305 372
#     4  10  21  39  61  88 121 158 202 250 305 372
#     4   9  17  33  60  91 124 159 193 238 300 372
#     4  12  26  44  63  86 119 162 214 272 320 362
#
# _framework density 22.909089000000002
#
# number of rings (size 3 to 8) (size 9 to 14) (size 15 to 20)
#    0.000    2.000    0.000    3.600    0.000    5.600 
#    0.000    8.000    0.000    0.000    0.000    0.000 
#    0.000    0.000    0.000    0.000    0.000    0.000 
#
# Total GULP energy -111451.580741 kJ/mol
# GULP energy per Si atom -5572.579037 kJ/mol
# Density = 2.285695 g / cm^3
# Si number density = 22.909089 Si / 1000 Ang^3
#
#
#
# Elastic Constant Matrix: (Units=GPa)
#
#
# Indices 1 2 3 4 5 6 
#
# 1 90.7802 29.7820 19.0842 0.0000 0.0000 0.0000
# 2 29.7820 144.2354 21.1324 0.0000 0.0000 0.0000
# 3 19.0842 21.1324 124.5679 0.0000 0.0000 0.0000
# 4 0.0000 0.0000 0.0000 3.3813 0.0000 0.0000
# 5 0.0000 0.0000 0.0000 0.0000 54.9785 0.0000
# 6 0.0000 0.0000 0.0000 0.0000 0.0000 18.8733
#
#
#
# Elastic Compliance Matrix: (Units=1/GPa)
#
#
# Indices 1 2 3 4 5 6 
#
# 1 0.012070 -0.002278 -0.001463 0.000000 0.000000 0.000000
# 2 -0.002278 0.007540 -0.000930 0.000000 0.000000 0.000000
# 3 -0.001463 -0.000930 0.008410 0.000000 0.000000 0.000000
# 4 0.000000 0.000000 0.000000 0.295740 0.000000 0.000000
# 5 0.000000 0.000000 0.000000 0.000000 0.018189 0.000000
# 6 0.000000 0.000000 0.000000 0.000000 0.000000 0.052985
#
#
# Mechanical properties :
#
#
# Convention : Reuss Voigt Hill
#
# Bulk Modulus (GPa) = 53.53864 55.50896 54.52380
# Shear Modulus (GPa) = 12.18023 34.75229 23.46626
#
# Velocity S-wave (km/s) = 2.30831 3.89905 3.20397
# Velocity P-wave (km/s) = 5.52496 6.67479 6.12691
#
# Compressibility (1/GPa) = 0.01867810
#
# Stress axis : x y z
#
# Youngs Moduli (GPa) = 82.84675 132.63036 118.91117
#
# Poissons Ratio (x) = 0.30213 0.17394
# Poissons Ratio (y) = 0.18873 0.11060
# Poissons Ratio (z) = 0.12119 0.12336
#
# Static dielectric constant tensor:
#      x y z
#    x 1.844500 0.000000 0.000000 
#    y 0.000000 1.950110 0.000000 
#    z 0.000000 0.000000 1.788310 
# 
# From -- ./inp_files/2951.got.cif
#   From: 2010.05.17/outbox.cif.g08.bks.cpg/sg35_2_cif.got.tgz:2951.got - 2010.06.03 17:29:28.
