data_PCOD9349909
_publ_section_title
;
Structure prediction by ZEFSAII (Michael W. Deem and Ramdas Pophale) SiO2 
 PCOD9349909
Probable space group: C M M 2
;
_chemical_formula_sum "Si O2"
_cell_formula_units_Z 56
_cell_length_a 22.533157
_cell_length_b 8.440166
_cell_length_c 14.702689
_cell_angle_alpha 90.000000
_cell_angle_beta 90.000000
_cell_angle_gamma 90.000000
_cell_volume 2796.210112
_symmetry_space_group_name_H-M "C M M 2"
_symmetry_group_IT_number 35
_symmetry_cell_setting 'orthorhombic'
loop_
_space_group_symop_operation_xyz
x,y,z
-x,-y,z
-x,y,z
x,-y,z
1/2+x,1/2+y,z
1/2-x,1/2-y,z
1/2-x,1/2+y,z
1/2+x,1/2-y,z
loop_
_atom_site_type_symbol
_atom_site_label
_atom_site_fract_x
_atom_site_fract_y
_atom_site_fract_z
Si Si1 0.000000 0.189693 0.723390
Si Si2 0.685537 0.686775 0.315711
Si Si3 0.371204 0.812500 0.486988
Si Si4 0.931267 0.311123 0.014080
Si Si5 0.882895 0.310219 0.825228
Si Si6 0.684999 0.312850 0.663007
Si Si7 0.500000 0.191779 0.516542
Si Si8 0.433043 0.310718 0.216218
O O1 0.057315 0.260026 0.773083
O O2 0.000000 0.237593 0.617705
O O3 0.000000 0.000000 0.730711
O O4 0.686439 0.500000 0.300793
O O5 0.750000 0.750000 0.286957
O O6 0.674361 0.724425 0.421664
O O7 0.625571 0.753064 0.267544
O O8 0.358381 0.772204 0.591663
O O9 0.439022 0.761419 0.467744
O O10 0.365489 0.000000 0.472649
O O11 0.923560 0.500000 0.028677
O O12 0.890105 0.260613 0.930204
O O13 0.000000 0.287191 0.985444
O O14 0.923359 0.223861 0.109339
O O15 0.877189 0.500000 0.822758
O O16 0.831499 0.232344 0.765840
O O17 0.680410 0.500000 0.650311
O O18 0.750000 0.250000 0.641678
O O19 0.500000 0.000000 0.524648
O O20 0.500000 0.248275 0.239050
O O21 0.434878 0.500000 0.231139
#
# Coordination Sequence:
#
# PCOD9349909 Si02
#       8
#     4   8   8   8   8   8   4   8
#     4  12  22  32  54  87 118 155 196 237 288 344
#     4  11  24  42  64  89 120 158 202 251 304 364
#     4  11  23  40  62  88 120 158 198 244 300 358
#     4   9  18  34  58  88 119 154 191 235 295 358
#     4  11  21  37  58  84 121 158 195 243 293 347
#     4  12  25  41  59  83 114 157 206 249 298 354
#     4  10  22  38  58  85 122 159 194 243 302 356
#     4   9  20  39  62  90 121 154 193 248 309 361
#
# _framework density 20.027107999999998
#
# number of rings (size 3 to 8) (size 9 to 14) (size 15 to 20)
#    0.000    1.429    2.143    3.643    1.000    2.857 
#    0.000    0.714    0.000    1.714    0.000    0.000 
#    0.000    0.000    0.000    0.000    0.000    0.000 
#
# Total GULP energy -156381.324882 kJ/mol
# GULP energy per Si atom -5585.047317 kJ/mol
# Density = 1.998153 g / cm^3
# Si number density = 20.027108 Si / 1000 Ang^3
#
#
#
# Elastic Constant Matrix: (Units=GPa)
#
#
# Indices 1 2 3 4 5 6 
#
# 1 121.4702 17.4053 32.8729 0.0000 0.0000 0.0000
# 2 17.4053 24.2822 -4.8396 0.0000 0.0000 0.0000
# 3 32.8729 -4.8396 61.3956 0.0000 0.0000 0.0000
# 4 0.0000 0.0000 0.0000 26.3707 0.0000 0.0000
# 5 0.0000 0.0000 0.0000 0.0000 27.2123 0.0000
# 6 0.0000 0.0000 0.0000 0.0000 0.0000 21.9234
#
#
#
# Elastic Compliance Matrix: (Units=1/GPa)
#
#
# Indices 1 2 3 4 5 6 
#
# 1 0.011476 -0.009601 -0.006901 0.000000 0.000000 0.000000
# 2 -0.009601 0.049873 0.009072 0.000000 0.000000 0.000000
# 3 -0.006901 0.009072 0.020698 0.000000 0.000000 0.000000
# 4 0.000000 0.000000 0.000000 0.037921 0.000000 0.000000
# 5 0.000000 0.000000 0.000000 0.000000 0.036748 0.000000
# 6 0.000000 0.000000 0.000000 0.000000 0.000000 0.045613
#
#
# Mechanical properties :
#
#
# Convention : Reuss Voigt Hill
#
# Bulk Modulus (GPa) = 14.88415 33.11390 23.99902
# Shear Modulus (GPa) = 20.86938 25.88191 23.37565
#
# Velocity S-wave (km/s) = 3.23159 3.59882 3.42014
# Velocity P-wave (km/s) = 4.62303 5.81714 5.25412
#
# Compressibility (1/GPa) = 0.06718558
#
# Stress axis : x y z
#
# Youngs Moduli (GPa) = 87.13903 20.05103 48.31358
#
# Poissons Ratio (x) = 0.19252 0.33343
# Poissons Ratio (y) = 0.83665 -0.43830
# Poissons Ratio (z) = 0.60138 -0.18190
#
# Static dielectric constant tensor:
#      x y z
#    x 1.708000 0.000000 0.000000 
#    y 0.000000 1.685400 0.000000 
#    z 0.000000 0.000000 1.687200 
# 
# From -- ./inp_files/17442.got.cif
#   From: 2010.05.17/outbox.cif.g08.bks.cpg/sg35_9_cif.got.tgz:17442.got - 2010.06.03 17:29:28.
