data_PCOD9349026
_publ_section_title
;
Structure prediction by ZEFSAII (Michael W. Deem and Ramdas Pophale) SiO2 
 PCOD9349026
Probable space group: C M M 2
;
_chemical_formula_sum "Si O2"
_cell_formula_units_Z 64
_cell_length_a 8.795983
_cell_length_b 19.129721
_cell_length_c 21.077793
_cell_angle_alpha 90.000000
_cell_angle_beta 90.000000
_cell_angle_gamma 90.000000
_cell_volume 3546.648531
_symmetry_space_group_name_H-M "C M M 2"
_symmetry_group_IT_number 35
_symmetry_cell_setting 'orthorhombic'
loop_
_space_group_symop_operation_xyz
x,y,z
-x,-y,z
-x,y,z
x,-y,z
1/2+x,1/2+y,z
1/2-x,1/2-y,z
1/2-x,1/2+y,z
1/2+x,1/2-y,z
loop_
_atom_site_type_symbol
_atom_site_label
_atom_site_fract_x
_atom_site_fract_y
_atom_site_fract_z
Si Si1 0.817612 0.827166 0.186650
Si Si2 0.182512 0.081763 0.063248
Si Si3 0.822592 0.416188 0.706272
Si Si4 0.818611 0.672705 0.320931
Si Si5 0.181416 0.672900 0.951330
Si Si6 0.816834 0.917338 0.433657
Si Si7 0.319440 0.673584 0.816034
Si Si8 0.675845 0.415055 0.574936
O O1 0.750000 0.750000 0.174055
O O2 0.781288 0.878507 0.128760
O O3 0.747833 0.852142 0.253297
O O4 0.000000 0.821828 0.192758
O O5 0.000000 0.087576 0.053760
O O6 0.221380 0.000000 0.066474
O O7 0.265547 0.120476 0.005826
O O8 0.800920 0.500000 0.710144
O O9 0.725085 0.377929 0.759525
O O10 0.772816 0.393422 0.635606
O O11 0.000000 0.400986 0.716509
O O12 0.750000 0.750000 0.330542
O O13 0.764465 0.624400 0.378300
O O14 0.000000 0.676472 0.317616
O O15 0.250000 0.750000 0.964299
O O16 0.246557 0.650431 0.882896
O O17 0.000000 0.677766 0.948537
O O18 0.772062 0.892919 0.504752
O O19 0.000000 0.909173 0.428980
O O20 0.784068 0.000000 0.428324
O O21 0.500000 0.679006 0.823130
O O22 0.250000 0.750000 0.802406
O O23 0.500000 0.393921 0.583827
O O24 0.677365 0.500000 0.573233
#
# Coordination Sequence:
#
# PCOD9349026 Si02
#       8
#     8   8   8   8   8   8   8   8
#     4  10  20  36  58  80 105 142 184 223 266 320
#     4  10  22  39  58  83 114 145 178 219 267 316
#     4  10  20  34  54  81 112 144 180 223 269 319
#     4  11  22  36  55  79 109 143 181 225 270 320
#     4  11  22  38  60  83 109 143 182 221 265 320
#     4   9  18  34  56  80 108 142 179 221 270 324
#     4  11  22  38  59  81 109 143 181 225 270 320
#     4   8  15  30  52  77 105 140 181 221 265 320
#
# _framework density 18.045206
#
# number of rings (size 3 to 8) (size 9 to 14) (size 15 to 20)
#    0.000    2.000    0.000    6.750    0.000    4.750 
#    0.000    3.125    0.000    3.000    0.000    0.000 
#    0.000    0.000    0.000    0.000    0.000    0.000 
#
# Total GULP energy -178682.173696 kJ/mol
# GULP energy per Si atom -5583.817928 kJ/mol
# Density = 1.800413 g / cm^3
# Si number density = 18.045206 Si / 1000 Ang^3
#
#
#
# Elastic Constant Matrix: (Units=GPa)
#
#
# Indices 1 2 3 4 5 6 
#
# 1 109.3787 49.9442 81.4387 0.0000 0.0000 0.0000
# 2 49.9442 52.0069 74.3779 0.0000 0.0000 0.0000
# 3 81.4387 74.3779 156.5818 0.0000 0.0000 0.0000
# 4 0.0000 0.0000 0.0000 34.7427 0.0000 0.0000
# 5 0.0000 0.0000 0.0000 0.0000 23.2451 0.0000
# 6 0.0000 0.0000 0.0000 0.0000 0.0000 26.0827
#
#
#
# Elastic Compliance Matrix: (Units=1/GPa)
#
#
# Indices 1 2 3 4 5 6 
#
# 1 0.016830 -0.011363 -0.003355 0.000000 0.000000 0.000000
# 2 -0.011363 0.067637 -0.026218 0.000000 0.000000 0.000000
# 3 -0.003355 -0.026218 0.020585 0.000000 0.000000 0.000000
# 4 0.000000 0.000000 0.000000 0.028783 0.000000 0.000000
# 5 0.000000 0.000000 0.000000 0.000000 0.043020 0.000000
# 6 0.000000 0.000000 0.000000 0.000000 0.000000 0.038340
#
#
# Mechanical properties :
#
#
# Convention : Reuss Voigt Hill
#
# Bulk Modulus (GPa) = 43.14407 81.05435 62.09921
# Shear Modulus (GPa) = 16.40457 24.29454 20.34955
#
# Velocity S-wave (km/s) = 3.01837 3.67320 3.36177
# Velocity P-wave (km/s) = 6.00901 7.93755 7.03964
#
# Compressibility (1/GPa) = 0.02317816
#
# Stress axis : x y z
#
# Youngs Moduli (GPa) = 59.41935 14.78491 48.57814
#
# Poissons Ratio (x) = 0.16800 0.16300
# Poissons Ratio (y) = 0.67520 1.27362
# Poissons Ratio (z) = 0.19938 0.38763
#
# Static dielectric constant tensor:
#      x y z
#    x 1.605690 0.000000 0.000000 
#    y 0.000000 1.595090 0.000000 
#    z 0.000000 0.000000 1.614210 
# 
# From -- ./inp_files/18398.got.cif
#   From: 2010.05.17/outbox.cif.g08.bks.cpg/sg35_10_cif.got.tgz:18398.got - 2010.06.03 17:29:28.
