data_PCOD9349398
_publ_section_title
;
Structure prediction by ZEFSAII (Michael W. Deem and Ramdas Pophale) SiO2 
 PCOD9349398
Probable space group: C M M 2
;
_chemical_formula_sum "Si O2"
_cell_formula_units_Z 52
_cell_length_a 27.813839
_cell_length_b 11.198251
_cell_length_c 8.758903
_cell_angle_alpha 90.000000
_cell_angle_beta 90.000000
_cell_angle_gamma 90.000000
_cell_volume 2728.103551
_symmetry_space_group_name_H-M "C M M 2"
_symmetry_group_IT_number 35
_symmetry_cell_setting 'orthorhombic'
loop_
_space_group_symop_operation_xyz
x,y,z
-x,-y,z
-x,y,z
x,-y,z
1/2+x,1/2+y,z
1/2-x,1/2-y,z
1/2-x,1/2+y,z
1/2+x,1/2-y,z
loop_
_atom_site_type_symbol
_atom_site_label
_atom_site_fract_x
_atom_site_fract_y
_atom_site_fract_z
Si Si1 0.595914 0.274805 0.401140
Si Si2 0.872108 0.767051 0.858977
Si Si3 0.660166 0.141669 0.170727
Si Si4 0.250000 0.250000 0.351776
Si Si5 0.442664 0.500000 0.877896
Si Si6 0.316156 0.635377 0.599994
Si Si7 0.447950 0.137942 0.667131
Si Si8 0.552973 0.500000 0.239717
O O1 0.621217 0.172309 0.301840
O O2 0.635147 0.338665 0.507672
O O3 0.558238 0.217866 0.516965
O O4 0.577290 0.378705 0.293443
O O5 0.824998 0.788727 0.753422
O O6 0.904883 0.666004 0.781558
O O7 0.908142 0.883660 0.847152
O O8 0.855054 0.722312 0.024773
O O9 0.710561 0.185692 0.245276
O O10 0.661484 0.000000 0.136494
O O11 0.276195 0.336639 0.473189
O O12 0.500000 0.500000 0.817391
O O13 0.448748 0.500000 0.058906
O O14 0.311399 0.500000 0.648916
O O15 0.500000 0.162583 0.739752
O O16 0.446018 0.000000 0.622787
O O17 0.500000 0.500000 0.308248
#
# Coordination Sequence:
#
# PCOD9349398 Si02
#       8
#     8   8   8   4   4   8   8   4
#     4  10  20  36  60  86 118 162 204 252 303 362
#     4  11  22  39  62  91 120 166 198 251 307 372
#     4  11  23  42  63  89 121 160 207 250 314 370
#     4  10  24  42  64  92 116 152 198 264 310 370
#     4  11  22  37  59  95 133 163 205 255 309 363
#     4  10  20  38  62  87 118 150 197 246 313 364
#     4  10  21  37  56  84 122 164 207 249 293 352
#     4  11  20  33  57  93 127 159 205 259 305 357
#
# _framework density 19.060862
#
# number of rings (size 3 to 8) (size 9 to 14) (size 15 to 20)
#    0.000    1.538    3.077    2.308    0.000    0.615 
#    1.385    6.154    0.000    3.692    0.000    0.000 
#    0.000    0.000    0.000    0.000    0.000    0.000 
#
# Total GULP energy -144830.488891 kJ/mol
# GULP energy per Si atom -5570.403419 kJ/mol
# Density = 1.901748 g / cm^3
# Si number density = 19.060862 Si / 1000 Ang^3
#
#
#
# Elastic Constant Matrix: (Units=GPa)
#
#
# Indices 1 2 3 4 5 6 
#
# 1 73.5189 33.4192 39.1895 0.0000 0.0000 0.0000
# 2 33.4192 80.8077 11.8890 0.0000 0.0000 0.0000
# 3 39.1895 11.8890 81.5162 0.0000 0.0000 0.0000
# 4 0.0000 0.0000 0.0000 34.6091 0.0000 0.0000
# 5 0.0000 0.0000 0.0000 0.0000 14.6284 0.0000
# 6 0.0000 0.0000 0.0000 0.0000 0.0000 70.4936
#
#
#
# Elastic Compliance Matrix: (Units=1/GPa)
#
#
# Indices 1 2 3 4 5 6 
#
# 1 0.022236 -0.007790 -0.009554 0.000000 0.000000 0.000000
# 2 -0.007790 0.015376 0.001503 0.000000 0.000000 0.000000
# 3 -0.009554 0.001503 0.016641 0.000000 0.000000 0.000000
# 4 0.000000 0.000000 0.000000 0.028894 0.000000 0.000000
# 5 0.000000 0.000000 0.000000 0.000000 0.068360 0.000000
# 6 0.000000 0.000000 0.000000 0.000000 0.000000 0.014186
#
#
# Mechanical properties :
#
#
# Convention : Reuss Voigt Hill
#
# Bulk Modulus (GPa) = 44.30632 44.98203 44.64418
# Shear Modulus (GPa) = 24.40225 34.03591 29.21908
#
# Velocity S-wave (km/s) = 3.58191 4.23027 3.91952
# Velocity P-wave (km/s) = 6.35625 6.89280 6.62995
#
# Compressibility (1/GPa) = 0.02257014
#
# Stress axis : x y z
#
# Youngs Moduli (GPa) = 44.97238 65.03738 60.09105
#
# Poissons Ratio (x) = 0.50666 0.57410
# Poissons Ratio (y) = 0.35035 -0.09030
# Poissons Ratio (z) = 0.42966 -0.09773
#
# Static dielectric constant tensor:
#      x y z
#    x 1.708040 0.000000 0.000000 
#    y 0.000000 1.570500 0.000000 
#    z 0.000000 0.000000 1.635270 
# 
# From -- ./inp_files/10197.got.cif
#   From: 2010.05.17/outbox.cif.g08.bks.cpg/sg35_6_cif.got.tgz:10197.got - 2010.06.03 17:29:28.
