data_PCOD9349023
_publ_section_title
;
Structure prediction by ZEFSAII (Michael W. Deem and Ramdas Pophale) SiO2 
 PCOD9349023
Probable space group: C M M 2
;
_chemical_formula_sum "Si O2"
_cell_formula_units_Z 48
_cell_length_a 15.706674
_cell_length_b 8.803100
_cell_length_c 17.726055
_cell_angle_alpha 90.000000
_cell_angle_beta 90.000000
_cell_angle_gamma 90.000000
_cell_volume 2450.935925
_symmetry_space_group_name_H-M "C M M 2"
_symmetry_group_IT_number 35
_symmetry_cell_setting 'orthorhombic'
loop_
_space_group_symop_operation_xyz
x,y,z
-x,-y,z
-x,y,z
x,-y,z
1/2+x,1/2+y,z
1/2-x,1/2-y,z
1/2-x,1/2+y,z
1/2+x,1/2-y,z
loop_
_atom_site_type_symbol
_atom_site_label
_atom_site_fract_x
_atom_site_fract_y
_atom_site_fract_z
Si Si1 0.099285 0.326226 0.527720
Si Si2 0.662374 0.318806 0.377026
Si Si3 0.500000 0.817056 0.112336
Si Si4 0.154438 0.817528 0.846684
Si Si5 0.000000 0.816474 0.278984
Si Si6 0.654889 0.318070 0.681243
Si Si7 0.154436 0.682632 0.002919
O O1 0.130068 0.500000 0.531123
O O2 0.147802 0.237441 0.462358
O O3 0.108540 0.250883 0.609356
O O4 0.000000 0.325835 0.507051
O O5 0.666161 0.500000 0.376691
O O6 0.750000 0.250000 0.347900
O O7 0.583250 0.268488 0.325767
O O8 0.500000 0.747518 0.195155
O O9 0.500000 0.000000 0.117351
O O10 0.414389 0.773954 0.066393
O O11 0.250000 0.750000 0.843329
O O12 0.116379 0.782353 0.764122
O O13 0.119066 0.743518 0.922568
O O14 0.157147 0.000000 0.854925
O O15 0.000000 0.000000 0.276115
O O16 0.658808 0.500000 0.674969
O O17 0.750000 0.250000 0.679290
O O18 0.161420 0.500000 0.999853
O O19 0.250000 0.750000 0.014414
#
# Coordination Sequence:
#
# PCOD9349023 Si02
#       7
#     8   8   4   8   4   8   8
#     4  11  23  38  57  83 116 157 202 247 297 349
#     4  11  23  42  66  93 122 157 198 242 296 355
#     4  10  24  42  62  89 122 157 192 237 296 357
#     4   9  17  31  53  81 111 151 196 243 293 343
#     4  10  24  44  66  91 122 155 192 241 294 353
#     4  10  20  34  54  80 114 153 198 247 296 347
#     4  10  20  37  60  87 119 157 198 242 294 350
#
# _framework density 19.584356
#
# number of rings (size 3 to 8) (size 9 to 14) (size 15 to 20)
#    0.000    1.833    0.833    4.000    0.000    6.333 
#    1.500    3.333    0.000    0.000    0.000    0.000 
#    0.000    0.000    0.000    0.000    0.000    0.000 
#
# Total GULP energy -134006.292286 kJ/mol
# GULP energy per Si atom -5583.595512 kJ/mol
# Density = 1.953978 g / cm^3
# Si number density = 19.584356 Si / 1000 Ang^3
#
#
#
# Elastic Constant Matrix: (Units=GPa)
#
#
# Indices 1 2 3 4 5 6 
#
# 1 108.2808 38.6643 68.9755 0.0000 0.0000 0.0000
# 2 38.6643 75.5384 50.1665 0.0000 0.0000 0.0000
# 3 68.9755 50.1665 162.1186 0.0000 0.0000 0.0000
# 4 0.0000 0.0000 0.0000 37.1138 0.0000 0.0000
# 5 0.0000 0.0000 0.0000 0.0000 40.6329 0.0000
# 6 0.0000 0.0000 0.0000 0.0000 0.0000 24.2624
#
#
#
# Elastic Compliance Matrix: (Units=1/GPa)
#
#
# Indices 1 2 3 4 5 6 
#
# 1 0.013525 -0.003903 -0.004547 0.000000 0.000000 0.000000
# 2 -0.003903 0.017789 -0.003844 0.000000 0.000000 0.000000
# 3 -0.004547 -0.003844 0.009292 0.000000 0.000000 0.000000
# 4 0.000000 0.000000 0.000000 0.026944 0.000000 0.000000
# 5 0.000000 0.000000 0.000000 0.000000 0.024611 0.000000
# 6 0.000000 0.000000 0.000000 0.000000 0.000000 0.041216
#
#
# Mechanical properties :
#
#
# Convention : Reuss Voigt Hill
#
# Bulk Modulus (GPa) = 62.42731 73.50559 67.96645
# Shear Modulus (GPa) = 30.61759 32.94394 31.78076
#
# Velocity S-wave (km/s) = 3.95824 4.10586 4.03272
# Velocity P-wave (km/s) = 7.26880 7.75189 7.51423
#
# Compressibility (1/GPa) = 0.01601863
#
# Stress axis : x y z
#
# Youngs Moduli (GPa) = 73.93565 56.21419 107.61681
#
# Poissons Ratio (x) = 0.21943 0.48929
# Poissons Ratio (y) = 0.28860 0.41367
# Poissons Ratio (z) = 0.33616 0.21609
#
# Static dielectric constant tensor:
#      x y z
#    x 1.700710 0.000000 0.000000 
#    y 0.000000 1.662420 0.000000 
#    z 0.000000 0.000000 1.685480 
# 
# From -- ./inp_files/15240.got.cif
#   From: 2010.05.17/outbox.cif.g08.bks.cpg/sg35_8_cif.got.tgz:15240.got - 2010.06.03 17:29:28.
