data_PCOD9349647
_publ_section_title
;
Structure prediction by ZEFSAII (Michael W. Deem and Ramdas Pophale) SiO2 
 PCOD9349647
Probable space group: C M M 2
;
_chemical_formula_sum "Si O2"
_cell_formula_units_Z 56
_cell_length_a 22.929647
_cell_length_b 14.597398
_cell_length_c 7.568063
_cell_angle_alpha 90.000000
_cell_angle_beta 90.000000
_cell_angle_gamma 90.000000
_cell_volume 2533.130458
_symmetry_space_group_name_H-M "C M M 2"
_symmetry_group_IT_number 35
_symmetry_cell_setting 'orthorhombic'
loop_
_space_group_symop_operation_xyz
x,y,z
-x,-y,z
-x,y,z
x,-y,z
1/2+x,1/2+y,z
1/2-x,1/2-y,z
1/2-x,1/2+y,z
1/2+x,1/2-y,z
loop_
_atom_site_type_symbol
_atom_site_label
_atom_site_fract_x
_atom_site_fract_y
_atom_site_fract_z
Si Si1 0.066013 0.096676 0.564260
Si Si2 0.182594 0.389767 0.591720
Si Si3 0.322417 0.889883 0.001141
Si Si4 0.729551 0.610795 0.292091
Si Si5 0.563571 0.790985 0.024089
Si Si6 0.433153 0.202461 0.613287
Si Si7 0.600902 0.395604 0.172863
O O1 0.091320 0.193742 0.614340
O O2 0.063764 0.098598 0.351965
O O3 0.000000 0.096181 0.635199
O O4 0.095297 0.000000 0.614374
O O5 0.183608 0.500000 0.588484
O O6 0.234992 0.357201 0.464949
O O7 0.118016 0.357910 0.530868
O O8 0.187775 0.360791 0.797435
O O9 0.268164 0.865524 0.122859
O O10 0.379780 0.844891 0.086686
O O11 0.329279 0.000000 0.001719
O O12 0.726865 0.500000 0.306930
O O13 0.663633 0.637150 0.247963
O O14 0.500000 0.810909 0.104081
O O15 0.575546 0.682401 0.046826
O O16 0.560956 0.820628 0.819452
O O17 0.500000 0.200175 0.540010
O O18 0.604853 0.500000 0.099645
#
# Coordination Sequence:
#
# PCOD9349647 Si02
#       7
#     8   8   8   8   8   8   8
#     4   9  18  34  54  75 104 142 182 229 282 331
#     4   9  18  35  58  83 114 150 185 230 285 338
#     4   9  19  37  59  84 117 151 186 233 283 337
#     4   9  19  37  58  82 111 147 192 234 279 336
#     4  10  21  36  56  83 114 149 188 233 287 343
#     4   9  19  35  54  81 113 145 187 234 285 345
#     4  10  21  37  56  80 109 147 192 235 285 339
#
# _framework density 22.107033000000001
#
# number of rings (size 3 to 8) (size 9 to 14) (size 15 to 20)
#    0.000    2.714    0.000    0.429    2.000    2.571 
#    2.571    4.286    0.000    2.571    0.000    0.000 
#    0.000    0.000    0.000    0.000    0.000    0.000 
#
# Total GULP energy -156046.695680 kJ/mol
# GULP energy per Si atom -5573.096274 kJ/mol
# Density = 2.205672 g / cm^3
# Si number density = 22.107033 Si / 1000 Ang^3
#
#
#
# Elastic Constant Matrix: (Units=GPa)
#
#
# Indices 1 2 3 4 5 6 
#
# 1 126.8540 12.2942 22.1115 0.0000 0.0000 0.0000
# 2 12.2942 33.3216 1.2808 0.0000 0.0000 0.0000
# 3 22.1115 1.2808 58.2112 0.0000 0.0000 0.0000
# 4 0.0000 0.0000 0.0000 15.7743 0.0000 0.0000
# 5 0.0000 0.0000 0.0000 0.0000 20.8409 0.0000
# 6 0.0000 0.0000 0.0000 0.0000 0.0000 27.9882
#
#
#
# Elastic Compliance Matrix: (Units=1/GPa)
#
#
# Indices 1 2 3 4 5 6 
#
# 1 0.008751 -0.003104 -0.003256 0.000000 0.000000 0.000000
# 2 -0.003104 0.031137 0.000494 0.000000 0.000000 0.000000
# 3 -0.003256 0.000494 0.018405 0.000000 0.000000 0.000000
# 4 0.000000 0.000000 0.000000 0.063394 0.000000 0.000000
# 5 0.000000 0.000000 0.000000 0.000000 0.047983 0.000000
# 6 0.000000 0.000000 0.000000 0.000000 0.000000 0.035729
#
#
# Mechanical properties :
#
#
# Convention : Reuss Voigt Hill
#
# Bulk Modulus (GPa) = 21.47711 32.19556 26.83634
# Shear Modulus (GPa) = 21.49141 25.10070 23.29605
#
# Velocity S-wave (km/s) = 3.12132 3.37325 3.24973
# Velocity P-wave (km/s) = 4.76721 5.45590 5.12314
#
# Compressibility (1/GPa) = 0.04656119
#
# Stress axis : x y z
#
# Youngs Moduli (GPa) = 114.26721 32.11641 54.33391
#
# Poissons Ratio (x) = 0.09968 0.17691
# Poissons Ratio (y) = 0.35466 -0.02683
# Poissons Ratio (z) = 0.37205 -0.01586
#
# Static dielectric constant tensor:
#      x y z
#    x 1.833920 0.000000 0.000000 
#    y 0.000000 1.834500 0.000000 
#    z 0.000000 0.000000 1.824140 
# 
# From -- ./inp_files/7623.got.cif
#   From: 2010.05.17/outbox.cif.g08.bks.cpg/sg35_4_cif.got.tgz:7623.got - 2010.06.03 17:29:28.
