data_PCOD9349623
_publ_section_title
;
Structure prediction by ZEFSAII (Michael W. Deem and Ramdas Pophale) SiO2 
 PCOD9349623
Probable space group: C M M 2
;
_chemical_formula_sum "Si O2"
_cell_formula_units_Z 56
_cell_length_a 7.802929
_cell_length_b 18.978834
_cell_length_c 19.010066
_cell_angle_alpha 90.000000
_cell_angle_beta 90.000000
_cell_angle_gamma 90.000000
_cell_volume 2815.210069
_symmetry_space_group_name_H-M "C M M 2"
_symmetry_group_IT_number 35
_symmetry_cell_setting 'orthorhombic'
loop_
_space_group_symop_operation_xyz
x,y,z
-x,-y,z
-x,y,z
x,-y,z
1/2+x,1/2+y,z
1/2-x,1/2-y,z
1/2-x,1/2+y,z
1/2+x,1/2-y,z
loop_
_atom_site_type_symbol
_atom_site_label
_atom_site_fract_x
_atom_site_fract_y
_atom_site_fract_z
Si Si1 0.293955 0.582171 0.526090
Si Si2 0.793256 0.832003 0.082585
Si Si3 0.290680 0.582304 0.373246
Si Si4 0.293591 0.668266 0.239216
Si Si5 0.295886 0.831977 0.811917
Si Si6 0.205582 0.920193 0.949878
Si Si7 0.204893 0.419159 0.678952
O O1 0.500000 0.583165 0.525643
O O2 0.238364 0.500000 0.527023
O O3 0.235362 0.610759 0.450190
O O4 0.238207 0.611688 0.601176
O O5 0.750000 0.750000 0.070277
O O6 0.731016 0.852072 0.160983
O O7 0.000000 0.837036 0.083406
O O8 0.727794 0.880682 0.019570
O O9 0.500000 0.584928 0.372739
O O10 0.244023 0.500000 0.368611
O O11 0.227685 0.623952 0.305271
O O12 0.500000 0.660986 0.238380
O O13 0.250000 0.750000 0.249035
O O14 0.500000 0.836075 0.809228
O O15 0.250000 0.750000 0.814595
O O16 0.240144 0.873706 0.881300
O O17 0.226760 0.871276 0.742188
O O18 0.000000 0.924471 0.957168
O O19 0.271916 0.000000 0.942568
O O20 0.272615 0.500000 0.682701
O O21 0.000000 0.423719 0.686504
#
# Coordination Sequence:
#
# PCOD9349623 Si02
#       7
#     8   8   8   8   8   8   8
#     4   8  14  26  46  71  96 123 158 199 241 286
#     4   9  18  32  50  72  98 130 165 200 241 289
#     4   8  14  26  46  71  95 122 161 204 241 281
#     4   9  17  30  48  69  96 130 164 199 240 286
#     4  11  23  38  55  75 101 133 168 204 246 297
#     4  10  21  36  54  78 105 130 162 205 249 295
#     4   9  18  33  52  73  97 125 159 200 245 293
#
# _framework density 19.891943999999999
#
# number of rings (size 3 to 8) (size 9 to 14) (size 15 to 20)
#    0.000    2.857    0.000    2.143    0.000    4.286 
#    0.000    5.714    0.000    4.714    0.000    4.000 
#    0.000    0.000    0.000    0.000    0.000    0.000 
#
# Total GULP energy -156087.017201 kJ/mol
# GULP energy per Si atom -5574.536329 kJ/mol
# Density = 1.984667 g / cm^3
# Si number density = 19.891944 Si / 1000 Ang^3
#
#
#
# Elastic Constant Matrix: (Units=GPa)
#
#
# Indices 1 2 3 4 5 6 
#
# 1 24.0474 3.0585 9.3186 0.0000 0.0000 0.0000
# 2 3.0585 103.1223 115.6508 0.0000 0.0000 0.0000
# 3 9.3186 115.6508 244.1693 0.0000 0.0000 0.0000
# 4 0.0000 0.0000 0.0000 535.8839 0.0000 0.0000
# 5 0.0000 0.0000 0.0000 0.0000 24.8642 0.0000
# 6 0.0000 0.0000 0.0000 0.0000 0.0000 13.6120
#
#
#
# Elastic Compliance Matrix: (Units=1/GPa)
#
#
# Indices 1 2 3 4 5 6 
#
# 1 0.042277 0.001185 -0.002175 0.000000 0.000000 0.000000
# 2 0.001185 0.020718 -0.009858 0.000000 0.000000 0.000000
# 3 -0.002175 -0.009858 0.008848 0.000000 0.000000 0.000000
# 4 0.000000 0.000000 0.000000 0.001866 0.000000 0.000000
# 5 0.000000 0.000000 0.000000 0.000000 0.040219 0.000000
# 6 0.000000 0.000000 0.000000 0.000000 0.000000 0.073465
#
#
# Mechanical properties :
#
#
# Convention : Reuss Voigt Hill
#
# Bulk Modulus (GPa) = 19.94150 69.71051 44.82601
# Shear Modulus (GPa) = 22.14312 131.09274 76.61793
#
# Velocity S-wave (km/s) = 3.34004 8.12684 6.21294
# Velocity P-wave (km/s) = 4.99211 11.09871 8.60530
#
# Compressibility (1/GPa) = 0.05014668
#
# Stress axis : x y z
#
# Youngs Moduli (GPa) = 23.65374 48.26669 113.02036
#
# Poissons Ratio (x) = -0.05721 0.24580
# Poissons Ratio (y) = -0.02803 1.11420
# Poissons Ratio (z) = 0.05144 0.47583
#
# Static dielectric constant tensor:
#      x y z
#    x 1.725910 0.000000 0.000000 
#    y 0.000000 1.525850 0.000000 
#    z 0.000000 0.000000 1.739130 
# 
# From -- ./inp_files/18191.got.cif
#   From: 2010.05.17/outbox.cif.g08.bks.cpg/sg35_10_cif.got.tgz:18191.got - 2010.06.03 17:29:28.
