data_PCOD9349659
_publ_section_title
;
Structure prediction by ZEFSAII (Michael W. Deem and Ramdas Pophale) SiO2 
 PCOD9349659
Probable space group: C M M 2
;
_chemical_formula_sum "Si O2"
_cell_formula_units_Z 56
_cell_length_a 20.266401
_cell_length_b 16.651815
_cell_length_c 8.609990
_cell_angle_alpha 90.000000
_cell_angle_beta 90.000000
_cell_angle_gamma 90.000000
_cell_volume 2905.633646
_symmetry_space_group_name_H-M "C M M 2"
_symmetry_group_IT_number 35
_symmetry_cell_setting 'orthorhombic'
loop_
_space_group_symop_operation_xyz
x,y,z
-x,-y,z
-x,y,z
x,-y,z
1/2+x,1/2+y,z
1/2-x,1/2-y,z
1/2-x,1/2+y,z
1/2+x,1/2-y,z
loop_
_atom_site_type_symbol
_atom_site_label
_atom_site_fract_x
_atom_site_fract_y
_atom_site_fract_z
Si Si1 0.304217 0.408886 0.630630
Si Si2 0.780848 0.670604 0.112764
Si Si3 0.074862 0.296476 0.569396
Si Si4 0.076869 0.126151 0.417827
Si Si5 0.853402 0.776850 0.856547
Si Si6 0.139978 0.091459 0.084077
Si Si7 0.679649 0.905607 0.414648
O O1 0.290262 0.500000 0.690245
O O2 0.376229 0.409355 0.551367
O O3 0.305803 0.336024 0.754232
O O4 0.250746 0.390417 0.496252
O O5 0.750000 0.750000 0.192097
O O6 0.718436 0.612379 0.083775
O O7 0.824864 0.628674 0.241048
O O8 0.817342 0.709558 0.963371
O O9 0.079873 0.221732 0.449603
O O10 0.097580 0.263206 0.735777
O O11 0.125286 0.363912 0.518915
O O12 0.000000 0.324402 0.572871
O O13 0.109138 0.102796 0.254103
O O14 0.000000 0.102164 0.425891
O O15 0.888440 0.840350 0.971124
O O16 0.129401 0.000000 0.033491
O O17 0.671283 0.000000 0.409436
#
# Coordination Sequence:
#
# PCOD9349659 Si02
#       7
#     8   8   8   8   8   8   8
#     4  10  21  37  59  93 125 157 203 250 302 358
#     4  10  21  36  58  90 123 160 198 247 298 360
#     4  10  23  42  63  87 118 158 208 257 305 367
#     4  10  21  38  62  90 125 168 206 243 291 354
#     4  10  23  37  59  85 121 164 197 249 303 359
#     4  11  21  35  55  87 128 162 200 244 296 358
#     4  11  23  39  64  91 119 155 201 261 311 353
#
# _framework density 19.272905999999999
#
# number of rings (size 3 to 8) (size 9 to 14) (size 15 to 20)
#    0.000    1.714    1.429    3.000    8.000    2.000 
#    0.000    1.429    0.000    2.571    0.000    0.000 
#    0.000    0.000    0.000    0.000    0.000    0.000 
#
# Total GULP energy -156222.306485 kJ/mol
# GULP energy per Si atom -5579.368089 kJ/mol
# Density = 1.922904 g / cm^3
# Si number density = 19.272906 Si / 1000 Ang^3
#
#
#
# Elastic Constant Matrix: (Units=GPa)
#
#
# Indices 1 2 3 4 5 6 
#
# 1 94.1927 34.5893 34.0501 0.0000 0.0000 0.0000
# 2 34.5893 55.3172 31.3636 0.0000 0.0000 0.0000
# 3 34.0501 31.3636 93.4732 0.0000 0.0000 0.0000
# 4 0.0000 0.0000 0.0000 8.7493 0.0000 0.0000
# 5 0.0000 0.0000 0.0000 0.0000 15.6273 0.0000
# 6 0.0000 0.0000 0.0000 0.0000 0.0000 5.4179
#
#
#
# Elastic Compliance Matrix: (Units=1/GPa)
#
#
# Indices 1 2 3 4 5 6 
#
# 1 0.014325 -0.007408 -0.002733 0.000000 0.000000 0.000000
# 2 -0.007408 0.026155 -0.006078 0.000000 0.000000 0.000000
# 3 -0.002733 -0.006078 0.013733 0.000000 0.000000 0.000000
# 4 0.000000 0.000000 0.000000 0.114295 0.000000 0.000000
# 5 0.000000 0.000000 0.000000 0.000000 0.063991 0.000000
# 6 0.000000 0.000000 0.000000 0.000000 0.000000 0.184572
#
#
# Mechanical properties :
#
#
# Convention : Reuss Voigt Hill
#
# Bulk Modulus (GPa) = 45.91975 49.22101 47.57038
# Shear Modulus (GPa) = 10.94654 15.49090 13.21872
#
# Velocity S-wave (km/s) = 2.38581 2.83815 2.62175
# Velocity P-wave (km/s) = 5.60957 6.02781 5.82245
#
# Compressibility (1/GPa) = 0.02177712
#
# Stress axis : x y z
#
# Youngs Moduli (GPa) = 69.80996 38.23298 72.81770
#
# Poissons Ratio (x) = 0.28322 0.19898
# Poissons Ratio (y) = 0.51713 0.44256
# Poissons Ratio (z) = 0.19076 0.23237
#
# Static dielectric constant tensor:
#      x y z
#    x 1.665290 0.000000 0.000000 
#    y 0.000000 1.684860 0.000000 
#    z 0.000000 0.000000 1.698330 
# 
# From -- ./inp_files/7602.got.cif
#   From: 2010.05.17/outbox.cif.g08.bks.cpg/sg35_4_cif.got.tgz:7602.got - 2010.06.03 17:29:28.
