data_PCOD9349218
_publ_section_title
;
Structure prediction by ZEFSAII (Michael W. Deem and Ramdas Pophale) SiO2 
 PCOD9349218
Probable space group: C M M 2
;
_chemical_formula_sum "Si O2"
_cell_formula_units_Z 48
_cell_length_a 8.806864
_cell_length_b 15.857152
_cell_length_c 17.795285
_cell_angle_alpha 90.000000
_cell_angle_beta 90.000000
_cell_angle_gamma 90.000000
_cell_volume 2485.143245
_symmetry_space_group_name_H-M "C M M 2"
_symmetry_group_IT_number 35
_symmetry_cell_setting 'orthorhombic'
loop_
_space_group_symop_operation_xyz
x,y,z
-x,-y,z
-x,y,z
x,-y,z
1/2+x,1/2+y,z
1/2-x,1/2-y,z
1/2-x,1/2+y,z
1/2+x,1/2-y,z
loop_
_atom_site_type_symbol
_atom_site_label
_atom_site_fract_x
_atom_site_fract_y
_atom_site_fract_z
Si Si1 0.322163 0.102569 0.244800
Si Si2 0.318303 0.662167 0.925571
Si Si3 0.683562 0.337950 0.560969
Si Si4 0.314940 0.500000 0.829706
Si Si5 0.182182 0.901219 0.399631
Si Si6 0.182548 0.600791 0.079481
Si Si7 0.185123 0.000000 0.657317
O O1 0.500000 0.122667 0.249881
O O2 0.241510 0.132773 0.320227
O O3 0.265613 0.130101 0.162546
O O4 0.309055 0.000000 0.244034
O O5 0.500000 0.665941 0.924532
O O6 0.250000 0.750000 0.898209
O O7 0.267197 0.583342 0.874738
O O8 0.262160 0.645652 0.010334
O O9 0.500000 0.335002 0.561419
O O10 0.750000 0.250000 0.588086
O O11 0.734212 0.354625 0.474903
O O12 0.731742 0.416651 0.612101
O O13 0.500000 0.500000 0.829438
O O14 0.263871 0.500000 0.743503
O O15 0.000000 0.899183 0.398379
O O16 0.227624 0.000000 0.406273
O O17 0.211425 0.500000 0.073525
O O18 0.000000 0.612141 0.075299
O O19 0.000000 0.000000 0.657489
#
# Coordination Sequence:
#
# PCOD9349218 Si02
#       7
#     8   8   8   4   8   8   4
#     4   8  15  27  46  75 107 141 181 225 274 320
#     4  11  22  37  57  85 115 146 187 229 276 332
#     4  10  20  35  57  83 111 145 184 224 271 326
#     4   9  20  38  61  86 111 142 182 225 273 335
#     4   9  16  29  49  74 104 142 187 226 264 317
#     4   9  17  32  54  79 110 148 188 230 278 328
#     4   9  18  38  63  82 109 148 180 217 275 335
#
# _framework density 19.314782999999998
#
# number of rings (size 3 to 8) (size 9 to 14) (size 15 to 20)
#    0.000    2.667    1.667    1.500    0.000    2.000 
#    0.000    2.917    0.000    5.000    0.000    0.000 
#    0.000    0.000    0.000    0.000    0.000    0.000 
#
# Total GULP energy -133889.989239 kJ/mol
# GULP energy per Si atom -5578.749552 kJ/mol
# Density = 1.927082 g / cm^3
# Si number density = 19.314783 Si / 1000 Ang^3
#
#
#
# Elastic Constant Matrix: (Units=GPa)
#
#
# Indices 1 2 3 4 5 6 
#
# 1 11.6446 27.4535 24.5951 0.0000 0.0000 0.0000
# 2 27.4535 127.7236 78.2943 0.0000 0.0000 0.0000
# 3 24.5951 78.2943 156.6291 0.0000 0.0000 0.0000
# 4 0.0000 0.0000 0.0000 -4.8037 0.0000 0.0000
# 5 0.0000 0.0000 0.0000 0.0000 10.9096 0.0000
# 6 0.0000 0.0000 0.0000 0.0000 0.0000 23.0865
#
#
#
# Elastic Compliance Matrix: (Units=1/GPa)
#
#
# Indices 1 2 3 4 5 6 
#
# 1 0.192738 -0.032982 -0.013779 0.000000 0.000000 0.000000
# 2 -0.032982 0.016932 -0.003285 0.000000 0.000000 0.000000
# 3 -0.013779 -0.003285 0.010190 0.000000 0.000000 0.000000
# 4 0.000000 0.000000 0.000000 -0.208175 0.000000 0.000000
# 5 0.000000 0.000000 0.000000 0.000000 0.091663 0.000000
# 6 0.000000 0.000000 0.000000 0.000000 0.000000 0.043315
#
#
# Mechanical properties :
#
#
# Convention : Reuss Voigt Hill
#
# Bulk Modulus (GPa) = 8.34932 61.85368 35.10150
# Shear Modulus (GPa) = 17.44117 16.88211 17.16164
#
# Velocity S-wave (km/s) = 3.00825 2.95964 2.98405
# Velocity P-wave (km/s) = 4.04947 6.61611 5.48503
#
# Compressibility (1/GPa) = 0.11977016
#
# Stress axis : x y z
#
# Youngs Moduli (GPa) = 5.18838 59.05867 98.13389
#
# Poissons Ratio (x) = 1.94786 1.35215
# Poissons Ratio (y) = 0.17112 0.32236
# Poissons Ratio (z) = 0.07149 0.19400
#
# Static dielectric constant tensor:
#      x y z
#    x 1.654070 0.000000 0.000000 
#    y 0.000000 1.685360 0.000000 
#    z 0.000000 0.000000 1.677300 
# 
# From -- ./inp_files/17937.got.cif
#   From: 2010.05.17/outbox.cif.g08.bks.cpg/sg35_9_cif.got.tgz:17937.got - 2010.06.03 17:29:28.
