data_PCOD9349832
_publ_section_title
;
Structure prediction by ZEFSAII (Michael W. Deem and Ramdas Pophale) SiO2 
 PCOD9349832
Probable space group: C M M 2
;
_chemical_formula_sum "Si O2"
_cell_formula_units_Z 58
_cell_length_a 20.904753
_cell_length_b 17.731617
_cell_length_c 7.338706
_cell_angle_alpha 90.000000
_cell_angle_beta 90.000000
_cell_angle_gamma 90.000000
_cell_volume 2720.275387
_symmetry_space_group_name_H-M "C M M 2"
_symmetry_group_IT_number 35
_symmetry_cell_setting 'orthorhombic'
loop_
_space_group_symop_operation_xyz
x,y,z
-x,-y,z
-x,y,z
x,-y,z
1/2+x,1/2+y,z
1/2-x,1/2-y,z
1/2-x,1/2+y,z
1/2+x,1/2-y,z
loop_
_atom_site_type_symbol
_atom_site_label
_atom_site_fract_x
_atom_site_fract_y
_atom_site_fract_z
Si Si1 0.222285 0.587072 0.317140
Si Si2 0.927711 0.084460 0.513956
Si Si3 0.671266 0.413938 0.838312
Si Si4 0.107257 0.367663 0.586692
Si Si5 0.316899 0.914639 0.893568
Si Si6 0.689744 0.298525 0.144635
Si Si7 0.570104 0.741059 0.326477
Si Si8 0.000000 0.500000 0.571552
O O1 0.243375 0.500000 0.348867
O O2 0.167965 0.608859 0.460801
O O3 0.279331 0.648386 0.303419
O O4 0.194130 0.589675 0.109861
O O5 0.926295 0.152506 0.372546
O O6 0.000000 0.086219 0.594363
O O7 0.918547 0.000000 0.436517
O O8 0.874380 0.096524 0.667281
O O9 0.662408 0.500000 0.905321
O O10 0.660475 0.353560 0.994904
O O11 0.747065 0.406234 0.801656
O O12 0.133533 0.361121 0.792443
O O13 0.078905 0.290613 0.507537
O O14 0.055537 0.433552 0.571147
O O15 0.339432 0.000000 0.856208
O O16 0.750000 0.250000 0.073757
O O17 0.633176 0.244838 0.209558
O O18 0.500000 0.758438 0.247483
#
# Coordination Sequence:
#
# PCOD9349832 Si02
#       8
#     8   8   8   8   8   8   8   2
#     4  10  21  39  63  93 125 159 211 269 315 374
#     4   9  20  39  60  85 119 160 205 251 313 386
#     4   9  20  38  61  90 121 154 205 264 316 379
#     4  12  22  41  65  90 130 172 213 259 316 373
#     4   9  19  36  60  92 122 157 208 260 312 371
#     4  11  22  37  59  89 121 161 206 261 317 374
#     4  11  25  41  59  88 131 164 208 266 315 381
#     4  12  24  40  70  96 126 186 218 248 310 392
#
# _framework density 21.321370999999999
#
# number of rings (size 3 to 8) (size 9 to 14) (size 15 to 20)
#    0.000    1.793    3.448    1.241    1.931    3.862 
#    0.000    1.379    0.000    0.000    0.000    0.000 
#    0.000    0.000    0.000    0.000    0.000    0.000 
#
# Total GULP energy -161609.090632 kJ/mol
# GULP energy per Si atom -5572.727263 kJ/mol
# Density = 2.127284 g / cm^3
# Si number density = 21.321371 Si / 1000 Ang^3
#
#
#
# Elastic Constant Matrix: (Units=GPa)
#
#
# Indices 1 2 3 4 5 6 
#
# 1 79.9865 5.2986 32.7725 0.0000 0.0000 0.0000
# 2 5.2986 69.8383 -0.7371 0.0000 0.0000 0.0000
# 3 32.7725 -0.7371 38.0282 0.0000 0.0000 0.0000
# 4 0.0000 0.0000 0.0000 28.5362 0.0000 0.0000
# 5 0.0000 0.0000 0.0000 0.0000 13.8372 0.0000
# 6 0.0000 0.0000 0.0000 0.0000 0.0000 31.5122
#
#
#
# Elastic Compliance Matrix: (Units=1/GPa)
#
#
# Indices 1 2 3 4 5 6 
#
# 1 0.019516 -0.001659 -0.016851 0.000000 0.000000 0.000000
# 2 -0.001659 0.014463 0.001710 0.000000 0.000000 0.000000
# 3 -0.016851 0.001710 0.040852 0.000000 0.000000 0.000000
# 4 0.000000 0.000000 0.000000 0.035043 0.000000 0.000000
# 5 0.000000 0.000000 0.000000 0.000000 0.072269 0.000000
# 6 0.000000 0.000000 0.000000 0.000000 0.000000 0.031734
#
#
# Mechanical properties :
#
#
# Convention : Reuss Voigt Hill
#
# Bulk Modulus (GPa) = 24.25389 29.16900 26.71144
# Shear Modulus (GPa) = 19.14094 24.81173 21.97633
#
# Velocity S-wave (km/s) = 2.99947 3.41501 3.21396
# Velocity P-wave (km/s) = 4.83693 5.40926 5.13108
#
# Compressibility (1/GPa) = 0.04123051
#
# Stress axis : x y z
#
# Youngs Moduli (GPa) = 51.23914 69.14347 24.47880
#
# Poissons Ratio (x) = 0.11468 0.41250
# Poissons Ratio (y) = 0.08498 -0.04185
# Poissons Ratio (z) = 0.86344 -0.11821
#
# Static dielectric constant tensor:
#      x y z
#    x 1.799930 0.000000 0.000000 
#    y 0.000000 1.805680 0.000000 
#    z 0.000000 0.000000 1.779150 
# 
# From -- ./inp_files/8573.got.cif
#   From: 2010.05.17/outbox.cif.g08.bks.cpg/sg35_5_cif.got.tgz:8573.got - 2010.06.03 17:29:28.
