data_PCOD9349915
_publ_section_title
;
Structure prediction by ZEFSAII (Michael W. Deem and Ramdas Pophale) SiO2 
 PCOD9349915
Probable space group: C M M 2
;
_chemical_formula_sum "Si O2"
_cell_formula_units_Z 60
_cell_length_a 20.764935
_cell_length_b 20.196065
_cell_length_c 6.569851
_cell_angle_alpha 90.000000
_cell_angle_beta 90.000000
_cell_angle_gamma 90.000000
_cell_volume 2755.198263
_symmetry_space_group_name_H-M "C M M 2"
_symmetry_group_IT_number 35
_symmetry_cell_setting 'orthorhombic'
loop_
_space_group_symop_operation_xyz
x,y,z
-x,-y,z
-x,y,z
x,-y,z
1/2+x,1/2+y,z
1/2-x,1/2-y,z
1/2-x,1/2+y,z
1/2+x,1/2-y,z
loop_
_atom_site_type_symbol
_atom_site_label
_atom_site_fract_x
_atom_site_fract_y
_atom_site_fract_z
Si Si1 0.648090 0.658016 0.779140
Si Si2 0.754493 0.321130 0.438822
Si Si3 0.572658 0.423736 0.458052
Si Si4 0.426290 0.104330 0.240691
Si Si5 0.645671 0.000000 0.957371
Si Si6 0.691515 0.575871 0.149982
Si Si7 0.074050 0.723457 0.978285
Si Si8 0.624972 0.880896 0.661059
O O1 0.700556 0.681268 0.615746
O O2 0.593144 0.624205 0.640610
O O3 0.620183 0.716104 0.920677
O O4 0.679765 0.603818 0.926705
O O5 0.750000 0.250000 0.333087
O O6 0.739086 0.378409 0.278172
O O7 0.819960 0.338396 0.551603
O O8 0.500000 0.409725 0.388596
O O9 0.575317 0.500000 0.531600
O O10 0.624323 0.420039 0.275608
O O11 0.500000 0.090939 0.172915
O O12 0.419456 0.093043 0.479354
O O13 0.378249 0.057509 0.120123
O O14 0.413000 0.181599 0.183594
O O15 0.655654 0.941089 0.785596
O O16 0.715192 0.500000 0.140860
O O17 0.084909 0.667528 0.806627
O O18 0.000000 0.746043 0.980861
#
# Coordination Sequence:
#
# PCOD9349915 Si02
#       8
#     8   8   8   8   4   8   8   8
#     4  11  22  40  63  90 127 170 213 264 330 376
#     4  11  25  44  65  92 126 171 225 273 326 392
#     4   9  19  37  61  90 126 163 208 259 314 387
#     4  10  22  39  63  94 130 166 207 262 328 391
#     4  10  23  40  64  96 122 164 215 266 312 398
#     4  10  24  42  65  97 131 170 218 270 328 386
#     4  10  22  38  60  94 126 161 212 263 318 400
#     4  11  23  43  65  90 131 168 218 264 333 383
#
# _framework density 21.777017000000001
#
# number of rings (size 3 to 8) (size 9 to 14) (size 15 to 20)
#    0.000    1.733    1.333    1.800    2.800    5.867 
#    2.400    2.667    0.000    0.000    0.000    0.000 
#    0.000    0.000    0.000    0.000    0.000    0.000 
#
# Total GULP energy -167227.150457 kJ/mol
# GULP energy per Si atom -5574.238349 kJ/mol
# Density = 2.172745 g / cm^3
# Si number density = 21.777017 Si / 1000 Ang^3
#
#
#
# Elastic Constant Matrix: (Units=GPa)
#
#
# Indices 1 2 3 4 5 6 
#
# 1 42.9220 6.5062 -14.2669 0.0000 0.0000 0.0000
# 2 6.5062 109.0300 13.6331 0.0000 0.0000 0.0000
# 3 -14.2669 13.6331 28.9857 0.0000 0.0000 0.0000
# 4 0.0000 0.0000 0.0000 23.2454 0.0000 0.0000
# 5 0.0000 0.0000 0.0000 0.0000 7.0688 0.0000
# 6 0.0000 0.0000 0.0000 0.0000 0.0000 22.5306
#
#
#
# Elastic Compliance Matrix: (Units=1/GPa)
#
#
# Indices 1 2 3 4 5 6 
#
# 1 0.029242 -0.003766 0.016164 0.000000 0.000000 0.000000
# 2 -0.003766 0.010230 -0.006665 0.000000 0.000000 0.000000
# 3 0.016164 -0.006665 0.045591 0.000000 0.000000 0.000000
# 4 0.000000 0.000000 0.000000 0.043019 0.000000 0.000000
# 5 0.000000 0.000000 0.000000 0.000000 0.141466 0.000000
# 6 0.000000 0.000000 0.000000 0.000000 0.000000 0.044384
#
#
# Mechanical properties :
#
#
# Convention : Reuss Voigt Hill
#
# Bulk Modulus (GPa) = 10.35963 21.40918 15.88441
# Shear Modulus (GPa) = 14.94130 22.23997 18.59063
#
# Velocity S-wave (km/s) = 2.62220 3.19918 2.92495
# Velocity P-wave (km/s) = 3.73301 4.84755 4.32632
#
# Compressibility (1/GPa) = 0.09652850
#
# Stress axis : x y z
#
# Youngs Moduli (GPa) = 34.19758 97.75207 21.93418
#
# Poissons Ratio (x) = 0.36815 -0.35455
# Poissons Ratio (y) = 0.12879 0.14620
# Poissons Ratio (z) = -0.55278 0.65155
#
# Static dielectric constant tensor:
#      x y z
#    x 1.835120 0.000000 0.000000 
#    y 0.000000 1.789240 0.000000 
#    z 0.000000 0.000000 1.762050 
# 
# From -- ./inp_files/3436.got.cif
#   From: 2010.05.17/outbox.cif.g08.bks.cpg/sg35_2_cif.got.tgz:3436.got - 2010.06.03 17:29:28.
