data_PCOD9349499
_publ_section_title
;
Structure prediction by ZEFSAII (Michael W. Deem and Ramdas Pophale) SiO2 
 PCOD9349499
Probable space group: C M M 2
;
_chemical_formula_sum "Si O2"
_cell_formula_units_Z 56
_cell_length_a 8.462062
_cell_length_b 22.659573
_cell_length_c 14.977046
_cell_angle_alpha 90.000000
_cell_angle_beta 90.000000
_cell_angle_gamma 90.000000
_cell_volume 2871.799320
_symmetry_space_group_name_H-M "C M M 2"
_symmetry_group_IT_number 35
_symmetry_cell_setting 'orthorhombic'
loop_
_space_group_symop_operation_xyz
x,y,z
-x,-y,z
-x,y,z
x,-y,z
1/2+x,1/2+y,z
1/2-x,1/2-y,z
1/2-x,1/2+y,z
1/2+x,1/2-y,z
loop_
_atom_site_type_symbol
_atom_site_label
_atom_site_fract_x
_atom_site_fract_y
_atom_site_fract_z
Si Si1 0.311168 0.500000 0.080420
Si Si2 0.807400 0.067285 0.589359
Si Si3 0.689952 0.433365 0.796235
Si Si4 0.312035 0.314616 0.485973
Si Si5 0.691164 0.000000 0.284201
Si Si6 0.189552 0.313840 0.133235
Si Si7 0.689013 0.886699 0.972385
Si Si8 0.809154 0.627774 0.314481
O O1 0.500000 0.500000 0.080881
O O2 0.248527 0.500000 0.181799
O O3 0.248926 0.443707 0.026273
O O4 0.763557 0.076324 0.693595
O O5 0.752345 0.125621 0.536242
O O6 0.000000 0.066391 0.584267
O O7 0.755419 0.000000 0.563407
O O8 0.500000 0.432684 0.798862
O O9 0.742594 0.500000 0.820694
O O10 0.751485 0.389538 0.871437
O O11 0.500000 0.313373 0.495592
O O12 0.250000 0.250000 0.514428
O O13 0.265177 0.326936 0.383547
O O14 0.742083 0.060331 0.331705
O O15 0.500000 0.000000 0.281228
O O16 0.250000 0.250000 0.157037
O O17 0.237097 0.357623 0.212788
O O18 0.000000 0.313944 0.131810
O O19 0.245490 0.333416 0.035443
O O20 0.500000 0.887502 0.970991
O O21 0.000000 0.631453 0.321527
#
# Coordination Sequence:
#
# PCOD9349499 Si02
#       8
#     4   8   8   8   4   8   8   8
#     4  12  22  32  52  83 112 145 186 225 266 322
#     4   8  17  36  60  85 115 147 184 237 297 347
#     4   9  17  32  56  85 111 140 183 231 282 342
#     4  11  23  39  61  86 115 153 196 242 289 345
#     4  10  20  38  58  81 118 153 180 227 292 344
#     4  10  22  38  55  74 105 149 191 230 278 330
#     4  11  21  35  54  79 114 151 183 227 280 330
#     4  10  21  38  59  83 114 151 186 229 289 345
#
# _framework density 19.499970000000001
#
# number of rings (size 3 to 8) (size 9 to 14) (size 15 to 20)
#    0.000    2.000    2.143    2.786    1.000    3.429 
#    0.000    2.143    0.000    5.143    0.000    0.000 
#    0.000    0.000    0.000    0.000    0.000    0.000 
#
# Total GULP energy -156177.222221 kJ/mol
# GULP energy per Si atom -5577.757936 kJ/mol
# Density = 1.945559 g / cm^3
# Si number density = 19.499970 Si / 1000 Ang^3
#
#
#
# Elastic Constant Matrix: (Units=GPa)
#
#
# Indices 1 2 3 4 5 6 
#
# 1 11.1974 15.7820 10.9482 0.0000 0.0000 0.0000
# 2 15.7820 124.7316 42.8094 0.0000 0.0000 0.0000
# 3 10.9482 42.8094 77.0459 0.0000 0.0000 0.0000
# 4 0.0000 0.0000 0.0000 28.1818 0.0000 0.0000
# 5 0.0000 0.0000 0.0000 0.0000 17.8928 0.0000
# 6 0.0000 0.0000 0.0000 0.0000 0.0000 21.2655
#
#
#
# Elastic Compliance Matrix: (Units=1/GPa)
#
#
# Indices 1 2 3 4 5 6 
#
# 1 0.114814 -0.011031 -0.010186 0.000000 0.000000 0.000000
# 2 -0.011031 0.010966 -0.004526 0.000000 0.000000 0.000000
# 3 -0.010186 -0.004526 0.016941 0.000000 0.000000 0.000000
# 4 0.000000 0.000000 0.000000 0.035484 0.000000 0.000000
# 5 0.000000 0.000000 0.000000 0.000000 0.055889 0.000000
# 6 0.000000 0.000000 0.000000 0.000000 0.000000 0.047025
#
#
# Mechanical properties :
#
#
# Convention : Reuss Voigt Hill
#
# Bulk Modulus (GPa) = 10.96060 39.11712 25.03886
# Shear Modulus (GPa) = 13.77353 23.03036 18.40195
#
# Velocity S-wave (km/s) = 2.66058 3.44036 3.07529
# Velocity P-wave (km/s) = 3.88218 5.99042 5.04759
#
# Compressibility (1/GPa) = 0.09123589
#
# Stress axis : x y z
#
# Youngs Moduli (GPa) = 8.70977 91.18898 59.02739
#
# Poissons Ratio (x) = 1.00593 0.60124
# Poissons Ratio (y) = 0.09608 0.26714
# Poissons Ratio (z) = 0.08872 0.41269
#
# Static dielectric constant tensor:
#      x y z
#    x 1.667420 0.000000 0.000000 
#    y 0.000000 1.690790 0.000000 
#    z 0.000000 0.000000 1.682170 
# 
# From -- ./inp_files/15789.got.cif
#   From: 2010.05.17/outbox.cif.g08.bks.cpg/sg35_8_cif.got.tgz:15789.got - 2010.06.03 17:29:28.
