data_PCOD9349710
_publ_section_title
;
Structure prediction by ZEFSAII (Michael W. Deem and Ramdas Pophale) SiO2 
 PCOD9349710
Probable space group: C M M 2
;
_chemical_formula_sum "Si O2"
_cell_formula_units_Z 48
_cell_length_a 7.737859
_cell_length_b 33.997414
_cell_length_c 8.317645
_cell_angle_alpha 90.000000
_cell_angle_beta 90.000000
_cell_angle_gamma 90.000000
_cell_volume 2188.099547
_symmetry_space_group_name_H-M "C M M 2"
_symmetry_group_IT_number 35
_symmetry_cell_setting 'orthorhombic'
loop_
_space_group_symop_operation_xyz
x,y,z
-x,-y,z
-x,y,z
x,-y,z
1/2+x,1/2+y,z
1/2-x,1/2-y,z
1/2-x,1/2+y,z
1/2+x,1/2-y,z
loop_
_atom_site_type_symbol
_atom_site_label
_atom_site_fract_x
_atom_site_fract_y
_atom_site_fract_z
Si Si1 0.701183 0.835896 0.116260
Si Si2 0.710069 0.500000 0.463974
Si Si3 0.794198 0.663569 0.466418
Si Si4 0.200886 0.500000 0.090962
Si Si5 0.290811 0.582364 0.612023
Si Si6 0.708250 0.204167 0.791470
Si Si7 0.202311 0.914346 0.974038
O O1 0.500000 0.824237 0.120726
O O2 0.777593 0.825375 0.290618
O O3 0.776045 0.816553 0.954208
O O4 0.710550 0.882910 0.090701
O O5 0.500000 0.500000 0.461113
O O6 0.773191 0.500000 0.281929
O O7 0.767045 0.460359 0.552849
O O8 0.766072 0.617359 0.496949
O O9 0.723921 0.685387 0.624963
O O10 0.000000 0.670822 0.461675
O O11 0.000000 0.500000 0.050227
O O12 0.278585 0.540317 0.022916
O O13 0.500000 0.581798 0.616037
O O14 0.228865 0.590712 0.792938
O O15 0.500000 0.198776 0.789815
O O16 0.750000 0.250000 0.796164
O O17 0.000000 0.904657 0.975711
#
# Coordination Sequence:
#
# PCOD9349710 Si02
#       7
#     8   4   8   4   8   8   8
#     4  10  21  39  62  89 120 156 198 241 293 354
#     4  10  21  38  56  80 116 154 197 249 295 339
#     4  10  21  38  61  87 118 156 195 240 292 348
#     4  12  25  38  54  82 118 158 203 247 293 347
#     4  10  21  37  59  85 116 154 197 244 293 347
#     4  10  22  40  61  87 121 154 192 242 293 351
#     4  11  22  38  60  86 117 155 199 246 296 348
#
# _framework density 21.936845999999999
#
# number of rings (size 3 to 8) (size 9 to 14) (size 15 to 20)
#    0.000    1.667    1.667    2.750    0.000    8.000 
#    0.000    0.833    0.000    0.000    0.000    0.000 
#    0.000    0.000    0.000    0.000    0.000    0.000 
#
# Total GULP energy -134131.249961 kJ/mol
# GULP energy per Si atom -5588.802082 kJ/mol
# Density = 2.188692 g / cm^3
# Si number density = 21.936846 Si / 1000 Ang^3
#
#
#
# Elastic Constant Matrix: (Units=GPa)
#
#
# Indices 1 2 3 4 5 6 
#
# 1 39.1736 -9.9500 9.1838 0.0000 0.0000 0.0000
# 2 -9.9500 113.3559 63.3930 0.0000 0.0000 0.0000
# 3 9.1838 63.3930 203.6395 0.0000 0.0000 0.0000
# 4 0.0000 0.0000 0.0000 0.2069 0.0000 0.0000
# 5 0.0000 0.0000 0.0000 0.0000 12.2706 0.0000
# 6 0.0000 0.0000 0.0000 0.0000 0.0000 24.7403
#
#
#
# Elastic Compliance Matrix: (Units=1/GPa)
#
#
# Indices 1 2 3 4 5 6 
#
# 1 0.027022 0.003697 -0.002370 0.000000 0.000000 0.000000
# 2 0.003697 0.011187 -0.003649 0.000000 0.000000 0.000000
# 3 -0.002370 -0.003649 0.006154 0.000000 0.000000 0.000000
# 4 0.000000 0.000000 0.000000 4.834200 0.000000 0.000000
# 5 0.000000 0.000000 0.000000 0.000000 0.081495 0.000000
# 6 0.000000 0.000000 0.000000 0.000000 0.000000 0.040420
#
#
# Mechanical properties :
#
#
# Convention : Reuss Voigt Hill
#
# Bulk Modulus (GPa) = 25.17686 53.49140 39.33413
# Shear Modulus (GPa) = 0.99634 27.01303 14.00469
#
# Velocity S-wave (km/s) = 0.67466 3.51294 2.52942
# Velocity P-wave (km/s) = 3.47977 6.39465 5.14783
#
# Compressibility (1/GPa) = 0.03971901
#
# Stress axis : x y z
#
# Youngs Moduli (GPa) = 37.00697 89.38867 162.50855
#
# Poissons Ratio (x) = -0.33047 0.38507
# Poissons Ratio (y) = -0.13682 0.59304
# Poissons Ratio (z) = 0.08769 0.32620
#
# Static dielectric constant tensor:
#      x y z
#    x 1.798080 0.000000 0.000000 
#    y 0.000000 1.765570 0.000000 
#    z 0.000000 0.000000 1.825380 
# 
# From -- ./inp_files/5383.got.cif
#   From: 2010.05.17/outbox.cif.g08.bks.cpg/sg35_3_cif.got.tgz:5383.got - 2010.06.03 17:29:28.
