data_PCOD9349203
_publ_section_title
;
Structure prediction by ZEFSAII (Michael W. Deem and Ramdas Pophale) SiO2 
 PCOD9349203
Probable space group: C M M 2
;
_chemical_formula_sum "Si O2"
_cell_formula_units_Z 56
_cell_length_a 8.719087
_cell_length_b 23.701169
_cell_length_c 15.751347
_cell_angle_alpha 90.000000
_cell_angle_beta 90.000000
_cell_angle_gamma 90.000000
_cell_volume 3255.056095
_symmetry_space_group_name_H-M "C M M 2"
_symmetry_group_IT_number 35
_symmetry_cell_setting 'orthorhombic'
loop_
_space_group_symop_operation_xyz
x,y,z
-x,-y,z
-x,y,z
x,-y,z
1/2+x,1/2+y,z
1/2-x,1/2-y,z
1/2-x,1/2+y,z
1/2+x,1/2-y,z
loop_
_atom_site_type_symbol
_atom_site_label
_atom_site_fract_x
_atom_site_fract_y
_atom_site_fract_z
Si Si1 0.182715 0.116455 0.556080
Si Si2 0.183441 0.500000 0.620818
Si Si3 0.316866 0.500000 0.812327
Si Si4 0.183053 0.813715 0.035715
Si Si5 0.818340 0.384673 0.880932
Si Si6 0.316097 0.186327 0.400712
Si Si7 0.816683 0.313246 0.210733
Si Si8 0.681417 0.812005 0.710004
O O1 0.257556 0.055755 0.573530
O O2 0.244076 0.146296 0.471320
O O3 0.233372 0.155719 0.634578
O O4 0.000000 0.111345 0.553600
O O5 0.247903 0.500000 0.717036
O O6 0.000000 0.500000 0.625256
O O7 0.500000 0.500000 0.806216
O O8 0.258620 0.555586 0.860565
O O9 0.250000 0.750000 0.026644
O O10 0.240439 0.838056 0.126384
O O11 0.000000 0.810118 0.034889
O O12 0.243813 0.852238 0.959725
O O13 0.798904 0.346431 0.796929
O O14 0.000000 0.392002 0.895303
O O15 0.500000 0.189302 0.410754
O O16 0.250000 0.250000 0.409000
O O17 0.283435 0.164033 0.305021
O O18 0.750000 0.250000 0.213727
O O19 0.000000 0.311587 0.199481
O O20 0.500000 0.809215 0.690700
O O21 0.750000 0.750000 0.719420
#
# Coordination Sequence:
#
# PCOD9349203 Si02
#       8
#     8   4   4   8   8   8   8   8
#     4  12  24  38  58  82 111 146 188 234 279 332
#     4  12  24  42  62  81 108 145 192 236 278 328
#     4  12  24  40  62  85 110 143 190 236 280 330
#     4  11  21  34  55  84 118 151 188 233 282 337
#     4  11  23  39  59  81 111 149 190 233 278 330
#     4  10  20  35  56  84 117 151 188 231 280 337
#     4   9  17  31  53  80 112 149 187 227 277 336
#     4  11  23  37  55  79 112 148 184 226 278 333
#
# _framework density 17.204003
#
# number of rings (size 3 to 8) (size 9 to 14) (size 15 to 20)
#    0.000    1.143    1.429    7.286    0.000    4.571 
#    0.000    0.000    0.000    0.857    0.000    1.000 
#    0.000    0.000    0.000    0.000    0.000    0.000 
#
# Total GULP energy -156464.659397 kJ/mol
# GULP energy per Si atom -5588.023550 kJ/mol
# Density = 1.716485 g / cm^3
# Si number density = 17.204003 Si / 1000 Ang^3
#
#
#
# Elastic Constant Matrix: (Units=GPa)
#
#
# Indices 1 2 3 4 5 6 
#
# 1 167.6560 72.0712 96.4699 0.0000 0.0000 0.0000
# 2 72.0712 123.4268 66.7681 0.0000 0.0000 0.0000
# 3 96.4699 66.7681 155.8741 0.0000 0.0000 0.0000
# 4 0.0000 0.0000 0.0000 -13.6914 0.0000 0.0000
# 5 0.0000 0.0000 0.0000 0.0000 -45.4630 0.0000
# 6 0.0000 0.0000 0.0000 0.0000 0.0000 28.2999
#
#
#
# Elastic Compliance Matrix: (Units=1/GPa)
#
#
# Indices 1 2 3 4 5 6 
#
# 1 0.010206 -0.003309 -0.004899 0.000000 0.000000 0.000000
# 2 -0.003309 0.011619 -0.002929 0.000000 0.000000 0.000000
# 3 -0.004899 -0.002929 0.010702 0.000000 0.000000 0.000000
# 4 0.000000 0.000000 0.000000 -0.073039 0.000000 0.000000
# 5 0.000000 0.000000 0.000000 0.000000 -0.021996 0.000000
# 6 0.000000 0.000000 0.000000 0.000000 0.000000 0.035336
#
#
# Mechanical properties :
#
#
# Convention : Reuss Voigt Hill
#
# Bulk Modulus (GPa) = 97.53605 101.95280 99.74443
# Shear Modulus (GPa) = -3376.95591 7.93895 -1684.50848
#
# Velocity S-wave (km/s) = -44.35257 2.15049 -31.32512
# Velocity P-wave (km/s) = 50.65620 8.09666 35.35884
#
# Compressibility (1/GPa) = 0.01025262
#
# Stress axis : x y z
#
# Youngs Moduli (GPa) = 97.98056 86.06855 93.44206
#
# Poissons Ratio (x) = 0.28484 0.45777
# Poissons Ratio (y) = 0.32426 0.27365
# Poissons Ratio (z) = 0.48000 0.25206
#
# Static dielectric constant tensor:
#      x y z
#    x 1.580080 0.000000 0.000000 
#    y 0.000000 1.548810 0.000000 
#    z 0.000000 0.000000 1.594820 
# 
# From -- ./inp_files/15765.got.cif
#   From: 2010.05.17/outbox.cif.g08.bks.cpg/sg35_8_cif.got.tgz:15765.got - 2010.06.03 17:29:28.
