data_PCOD9349056
_publ_section_title
;
Structure prediction by ZEFSAII (Michael W. Deem and Ramdas Pophale) SiO2 
 PCOD9349056
Probable space group: C M M 2
;
_chemical_formula_sum "Si O2"
_cell_formula_units_Z 64
_cell_length_a 30.001412
_cell_length_b 8.423870
_cell_length_c 12.699395
_cell_angle_alpha 90.000000
_cell_angle_beta 90.000000
_cell_angle_gamma 90.000000
_cell_volume 3209.492630
_symmetry_space_group_name_H-M "C M M 2"
_symmetry_group_IT_number 35
_symmetry_cell_setting 'orthorhombic'
loop_
_space_group_symop_operation_xyz
x,y,z
-x,-y,z
-x,y,z
x,-y,z
1/2+x,1/2+y,z
1/2-x,1/2-y,z
1/2-x,1/2+y,z
1/2+x,1/2-y,z
loop_
_atom_site_type_symbol
_atom_site_label
_atom_site_fract_x
_atom_site_fract_y
_atom_site_fract_z
Si Si1 0.550235 0.182931 0.782570
Si Si2 0.203336 0.807600 0.167796
Si Si3 0.683350 0.684842 0.936772
Si Si4 0.079020 0.815997 0.991522
Si Si5 0.949036 0.311283 0.423180
Si Si6 0.395838 0.691587 0.221420
Si Si7 0.889724 0.815495 0.611554
Si Si8 0.702301 0.307342 0.702503
O O1 0.500000 0.210144 0.744051
O O2 0.584197 0.294863 0.721473
O O3 0.562185 0.000000 0.761617
O O4 0.552295 0.216453 0.906600
O O5 0.250000 0.750000 0.215365
O O6 0.156375 0.757787 0.220503
O O7 0.203168 0.000000 0.165595
O O8 0.201290 0.745798 0.046398
O O9 0.697412 0.500000 0.934802
O O10 0.696389 0.753239 0.823472
O O11 0.630165 0.687029 0.951256
O O12 0.081378 0.756733 0.111392
O O13 0.064000 0.000000 0.990447
O O14 0.951363 0.500000 0.414473
O O15 0.923779 0.245830 0.320921
O O16 0.919266 0.269379 0.524197
O O17 0.000000 0.249752 0.432103
O O18 0.395220 0.500000 0.217627
O O19 0.839775 0.754420 0.632819
O O20 0.887007 0.000000 0.582536
O O21 0.700642 0.500000 0.705257
O O22 0.750000 0.250000 0.663195
#
# Coordination Sequence:
#
# PCOD9349056 Si02
#       8
#     8   8   8   8   8   8   8   8
#     4  11  23  36  53  83 121 155 189 235 294 354
#     4   9  17  30  52  82 118 156 193 235 280 331
#     4   8  14  29  50  76 114 153 190 232 274 323
#     4   9  17  34  57  81 115 156 195 238 283 335
#     4  11  25  44  65  88 114 145 187 245 305 355
#     4   9  20  38  61  87 116 152 197 243 286 341
#     4  11  23  41  64  86 113 150 196 244 286 343
#     4  10  20  34  55  84 117 152 190 233 282 336
#
# _framework density 19.940847000000002
#
# number of rings (size 3 to 8) (size 9 to 14) (size 15 to 20)
#    0.000    2.250    1.250    3.375    0.000    6.000 
#    0.000    5.000    0.000    0.000    0.000    0.000 
#    0.000    0.000    0.000    0.000    0.000    0.000 
#
# Total GULP energy -178520.238675 kJ/mol
# GULP energy per Si atom -5578.757459 kJ/mol
# Density = 1.989546 g / cm^3
# Si number density = 19.940847 Si / 1000 Ang^3
#
#
#
# Elastic Constant Matrix: (Units=GPa)
#
#
# Indices 1 2 3 4 5 6 
#
# 1 127.3912 17.4028 58.7957 0.0000 0.0000 0.0000
# 2 17.4028 9.1181 6.4710 0.0000 0.0000 0.0000
# 3 58.7957 6.4710 97.9534 0.0000 0.0000 0.0000
# 4 0.0000 0.0000 0.0000 -23.8142 0.0000 0.0000
# 5 0.0000 0.0000 0.0000 0.0000 14.5811 0.0000
# 6 0.0000 0.0000 0.0000 0.0000 0.0000 18.7243
#
#
#
# Elastic Compliance Matrix: (Units=1/GPa)
#
#
# Indices 1 2 3 4 5 6 
#
# 1 0.014070 -0.021887 -0.007000 0.000000 0.000000 0.000000
# 2 -0.021887 0.149112 0.003287 0.000000 0.000000 0.000000
# 3 -0.007000 0.003287 0.014193 0.000000 0.000000 0.000000
# 4 0.000000 0.000000 0.000000 -0.041992 0.000000 0.000000
# 5 0.000000 0.000000 0.000000 0.000000 0.068582 0.000000
# 6 0.000000 0.000000 0.000000 0.000000 0.000000 0.053407
#
#
# Mechanical properties :
#
#
# Convention : Reuss Voigt Hill
#
# Bulk Modulus (GPa) = 7.92543 44.42241 26.17392
# Shear Modulus (GPa) = 14.25997 12.01778 13.13887
#
# Velocity S-wave (km/s) = 2.67706 2.45760 2.56967
# Velocity P-wave (km/s) = 3.67949 5.51167 4.68600
#
# Compressibility (1/GPa) = 0.12617615
#
# Stress axis : x y z
#
# Youngs Moduli (GPa) = 71.07093 6.70635 70.45556
#
# Poissons Ratio (x) = 0.14678 0.49317
# Poissons Ratio (y) = 1.55554 -0.23158
# Poissons Ratio (z) = 0.49748 -0.02204
#
# Static dielectric constant tensor:
#      x y z
#    x 1.721310 0.000000 0.000000 
#    y 0.000000 1.695220 0.000000 
#    z 0.000000 0.000000 1.706260 
# 
# From -- ./inp_files/14595.got.cif
#   From: 2010.05.17/outbox.cif.g08.bks.cpg/sg35_8_cif.got.tgz:14595.got - 2010.06.03 17:29:28.
