data_PCOD9349364
_publ_section_title
;
Structure prediction by ZEFSAII (Michael W. Deem and Ramdas Pophale) SiO2 
 PCOD9349364
Probable space group: C M M 2
;
_chemical_formula_sum "Si O2"
_cell_formula_units_Z 64
_cell_length_a 30.265854
_cell_length_b 8.134210
_cell_length_c 12.888657
_cell_angle_alpha 90.000000
_cell_angle_beta 90.000000
_cell_angle_gamma 90.000000
_cell_volume 3173.043159
_symmetry_space_group_name_H-M "C M M 2"
_symmetry_group_IT_number 35
_symmetry_cell_setting 'orthorhombic'
loop_
_space_group_symop_operation_xyz
x,y,z
-x,-y,z
-x,y,z
x,-y,z
1/2+x,1/2+y,z
1/2-x,1/2-y,z
1/2-x,1/2+y,z
1/2+x,1/2-y,z
loop_
_atom_site_type_symbol
_atom_site_label
_atom_site_fract_x
_atom_site_fract_y
_atom_site_fract_z
Si Si1 0.800996 0.696995 0.931360
Si Si2 0.124637 0.804629 0.085599
Si Si3 0.050810 0.701576 0.479841
Si Si4 0.300897 0.198793 0.479285
Si Si5 0.374624 0.197983 0.322688
Si Si6 0.698567 0.801939 0.705617
Si Si7 0.053807 0.688034 0.706747
Si Si8 0.449920 0.303948 0.931781
O O1 0.802573 0.500000 0.932173
O O2 0.750000 0.750000 0.941428
O O3 0.818490 0.756149 0.817728
O O4 0.830994 0.761460 0.023704
O O5 0.124802 0.744775 0.203142
O O6 0.120423 0.000000 0.088200
O O7 0.083951 0.736315 0.016670
O O8 0.051073 0.500000 0.484099
O O9 0.082705 0.754847 0.387823
O O10 0.066823 0.756739 0.594298
O O11 0.000000 0.751972 0.464159
O O12 0.250000 0.250000 0.467789
O O13 0.331724 0.257890 0.386088
O O14 0.318345 0.254667 0.593154
O O15 0.302095 0.000000 0.479911
O O16 0.374462 0.000000 0.327816
O O17 0.750000 0.750000 0.705408
O O18 0.695551 0.000000 0.706207
O O19 0.069670 0.500000 0.713277
O O20 0.065933 0.772676 0.814125
O O21 0.000000 0.686535 0.703068
O O22 0.500000 0.237180 0.942063
O O23 0.452396 0.500000 0.945031
#
# Coordination Sequence:
#
# PCOD9349364 Si02
#       8
#     8   8   8   8   8   8   8   8
#     4  10  20  36  59  84 110 139 172 212 261 316
#     4  11  24  39  53  73 104 141 184 228 266 309
#     4   8  15  30  53  80 108 135 164 208 267 322
#     4   9  18  33  53  77 104 133 164 203 252 302
#     4  10  21  36  53  74 101 135 178 220 257 306
#     4   8  15  29  51  79 106 131 161 200 249 306
#     4   8  14  27  51  82 109 132 164 208 260 321
#     4   9  19  36  55  75 104 141 176 216 269 321
#
# _framework density 20.169910000000002
#
# number of rings (size 3 to 8) (size 9 to 14) (size 15 to 20)
#    0.000    2.875    0.000    1.500    0.000    4.000 
#    0.000    4.375    0.000    0.750    0.000    0.000 
#    0.000    0.000    0.000    0.000    0.000    0.000 
#
# Total GULP energy -178419.888760 kJ/mol
# GULP energy per Si atom -5575.621524 kJ/mol
# Density = 2.012400 g / cm^3
# Si number density = 20.169910 Si / 1000 Ang^3
#
#
#
# Elastic Constant Matrix: (Units=GPa)
#
#
# Indices 1 2 3 4 5 6 
#
# 1 106.0555 8.6028 97.6625 0.0000 0.0000 0.0000
# 2 8.6028 12.4868 16.3981 0.0000 0.0000 0.0000
# 3 97.6625 16.3981 231.7769 0.0000 0.0000 0.0000
# 4 0.0000 0.0000 0.0000 -0.2484 0.0000 0.0000
# 5 0.0000 0.0000 0.0000 0.0000 35.8240 0.0000
# 6 0.0000 0.0000 0.0000 0.0000 0.0000 11.5026
#
#
#
# Elastic Compliance Matrix: (Units=1/GPa)
#
#
# Indices 1 2 3 4 5 6 
#
# 1 0.015468 -0.002312 -0.006354 0.000000 0.000000 0.000000
# 2 -0.002312 0.088633 -0.005296 0.000000 0.000000 0.000000
# 3 -0.006354 -0.005296 0.007367 0.000000 0.000000 0.000000
# 4 0.000000 0.000000 0.000000 -4.026127 0.000000 0.000000
# 5 0.000000 0.000000 0.000000 0.000000 0.027914 0.000000
# 6 0.000000 0.000000 0.000000 0.000000 0.000000 0.086937
#
#
# Mechanical properties :
#
#
# Convention : Reuss Voigt Hill
#
# Bulk Modulus (GPa) = 11.96999 66.18287 39.07643
# Shear Modulus (GPa) = -1.33546 24.59269 11.62861
#
# Velocity S-wave (km/s) = -0.81458 3.49560 2.40371
# Velocity P-wave (km/s) = 2.25005 7.01258 5.20764
#
# Compressibility (1/GPa) = 0.08354228
#
# Stress axis : x y z
#
# Youngs Moduli (GPa) = 64.65084 11.28243 135.74897
#
# Poissons Ratio (x) = 0.02609 0.86254
# Poissons Ratio (y) = 0.14949 0.71899
# Poissons Ratio (z) = 0.41079 0.05976
#
# Static dielectric constant tensor:
#      x y z
#    x 1.733940 0.000000 0.000000 
#    y 0.000000 1.713890 0.000000 
#    z 0.000000 0.000000 1.726330 
# 
# From -- ./inp_files/11868.got.cif
#   From: 2010.05.17/outbox.cif.g08.bks.cpg/sg35_6_cif.got.tgz:11868.got - 2010.06.03 17:29:28.
