data_PCOD9349227
_publ_section_title
;
Structure prediction by ZEFSAII (Michael W. Deem and Ramdas Pophale) SiO2 
 PCOD9349227
Probable space group: C M M 2
;
_chemical_formula_sum "Si O2"
_cell_formula_units_Z 64
_cell_length_a 28.993965
_cell_length_b 8.606691
_cell_length_c 13.338762
_cell_angle_alpha 90.000000
_cell_angle_beta 90.000000
_cell_angle_gamma 90.000000
_cell_volume 3328.582649
_symmetry_space_group_name_H-M "C M M 2"
_symmetry_group_IT_number 35
_symmetry_cell_setting 'orthorhombic'
loop_
_space_group_symop_operation_xyz
x,y,z
-x,-y,z
-x,y,z
x,-y,z
1/2+x,1/2+y,z
1/2-x,1/2-y,z
1/2-x,1/2+y,z
1/2+x,1/2-y,z
loop_
_atom_site_type_symbol
_atom_site_label
_atom_site_fract_x
_atom_site_fract_y
_atom_site_fract_z
Si Si1 0.447106 0.184358 0.177270
Si Si2 0.055995 0.177201 0.390205
Si Si3 0.802079 0.686601 0.512131
Si Si4 0.642914 0.685391 0.099953
Si Si5 0.947582 0.189715 0.611919
Si Si6 0.644173 0.687502 0.703490
Si Si7 0.302032 0.186298 0.289099
Si Si8 0.301974 0.688340 0.901961
O O1 0.500000 0.239122 0.163132
O O2 0.432851 0.225852 0.291677
O O3 0.409918 0.260264 0.104518
O O4 0.446170 0.000000 0.165719
O O5 0.068499 0.239759 0.500160
O O6 0.000000 0.170277 0.394247
O O7 0.073023 0.000000 0.377949
O O8 0.801627 0.500000 0.518481
O O9 0.750000 0.750000 0.519174
O O10 0.830385 0.755556 0.603762
O O11 0.819470 0.731377 0.400547
O O12 0.644303 0.500000 0.102613
O O13 0.667901 0.749672 0.198693
O O14 0.670433 0.738248 0.001322
O O15 0.909230 0.236243 0.692119
O O16 0.000000 0.242002 0.630718
O O17 0.948733 0.000000 0.607499
O O18 0.645089 0.500000 0.704424
O O19 0.670694 0.741220 0.802631
O O20 0.250000 0.250000 0.279568
O O21 0.300955 0.000000 0.284123
O O22 0.300502 0.500000 0.901295
O O23 0.250000 0.750000 0.902372
#
# Coordination Sequence:
#
# PCOD9349227 Si02
#       8
#     8   8   8   8   8   8   8   8
#     4  10  21  36  54  80 115 152 189 232 283 337
#     4   8  14  27  48  75 107 145 187 226 266 319
#     4  10  21  36  54  80 113 145 180 224 280 343
#     4  11  23  38  58  82 110 147 194 240 287 339
#     4   8  15  29  51  80 112 147 187 227 268 320
#     4  10  20  35  57  84 114 147 188 232 280 334
#     4  10  21  37  56  82 115 147 183 230 287 349
#     4  10  23  41  60  84 111 143 187 239 288 337
#
# _framework density 19.227402000000001
#
# number of rings (size 3 to 8) (size 9 to 14) (size 15 to 20)
#    0.000    2.375    0.000    3.000    1.750    5.750 
#    0.000    0.625    0.000    2.625    0.000    0.000 
#    0.000    0.000    0.000    0.000    0.000    0.000 
#
# Total GULP energy -178620.225084 kJ/mol
# GULP energy per Si atom -5581.882034 kJ/mol
# Density = 1.918364 g / cm^3
# Si number density = 19.227402 Si / 1000 Ang^3
#
#
#
# Elastic Constant Matrix: (Units=GPa)
#
#
# Indices 1 2 3 4 5 6 
#
# 1 137.8319 20.9403 99.0292 0.0000 0.0000 0.0000
# 2 20.9403 23.2254 28.9117 0.0000 0.0000 0.0000
# 3 99.0292 28.9117 144.0422 0.0000 0.0000 0.0000
# 4 0.0000 0.0000 0.0000 19.2179 0.0000 0.0000
# 5 0.0000 0.0000 0.0000 0.0000 45.9894 0.0000
# 6 0.0000 0.0000 0.0000 0.0000 0.0000 22.4654
#
#
#
# Elastic Compliance Matrix: (Units=1/GPa)
#
#
# Indices 1 2 3 4 5 6 
#
# 1 0.014350 -0.000876 -0.009690 0.000000 0.000000 0.000000
# 2 -0.000876 0.057451 -0.010929 0.000000 0.000000 0.000000
# 3 -0.009690 -0.010929 0.015798 0.000000 0.000000 0.000000
# 4 0.000000 0.000000 0.000000 0.052035 0.000000 0.000000
# 5 0.000000 0.000000 0.000000 0.000000 0.021744 0.000000
# 6 0.000000 0.000000 0.000000 0.000000 0.000000 0.044513
#
#
# Mechanical properties :
#
#
# Convention : Reuss Voigt Hill
#
# Bulk Modulus (GPa) = 22.41693 66.98465 44.70079
# Shear Modulus (GPa) = 18.95721 27.94909 23.45315
#
# Velocity S-wave (km/s) = 3.14339 3.81676 3.49632
# Velocity P-wave (km/s) = 4.98585 7.37138 6.29269
#
# Compressibility (1/GPa) = 0.04460915
#
# Stress axis : x y z
#
# Youngs Moduli (GPa) = 69.68423 17.40607 63.29887
#
# Poissons Ratio (x) = 0.01525 0.61337
# Poissons Ratio (y) = 0.06104 0.69181
# Poissons Ratio (z) = 0.67525 0.19023
#
# Static dielectric constant tensor:
#      x y z
#    x 1.692280 0.000000 0.000000 
#    y 0.000000 1.655450 0.000000 
#    z 0.000000 0.000000 1.664460 
# 
# From -- ./inp_files/11905.got.cif
#   From: 2010.05.17/outbox.cif.g08.bks.cpg/sg35_6_cif.got.tgz:11905.got - 2010.06.03 17:29:28.
