data_PCOD9349172
_publ_section_title
;
Structure prediction by ZEFSAII (Michael W. Deem and Ramdas Pophale) SiO2 
 PCOD9349172
Probable space group: C M M 2
;
_chemical_formula_sum "Si O2"
_cell_formula_units_Z 48
_cell_length_a 15.607619
_cell_length_b 9.047992
_cell_length_c 17.678379
_cell_angle_alpha 90.000000
_cell_angle_beta 90.000000
_cell_angle_gamma 90.000000
_cell_volume 2496.498464
_symmetry_space_group_name_H-M "C M M 2"
_symmetry_group_IT_number 35
_symmetry_cell_setting 'orthorhombic'
loop_
_space_group_symop_operation_xyz
x,y,z
-x,-y,z
-x,y,z
x,-y,z
1/2+x,1/2+y,z
1/2-x,1/2-y,z
1/2-x,1/2+y,z
1/2+x,1/2-y,z
loop_
_atom_site_type_symbol
_atom_site_label
_atom_site_fract_x
_atom_site_fract_y
_atom_site_fract_z
Si Si1 0.500000 0.321209 0.073370
Si Si2 0.000000 0.677286 0.237312
Si Si3 0.161467 0.676886 0.342535
Si Si4 0.601115 0.165588 0.647115
Si Si5 0.395703 0.671183 0.496710
Si Si6 0.156467 0.822587 0.966859
Si Si7 0.343246 0.323378 0.796811
O O1 0.500000 0.500000 0.076074
O O2 0.500000 0.255981 0.156900
O O3 0.585189 0.275489 0.027199
O O4 0.916252 0.715817 0.286443
O O5 0.000000 0.500000 0.226682
O O6 0.169045 0.500000 0.345531
O O7 0.250000 0.750000 0.317055
O O8 0.139070 0.739020 0.425421
O O9 0.500000 0.151295 0.633270
O O10 0.634810 0.256885 0.575433
O O11 0.610547 0.251200 0.725702
O O12 0.638497 0.000000 0.651850
O O13 0.500000 0.675604 0.494269
O O14 0.369673 0.500000 0.492079
O O15 0.250000 0.750000 0.976920
O O16 0.123025 0.791406 0.881423
O O17 0.167093 0.000000 0.971881
O O18 0.339630 0.500000 0.787844
O O19 0.250000 0.250000 0.795804
#
# Coordination Sequence:
#
# PCOD9349172 Si02
#       7
#     4   4   8   8   8   8   8
#     4  10  22  40  64  91 118 155 196 237 294 359
#     4  10  24  44  64  89 124 157 190 241 298 355
#     4  11  23  41  64  91 122 158 199 243 297 354
#     4  10  21  35  53  81 117 155 197 243 292 342
#     4  10  20  36  59  86 117 155 200 246 296 350
#     4   9  20  38  60  87 120 156 196 245 296 350
#     4  10  20  35  56  79 112 152 195 244 295 346
#
# _framework density 19.226929999999999
#
# number of rings (size 3 to 8) (size 9 to 14) (size 15 to 20)
#    0.000    2.000    0.833    2.000    1.167    5.667 
#    0.000    6.667    0.000    0.000    0.000    0.000 
#    0.000    0.000    0.000    0.000    0.000    0.000 
#
# Total GULP energy -134008.501614 kJ/mol
# GULP energy per Si atom -5583.687567 kJ/mol
# Density = 1.918317 g / cm^3
# Si number density = 19.226930 Si / 1000 Ang^3
#
#
#
# Elastic Constant Matrix: (Units=GPa)
#
#
# Indices 1 2 3 4 5 6 
#
# 1 92.6377 48.4052 74.0638 0.0000 0.0000 0.0000
# 2 48.4052 93.7268 74.3788 0.0000 0.0000 0.0000
# 3 74.0638 74.3788 173.5850 0.0000 0.0000 0.0000
# 4 0.0000 0.0000 0.0000 29.5906 0.0000 0.0000
# 5 0.0000 0.0000 0.0000 0.0000 -37.4166 0.0000
# 6 0.0000 0.0000 0.0000 0.0000 0.0000 28.5847
#
#
#
# Elastic Compliance Matrix: (Units=1/GPa)
#
#
# Indices 1 2 3 4 5 6 
#
# 1 0.017685 -0.004766 -0.005504 0.000000 0.000000 0.000000
# 2 -0.004766 0.017451 -0.005444 0.000000 0.000000 0.000000
# 3 -0.005504 -0.005444 0.010442 0.000000 0.000000 0.000000
# 4 0.000000 0.000000 0.000000 0.033795 0.000000 0.000000
# 5 0.000000 0.000000 0.000000 0.000000 -0.026726 0.000000
# 6 0.000000 0.000000 0.000000 0.000000 0.000000 0.034984
#
#
# Mechanical properties :
#
#
# Convention : Reuss Voigt Hill
#
# Bulk Modulus (GPa) = 70.66782 83.73833 77.20308
# Shear Modulus (GPa) = 40.39620 15.02519 27.71069
#
# Velocity S-wave (km/s) = 4.58866 2.79850 3.80049
# Velocity P-wave (km/s) = 8.05660 7.35455 7.71357
#
# Compressibility (1/GPa) = 0.01415071
#
# Stress axis : x y z
#
# Youngs Moduli (GPa) = 56.54442 57.30370 95.76936
#
# Poissons Ratio (x) = 0.27311 0.52708
# Poissons Ratio (y) = 0.26949 0.52136
# Poissons Ratio (z) = 0.31120 0.31196
#
# Static dielectric constant tensor:
#      x y z
#    x 1.641120 0.000000 0.000000 
#    y 0.000000 1.655510 0.000000 
#    z 0.000000 0.000000 1.653550 
# 
# From -- ./inp_files/15234.got.cif
#   From: 2010.05.17/outbox.cif.g08.bks.cpg/sg35_8_cif.got.tgz:15234.got - 2010.06.03 17:29:28.
