data_PCOD9349773
_publ_section_title
;
Structure prediction by ZEFSAII (Michael W. Deem and Ramdas Pophale) SiO2 
 PCOD9349773
Probable space group: C M M 2
;
_chemical_formula_sum "Si O2"
_cell_formula_units_Z 48
_cell_length_a 20.615158
_cell_length_b 14.953105
_cell_length_c 7.214249
_cell_angle_alpha 90.000000
_cell_angle_beta 90.000000
_cell_angle_gamma 90.000000
_cell_volume 2223.868885
_symmetry_space_group_name_H-M "C M M 2"
_symmetry_group_IT_number 35
_symmetry_cell_setting 'orthorhombic'
loop_
_space_group_symop_operation_xyz
x,y,z
-x,-y,z
-x,y,z
x,-y,z
1/2+x,1/2+y,z
1/2-x,1/2-y,z
1/2-x,1/2+y,z
1/2+x,1/2-y,z
loop_
_atom_site_type_symbol
_atom_site_label
_atom_site_fract_x
_atom_site_fract_y
_atom_site_fract_z
Si Si1 0.071378 0.201059 0.213530
Si Si2 0.571701 0.356565 0.628712
Si Si3 0.894226 0.600452 0.324176
Si Si4 0.573841 0.148656 0.734643
Si Si5 0.309915 0.896051 0.001063
Si Si6 0.166845 0.103183 0.940912
O O1 0.080309 0.149157 0.407904
O O2 0.072147 0.307305 0.258669
O O3 0.000000 0.179843 0.136911
O O4 0.125294 0.166422 0.074650
O O5 0.500000 0.395295 0.668013
O O6 0.569601 0.253338 0.691545
O O7 0.630564 0.397259 0.743563
O O8 0.917971 0.500000 0.267601
O O9 0.899415 0.604025 0.545822
O O10 0.824762 0.610189 0.221071
O O11 0.500000 0.117042 0.775415
O O12 0.626380 0.137253 0.894846
O O13 0.240288 0.860465 0.939850
O O14 0.307188 0.000000 0.952013
O O15 0.167212 0.000000 0.009731
#
# Coordination Sequence:
#
# PCOD9349773 Si02
#       6
#     8   8   8   8   8   8
#     4  10  22  39  60  90 123 154 198 251 297 351
#     4   9  20  38  60  88 117 148 195 251 301 353
#     4  10  21  38  61  89 122 158 193 235 295 362
#     4  10  21  38  61  88 118 152 192 243 301 358
#     4  10  23  39  56  85 121 157 201 246 289 349
#     4  11  24  41  60  84 120 164 205 250 300 344
#
# _framework density 21.584005999999999
#
# number of rings (size 3 to 8) (size 9 to 14) (size 15 to 20)
#    0.000    2.000    0.000    3.500    0.000   11.000 
#    0.000   11.667    0.000    0.000    0.000    0.000 
#    0.000    0.000    0.000    0.000    0.000    0.000 
#
# Total GULP energy -133857.399800 kJ/mol
# GULP energy per Si atom -5577.391658 kJ/mol
# Density = 2.153488 g / cm^3
# Si number density = 21.584006 Si / 1000 Ang^3
#
#
#
# Elastic Constant Matrix: (Units=GPa)
#
#
# Indices 1 2 3 4 5 6 
#
# 1 166.9730 20.2910 81.3701 0.0000 0.0000 0.0000
# 2 20.2910 88.0049 20.6675 0.0000 0.0000 0.0000
# 3 81.3701 20.6675 100.7764 0.0000 0.0000 0.0000
# 4 0.0000 0.0000 0.0000 28.8378 0.0000 0.0000
# 5 0.0000 0.0000 0.0000 0.0000 17.6432 0.0000
# 6 0.0000 0.0000 0.0000 0.0000 0.0000 6.9330
#
#
#
# Elastic Compliance Matrix: (Units=1/GPa)
#
#
# Indices 1 2 3 4 5 6 
#
# 1 0.009890 -0.000425 -0.007898 0.000000 0.000000 0.000000
# 2 -0.000425 0.011956 -0.002109 0.000000 0.000000 0.000000
# 3 -0.007898 -0.002109 0.016732 0.000000 0.000000 0.000000
# 4 0.000000 0.000000 0.000000 0.034677 0.000000 0.000000
# 5 0.000000 0.000000 0.000000 0.000000 0.056679 0.000000
# 6 0.000000 0.000000 0.000000 0.000000 0.000000 0.144238
#
#
# Mechanical properties :
#
#
# Convention : Reuss Voigt Hill
#
# Bulk Modulus (GPa) = 56.45083 66.71240 61.58162
# Shear Modulus (GPa) = 16.61459 26.24452 21.42955
#
# Velocity S-wave (km/s) = 2.77747 3.49079 3.15436
# Velocity P-wave (km/s) = 6.04124 6.87189 6.46991
#
# Compressibility (1/GPa) = 0.01771453
#
# Stress axis : x y z
#
# Youngs Moduli (GPa) = 101.11711 83.63808 59.76430
#
# Poissons Ratio (x) = 0.03558 0.47201
# Poissons Ratio (y) = 0.04302 0.12602
# Poissons Ratio (z) = 0.79861 0.17635
#
# Static dielectric constant tensor:
#      x y z
#    x 1.820240 0.000000 0.000000 
#    y 0.000000 1.828490 0.000000 
#    z 0.000000 0.000000 1.803220 
# 
# From -- ./inp_files/9180.got.cif
#   From: 2010.05.17/outbox.cif.g08.bks.cpg/sg35_5_cif.got.tgz:9180.got - 2010.06.03 17:29:28.
