data_PCOD9349505
_publ_section_title
;
Structure prediction by ZEFSAII (Michael W. Deem and Ramdas Pophale) SiO2 
 PCOD9349505
Probable space group: C M M 2
;
_chemical_formula_sum "Si O2"
_cell_formula_units_Z 58
_cell_length_a 30.145972
_cell_length_b 7.608456
_cell_length_c 12.207111
_cell_angle_alpha 90.000000
_cell_angle_beta 90.000000
_cell_angle_gamma 90.000000
_cell_volume 2799.875488
_symmetry_space_group_name_H-M "C M M 2"
_symmetry_group_IT_number 35
_symmetry_cell_setting 'orthorhombic'
loop_
_space_group_symop_operation_xyz
x,y,z
-x,-y,z
-x,y,z
x,-y,z
1/2+x,1/2+y,z
1/2-x,1/2-y,z
1/2-x,1/2+y,z
1/2+x,1/2-y,z
loop_
_atom_site_type_symbol
_atom_site_label
_atom_site_fract_x
_atom_site_fract_y
_atom_site_fract_z
Si Si1 0.632352 0.302254 0.186470
Si Si2 0.301656 0.710771 0.758024
Si Si3 0.950123 0.211544 0.803705
Si Si4 0.118254 0.213486 0.616626
Si Si5 0.000000 0.000000 0.360178
Si Si6 0.423758 0.195065 0.385022
Si Si7 0.698067 0.711316 0.003502
Si Si8 0.049649 0.296758 0.054199
O O1 0.646609 0.500000 0.215300
O O2 0.615788 0.210877 0.296073
O O3 0.668851 0.220740 0.104691
O O4 0.587801 0.306888 0.113658
O O5 0.306594 0.500000 0.762575
O O6 0.250000 0.750000 0.740633
O O7 0.333689 0.772307 0.660917
O O8 0.314271 0.776310 0.880841
O O9 0.915022 0.265746 0.714080
O O10 0.000000 0.255531 0.767185
O O11 0.947381 0.000000 0.815369
O O12 0.943551 0.287867 0.924059
O O13 0.099041 0.281860 0.503355
O O14 0.117998 0.000000 0.608644
O O15 0.960569 0.154814 0.365136
O O16 0.443343 0.000000 0.376425
O O17 0.691616 0.500000 0.002412
O O18 0.750000 0.750000 0.018383
O O19 0.051893 0.500000 0.088930
O O20 0.000000 0.229044 0.077827
#
# Coordination Sequence:
#
# PCOD9349505 Si02
#       8
#     8   8   8   8   2   8   8   8
#     4  11  22  40  61  85 122 164 209 264 322 382
#     4   9  18  34  59  92 127 166 211 259 322 391
#     4   9  18  32  54  80 110 152 195 241 312 384
#     4  10  20  38  61  86 122 164 209 265 322 383
#     4  12  26  52  68  90 130 176 214 280 320 372
#     4  12  27  44  68  97 124 168 226 267 321 383
#     4   9  19  36  62  94 126 165 209 258 323 390
#     4  10  21  34  50  79 116 152 197 251 307 373
#
# _framework density 20.715205999999998
#
# number of rings (size 3 to 8) (size 9 to 14) (size 15 to 20)
#    0.000    1.931    1.379    1.862    1.931    5.241 
#    0.000    3.448    0.000    0.000    0.000    0.000 
#    0.000    0.000    0.000    0.000    0.000    0.000 
#
# Total GULP energy -161695.480012 kJ/mol
# GULP energy per Si atom -5575.706207 kJ/mol
# Density = 2.066806 g / cm^3
# Si number density = 20.715206 Si / 1000 Ang^3
#
#
#
# Elastic Constant Matrix: (Units=GPa)
#
#
# Indices 1 2 3 4 5 6 
#
# 1 61.9727 11.5070 46.6173 0.0000 0.0000 0.0000
# 2 11.5070 88.9878 9.3852 0.0000 0.0000 0.0000
# 3 46.6173 9.3852 62.4643 0.0000 0.0000 0.0000
# 4 0.0000 0.0000 0.0000 42.1188 0.0000 0.0000
# 5 0.0000 0.0000 0.0000 0.0000 -64.7852 0.0000
# 6 0.0000 0.0000 0.0000 0.0000 0.0000 10.2988
#
#
#
# Elastic Compliance Matrix: (Units=1/GPa)
#
#
# Indices 1 2 3 4 5 6 
#
# 1 0.037105 -0.001908 -0.027405 0.000000 0.000000 0.000000
# 2 -0.001908 0.011517 -0.000307 0.000000 0.000000 0.000000
# 3 -0.027405 -0.000307 0.036507 0.000000 0.000000 0.000000
# 4 0.000000 0.000000 0.000000 0.023742 0.000000 0.000000
# 5 0.000000 0.000000 0.000000 0.000000 -0.015436 0.000000
# 6 0.000000 0.000000 0.000000 0.000000 0.000000 0.097099
#
#
# Mechanical properties :
#
#
# Convention : Reuss Voigt Hill
#
# Bulk Modulus (GPa) = 38.62410 38.71598 38.67004
# Shear Modulus (GPa) = 19.34964 7.25419 13.30192
#
# Velocity S-wave (km/s) = 3.05959 1.87336 2.53678
# Velocity P-wave (km/s) = 5.58276 4.83834 5.22383
#
# Compressibility (1/GPa) = 0.02589057
#
# Stress axis : x y z
#
# Youngs Moduli (GPa) = 26.95066 86.83179 27.39167
#
# Poissons Ratio (x) = 0.16565 0.75066
# Poissons Ratio (y) = 0.05142 0.00840
# Poissons Ratio (z) = 0.73858 0.02662
#
# Static dielectric constant tensor:
#      x y z
#    x 1.735920 0.000000 0.000000 
#    y 0.000000 1.765610 0.000000 
#    z 0.000000 0.000000 1.740570 
# 
# From -- ./inp_files/11815.got.cif
#   From: 2010.05.17/outbox.cif.g08.bks.cpg/sg35_6_cif.got.tgz:11815.got - 2010.06.03 17:29:28.
