data_PCOD9349391
_publ_section_title
;
Structure prediction by ZEFSAII (Michael W. Deem and Ramdas Pophale) SiO2 
 PCOD9349391
Probable space group: C M M 2
;
_chemical_formula_sum "Si O2"
_cell_formula_units_Z 36
_cell_length_a 10.844472
_cell_length_b 14.674756
_cell_length_c 11.797758
_cell_angle_alpha 90.000000
_cell_angle_beta 90.000000
_cell_angle_gamma 90.000000
_cell_volume 1877.494979
_symmetry_space_group_name_H-M "C M M 2"
_symmetry_group_IT_number 35
_symmetry_cell_setting 'orthorhombic'
loop_
_space_group_symop_operation_xyz
x,y,z
-x,-y,z
-x,y,z
x,-y,z
1/2+x,1/2+y,z
1/2-x,1/2-y,z
1/2-x,1/2+y,z
1/2+x,1/2-y,z
loop_
_atom_site_type_symbol
_atom_site_label
_atom_site_fract_x
_atom_site_fract_y
_atom_site_fract_z
Si Si1 0.634783 0.108357 0.424140
Si Si2 0.642205 0.176558 0.168916
Si Si3 0.145630 0.403077 0.926669
Si Si4 0.641997 0.390728 0.588762
Si Si5 0.250000 0.750000 0.765126
O O1 0.500000 0.145986 0.462714
O O2 0.647403 0.129451 0.291343
O O3 0.755008 0.135365 0.495075
O O4 0.628559 0.000000 0.437346
O O5 0.500000 0.211117 0.155869
O O6 0.750000 0.250000 0.167645
O O7 0.667564 0.114025 0.059813
O O8 0.202961 0.500000 0.891895
O O9 0.183101 0.319855 0.848703
O O10 0.000000 0.409756 0.914042
O O11 0.500000 0.382804 0.549879
O O12 0.659639 0.500000 0.617704
O O13 0.666907 0.317522 0.688201
#
# Coordination Sequence:
#
# PCOD9349391 Si02
#       5
#     8   8   8   8   4
#     4   9  19  37  61  87 116 153 196 241 291 353
#     4  10  20  36  59  90 121 151 191 241 296 355
#     4  10  21  38  61  87 117 156 199 243 292 352
#     4  10  23  41  60  86 122 160 198 246 300 349
#     4  12  22  38  60  86 118 156 204 248 294 346
#
# _framework density 19.174484
#
# number of rings (size 3 to 8) (size 9 to 14) (size 15 to 20)
#    0.000    2.000    1.111    2.000    1.556    5.333 
#    0.000    2.222    0.000    3.333    0.000    0.000 
#    0.000    0.000    0.000    0.000    0.000    0.000 
#
# Total GULP energy -100265.171374 kJ/mol
# GULP energy per Si atom -5570.287299 kJ/mol
# Density = 1.913084 g / cm^3
# Si number density = 19.174484 Si / 1000 Ang^3
#
#
#
# Elastic Constant Matrix: (Units=GPa)
#
#
# Indices 1 2 3 4 5 6 
#
# 1 119.5287 49.7932 68.4683 0.0000 0.0000 0.0000
# 2 49.7932 92.7120 53.3380 0.0000 0.0000 0.0000
# 3 68.4683 53.3380 107.8307 0.0000 0.0000 0.0000
# 4 0.0000 0.0000 0.0000 6.7731 0.0000 0.0000
# 5 0.0000 0.0000 0.0000 0.0000 10.4682 0.0000
# 6 0.0000 0.0000 0.0000 0.0000 0.0000 -27.1625
#
#
#
# Elastic Compliance Matrix: (Units=1/GPa)
#
#
# Indices 1 2 3 4 5 6 
#
# 1 0.013845 -0.003324 -0.007147 0.000000 0.000000 0.000000
# 2 -0.003324 0.015875 -0.005742 0.000000 0.000000 0.000000
# 3 -0.007147 -0.005742 0.016652 0.000000 0.000000 0.000000
# 4 0.000000 0.000000 0.000000 0.147642 0.000000 0.000000
# 5 0.000000 0.000000 0.000000 0.000000 0.095527 0.000000
# 6 0.000000 0.000000 0.000000 0.000000 0.000000 -0.036815
#
#
# Mechanical properties :
#
#
# Convention : Reuss Voigt Hill
#
# Bulk Modulus (GPa) = 71.70358 73.69672 72.70015
# Shear Modulus (GPa) = 17.25338 7.91389 12.58364
#
# Velocity S-wave (km/s) = 3.00294 2.03378 2.56456
# Velocity P-wave (km/s) = 7.03562 6.63575 6.83861
#
# Compressibility (1/GPa) = 0.01394631
#
# Stress axis : x y z
#
# Youngs Moduli (GPa) = 72.23018 62.99380 60.05419
#
# Poissons Ratio (x) = 0.20940 0.42918
# Poissons Ratio (y) = 0.24010 0.34481
# Poissons Ratio (z) = 0.51620 0.36168
#
# Static dielectric constant tensor:
#      x y z
#    x 1.675310 0.000000 0.000000 
#    y 0.000000 1.727930 0.000000 
#    z 0.000000 0.000000 1.693730 
# 
# From -- ./inp_files/12128.got.cif
#   From: 2010.05.17/outbox.cif.g08.bks.cpg/sg35_7_cif.got.tgz:12128.got - 2010.06.03 17:29:28.
