data_PCOD9349155
_publ_section_title
;
Structure prediction by ZEFSAII (Michael W. Deem and Ramdas Pophale) SiO2 
 PCOD9349155
Probable space group: C M M 2
;
_chemical_formula_sum "Si O2"
_cell_formula_units_Z 48
_cell_length_a 7.848182
_cell_length_b 18.175243
_cell_length_c 17.699836
_cell_angle_alpha 90.000000
_cell_angle_beta 90.000000
_cell_angle_gamma 90.000000
_cell_volume 2524.750891
_symmetry_space_group_name_H-M "C M M 2"
_symmetry_group_IT_number 35
_symmetry_cell_setting 'orthorhombic'
loop_
_space_group_symop_operation_xyz
x,y,z
-x,-y,z
-x,y,z
x,-y,z
1/2+x,1/2+y,z
1/2-x,1/2-y,z
1/2-x,1/2+y,z
1/2+x,1/2-y,z
loop_
_atom_site_type_symbol
_atom_site_label
_atom_site_fract_x
_atom_site_fract_y
_atom_site_fract_z
Si Si1 0.000000 0.411346 0.655431
Si Si2 0.702720 0.835346 0.254777
Si Si3 0.205557 0.164013 0.559262
Si Si4 0.500000 0.089576 0.830783
Si Si5 0.688580 0.588529 0.934458
Si Si6 0.703014 0.417626 0.406544
Si Si7 0.795588 0.664119 0.087307
O O1 0.170654 0.379689 0.616128
O O2 0.000000 0.389034 0.743542
O O3 0.000000 0.500000 0.649749
O O4 0.500000 0.839611 0.251839
O O5 0.750000 0.750000 0.266639
O O6 0.760809 0.883370 0.325067
O O7 0.766471 0.858225 0.171332
O O8 0.250000 0.250000 0.564630
O O9 0.255362 0.134405 0.475720
O O10 0.000000 0.153390 0.570750
O O11 0.334426 0.114471 0.877317
O O12 0.500000 0.000000 0.831684
O O13 0.500000 0.609453 0.908087
O O14 0.698154 0.500000 0.938253
O O15 0.718663 0.619820 0.017942
O O16 0.500000 0.422981 0.413235
O O17 0.775721 0.500000 0.413711
O O18 0.750000 0.750000 0.079032
O O19 0.000000 0.655790 0.084257
#
# Coordination Sequence:
#
# PCOD9349155 Si02
#       7
#     4   8   8   4   8   8   8
#     4  11  24  42  70  99 126 166 207 259 324 374
#     4  10  21  35  54  80 112 158 201 247 299 356
#     4  11  23  42  67  94 128 168 210 258 312 383
#     4   9  20  40  62  89 123 154 195 247 299 366
#     4  10  20  36  61  88 117 156 199 242 297 361
#     4  10  22  38  57  85 120 155 201 256 304 356
#     4  10  20  35  55  80 117 154 201 252 300 357
#
# _framework density 19.011776000000001
#
# number of rings (size 3 to 8) (size 9 to 14) (size 15 to 20)
#    0.000    1.833    1.667    2.000    1.167    6.000 
#    0.000    5.833    0.000    0.000    0.000    0.000 
#    0.000    0.000    0.000    0.000    0.000    0.000 
#
# Total GULP energy -133961.419982 kJ/mol
# GULP energy per Si atom -5581.725833 kJ/mol
# Density = 1.896850 g / cm^3
# Si number density = 19.011776 Si / 1000 Ang^3
#
#
#
# Elastic Constant Matrix: (Units=GPa)
#
#
# Indices 1 2 3 4 5 6 
#
# 1 112.9229 35.4216 69.6096 0.0000 0.0000 0.0000
# 2 35.4216 71.4196 55.2858 0.0000 0.0000 0.0000
# 3 69.6096 55.2858 159.9903 0.0000 0.0000 0.0000
# 4 0.0000 0.0000 0.0000 51.6236 0.0000 0.0000
# 5 0.0000 0.0000 0.0000 0.0000 -12.8725 0.0000
# 6 0.0000 0.0000 0.0000 0.0000 0.0000 20.3620
#
#
#
# Elastic Compliance Matrix: (Units=1/GPa)
#
#
# Indices 1 2 3 4 5 6 
#
# 1 0.012474 -0.002710 -0.004491 0.000000 0.000000 0.000000
# 2 -0.002710 0.019704 -0.005630 0.000000 0.000000 0.000000
# 3 -0.004491 -0.005630 0.010150 0.000000 0.000000 0.000000
# 4 0.000000 0.000000 0.000000 0.019371 0.000000 0.000000
# 5 0.000000 0.000000 0.000000 0.000000 -0.077685 0.000000
# 6 0.000000 0.000000 0.000000 0.000000 0.000000 0.049111
#
#
# Mechanical properties :
#
#
# Convention : Reuss Voigt Hill
#
# Bulk Modulus (GPa) = 60.00200 73.88519 66.94359
# Shear Modulus (GPa) = 77.71066 24.09033 50.90050
#
# Velocity S-wave (km/s) = 6.40029 3.56353 5.17989
# Velocity P-wave (km/s) = 9.28694 7.47522 8.42989
#
# Compressibility (1/GPa) = 0.01666611
#
# Stress axis : x y z
#
# Youngs Moduli (GPa) = 80.16667 50.75150 98.52689
#
# Poissons Ratio (x) = 0.13756 0.44245
# Poissons Ratio (y) = 0.21729 0.55466
# Poissons Ratio (z) = 0.36000 0.28571
#
# Static dielectric constant tensor:
#      x y z
#    x 1.682830 0.000000 0.000000 
#    y 0.000000 1.637670 0.000000 
#    z 0.000000 0.000000 1.650220 
# 
# From -- ./inp_files/15278.got.cif
#   From: 2010.05.17/outbox.cif.g08.bks.cpg/sg35_8_cif.got.tgz:15278.got - 2010.06.03 17:29:28.
