data_PCOD9349716
_publ_section_title
;
Structure prediction by ZEFSAII (Michael W. Deem and Ramdas Pophale) SiO2 
 PCOD9349716
Probable space group: C M M 2
;
_chemical_formula_sum "Si O2"
_cell_formula_units_Z 40
_cell_length_a 8.929089
_cell_length_b 15.847953
_cell_length_c 14.565570
_cell_angle_alpha 90.000000
_cell_angle_beta 90.000000
_cell_angle_gamma 90.000000
_cell_volume 2061.141516
_symmetry_space_group_name_H-M "C M M 2"
_symmetry_group_IT_number 35
_symmetry_cell_setting 'orthorhombic'
loop_
_space_group_symop_operation_xyz
x,y,z
-x,-y,z
-x,y,z
x,-y,z
1/2+x,1/2+y,z
1/2-x,1/2-y,z
1/2-x,1/2+y,z
1/2+x,1/2-y,z
loop_
_atom_site_type_symbol
_atom_site_label
_atom_site_fract_x
_atom_site_fract_y
_atom_site_fract_z
Si Si1 0.320396 0.843512 0.648920
Si Si2 0.828417 0.902502 0.040048
Si Si3 0.177974 0.342053 0.861364
Si Si4 0.320755 0.500000 0.539839
Si Si5 0.321978 0.835451 0.219059
Si Si6 0.179903 0.500000 0.339900
O O1 0.500000 0.839501 0.634368
O O2 0.250000 0.750000 0.634378
O O3 0.294078 0.867893 0.755997
O O4 0.247135 0.916058 0.587310
O O5 0.740534 0.851040 0.116939
O O6 0.000000 0.872975 0.034524
O O7 0.827330 0.000000 0.069160
O O8 0.752786 0.896402 0.940752
O O9 0.250000 0.250000 0.871785
O O10 0.000000 0.338848 0.874897
O O11 0.500000 0.500000 0.548210
O O12 0.268772 0.500000 0.434450
O O13 0.500000 0.827180 0.215392
O O14 0.250000 0.750000 0.256680
O O15 0.284911 0.916684 0.280756
O O16 0.000000 0.500000 0.357623
#
# Coordination Sequence:
#
# PCOD9349716 Si02
#       6
#     8   8   8   4   8   4
#     4  10  22  42  66  94 128 167 212 262 313 371
#     4  11  23  37  57  88 126 166 207 255 302 360
#     4  10  21  37  59  86 121 163 207 253 302 360
#     4  12  26  42  67  96 127 166 205 258 320 380
#     4  11  23  42  67  93 123 163 205 253 309 367
#     4  10  24  46  67  90 123 160 205 260 314 374
#
# _framework density 19.406721000000001
#
# number of rings (size 3 to 8) (size 9 to 14) (size 15 to 20)
#    0.000    1.400    1.000    3.900    1.400    6.000 
#    0.000    2.000    0.000    0.000    0.000    0.000 
#    0.000    0.000    0.000    0.000    0.000    0.000 
#
# Total GULP energy -111798.241161 kJ/mol
# GULP energy per Si atom -5589.912058 kJ/mol
# Density = 1.936255 g / cm^3
# Si number density = 19.406721 Si / 1000 Ang^3
#
#
#
# Elastic Constant Matrix: (Units=GPa)
#
#
# Indices 1 2 3 4 5 6 
#
# 1 120.3541 77.8938 85.8206 0.0000 0.0000 0.0000
# 2 77.8938 134.2868 76.7469 0.0000 0.0000 0.0000
# 3 85.8206 76.7469 113.9747 0.0000 0.0000 0.0000
# 4 0.0000 0.0000 0.0000 1.1137 0.0000 0.0000
# 5 0.0000 0.0000 0.0000 0.0000 31.0936 0.0000
# 6 0.0000 0.0000 0.0000 0.0000 0.0000 33.3462
#
#
#
# Elastic Compliance Matrix: (Units=1/GPa)
#
#
# Indices 1 2 3 4 5 6 
#
# 1 0.019670 -0.004787 -0.011587 0.000000 0.000000 0.000000
# 2 -0.004787 0.013270 -0.005331 0.000000 0.000000 0.000000
# 3 -0.011587 -0.005331 0.021089 0.000000 0.000000 0.000000
# 4 0.000000 0.000000 0.000000 0.897922 0.000000 0.000000
# 5 0.000000 0.000000 0.000000 0.000000 0.032161 0.000000
# 6 0.000000 0.000000 0.000000 0.000000 0.000000 0.029988
#
#
# Mechanical properties :
#
#
# Convention : Reuss Voigt Hill
#
# Bulk Modulus (GPa) = 94.18497 94.39314 94.28905
# Shear Modulus (GPa) = 4.71231 21.65431 13.18331
#
# Velocity S-wave (km/s) = 1.55995 3.34401 2.60920
# Velocity P-wave (km/s) = 7.20292 7.97840 7.60056
#
# Compressibility (1/GPa) = 0.01061741
#
# Stress axis : x y z
#
# Youngs Moduli (GPa) = 50.83985 75.35536 47.41859
#
# Poissons Ratio (x) = 0.36074 0.54945
# Poissons Ratio (y) = 0.24338 0.25280
# Poissons Ratio (z) = 0.58910 0.40174
#
# Static dielectric constant tensor:
#      x y z
#    x 1.651520 0.000000 0.000000 
#    y 0.000000 1.671200 0.000000 
#    z 0.000000 0.000000 1.656570 
# 
# From -- ./inp_files/14724.got.cif
#   From: 2010.05.17/outbox.cif.g08.bks.cpg/sg35_8_cif.got.tgz:14724.got - 2010.06.03 17:29:28.
