data_PCOD9349714
_publ_section_title
;
Structure prediction by ZEFSAII (Michael W. Deem and Ramdas Pophale) SiO2 
 PCOD9349714
Probable space group: C M M 2
;
_chemical_formula_sum "Si O2"
_cell_formula_units_Z 58
_cell_length_a 15.170499
_cell_length_b 18.305915
_cell_length_c 9.203631
_cell_angle_alpha 90.000000
_cell_angle_beta 90.000000
_cell_angle_gamma 90.000000
_cell_volume 2555.939124
_symmetry_space_group_name_H-M "C M M 2"
_symmetry_group_IT_number 35
_symmetry_cell_setting 'orthorhombic'
loop_
_space_group_symop_operation_xyz
x,y,z
-x,-y,z
-x,y,z
x,-y,z
1/2+x,1/2+y,z
1/2-x,1/2-y,z
1/2-x,1/2+y,z
1/2+x,1/2-y,z
loop_
_atom_site_type_symbol
_atom_site_label
_atom_site_fract_x
_atom_site_fract_y
_atom_site_fract_z
Si Si1 0.899457 0.346900 0.599210
Si Si2 0.595080 0.916344 0.303264
Si Si3 0.288841 0.582123 0.319069
Si Si4 0.394784 0.290116 0.396030
Si Si5 0.601973 0.261186 0.055208
Si Si6 0.646930 0.578420 0.002123
Si Si7 0.160675 0.384024 0.907716
Si Si8 0.500000 0.000000 0.962408
O O1 0.901926 0.409860 0.477484
O O2 0.874172 0.275461 0.506170
O O3 0.843313 0.368991 0.735793
O O4 0.000000 0.335493 0.651571
O O5 0.500000 0.881229 0.263408
O O6 0.692697 0.891411 0.263075
O O7 0.588688 0.000000 0.254112
O O8 0.277140 0.500000 0.377789
O O9 0.334291 0.639655 0.424436
O O10 0.350156 0.576581 0.177859
O O11 0.500000 0.305035 0.405533
O O12 0.376380 0.268400 0.227564
O O13 0.500000 0.241655 0.043890
O O14 0.611291 0.339956 0.975676
O O15 0.654552 0.195337 0.983256
O O16 0.607176 0.500000 0.954043
O O17 0.747189 0.580138 0.948537
O O18 0.078500 0.435633 0.951539
#
# Coordination Sequence:
#
# PCOD9349714 Si02
#       8
#     8   8   8   8   8   8   8   2
#     4  10  21  37  59  86 116 155 200 249 300 375
#     4   9  19  34  53  78 113 154 191 237 302 365
#     4   9  19  38  58  88 123 156 201 261 311 369
#     4   9  20  38  63  89 118 157 205 255 315 377
#     4  10  21  41  66  91 124 166 211 262 321 382
#     4  10  22  39  62  92 127 163 213 267 316 376
#     4  12  23  41  63  90 127 167 212 258 320 380
#     4  12  24  40  68  94 124 176 208 258 324 380
#
# _framework density 22.692245
#
# number of rings (size 3 to 8) (size 9 to 14) (size 15 to 20)
#    0.000    2.069    2.069    0.414    2.897    1.103 
#    6.207    2.759    0.000    0.828    0.000    1.931 
#    0.000    0.000    0.000    0.000    0.000    0.000 
#
# Total GULP energy -161629.634945 kJ/mol
# GULP energy per Si atom -5573.435688 kJ/mol
# Density = 2.264060 g / cm^3
# Si number density = 22.692245 Si / 1000 Ang^3
#
#
#
# Elastic Constant Matrix: (Units=GPa)
#
#
# Indices 1 2 3 4 5 6 
#
# 1 60.3557 41.9710 5.3115 0.0000 0.0000 0.0000
# 2 41.9710 172.6741 26.8784 0.0000 0.0000 0.0000
# 3 5.3115 26.8784 71.6165 0.0000 0.0000 0.0000
# 4 0.0000 0.0000 0.0000 6.4438 0.0000 0.0000
# 5 0.0000 0.0000 0.0000 0.0000 18.1482 0.0000
# 6 0.0000 0.0000 0.0000 0.0000 0.0000 36.1876
#
#
#
# Elastic Compliance Matrix: (Units=1/GPa)
#
#
# Indices 1 2 3 4 5 6 
#
# 1 0.019947 -0.004905 0.000361 0.000000 0.000000 0.000000
# 2 -0.004905 0.007357 -0.002397 0.000000 0.000000 0.000000
# 3 0.000361 -0.002397 0.014836 0.000000 0.000000 0.000000
# 4 0.000000 0.000000 0.000000 0.155188 0.000000 0.000000
# 5 0.000000 0.000000 0.000000 0.000000 0.055102 0.000000
# 6 0.000000 0.000000 0.000000 0.000000 0.000000 0.027634
#
#
# Mechanical properties :
#
#
# Convention : Reuss Voigt Hill
#
# Bulk Modulus (GPa) = 35.38705 50.32978 42.85841
# Shear Modulus (GPa) = 16.48181 27.52161 22.00171
#
# Velocity S-wave (km/s) = 2.69795 3.48633 3.11717
# Velocity P-wave (km/s) = 5.03324 6.19947 5.64655
#
# Compressibility (1/GPa) = 0.02825893
#
# Stress axis : x y z
#
# Youngs Moduli (GPa) = 50.13192 135.93264 67.40283
#
# Poissons Ratio (x) = 0.66672 -0.02436
# Poissons Ratio (y) = 0.24589 0.16158
# Poissons Ratio (z) = -0.01812 0.32586
#
# Static dielectric constant tensor:
#      x y z
#    x 1.861990 0.000000 0.000000 
#    y 0.000000 1.944540 0.000000 
#    z 0.000000 0.000000 1.858950 
# 
# From -- ./inp_files/8609.got.cif
#   From: 2010.05.17/outbox.cif.g08.bks.cpg/sg35_5_cif.got.tgz:8609.got - 2010.06.03 17:29:28.
