data_PCOD9349948
_publ_section_title
;
Structure prediction by ZEFSAII (Michael W. Deem and Ramdas Pophale) SiO2 
 PCOD9349948
Probable space group: C M M 2
;
_chemical_formula_sum "Si O2"
_cell_formula_units_Z 64
_cell_length_a 29.860485
_cell_length_b 8.902386
_cell_length_c 12.602017
_cell_angle_alpha 90.000000
_cell_angle_beta 90.000000
_cell_angle_gamma 90.000000
_cell_volume 3349.988680
_symmetry_space_group_name_H-M "C M M 2"
_symmetry_group_IT_number 35
_symmetry_cell_setting 'orthorhombic'
loop_
_space_group_symop_operation_xyz
x,y,z
-x,-y,z
-x,y,z
x,-y,z
1/2+x,1/2+y,z
1/2-x,1/2-y,z
1/2-x,1/2+y,z
1/2+x,1/2-y,z
loop_
_atom_site_type_symbol
_atom_site_label
_atom_site_fract_x
_atom_site_fract_y
_atom_site_fract_z
Si Si1 0.202972 0.678524 0.801790
Si Si2 0.103149 0.318935 0.277860
Si Si3 0.112561 0.820980 0.872754
Si Si4 0.918683 0.177109 0.499145
Si Si5 0.827259 0.677258 0.562528
Si Si6 0.450383 0.823746 0.701515
Si Si7 0.795821 0.323389 0.327018
Si Si8 0.947397 0.818682 0.077359
O O1 0.204052 0.500000 0.814781
O O2 0.250000 0.750000 0.833675
O O3 0.161151 0.745676 0.865892
O O4 0.195165 0.709101 0.675505
O O5 0.102265 0.500000 0.283480
O O6 0.080855 0.249993 0.383204
O O7 0.155959 0.271159 0.281108
O O8 0.076408 0.259257 0.176932
O O9 0.085257 0.764847 0.770758
O O10 0.117518 0.000000 0.870313
O O11 0.082114 0.779874 0.973968
O O12 0.869452 0.215483 0.545242
O O13 0.950009 0.259866 0.582988
O O14 0.926770 0.000000 0.494943
O O15 0.841330 0.500000 0.563396
O O16 0.798876 0.696668 0.455079
O O17 0.500000 0.804463 0.747851
O O18 0.439287 0.000000 0.700677
O O19 0.793199 0.500000 0.306120
O O20 0.750000 0.250000 0.287589
O O21 0.000000 0.776987 0.067119
O O22 0.945763 0.000000 0.090032
#
# Coordination Sequence:
#
# PCOD9349948 Si02
#       8
#     8   8   8   8   8   8   8   8
#     4  11  22  36  58  87 124 165 207 252 299 357
#     4  10  22  40  61  87 121 157 199 249 302 359
#     4  11  23  41  64  90 122 157 198 251 310 367
#     4  11  21  34  57  86 120 161 200 244 300 360
#     4   9  18  33  52  79 120 162 200 246 294 347
#     4  11  23  38  58  86 121 160 200 245 302 367
#     4   9  18  32  52  82 118 157 197 239 287 343
#     4  10  23  44  68  92 117 149 196 254 309 365
#
# _framework density 19.104543
#
# number of rings (size 3 to 8) (size 9 to 14) (size 15 to 20)
#    0.000    1.750    1.250    4.125    0.000    6.250 
#    0.000    0.625    0.000    1.500    0.000    0.000 
#    0.000    0.000    0.000    0.000    0.000    0.000 
#
# Total GULP energy -178663.944099 kJ/mol
# GULP energy per Si atom -5583.248253 kJ/mol
# Density = 1.906106 g / cm^3
# Si number density = 19.104543 Si / 1000 Ang^3
#
#
#
# Elastic Constant Matrix: (Units=GPa)
#
#
# Indices 1 2 3 4 5 6 
#
# 1 139.2238 46.7323 65.8163 0.0000 0.0000 0.0000
# 2 46.7323 49.3006 42.7400 0.0000 0.0000 0.0000
# 3 65.8163 42.7400 105.1215 0.0000 0.0000 0.0000
# 4 0.0000 0.0000 0.0000 110.3411 0.0000 0.0000
# 5 0.0000 0.0000 0.0000 0.0000 7.1480 0.0000
# 6 0.0000 0.0000 0.0000 0.0000 0.0000 28.5314
#
#
#
# Elastic Compliance Matrix: (Units=1/GPa)
#
#
# Indices 1 2 3 4 5 6 
#
# 1 0.011693 -0.007316 -0.004347 0.000000 0.000000 0.000000
# 2 -0.007316 0.035902 -0.010017 0.000000 0.000000 0.000000
# 3 -0.004347 -0.010017 0.016307 0.000000 0.000000 0.000000
# 4 0.000000 0.000000 0.000000 0.009063 0.000000 0.000000
# 5 0.000000 0.000000 0.000000 0.000000 0.139899 0.000000
# 6 0.000000 0.000000 0.000000 0.000000 0.000000 0.035049
#
#
# Mechanical properties :
#
#
# Convention : Reuss Voigt Hill
#
# Bulk Modulus (GPa) = 48.67612 67.13589 57.90601
# Shear Modulus (GPa) = 16.77185 38.42792 27.59988
#
# Velocity S-wave (km/s) = 2.96615 4.48979 3.80501
# Velocity P-wave (km/s) = 6.10450 7.88005 7.04841
#
# Compressibility (1/GPa) = 0.02054395
#
# Stress axis : x y z
#
# Youngs Moduli (GPa) = 85.52045 27.85362 61.32448
#
# Poissons Ratio (x) = 0.20377 0.26655
# Poissons Ratio (y) = 0.62565 0.61426
# Poissons Ratio (z) = 0.37172 0.27900
#
# Static dielectric constant tensor:
#      x y z
#    x 1.713130 0.000000 0.000000 
#    y 0.000000 1.606920 0.000000 
#    z 0.000000 0.000000 1.661690 
# 
# From -- ./inp_files/14527.got.cif
#   From: 2010.05.17/outbox.cif.g08.bks.cpg/sg35_8_cif.got.tgz:14527.got - 2010.06.03 17:29:28.
