data_PCOD9349964
_publ_section_title
;
Structure prediction by ZEFSAII (Michael W. Deem and Ramdas Pophale) SiO2 
 PCOD9349964
Probable space group: C M M 2
;
_chemical_formula_sum "Si O2"
_cell_formula_units_Z 48
_cell_length_a 16.796453
_cell_length_b 10.219945
_cell_length_c 14.372585
_cell_angle_alpha 90.000000
_cell_angle_beta 90.000000
_cell_angle_gamma 90.000000
_cell_volume 2467.181066
_symmetry_space_group_name_H-M "C M M 2"
_symmetry_group_IT_number 35
_symmetry_cell_setting 'orthorhombic'
loop_
_space_group_symop_operation_xyz
x,y,z
-x,-y,z
-x,y,z
x,-y,z
1/2+x,1/2+y,z
1/2-x,1/2-y,z
1/2-x,1/2+y,z
1/2+x,1/2-y,z
loop_
_atom_site_type_symbol
_atom_site_label
_atom_site_fract_x
_atom_site_fract_y
_atom_site_fract_z
Si Si1 0.654575 0.742102 0.494550
Si Si2 0.905744 0.500000 0.595668
Si Si3 0.677818 0.000000 0.797751
Si Si4 0.093549 0.727267 0.912377
Si Si5 0.590229 0.500000 0.603558
Si Si6 0.368672 0.500000 0.815212
Si Si7 0.404254 0.351794 0.096851
Si Si8 0.673471 0.655989 0.295721
O O1 0.750000 0.750000 0.492069
O O2 0.617196 0.874020 0.534390
O O3 0.632328 0.627276 0.564291
O O4 0.629525 0.701878 0.390014
O O5 0.855966 0.500000 0.692230
O O6 0.000000 0.500000 0.617203
O O7 0.643824 0.874663 0.852751
O O8 0.773199 0.000000 0.801863
O O9 0.103357 0.870330 0.867804
O O10 0.000000 0.689875 0.910831
O O11 0.121683 0.747491 0.019077
O O12 0.500000 0.500000 0.569814
O O13 0.593527 0.500000 0.713700
O O14 0.500000 0.352367 0.093903
O O15 0.376957 0.500000 0.072417
O O16 0.375775 0.326535 0.201214
O O17 0.692881 0.500000 0.305439
O O18 0.750000 0.750000 0.287421
#
# Coordination Sequence:
#
# PCOD9349964 Si02
#       8
#     8   4   4   8   4   4   8   8
#     4  11  23  42  65  91 125 166 208 257 317 372
#     4  12  26  44  63  90 129 170 207 260 324 380
#     4  12  26  42  63  92 131 166 209 260 328 372
#     4  11  22  42  65  91 125 168 212 259 315 373
#     4  12  24  40  63  94 121 158 215 266 304 372
#     4  12  24  40  63  92 121 164 213 262 310 378
#     4   9  19  39  65  92 123 164 209 257 309 365
#     4  10  22  40  66  95 128 165 206 255 313 371
#
# _framework density 19.455403
#
# number of rings (size 3 to 8) (size 9 to 14) (size 15 to 20)
#    0.000    1.167    1.667    5.000    3.500    2.667 
#    1.500    0.000    0.000    0.000    0.000    0.000 
#    0.000    0.000    0.000    0.000    0.000    0.000 
#
# Total GULP energy -134115.560506 kJ/mol
# GULP energy per Si atom -5588.148354 kJ/mol
# Density = 1.941112 g / cm^3
# Si number density = 19.455403 Si / 1000 Ang^3
#
#
#
# Elastic Constant Matrix: (Units=GPa)
#
#
# Indices 1 2 3 4 5 6 
#
# 1 54.4851 -0.0457 1.1522 0.0000 0.0000 0.0000
# 2 -0.0457 116.0448 40.7650 0.0000 0.0000 0.0000
# 3 1.1522 40.7650 130.7246 0.0000 0.0000 0.0000
# 4 0.0000 0.0000 0.0000 34.3017 0.0000 0.0000
# 5 0.0000 0.0000 0.0000 0.0000 32.8863 0.0000
# 6 0.0000 0.0000 0.0000 0.0000 0.0000 20.5068
#
#
#
# Elastic Compliance Matrix: (Units=1/GPa)
#
#
# Indices 1 2 3 4 5 6 
#
# 1 0.018358 0.000072 -0.000184 0.000000 0.000000 0.000000
# 2 0.000072 0.009678 -0.003019 0.000000 0.000000 0.000000
# 3 -0.000184 -0.003019 0.008593 0.000000 0.000000 0.000000
# 4 0.000000 0.000000 0.000000 0.029153 0.000000 0.000000
# 5 0.000000 0.000000 0.000000 0.000000 0.030408 0.000000
# 6 0.000000 0.000000 0.000000 0.000000 0.000000 0.048764
#
#
# Mechanical properties :
#
#
# Convention : Reuss Voigt Hill
#
# Bulk Modulus (GPa) = 32.93123 42.77748 37.85435
# Shear Modulus (GPa) = 30.99103 34.83115 32.91109
#
# Velocity S-wave (km/s) = 3.99548 4.23579 4.11739
# Velocity P-wave (km/s) = 6.18453 6.77922 6.48869
#
# Compressibility (1/GPa) = 0.03036631
#
# Stress axis : x y z
#
# Youngs Moduli (GPa) = 54.47336 103.32970 116.37934
#
# Poissons Ratio (x) = -0.00743 0.02144
# Poissons Ratio (y) = -0.00392 0.35129
# Poissons Ratio (z) = 0.01004 0.31190
#
# Static dielectric constant tensor:
#      x y z
#    x 1.659380 0.000000 0.000000 
#    y 0.000000 1.648920 0.000000 
#    z 0.000000 0.000000 1.683650 
# 
# From -- ./inp_files/17152.got.cif
#   From: 2010.05.17/outbox.cif.g08.bks.cpg/sg35_9_cif.got.tgz:17152.got - 2010.06.03 17:29:28.
