data_PCOD9349722
_publ_section_title
;
Structure prediction by ZEFSAII (Michael W. Deem and Ramdas Pophale) SiO2 
 PCOD9349722
Probable space group: C M M 2
;
_chemical_formula_sum "Si O2"
_cell_formula_units_Z 64
_cell_length_a 8.618070
_cell_length_b 31.796497
_cell_length_c 12.204750
_cell_angle_alpha 90.000000
_cell_angle_beta 90.000000
_cell_angle_gamma 90.000000
_cell_volume 3344.399746
_symmetry_space_group_name_H-M "C M M 2"
_symmetry_group_IT_number 35
_symmetry_cell_setting 'orthorhombic'
loop_
_space_group_symop_operation_xyz
x,y,z
-x,-y,z
-x,y,z
x,-y,z
1/2+x,1/2+y,z
1/2-x,1/2-y,z
1/2-x,1/2+y,z
1/2+x,1/2-y,z
loop_
_atom_site_type_symbol
_atom_site_label
_atom_site_fract_x
_atom_site_fract_y
_atom_site_fract_z
Si Si1 0.188938 0.453353 0.535140
Si Si2 0.814136 0.423799 0.293660
Si Si3 0.185582 0.952860 0.063729
Si Si4 0.814519 0.204914 0.064029
Si Si5 0.814351 0.795511 0.537605
Si Si6 0.687826 0.126725 0.676017
Si Si7 0.685892 0.874100 0.930009
Si Si8 0.687454 0.670708 0.299888
O O1 0.240985 0.500000 0.568310
O O2 0.233245 0.444067 0.409458
O O3 0.241168 0.415258 0.612254
O O4 0.000000 0.453149 0.537893
O O5 0.737514 0.445279 0.188802
O O6 0.764139 0.375113 0.295857
O O7 0.000000 0.426937 0.283777
O O8 0.000000 0.949679 0.057736
O O9 0.232835 0.000000 0.029669
O O10 0.258182 0.916158 0.990690
O O11 0.750000 0.250000 0.028913
O O12 0.768147 0.195729 0.190312
O O13 0.000000 0.205474 0.058767
O O14 0.752817 0.166511 0.991640
O O15 0.750000 0.750000 0.568735
O O16 0.751506 0.832434 0.614564
O O17 0.767336 0.806336 0.412256
O O18 0.000000 0.794936 0.542279
O O19 0.500000 0.127883 0.670999
O O20 0.734066 0.125701 0.802939
O O21 0.500000 0.872367 0.935216
O O22 0.500000 0.665648 0.299499
#
# Coordination Sequence:
#
# PCOD9349722 Si02
#       8
#     8   8   8   8   8   8   8   8
#     4   9  18  34  58  89 121 153 190 237 294 349
#     4  11  20  33  61  92 122 157 196 243 294 357
#     4  11  24  41  61  87 124 164 199 243 301 361
#     4  11  23  40  63  89 122 158 196 244 301 360
#     4  11  23  39  62  90 122 158 199 244 295 358
#     4  10  22  41  62  86 118 156 201 252 301 349
#     4  11  24  41  63  89 117 156 207 256 302 354
#     4  10  21  37  59  89 123 158 193 239 301 361
#
# _framework density 19.136467
#
# number of rings (size 3 to 8) (size 9 to 14) (size 15 to 20)
#    0.000    1.500    2.500    2.625    0.000    4.500 
#    0.000    1.250    0.000    1.125    0.000    0.000 
#    0.000    0.000    0.000    0.000    0.000    0.000 
#
# Total GULP energy -178872.443603 kJ/mol
# GULP energy per Si atom -5589.763863 kJ/mol
# Density = 1.909291 g / cm^3
# Si number density = 19.136467 Si / 1000 Ang^3
#
#
#
# Elastic Constant Matrix: (Units=GPa)
#
#
# Indices 1 2 3 4 5 6 
#
# 1 25.6672 36.8407 34.9057 0.0000 0.0000 0.0000
# 2 36.8407 202.6134 94.5879 0.0000 0.0000 0.0000
# 3 34.9057 94.5879 157.8135 0.0000 0.0000 0.0000
# 4 0.0000 0.0000 0.0000 -0.7852 0.0000 0.0000
# 5 0.0000 0.0000 0.0000 0.0000 15.0947 0.0000
# 6 0.0000 0.0000 0.0000 0.0000 0.0000 27.4063
#
#
#
# Elastic Compliance Matrix: (Units=1/GPa)
#
#
# Indices 1 2 3 4 5 6 
#
# 1 0.061691 -0.006730 -0.009611 0.000000 0.000000 0.000000
# 2 -0.006730 0.007587 -0.003059 0.000000 0.000000 0.000000
# 3 -0.009611 -0.003059 0.010296 0.000000 0.000000 0.000000
# 4 0.000000 0.000000 0.000000 -1.273618 0.000000 0.000000
# 5 0.000000 0.000000 0.000000 0.000000 0.066249 0.000000
# 6 0.000000 0.000000 0.000000 0.000000 0.000000 0.036488
#
#
# Mechanical properties :
#
#
# Convention : Reuss Voigt Hill
#
# Bulk Modulus (GPa) = 24.52581 79.86252 52.19417
# Shear Modulus (GPa) = -4.81271 22.99381 9.09055
#
# Velocity S-wave (km/s) = -1.58758 3.47013 2.18190
# Velocity P-wave (km/s) = 3.07954 7.60786 5.80358
#
# Compressibility (1/GPa) = 0.04077338
#
# Stress axis : x y z
#
# Youngs Moduli (GPa) = 16.20986 131.79946 97.12663
#
# Poissons Ratio (x) = 0.88704 0.93350
# Poissons Ratio (y) = 0.10910 0.29710
# Poissons Ratio (z) = 0.15579 0.40317
#
# Static dielectric constant tensor:
#      x y z
#    x 1.647500 0.000000 0.000000 
#    y 0.000000 1.641620 0.000000 
#    z 0.000000 0.000000 1.652550 
# 
# From -- ./inp_files/11846.got.cif
#   From: 2010.05.17/outbox.cif.g08.bks.cpg/sg35_6_cif.got.tgz:11846.got - 2010.06.03 17:29:28.
