data_PCOD9349280
_publ_section_title
;
Structure prediction by ZEFSAII (Michael W. Deem and Ramdas Pophale) SiO2 
 PCOD9349280
Probable space group: C M M 2
;
_chemical_formula_sum "Si O2"
_cell_formula_units_Z 56
_cell_length_a 13.908297
_cell_length_b 18.682082
_cell_length_c 9.248722
_cell_angle_alpha 90.000000
_cell_angle_beta 90.000000
_cell_angle_gamma 90.000000
_cell_volume 2403.150421
_symmetry_space_group_name_H-M "C M M 2"
_symmetry_group_IT_number 35
_symmetry_cell_setting 'orthorhombic'
loop_
_space_group_symop_operation_xyz
x,y,z
-x,-y,z
-x,y,z
x,-y,z
1/2+x,1/2+y,z
1/2-x,1/2-y,z
1/2-x,1/2+y,z
1/2+x,1/2-y,z
loop_
_atom_site_type_symbol
_atom_site_label
_atom_site_fract_x
_atom_site_fract_y
_atom_site_fract_z
Si Si1 0.606087 0.606895 0.211000
Si Si2 0.315949 0.422700 0.509897
Si Si3 0.606540 0.142882 0.771471
Si Si4 0.252215 0.370364 0.996189
Si Si5 0.115695 0.811332 0.750437
Si Si6 0.608882 0.777481 0.192439
Si Si7 0.393954 0.889960 0.437768
O O1 0.500000 0.591146 0.152733
O O2 0.612108 0.583175 0.375817
O O3 0.621753 0.693134 0.211762
O O4 0.692655 0.580767 0.110327
O O5 0.326480 0.500000 0.584471
O O6 0.335497 0.357692 0.621403
O O7 0.212554 0.421778 0.428098
O O8 0.500000 0.140525 0.834840
O O9 0.680013 0.101538 0.873653
O O10 0.634981 0.226205 0.748757
O O11 0.600861 0.114324 0.610167
O O12 0.337997 0.336276 0.901085
O O13 0.183865 0.315765 0.086081
O O14 0.000000 0.821174 0.744008
O O15 0.500000 0.787986 0.137720
O O16 0.614183 0.815961 0.348655
O O17 0.500000 0.919242 0.390588
#
# Coordination Sequence:
#
# PCOD9349280 Si02
#       7
#     8   8   8   8   8   8   8
#     4  11  23  38  59  91 127 161 202 250 302 362
#     4  12  26  44  65  84 113 167 224 262 295 340
#     4  10  20  35  61  97 128 155 190 243 316 384
#     4  12  21  34  61  95 132 163 185 236 313 387
#     4  11  23  38  59  91 127 161 202 250 302 362
#     4  10  20  35  61  97 128 155 190 243 316 384
#     4  10  21  39  64  91 118 151 197 255 315 369
#
# _framework density 23.302744000000001
#
# number of rings (size 3 to 8) (size 9 to 14) (size 15 to 20)
#    0.000    1.143    2.857    4.714    0.000    7.143 
#    0.000    0.714    0.000    1.714    0.000    4.000 
#    0.000    0.000    0.000    0.000    0.000    0.000 
#
# Total GULP energy -156270.487879 kJ/mol
# GULP energy per Si atom -5581.088853 kJ/mol
# Density = 2.324971 g / cm^3
# Si number density = 23.302744 Si / 1000 Ang^3
#
#
#
# Elastic Constant Matrix: (Units=GPa)
#
#
# Indices 1 2 3 4 5 6 
#
# 1 160.9596 29.3165 32.8920 0.0000 0.0000 0.0000
# 2 29.3165 62.2704 13.3775 0.0000 0.0000 0.0000
# 3 32.8920 13.3775 91.3997 0.0000 0.0000 0.0000
# 4 0.0000 0.0000 0.0000 -12.2188 0.0000 0.0000
# 5 0.0000 0.0000 0.0000 0.0000 46.5052 0.0000
# 6 0.0000 0.0000 0.0000 0.0000 0.0000 92.4106
#
#
#
# Elastic Compliance Matrix: (Units=1/GPa)
#
#
# Indices 1 2 3 4 5 6 
#
# 1 0.007186 -0.002919 -0.002159 0.000000 0.000000 0.000000
# 2 -0.002919 0.017766 -0.001550 0.000000 0.000000 0.000000
# 3 -0.002159 -0.001550 0.011945 0.000000 0.000000 0.000000
# 4 0.000000 0.000000 0.000000 -0.081841 0.000000 0.000000
# 5 0.000000 0.000000 0.000000 0.000000 0.021503 0.000000
# 6 0.000000 0.000000 0.000000 0.000000 0.000000 0.010821
#
#
# Mechanical properties :
#
#
# Convention : Reuss Voigt Hill
#
# Bulk Modulus (GPa) = 42.29894 51.75575 47.02734
# Shear Modulus (GPa) = 587.21529 41.27566 314.24547
#
# Velocity S-wave (km/s) = 15.89154 4.21322 11.62524
# Velocity P-wave (km/s) = 18.83913 6.77692 14.15697
#
# Compressibility (1/GPa) = 0.02364126
#
# Stress axis : x y z
#
# Youngs Moduli (GPa) = 139.16853 56.28648 83.71981
#
# Poissons Ratio (x) = 0.16431 0.18072
# Poissons Ratio (y) = 0.40626 0.12975
# Poissons Ratio (z) = 0.30041 0.08723
#
# Static dielectric constant tensor:
#      x y z
#    x 1.970780 0.000000 0.000000 
#    y 0.000000 1.885950 0.000000 
#    z 0.000000 0.000000 1.866940 
# 
# From -- ./inp_files/7590.got.cif
#   From: 2010.05.17/outbox.cif.g08.bks.cpg/sg35_4_cif.got.tgz:7590.got - 2010.06.03 17:29:28.
