data_PCOD9349944
_publ_section_title
;
Structure prediction by ZEFSAII (Michael W. Deem and Ramdas Pophale) SiO2 
 PCOD9349944
Probable space group: C M M 2
;
_chemical_formula_sum "Si O2"
_cell_formula_units_Z 40
_cell_length_a 8.047779
_cell_length_b 16.166420
_cell_length_c 14.999995
_cell_angle_alpha 90.000000
_cell_angle_beta 90.000000
_cell_angle_gamma 90.000000
_cell_volume 1951.555980
_symmetry_space_group_name_H-M "C M M 2"
_symmetry_group_IT_number 35
_symmetry_cell_setting 'orthorhombic'
loop_
_space_group_symop_operation_xyz
x,y,z
-x,-y,z
-x,y,z
x,-y,z
1/2+x,1/2+y,z
1/2-x,1/2-y,z
1/2-x,1/2+y,z
1/2+x,1/2-y,z
loop_
_atom_site_type_symbol
_atom_site_label
_atom_site_fract_x
_atom_site_fract_y
_atom_site_fract_z
Si Si1 0.801932 0.661011 0.949600
Si Si2 0.698226 0.000000 0.635919
Si Si3 0.798988 0.345700 0.520627
Si Si4 0.200214 0.654769 0.321380
Si Si5 0.195817 0.000000 0.839253
Si Si6 0.202070 0.406365 0.132031
O O1 0.750000 0.750000 0.912965
O O2 0.746453 0.582440 0.892530
O O3 0.000000 0.658412 0.953154
O O4 0.736839 0.650704 0.051430
O O5 0.761710 0.084429 0.589266
O O6 0.500000 0.000000 0.621065
O O7 0.728569 0.000000 0.740732
O O8 0.750000 0.250000 0.537969
O O9 0.742271 0.370401 0.420221
O O10 0.000000 0.346248 0.520849
O O11 0.250000 0.750000 0.312131
O O12 0.263416 0.611226 0.231832
O O13 0.000000 0.646341 0.321899
O O14 0.000000 0.000000 0.829556
O O15 0.242479 0.500000 0.106721
O O16 0.000000 0.399591 0.135364
#
# Coordination Sequence:
#
# PCOD9349944 Si02
#       6
#     8   4   8   8   4   8
#     4  11  22  40  64  90 121 158 197 242 295 351
#     4  10  22  40  61  84 112 148 191 242 297 352
#     4   9  19  35  57  85 116 151 190 234 283 339
#     4   9  17  30  51  79 113 150 190 230 272 332
#     4  12  26  44  63  88 116 150 197 250 305 360
#     4   9  17  30  53  84 117 154 193 233 278 335
#
# _framework density 20.496465000000001
#
# number of rings (size 3 to 8) (size 9 to 14) (size 15 to 20)
#    0.000    2.200    1.000    2.100    1.400    1.600 
#    0.000    3.000    0.000    0.000    0.000    0.000 
#    0.000    0.000    0.000    0.000    0.000    0.000 
#
# Total GULP energy -111577.893519 kJ/mol
# GULP energy per Si atom -5578.894676 kJ/mol
# Density = 2.044981 g / cm^3
# Si number density = 20.496465 Si / 1000 Ang^3
#
#
#
# Elastic Constant Matrix: (Units=GPa)
#
#
# Indices 1 2 3 4 5 6 
#
# 1 8.6421 -3.3880 -7.5584 0.0000 0.0000 0.0000
# 2 -3.3880 131.3092 77.1609 0.0000 0.0000 0.0000
# 3 -7.5584 77.1609 125.0444 0.0000 0.0000 0.0000
# 4 0.0000 0.0000 0.0000 16.7416 0.0000 0.0000
# 5 0.0000 0.0000 0.0000 0.0000 1.2663 0.0000
# 6 0.0000 0.0000 0.0000 0.0000 0.0000 25.5881
#
#
#
# Elastic Compliance Matrix: (Units=1/GPa)
#
#
# Indices 1 2 3 4 5 6 
#
# 1 0.122463 -0.001867 0.008554 0.000000 0.000000 0.000000
# 2 -0.001867 0.011977 -0.007503 0.000000 0.000000 0.000000
# 3 0.008554 -0.007503 0.013144 0.000000 0.000000 0.000000
# 4 0.000000 0.000000 0.000000 0.059732 0.000000 0.000000
# 5 0.000000 0.000000 0.000000 0.000000 0.789728 0.000000
# 6 0.000000 0.000000 0.000000 0.000000 0.000000 0.039081
#
#
# Mechanical properties :
#
#
# Convention : Reuss Voigt Hill
#
# Bulk Modulus (GPa) = 6.85157 44.15829 25.50493
# Shear Modulus (GPa) = 4.60233 21.97126 13.28679
#
# Velocity S-wave (km/s) = 1.50010 3.27762 2.54883
# Velocity P-wave (km/s) = 2.52001 5.99290 4.59703
#
# Compressibility (1/GPa) = 0.14595186
#
# Stress axis : x y z
#
# Youngs Moduli (GPa) = 8.16575 83.49681 76.07923
#
# Poissons Ratio (x) = 0.15589 -0.65081
# Poissons Ratio (y) = 0.01525 0.57084
# Poissons Ratio (z) = -0.06985 0.62649
#
# Static dielectric constant tensor:
#      x y z
#    x 1.734420 0.000000 0.000000 
#    y 0.000000 1.707690 0.000000 
#    z 0.000000 0.000000 1.763970 
# 
# From -- ./inp_files/14757.got.cif
#   From: 2010.05.17/outbox.cif.g08.bks.cpg/sg35_8_cif.got.tgz:14757.got - 2010.06.03 17:29:28.
