data_PCOD9349468
_publ_section_title
;
Structure prediction by ZEFSAII (Michael W. Deem and Ramdas Pophale) SiO2 
 PCOD9349468
Probable space group: C M M 2
;
_chemical_formula_sum "Si O2"
_cell_formula_units_Z 48
_cell_length_a 8.488920
_cell_length_b 14.800540
_cell_length_c 18.538481
_cell_angle_alpha 90.000000
_cell_angle_beta 90.000000
_cell_angle_gamma 90.000000
_cell_volume 2329.185876
_symmetry_space_group_name_H-M "C M M 2"
_symmetry_group_IT_number 35
_symmetry_cell_setting 'orthorhombic'
loop_
_space_group_symop_operation_xyz
x,y,z
-x,-y,z
-x,y,z
x,-y,z
1/2+x,1/2+y,z
1/2-x,1/2-y,z
1/2-x,1/2+y,z
1/2+x,1/2-y,z
loop_
_atom_site_type_symbol
_atom_site_label
_atom_site_fract_x
_atom_site_fract_y
_atom_site_fract_z
Si Si1 0.313058 0.500000 0.933980
Si Si2 0.687097 0.147746 0.041538
Si Si3 0.810228 0.147307 0.662973
Si Si4 0.310530 0.353670 0.193422
Si Si5 0.190427 0.146594 0.504631
Si Si6 0.813194 0.500000 0.772112
Si Si7 0.809197 0.146213 0.349446
O O1 0.500000 0.500000 0.938152
O O2 0.260129 0.500000 0.851380
O O3 0.248231 0.586637 0.976744
O O4 0.500000 0.149742 0.041708
O O5 0.750000 0.250000 0.035103
O O6 0.744438 0.108879 0.118782
O O7 0.750000 0.250000 0.668807
O O8 0.761199 0.110816 0.583145
O O9 0.000000 0.146102 0.666277
O O10 0.742311 0.086142 0.725960
O O11 0.500000 0.355306 0.189457
O O12 0.250000 0.250000 0.194498
O O13 0.261070 0.392854 0.271532
O O14 0.250000 0.250000 0.504410
O O15 0.242053 0.106934 0.427103
O O16 0.000000 0.145234 0.504373
O O17 0.000000 0.500000 0.778625
O O18 0.750000 0.250000 0.349613
O O19 0.000000 0.145695 0.349189
#
# Coordination Sequence:
#
# PCOD9349468 Si02
#       7
#     4   8   8   8   8   4   8
#     4  12  26  46  68  91 116 145 186 237 294 353
#     4  11  22  39  62  90 122 157 195 236 286 343
#     4  10  20  37  61  89 120 156 196 239 289 344
#     4   9  15  25  44  73 109 150 194 237 282 331
#     4   8  14  25  44  72 107 146 189 234 280 330
#     4  12  26  44  64  89 118 149 188 235 290 351
#     4   8  13  21  37  66 104 144 188 235 278 324
#
# _framework density 20.608059000000001
#
# number of rings (size 3 to 8) (size 9 to 14) (size 15 to 20)
#    0.000    2.333    0.000    5.000    0.000    2.000 
#    0.000    3.333    0.000    1.000    0.000    3.500 
#    0.000    0.000    0.000    0.000    0.000    0.000 
#
# Total GULP energy -133866.217931 kJ/mol
# GULP energy per Si atom -5577.759080 kJ/mol
# Density = 2.056115 g / cm^3
# Si number density = 20.608059 Si / 1000 Ang^3
#
#
#
# Elastic Constant Matrix: (Units=GPa)
#
#
# Indices 1 2 3 4 5 6 
#
# 1 97.8648 22.2248 54.7193 0.0000 0.0000 0.0000
# 2 22.2248 92.3795 64.0224 0.0000 0.0000 0.0000
# 3 54.7193 64.0224 236.2750 0.0000 0.0000 0.0000
# 4 0.0000 0.0000 0.0000 60.4112 0.0000 0.0000
# 5 0.0000 0.0000 0.0000 0.0000 28.8866 0.0000
# 6 0.0000 0.0000 0.0000 0.0000 0.0000 16.4073
#
#
#
# Elastic Compliance Matrix: (Units=1/GPa)
#
#
# Indices 1 2 3 4 5 6 
#
# 1 0.011840 -0.001167 -0.002426 0.000000 0.000000 0.000000
# 2 -0.001167 0.013443 -0.003372 0.000000 0.000000 0.000000
# 3 -0.002426 -0.003372 0.005708 0.000000 0.000000 0.000000
# 4 0.000000 0.000000 0.000000 0.016553 0.000000 0.000000
# 5 0.000000 0.000000 0.000000 0.000000 0.034618 0.000000
# 6 0.000000 0.000000 0.000000 0.000000 0.000000 0.060948
#
#
# Mechanical properties :
#
#
# Convention : Reuss Voigt Hill
#
# Bulk Modulus (GPa) = 58.61701 78.71694 68.66697
# Shear Modulus (GPa) = 30.72632 40.17787 35.45209
#
# Velocity S-wave (km/s) = 3.86552 4.42024 4.15215
# Velocity P-wave (km/s) = 6.95906 8.02069 7.50866
#
# Compressibility (1/GPa) = 0.01705989
#
# Stress axis : x y z
#
# Youngs Moduli (GPa) = 84.46285 74.38919 175.19687
#
# Poissons Ratio (x) = 0.08684 0.42496
# Poissons Ratio (y) = 0.09860 0.59080
# Poissons Ratio (z) = 0.20488 0.25086
#
# Static dielectric constant tensor:
#      x y z
#    x 1.687230 0.000000 0.000000 
#    y 0.000000 1.755930 0.000000 
#    z 0.000000 0.000000 1.783090 
# 
# From -- ./inp_files/17914.got.cif
#   From: 2010.05.17/outbox.cif.g08.bks.cpg/sg35_9_cif.got.tgz:17914.got - 2010.06.03 17:29:28.
