data_PCOD9349238
_publ_section_title
;
Structure prediction by ZEFSAII (Michael W. Deem and Ramdas Pophale) SiO2 
 PCOD9349238
Probable space group: C M M 2
;
_chemical_formula_sum "Si O2"
_cell_formula_units_Z 64
_cell_length_a 22.107004
_cell_length_b 15.166019
_cell_length_c 9.981920
_cell_angle_alpha 90.000000
_cell_angle_beta 90.000000
_cell_angle_gamma 90.000000
_cell_volume 3346.690651
_symmetry_space_group_name_H-M "C M M 2"
_symmetry_group_IT_number 35
_symmetry_cell_setting 'orthorhombic'
loop_
_space_group_symop_operation_xyz
x,y,z
-x,-y,z
-x,y,z
x,-y,z
1/2+x,1/2+y,z
1/2-x,1/2-y,z
1/2-x,1/2+y,z
1/2+x,1/2-y,z
loop_
_atom_site_type_symbol
_atom_site_label
_atom_site_fract_x
_atom_site_fract_y
_atom_site_fract_z
Si Si1 0.372996 0.101629 0.316160
Si Si2 0.839582 0.898022 0.482098
Si Si3 0.790605 0.839135 0.933143
Si Si4 0.069743 0.260013 0.521518
Si Si5 0.124923 0.714398 0.792003
Si Si6 0.262057 0.354859 0.234128
Si Si7 0.230054 0.598141 0.681779
Si Si8 0.570505 0.894536 0.031449
O O1 0.394995 0.165698 0.434342
O O2 0.301485 0.104507 0.283347
O O3 0.404336 0.131317 0.177086
O O4 0.390310 0.000000 0.344394
O O5 0.894199 0.831219 0.502944
O O6 0.813966 0.885224 0.333787
O O7 0.782091 0.875594 0.577330
O O8 0.855031 0.000000 0.508095
O O9 0.750000 0.750000 0.934235
O O10 0.852737 0.803117 0.867312
O O11 0.761761 0.904019 0.826274
O O12 0.783924 0.874266 0.083110
O O13 0.073431 0.276562 0.681173
O O14 0.000000 0.257240 0.478189
O O15 0.178828 0.671006 0.703337
O O16 0.107313 0.649293 0.911663
O O17 0.250000 0.250000 0.243599
O O18 0.207015 0.500000 0.645497
O O19 0.500000 0.871241 0.020751
O O20 0.576470 0.000000 0.022175
#
# Coordination Sequence:
#
# PCOD9349238 Si02
#       8
#     8   8   8   8   8   8   8   8
#     4  11  23  40  63  95 132 167 205 253 313 377
#     4  11  24  41  62  90 119 156 205 258 319 376
#     4   9  19  33  55  88 121 152 188 238 301 370
#     4  12  26  43  64  87 121 171 217 261 309 364
#     4  11  21  36  59  89 122 160 205 254 307 369
#     4  11  20  35  62  93 126 155 194 250 315 380
#     4  10  20  35  57  87 122 154 188 245 312 370
#     4  10  21  37  56  83 124 170 210 247 292 362
#
# _framework density 19.123367999999999
#
# number of rings (size 3 to 8) (size 9 to 14) (size 15 to 20)
#    0.000    1.375    2.500    4.500    0.000    5.000 
#    0.000    0.000    0.000    0.000    0.000    0.000 
#    0.000    0.000    0.000    0.000    0.000    0.000 
#
# Total GULP energy -178631.982544 kJ/mol
# GULP energy per Si atom -5582.249455 kJ/mol
# Density = 1.907984 g / cm^3
# Si number density = 19.123368 Si / 1000 Ang^3
#
#
#
# Elastic Constant Matrix: (Units=GPa)
#
#
# Indices 1 2 3 4 5 6 
#
# 1 67.2361 21.8188 33.6260 0.0000 0.0000 0.0000
# 2 21.8188 60.3985 20.8154 0.0000 0.0000 0.0000
# 3 33.6260 20.8154 120.3765 0.0000 0.0000 0.0000
# 4 0.0000 0.0000 0.0000 -21.9483 0.0000 0.0000
# 5 0.0000 0.0000 0.0000 0.0000 25.0841 0.0000
# 6 0.0000 0.0000 0.0000 0.0000 0.0000 14.9560
#
#
#
# Elastic Compliance Matrix: (Units=1/GPa)
#
#
# Indices 1 2 3 4 5 6 
#
# 1 0.018750 -0.005283 -0.004324 0.000000 0.000000 0.000000
# 2 -0.005283 0.019095 -0.001826 0.000000 0.000000 0.000000
# 3 -0.004324 -0.001826 0.009831 0.000000 0.000000 0.000000
# 4 0.000000 0.000000 0.000000 -0.045562 0.000000 0.000000
# 5 0.000000 0.000000 0.000000 0.000000 0.039866 0.000000
# 6 0.000000 0.000000 0.000000 0.000000 0.000000 0.066863
#
#
# Mechanical properties :
#
#
# Convention : Reuss Voigt Hill
#
# Bulk Modulus (GPa) = 40.30806 44.50352 42.40579
# Shear Modulus (GPa) = 35.71969 15.06840 25.39404
#
# Velocity S-wave (km/s) = 4.32656 2.81010 3.64800
# Velocity P-wave (km/s) = 6.78841 5.81818 6.32193
#
# Compressibility (1/GPa) = 0.02480893
#
# Stress axis : x y z
#
# Youngs Moduli (GPa) = 53.33349 52.37100 101.72002
#
# Poissons Ratio (x) = 0.27668 0.43984
# Poissons Ratio (y) = 0.28177 0.18574
# Poissons Ratio (z) = 0.23062 0.09563
#
# Static dielectric constant tensor:
#      x y z
#    x 1.666680 0.000000 0.000000 
#    y 0.000000 1.698980 0.000000 
#    z 0.000000 0.000000 1.683270 
# 
# From -- ./inp_files/7875.got.cif
#   From: 2010.05.17/outbox.cif.g08.bks.cpg/sg35_4_cif.got.tgz:7875.got - 2010.06.03 17:29:28.
