data_PCOD9349373
_publ_section_title
;
Structure prediction by ZEFSAII (Michael W. Deem and Ramdas Pophale) SiO2 
 PCOD9349373
Probable space group: C M M 2
;
_chemical_formula_sum "Si O2"
_cell_formula_units_Z 48
_cell_length_a 8.498687
_cell_length_b 29.114146
_cell_length_c 10.553209
_cell_angle_alpha 90.000000
_cell_angle_beta 90.000000
_cell_angle_gamma 90.000000
_cell_volume 2611.201758
_symmetry_space_group_name_H-M "C M M 2"
_symmetry_group_IT_number 35
_symmetry_cell_setting 'orthorhombic'
loop_
_space_group_symop_operation_xyz
x,y,z
-x,-y,z
-x,y,z
x,-y,z
1/2+x,1/2+y,z
1/2-x,1/2-y,z
1/2-x,1/2+y,z
1/2+x,1/2-y,z
loop_
_atom_site_type_symbol
_atom_site_label
_atom_site_fract_x
_atom_site_fract_y
_atom_site_fract_z
Si Si1 0.688964 0.698287 0.040190
Si Si2 0.189742 0.447793 0.888141
Si Si3 0.687837 0.644540 0.786648
Si Si4 0.188427 0.697980 0.542639
Si Si5 0.191569 0.551342 0.182927
Si Si6 0.190339 0.353415 0.288606
O O1 0.500000 0.698143 0.045331
O O2 0.750000 0.750000 0.031427
O O3 0.754801 0.674659 0.166141
O O4 0.739969 0.670253 0.915556
O O5 0.234437 0.500000 0.853757
O O6 0.260768 0.408176 0.802012
O O7 0.000000 0.444860 0.883521
O O8 0.237011 0.440537 0.035779
O O9 0.500000 0.647435 0.779189
O O10 0.759142 0.670068 0.666152
O O11 0.250000 0.750000 0.545592
O O12 0.245123 0.671330 0.416559
O O13 0.000000 0.699635 0.539133
O O14 0.244217 0.500000 0.219611
O O15 0.244071 0.593905 0.268460
O O16 0.000000 0.550856 0.184529
O O17 0.000000 0.353646 0.290373
#
# Coordination Sequence:
#
# PCOD9349373 Si02
#       6
#     8   8   8   8   8   8
#     4  11  23  36  54  81 109 141 185 235 286 338
#     4   9  17  32  58  88 116 149 188 232 282 335
#     4  11  23  38  57  83 114 152 191 233 286 339
#     4  11  24  40  58  81 111 152 195 236 287 345
#     4   8  14  28  54  86 115 144 180 224 275 327
#     4  10  20  36  59  85 113 147 186 232 285 335
#
# _framework density 18.382341
#
# number of rings (size 3 to 8) (size 9 to 14) (size 15 to 20)
#    0.000    2.000    1.667    3.500    0.000    6.333 
#    0.000    0.833    0.000    3.500    0.000    0.000 
#    0.000    0.000    0.000    0.000    0.000    0.000 
#
# Total GULP energy -133994.145390 kJ/mol
# GULP energy per Si atom -5583.089391 kJ/mol
# Density = 1.834050 g / cm^3
# Si number density = 18.382341 Si / 1000 Ang^3
#
#
#
# Elastic Constant Matrix: (Units=GPa)
#
#
# Indices 1 2 3 4 5 6 
#
# 1 17.5614 27.9518 27.7493 0.0000 0.0000 0.0000
# 2 27.9518 190.6426 96.1177 0.0000 0.0000 0.0000
# 3 27.7493 96.1177 147.1508 0.0000 0.0000 0.0000
# 4 0.0000 0.0000 0.0000 28.0892 0.0000 0.0000
# 5 0.0000 0.0000 0.0000 0.0000 20.3574 0.0000
# 6 0.0000 0.0000 0.0000 0.0000 0.0000 19.4551
#
#
#
# Elastic Compliance Matrix: (Units=1/GPa)
#
#
# Indices 1 2 3 4 5 6 
#
# 1 0.086405 -0.006640 -0.011957 0.000000 0.000000 0.000000
# 2 -0.006640 0.008331 -0.004190 0.000000 0.000000 0.000000
# 3 -0.011957 -0.004190 0.011787 0.000000 0.000000 0.000000
# 4 0.000000 0.000000 0.000000 0.035601 0.000000 0.000000
# 5 0.000000 0.000000 0.000000 0.000000 0.049122 0.000000
# 6 0.000000 0.000000 0.000000 0.000000 0.000000 0.051400
#
#
# Mechanical properties :
#
#
# Convention : Reuss Voigt Hill
#
# Bulk Modulus (GPa) = 16.40683 73.22140 44.81411
# Shear Modulus (GPa) = 16.20548 27.14941 21.67744
#
# Velocity S-wave (km/s) = 2.97236 3.84725 3.43775
# Velocity P-wave (km/s) = 4.55243 7.72360 6.33951
#
# Compressibility (1/GPa) = 0.06095022
#
# Stress axis : x y z
#
# Youngs Moduli (GPa) = 11.57338 120.02762 84.83743
#
# Poissons Ratio (x) = 0.79702 1.01437
# Poissons Ratio (y) = 0.07685 0.35545
# Poissons Ratio (z) = 0.13838 0.50289
#
# Static dielectric constant tensor:
#      x y z
#    x 1.630910 0.000000 0.000000 
#    y 0.000000 1.634870 0.000000 
#    z 0.000000 0.000000 1.609120 
# 
# From -- ./inp_files/5310.got.cif
#   From: 2010.05.17/outbox.cif.g08.bks.cpg/sg35_3_cif.got.tgz:5310.got - 2010.06.03 17:29:28.
