data_PCOD9349718
_publ_section_title
;
Structure prediction by ZEFSAII (Michael W. Deem and Ramdas Pophale) SiO2 
 PCOD9349718
Probable space group: C M M 2
;
_chemical_formula_sum "Si O2"
_cell_formula_units_Z 56
_cell_length_a 8.543659
_cell_length_b 22.924507
_cell_length_c 15.351482
_cell_angle_alpha 90.000000
_cell_angle_beta 90.000000
_cell_angle_gamma 90.000000
_cell_volume 3006.728531
_symmetry_space_group_name_H-M "C M M 2"
_symmetry_group_IT_number 35
_symmetry_cell_setting 'orthorhombic'
loop_
_space_group_symop_operation_xyz
x,y,z
-x,-y,z
-x,y,z
x,-y,z
1/2+x,1/2+y,z
1/2-x,1/2-y,z
1/2-x,1/2+y,z
1/2+x,1/2-y,z
loop_
_atom_site_type_symbol
_atom_site_label
_atom_site_fract_x
_atom_site_fract_y
_atom_site_fract_z
Si Si1 0.314586 0.876320 0.701300
Si Si2 0.811176 0.314747 0.526682
Si Si3 0.813205 0.098421 0.018736
Si Si4 0.689211 0.182706 0.329289
Si Si5 0.810294 0.430671 0.210320
Si Si6 0.177857 0.500000 0.900845
Si Si7 0.814861 0.185567 0.873211
Si Si8 0.819704 0.000000 0.719679
O O1 0.500000 0.868290 0.705596
O O2 0.252853 0.846484 0.613353
O O3 0.248748 0.852630 0.792699
O O4 0.269363 0.942982 0.690496
O O5 0.750000 0.250000 0.535451
O O6 0.763195 0.332644 0.428955
O O7 0.000000 0.317243 0.527883
O O8 0.761155 0.087704 0.117197
O O9 0.000000 0.086579 0.011254
O O10 0.711638 0.054668 0.961045
O O11 0.781838 0.159360 0.969274
O O12 0.500000 0.187087 0.324605
O O13 0.750000 0.250000 0.309401
O O14 0.733968 0.124924 0.272612
O O15 0.766517 0.500000 0.229941
O O16 0.000000 0.430834 0.205978
O O17 0.302569 0.500000 0.824007
O O18 0.000000 0.500000 0.866705
O O19 0.750000 0.250000 0.864845
O O20 0.000000 0.186318 0.863316
O O21 0.000000 0.000000 0.693901
#
# Coordination Sequence:
#
# PCOD9349718 Si02
#       8
#     8   8   8   8   8   4   8   4
#     4  11  22  37  58  85 115 150 194 240 289 344
#     4   9  19  36  59  86 113 148 192 236 288 345
#     4  11  23  38  58  83 114 151 190 236 286 338
#     4   9  19  38  61  87 117 151 194 243 299 357
#     4  10  21  37  59  87 116 152 197 244 295 354
#     4  12  22  36  60  83 108 147 192 233 274 332
#     4  11  24  39  56  81 116 154 193 238 289 340
#     4  12  24  38  56  81 116 155 194 235 286 342
#
# _framework density 18.624894000000001
#
# number of rings (size 3 to 8) (size 9 to 14) (size 15 to 20)
#    0.000    1.571    2.143    3.000    0.000    5.143 
#    1.286    2.857    0.000    0.000    0.000    0.000 
#    0.000    0.000    0.000    0.000    0.000    0.000 
#
# Total GULP energy -155977.301454 kJ/mol
# GULP energy per Si atom -5570.617909 kJ/mol
# Density = 1.858250 g / cm^3
# Si number density = 18.624894 Si / 1000 Ang^3
#
#
#
# Elastic Constant Matrix: (Units=GPa)
#
#
# Indices 1 2 3 4 5 6 
#
# 1 19.5833 17.3003 16.6030 0.0000 0.0000 0.0000
# 2 17.3003 118.1352 69.6359 0.0000 0.0000 0.0000
# 3 16.6030 69.6359 112.8790 0.0000 0.0000 0.0000
# 4 0.0000 0.0000 0.0000 31.5846 0.0000 0.0000
# 5 0.0000 0.0000 0.0000 0.0000 17.9511 0.0000
# 6 0.0000 0.0000 0.0000 0.0000 0.0000 24.3695
#
#
#
# Elastic Compliance Matrix: (Units=1/GPa)
#
#
# Indices 1 2 3 4 5 6 
#
# 1 0.060685 -0.005697 -0.005411 0.000000 0.000000 0.000000
# 2 -0.005697 0.013837 -0.007698 0.000000 0.000000 0.000000
# 3 -0.005411 -0.007698 0.014404 0.000000 0.000000 0.000000
# 4 0.000000 0.000000 0.000000 0.031661 0.000000 0.000000
# 5 0.000000 0.000000 0.000000 0.000000 0.055707 0.000000
# 6 0.000000 0.000000 0.000000 0.000000 0.000000 0.041035
#
#
# Mechanical properties :
#
#
# Convention : Reuss Voigt Hill
#
# Bulk Modulus (GPa) = 19.48847 50.85286 35.17066
# Shear Modulus (GPa) = 18.37926 24.58493 21.48209
#
# Velocity S-wave (km/s) = 3.14476 3.63713 3.39987
# Velocity P-wave (km/s) = 4.86543 6.70830 5.85976
#
# Compressibility (1/GPa) = 0.05131240
#
# Stress axis : x y z
#
# Youngs Moduli (GPa) = 16.47864 72.27026 69.42522
#
# Poissons Ratio (x) = 0.41174 0.37567
# Poissons Ratio (y) = 0.09388 0.53444
# Poissons Ratio (z) = 0.08917 0.55635
#
# Static dielectric constant tensor:
#      x y z
#    x 1.629000 0.000000 0.000000 
#    y 0.000000 1.691090 0.000000 
#    z 0.000000 0.000000 1.666590 
# 
# From -- ./inp_files/15706.got.cif
#   From: 2010.05.17/outbox.cif.g08.bks.cpg/sg35_8_cif.got.tgz:15706.got - 2010.06.03 17:29:28.
