data_PCOD9349851
_publ_section_title
;
Structure prediction by ZEFSAII (Michael W. Deem and Ramdas Pophale) SiO2 
 PCOD9349851
Probable space group: C M M 2
;
_chemical_formula_sum "Si O2"
_cell_formula_units_Z 48
_cell_length_a 7.853986
_cell_length_b 15.545425
_cell_length_c 19.685392
_cell_angle_alpha 90.000000
_cell_angle_beta 90.000000
_cell_angle_gamma 90.000000
_cell_volume 2403.459399
_symmetry_space_group_name_H-M "C M M 2"
_symmetry_group_IT_number 35
_symmetry_cell_setting 'orthorhombic'
loop_
_space_group_symop_operation_xyz
x,y,z
-x,-y,z
-x,y,z
x,-y,z
1/2+x,1/2+y,z
1/2-x,1/2-y,z
1/2-x,1/2+y,z
1/2+x,1/2-y,z
loop_
_atom_site_type_symbol
_atom_site_label
_atom_site_fract_x
_atom_site_fract_y
_atom_site_fract_z
Si Si1 0.295693 0.850457 0.905030
Si Si2 0.803615 0.000000 0.661602
Si Si3 0.796101 0.654426 0.404782
Si Si4 0.500000 0.605713 0.146347
Si Si5 0.703290 0.000000 0.506164
Si Si6 0.299953 0.151330 0.757642
Si Si7 0.500000 0.396379 0.303541
Si Si8 0.306558 0.101698 0.053755
O O1 0.500000 0.864109 0.906186
O O2 0.250000 0.750000 0.906818
O O3 0.227925 0.879760 0.831154
O O4 0.237681 0.888132 0.976751
O O5 0.733641 0.085348 0.697556
O O6 0.777299 0.000000 0.581202
O O7 0.000000 0.000000 0.677166
O O8 0.750000 0.750000 0.429144
O O9 0.752538 0.583650 0.461739
O O10 0.670145 0.636158 0.341737
O O11 0.000000 0.648193 0.389731
O O12 0.500000 0.500000 0.144137
O O13 0.500000 0.630497 0.225042
O O14 0.668454 0.636280 0.106612
O O15 0.500000 0.000000 0.514124
O O16 0.500000 0.153686 0.767716
O O17 0.250000 0.250000 0.743753
O O18 0.500000 0.500000 0.307077
O O19 0.500000 0.137883 0.058715
O O20 0.320453 0.000000 0.066465
#
# Coordination Sequence:
#
# PCOD9349851 Si02
#       8
#     8   4   8   4   4   8   4   8
#     4   9  19  33  55  79 107 154 202 250 308 358
#     4  12  26  40  62  94 130 163 206 250 313 377
#     4  11  23  41  69  99 130 166 213 258 309 375
#     4   9  20  36  56  88 115 161 198 245 316 364
#     4  10  24  44  66  98 126 163 206 251 310 374
#     4  10  21  40  61  86 124 165 211 264 313 370
#     4  11  22  40  68  93 131 169 210 260 318 377
#     4   9  18  34  54  81 115 151 202 255 299 364
#
# _framework density 19.971214
#
# number of rings (size 3 to 8) (size 9 to 14) (size 15 to 20)
#    0.000    2.000    1.667    1.250    3.500    2.000 
#    0.000    4.167    0.000    0.000    0.000    0.000 
#    0.000    0.000    0.000    0.000    0.000    0.000 
#
# Total GULP energy -133859.040846 kJ/mol
# GULP energy per Si atom -5577.460035 kJ/mol
# Density = 1.992576 g / cm^3
# Si number density = 19.971214 Si / 1000 Ang^3
#
#
#
# Elastic Constant Matrix: (Units=GPa)
#
#
# Indices 1 2 3 4 5 6 
#
# 1 80.6748 25.9185 60.6206 0.0000 0.0000 0.0000
# 2 25.9185 86.3199 53.2689 0.0000 0.0000 0.0000
# 3 60.6206 53.2689 141.4699 0.0000 0.0000 0.0000
# 4 0.0000 0.0000 0.0000 -34.0390 0.0000 0.0000
# 5 0.0000 0.0000 0.0000 0.0000 49.4107 0.0000
# 6 0.0000 0.0000 0.0000 0.0000 0.0000 21.7596
#
#
#
# Elastic Compliance Matrix: (Units=1/GPa)
#
#
# Indices 1 2 3 4 5 6 
#
# 1 0.018330 -0.000855 -0.007533 0.000000 0.000000 0.000000
# 2 -0.000855 0.015132 -0.005331 0.000000 0.000000 0.000000
# 3 -0.007533 -0.005331 0.012304 0.000000 0.000000 0.000000
# 4 0.000000 0.000000 0.000000 -0.029378 0.000000 0.000000
# 5 0.000000 0.000000 0.000000 0.000000 0.020239 0.000000
# 6 0.000000 0.000000 0.000000 0.000000 0.000000 0.045957
#
#
# Mechanical properties :
#
#
# Convention : Reuss Voigt Hill
#
# Bulk Modulus (GPa) = 54.56280 65.34229 59.95255
# Shear Modulus (GPa) = 43.05513 18.67001 30.86257
#
# Velocity S-wave (km/s) = 4.64816 3.06084 3.93536
# Velocity P-wave (km/s) = 7.49581 6.72911 7.12279
#
# Compressibility (1/GPa) = 0.01832750
#
# Stress axis : x y z
#
# Youngs Moduli (GPa) = 54.55420 66.08725 81.27626
#
# Poissons Ratio (x) = 0.05654 0.61222
# Poissons Ratio (y) = 0.04667 0.43328
# Poissons Ratio (z) = 0.41093 0.35231
#
# Static dielectric constant tensor:
#      x y z
#    x 1.709110 0.000000 0.000000 
#    y 0.000000 1.689790 0.000000 
#    z 0.000000 0.000000 1.705000 
# 
# From -- ./inp_files/17974.got.cif
#   From: 2010.05.17/outbox.cif.g08.bks.cpg/sg35_9_cif.got.tgz:17974.got - 2010.06.03 17:29:28.
