data_PCOD9349757
_publ_section_title
;
Structure prediction by ZEFSAII (Michael W. Deem and Ramdas Pophale) SiO2 
 PCOD9349757
Probable space group: C M M 2
;
_chemical_formula_sum "Si O2"
_cell_formula_units_Z 64
_cell_length_a 18.630308
_cell_length_b 14.392292
_cell_length_c 12.111880
_cell_angle_alpha 90.000000
_cell_angle_beta 90.000000
_cell_angle_gamma 90.000000
_cell_volume 3247.592695
_symmetry_space_group_name_H-M "C M M 2"
_symmetry_group_IT_number 35
_symmetry_cell_setting 'orthorhombic'
loop_
_space_group_symop_operation_xyz
x,y,z
-x,-y,z
-x,y,z
x,-y,z
1/2+x,1/2+y,z
1/2-x,1/2-y,z
1/2-x,1/2+y,z
1/2+x,1/2-y,z
loop_
_atom_site_type_symbol
_atom_site_label
_atom_site_fract_x
_atom_site_fract_y
_atom_site_fract_z
Si Si1 0.087417 0.395591 0.741400
Si Si2 0.704548 0.887606 0.146336
Si Si3 0.327279 0.246035 0.350616
Si Si4 0.584507 0.611939 0.770997
Si Si5 0.081376 0.889336 0.214529
Si Si6 0.341914 0.388925 0.997108
Si Si7 0.086004 0.757454 0.571362
Si Si8 0.919572 0.386896 0.981019
O O1 0.113636 0.500000 0.727463
O O2 0.109211 0.330840 0.643084
O O3 0.108667 0.358446 0.861226
O O4 0.000000 0.397893 0.744954
O O5 0.690087 0.835111 0.261303
O O6 0.771315 0.858415 0.066931
O O7 0.709833 0.000000 0.162361
O O8 0.634245 0.863113 0.076293
O O9 0.250000 0.250000 0.408128
O O10 0.358114 0.332373 0.279516
O O11 0.382881 0.242876 0.450417
O O12 0.500000 0.637847 0.791429
O O13 0.587384 0.500000 0.764629
O O14 0.605475 0.656537 0.652744
O O15 0.633799 0.642692 0.875211
O O16 0.093908 0.873388 0.084301
O O17 0.000000 0.863037 0.246129
O O18 0.090185 0.000000 0.233809
O O19 0.331755 0.500000 0.985512
O O20 0.000000 0.760150 0.562184
O O21 0.922797 0.500000 0.975773
O O22 0.000000 0.352460 0.999499
#
# Coordination Sequence:
#
# PCOD9349757 Si02
#       8
#     8   8   8   8   8   8   8   8
#     4   8  15  32  56  80 108 141 182 237 293 346
#     4  10  21  38  60  86 123 162 198 249 313 377
#     4  12  25  41  57  81 122 166 208 256 307 359
#     4   9  18  35  61  92 123 152 192 257 324 376
#     4  10  21  39  65  92 117 156 210 261 311 373
#     4   9  17  34  60  91 123 153 189 247 323 388
#     4  10  22  39  57  81 114 157 207 251 294 357
#     4   8  15  30  54  84 115 147 187 235 290 358
#
# _framework density 19.706906
#
# number of rings (size 3 to 8) (size 9 to 14) (size 15 to 20)
#    0.000    2.500    1.250    1.500    0.000    4.500 
#    2.250    2.500    0.000    0.000    0.000    0.000 
#    0.000    0.000    0.000    0.000    0.000    0.000 
#
# Total GULP energy -178235.640712 kJ/mol
# GULP energy per Si atom -5569.863772 kJ/mol
# Density = 1.966205 g / cm^3
# Si number density = 19.706906 Si / 1000 Ang^3
#
#
#
# Elastic Constant Matrix: (Units=GPa)
#
#
# Indices 1 2 3 4 5 6 
#
# 1 77.0943 30.8517 47.6970 0.0000 0.0000 0.0000
# 2 30.8517 72.7721 31.5430 0.0000 0.0000 0.0000
# 3 47.6970 31.5430 119.4015 0.0000 0.0000 0.0000
# 4 0.0000 0.0000 0.0000 26.1169 0.0000 0.0000
# 5 0.0000 0.0000 0.0000 0.0000 30.9026 0.0000
# 6 0.0000 0.0000 0.0000 0.0000 0.0000 15.8574
#
#
#
# Elastic Compliance Matrix: (Units=1/GPa)
#
#
# Indices 1 2 3 4 5 6 
#
# 1 0.018914 -0.005357 -0.006140 0.000000 0.000000 0.000000
# 2 -0.005357 0.017036 -0.002360 0.000000 0.000000 0.000000
# 3 -0.006140 -0.002360 0.011452 0.000000 0.000000 0.000000
# 4 0.000000 0.000000 0.000000 0.038289 0.000000 0.000000
# 5 0.000000 0.000000 0.000000 0.000000 0.032360 0.000000
# 6 0.000000 0.000000 0.000000 0.000000 0.000000 0.063062
#
#
# Mechanical properties :
#
#
# Convention : Reuss Voigt Hill
#
# Bulk Modulus (GPa) = 50.79860 54.38349 52.59105
# Shear Modulus (GPa) = 23.21377 25.18714 24.20045
#
# Velocity S-wave (km/s) = 3.43585 3.57891 3.50811
# Velocity P-wave (km/s) = 6.44772 6.68836 6.56915
#
# Compressibility (1/GPa) = 0.01968558
#
# Stress axis : x y z
#
# Youngs Moduli (GPa) = 52.87154 58.69998 87.32468
#
# Poissons Ratio (x) = 0.31446 0.53619
# Poissons Ratio (y) = 0.28323 0.20613
# Poissons Ratio (z) = 0.32464 0.13856
#
# Static dielectric constant tensor:
#      x y z
#    x 1.710870 0.000000 0.000000 
#    y 0.000000 1.732050 0.000000 
#    z 0.000000 0.000000 1.703880 
# 
# From -- ./inp_files/13172.got.cif
#   From: 2010.05.17/outbox.cif.g08.bks.cpg/sg35_7_cif.got.tgz:13172.got - 2010.06.03 17:29:28.
