data_PCOD9349148
_publ_section_title
;
Structure prediction by ZEFSAII (Michael W. Deem and Ramdas Pophale) SiO2 
 PCOD9349148
Probable space group: C M M 2
;
_chemical_formula_sum "Si O2"
_cell_formula_units_Z 64
_cell_length_a 29.585349
_cell_length_b 9.014138
_cell_length_c 12.643640
_cell_angle_alpha 90.000000
_cell_angle_beta 90.000000
_cell_angle_gamma 90.000000
_cell_volume 3371.887070
_symmetry_space_group_name_H-M "C M M 2"
_symmetry_group_IT_number 35
_symmetry_cell_setting 'orthorhombic'
loop_
_space_group_symop_operation_xyz
x,y,z
-x,-y,z
-x,y,z
x,-y,z
1/2+x,1/2+y,z
1/2-x,1/2-y,z
1/2-x,1/2+y,z
1/2+x,1/2-y,z
loop_
_atom_site_type_symbol
_atom_site_label
_atom_site_fract_x
_atom_site_fract_y
_atom_site_fract_z
Si Si1 0.700722 0.322121 0.863020
Si Si2 0.623715 0.177153 0.249913
Si Si3 0.800114 0.822102 0.628515
Si Si4 0.878005 0.822265 0.021316
Si Si5 0.553307 0.176981 0.428342
Si Si6 0.700795 0.823089 0.417853
Si Si7 0.445867 0.825981 0.863998
Si Si8 0.444967 0.331778 0.646638
O O1 0.706172 0.500000 0.867398
O O2 0.750000 0.250000 0.874043
O O3 0.681185 0.288700 0.745395
O O4 0.666252 0.275616 0.954062
O O5 0.582556 0.221593 0.327114
O O6 0.668921 0.204742 0.317872
O O7 0.620298 0.000000 0.231329
O O8 0.623438 0.260065 0.139260
O O9 0.750000 0.750000 0.631725
O O10 0.820650 0.747813 0.524198
O O11 0.797818 0.000000 0.615493
O O12 0.920395 0.758916 0.956828
O O13 0.879618 0.000000 0.022243
O O14 0.500000 0.205080 0.411481
O O15 0.567793 0.258015 0.535809
O O16 0.559295 0.000000 0.443361
O O17 0.750000 0.750000 0.402919
O O18 0.705280 0.000000 0.432534
O O19 0.500000 0.808336 0.873655
O O20 0.432026 0.759775 0.750280
O O21 0.435374 0.000000 0.868392
O O22 0.500000 0.335693 0.646627
O O23 0.427821 0.500000 0.654049
#
# Coordination Sequence:
#
# PCOD9349148 Si02
#       8
#     8   8   8   8   8   8   8   8
#     4   9  20  37  57  83 113 145 180 223 275 330
#     4  10  23  40  55  77 108 144 189 233 272 323
#     4   9  16  30  53  80 109 137 171 215 267 328
#     4  11  24  40  57  81 112 145 188 237 282 329
#     4   9  18  35  58  81 108 142 179 221 270 326
#     4  10  20  35  55  79 109 141 177 222 271 324
#     4  10  21  38  60  84 112 148 187 226 273 330
#     4   9  17  31  54  85 117 144 175 219 272 329
#
# _framework density 18.98047
#
# number of rings (size 3 to 8) (size 9 to 14) (size 15 to 20)
#    0.000    2.375    0.000    2.625    0.000    7.250 
#    0.000    6.250    0.000    0.000    0.000    0.000 
#    0.000    0.000    0.000    0.000    0.000    0.000 
#
# Total GULP energy -178648.817964 kJ/mol
# GULP energy per Si atom -5582.775561 kJ/mol
# Density = 1.893727 g / cm^3
# Si number density = 18.980470 Si / 1000 Ang^3
#
#
#
# Elastic Constant Matrix: (Units=GPa)
#
#
# Indices 1 2 3 4 5 6 
#
# 1 67.3185 50.4230 63.2184 0.0000 0.0000 0.0000
# 2 50.4230 82.2844 88.7408 0.0000 0.0000 0.0000
# 3 63.2184 88.7408 201.6521 0.0000 0.0000 0.0000
# 4 0.0000 0.0000 0.0000 38.4764 0.0000 0.0000
# 5 0.0000 0.0000 0.0000 0.0000 30.4944 0.0000
# 6 0.0000 0.0000 0.0000 0.0000 0.0000 14.8092
#
#
#
# Elastic Compliance Matrix: (Units=1/GPa)
#
#
# Indices 1 2 3 4 5 6 
#
# 1 0.028025 -0.014652 -0.002338 0.000000 0.000000 0.000000
# 2 -0.014652 0.030791 -0.008957 0.000000 0.000000 0.000000
# 3 -0.002338 -0.008957 0.009634 0.000000 0.000000 0.000000
# 4 0.000000 0.000000 0.000000 0.025990 0.000000 0.000000
# 5 0.000000 0.000000 0.000000 0.000000 0.032793 0.000000
# 6 0.000000 0.000000 0.000000 0.000000 0.000000 0.067525
#
#
# Mechanical properties :
#
#
# Convention : Reuss Voigt Hill
#
# Bulk Modulus (GPa) = 60.40030 84.00216 72.20123
# Shear Modulus (GPa) = 19.82786 26.68085 23.25436
#
# Velocity S-wave (km/s) = 3.23560 3.75333 3.50404
# Velocity P-wave (km/s) = 6.77128 7.94585 7.38197
#
# Compressibility (1/GPa) = 0.01655621
#
# Stress axis : x y z
#
# Youngs Moduli (GPa) = 35.68239 32.47693 103.80314
#
# Poissons Ratio (x) = 0.47585 0.24270
# Poissons Ratio (y) = 0.52282 0.92974
# Poissons Ratio (z) = 0.08343 0.29089
#
# Static dielectric constant tensor:
#      x y z
#    x 1.682030 0.000000 0.000000 
#    y 0.000000 1.636750 0.000000 
#    z 0.000000 0.000000 1.641180 
# 
# From -- ./inp_files/14603.got.cif
#   From: 2010.05.17/outbox.cif.g08.bks.cpg/sg35_8_cif.got.tgz:14603.got - 2010.06.03 17:29:28.
