data_PCOD9349027
_publ_section_title
;
Structure prediction by ZEFSAII (Michael W. Deem and Ramdas Pophale) SiO2 
 PCOD9349027
Probable space group: C M M 2
;
_chemical_formula_sum "Si O2"
_cell_formula_units_Z 56
_cell_length_a 8.768241
_cell_length_b 22.642274
_cell_length_c 15.162311
_cell_angle_alpha 90.000000
_cell_angle_beta 90.000000
_cell_angle_gamma 90.000000
_cell_volume 3010.217804
_symmetry_space_group_name_H-M "C M M 2"
_symmetry_group_IT_number 35
_symmetry_cell_setting 'orthorhombic'
loop_
_space_group_symop_operation_xyz
x,y,z
-x,-y,z
-x,y,z
x,-y,z
1/2+x,1/2+y,z
1/2-x,1/2-y,z
1/2-x,1/2+y,z
1/2+x,1/2-y,z
loop_
_atom_site_type_symbol
_atom_site_label
_atom_site_fract_x
_atom_site_fract_y
_atom_site_fract_z
Si Si1 0.174598 0.370857 0.448610
Si Si2 0.834535 0.500000 0.497072
Si Si3 0.183139 0.317086 0.095525
Si Si4 0.320775 0.313442 0.284307
Si Si5 0.683948 0.389238 0.781965
Si Si6 0.684284 0.070404 0.969705
Si Si7 0.317757 0.813397 0.634724
Si Si8 0.821309 0.000000 0.673020
O O1 0.172186 0.441081 0.442291
O O2 0.283540 0.348880 0.372307
O O3 0.219251 0.353822 0.548943
O O4 0.000000 0.348466 0.435263
O O5 0.707200 0.500000 0.570530
O O6 0.000000 0.500000 0.545010
O O7 0.250000 0.250000 0.074662
O O8 0.238381 0.332739 0.194243
O O9 0.000000 0.311056 0.092221
O O10 0.225324 0.375174 0.036688
O O11 0.500000 0.310190 0.267675
O O12 0.250000 0.250000 0.302958
O O13 0.500000 0.386044 0.785542
O O14 0.747163 0.406545 0.877303
O O15 0.746410 0.333459 0.727935
O O16 0.740944 0.442120 0.718933
O O17 0.500000 0.069492 0.965460
O O18 0.729902 0.000000 0.985863
O O19 0.500000 0.812336 0.643193
O O20 0.250000 0.750000 0.612147
O O21 0.000000 0.000000 0.691523
#
# Coordination Sequence:
#
# PCOD9349027 Si02
#       8
#     8   4   8   8   8   8   8   4
#     4  10  21  37  58  85 116 152 194 237 286 341
#     4  10  20  36  58  83 112 153 196 237 284 340
#     4  10  21  40  65  90 118 151 195 245 300 359
#     4  11  22  38  62  87 115 151 192 237 289 348
#     4  11  22  37  58  85 117 154 193 236 289 344
#     4  10  22  40  63  90 119 156 201 247 298 358
#     4  11  23  38  57  83 117 155 198 245 291 341
#     4  10  20  34  54  81 112 149 190 233 280 332
#
# _framework density 18.603304000000001
#
# number of rings (size 3 to 8) (size 9 to 14) (size 15 to 20)
#    0.000    1.571    2.143    3.857    0.000    5.143 
#    1.286    1.429    0.000    0.000    0.000    0.000 
#    0.000    0.000    0.000    0.000    0.000    0.000 
#
# Total GULP energy -155962.450595 kJ/mol
# GULP energy per Si atom -5570.087521 kJ/mol
# Density = 1.856096 g / cm^3
# Si number density = 18.603304 Si / 1000 Ang^3
#
#
#
# Elastic Constant Matrix: (Units=GPa)
#
#
# Indices 1 2 3 4 5 6 
#
# 1 44.6432 35.9594 34.3162 0.0000 0.0000 0.0000
# 2 35.9594 94.4707 59.5751 0.0000 0.0000 0.0000
# 3 34.3162 59.5751 92.1103 0.0000 0.0000 0.0000
# 4 0.0000 0.0000 0.0000 27.2519 0.0000 0.0000
# 5 0.0000 0.0000 0.0000 0.0000 30.6749 0.0000
# 6 0.0000 0.0000 0.0000 0.0000 0.0000 20.0989
#
#
#
# Elastic Compliance Matrix: (Units=1/GPa)
#
#
# Indices 1 2 3 4 5 6 
#
# 1 0.035123 -0.008642 -0.007495 0.000000 0.000000 0.000000
# 2 -0.008642 0.020003 -0.009718 0.000000 0.000000 0.000000
# 3 -0.007495 -0.009718 0.019934 0.000000 0.000000 0.000000
# 4 0.000000 0.000000 0.000000 0.036695 0.000000 0.000000
# 5 0.000000 0.000000 0.000000 0.000000 0.032600 0.000000
# 6 0.000000 0.000000 0.000000 0.000000 0.000000 0.049754
#
#
# Mechanical properties :
#
#
# Convention : Reuss Voigt Hill
#
# Bulk Modulus (GPa) = 42.82870 54.54730 48.68800
# Shear Modulus (GPa) = 19.71583 22.36337 21.03960
#
# Velocity S-wave (km/s) = 3.25899 3.47092 3.36662
# Velocity P-wave (km/s) = 6.10192 6.74151 6.42967
#
# Compressibility (1/GPa) = 0.02334883
#
# Stress axis : x y z
#
# Youngs Moduli (GPa) = 28.47164 49.99185 50.16459
#
# Poissons Ratio (x) = 0.43205 0.37601
# Poissons Ratio (y) = 0.24606 0.48750
# Poissons Ratio (z) = 0.21341 0.48582
#
# Static dielectric constant tensor:
#      x y z
#    x 1.657690 0.000000 0.000000 
#    y 0.000000 1.708130 0.000000 
#    z 0.000000 0.000000 1.637540 
# 
# From -- ./inp_files/15803.got.cif
#   From: 2010.05.17/outbox.cif.g08.bks.cpg/sg35_8_cif.got.tgz:15803.got - 2010.06.03 17:29:28.
