data_PCOD9349442
_publ_section_title
;
Structure prediction by ZEFSAII (Michael W. Deem and Ramdas Pophale) SiO2 
 PCOD9349442
Probable space group: C M M 2
;
_chemical_formula_sum "Si O2"
_cell_formula_units_Z 48
_cell_length_a 31.325261
_cell_length_b 8.507058
_cell_length_c 9.742549
_cell_angle_alpha 90.000000
_cell_angle_beta 90.000000
_cell_angle_gamma 90.000000
_cell_volume 2596.251083
_symmetry_space_group_name_H-M "C M M 2"
_symmetry_group_IT_number 35
_symmetry_cell_setting 'orthorhombic'
loop_
_space_group_symop_operation_xyz
x,y,z
-x,-y,z
-x,y,z
x,-y,z
1/2+x,1/2+y,z
1/2-x,1/2-y,z
1/2-x,1/2+y,z
1/2+x,1/2-y,z
loop_
_atom_site_type_symbol
_atom_site_label
_atom_site_fract_x
_atom_site_fract_y
_atom_site_fract_z
Si Si1 0.125098 0.809664 0.069310
Si Si2 0.548691 0.310165 0.264278
Si Si3 0.625716 0.811612 0.760258
Si Si4 0.297210 0.688642 0.576375
Si Si5 0.048746 0.689759 0.567628
Si Si6 0.203060 0.810467 0.260540
O O1 0.082788 0.758064 0.151522
O O2 0.166337 0.757409 0.156850
O O3 0.125308 0.000000 0.066817
O O4 0.126027 0.749169 0.915083
O O5 0.500000 0.259363 0.234778
O O6 0.549321 0.500000 0.268022
O O7 0.560229 0.249889 0.415843
O O8 0.666881 0.753320 0.676926
O O9 0.583374 0.756782 0.678464
O O10 0.625656 0.000000 0.761272
O O11 0.297323 0.500000 0.581242
O O12 0.250000 0.750000 0.612020
O O13 0.305953 0.738579 0.418164
O O14 0.048966 0.500000 0.565174
O O15 0.000000 0.741382 0.597233
O O16 0.250000 0.750000 0.222998
O O17 0.203752 0.000000 0.259294
#
# Coordination Sequence:
#
# PCOD9349442 Si02
#       6
#     8   8   8   8   8   8
#     4  10  21  36  52  75 109 143 173 213 267 319
#     4   9  18  34  57  82 105 133 175 224 271 321
#     4  11  23  36  52  78 110 145 183 220 263 317
#     4  10  20  37  60  83 107 137 175 220 269 318
#     4   9  19  36  56  78 106 140 179 224 271 319
#     4   9  19  35  56  79 102 132 171 214 259 309
#
# _framework density 18.488195999999999
#
# number of rings (size 3 to 8) (size 9 to 14) (size 15 to 20)
#    0.000    2.333    0.000    2.000    0.000    6.000 
#    0.000    1.667    0.000    0.000    0.000    0.000 
#    0.000    0.000    0.000    0.000    0.000    0.000 
#
# Total GULP energy -133988.187217 kJ/mol
# GULP energy per Si atom -5582.841134 kJ/mol
# Density = 1.844612 g / cm^3
# Si number density = 18.488196 Si / 1000 Ang^3
#
#
#
# Elastic Constant Matrix: (Units=GPa)
#
#
# Indices 1 2 3 4 5 6 
#
# 1 160.5494 29.6392 140.7989 0.0000 0.0000 0.0000
# 2 29.6392 15.3675 28.4866 0.0000 0.0000 0.0000
# 3 140.7989 28.4866 171.8872 0.0000 0.0000 0.0000
# 4 0.0000 0.0000 0.0000 25.1812 0.0000 0.0000
# 5 0.0000 0.0000 0.0000 0.0000 -4.2431 0.0000
# 6 0.0000 0.0000 0.0000 0.0000 0.0000 24.0583
#
#
#
# Elastic Compliance Matrix: (Units=1/GPa)
#
#
# Indices 1 2 3 4 5 6 
#
# 1 0.024107 -0.014276 -0.017381 0.000000 0.000000 0.000000
# 2 -0.014276 0.102382 -0.005274 0.000000 0.000000 0.000000
# 3 -0.017381 -0.005274 0.020929 0.000000 0.000000 0.000000
# 4 0.000000 0.000000 0.000000 0.039712 0.000000 0.000000
# 5 0.000000 0.000000 0.000000 0.000000 -0.235676 0.000000
# 6 0.000000 0.000000 0.000000 0.000000 0.000000 0.041566
#
#
# Mechanical properties :
#
#
# Convention : Reuss Voigt Hill
#
# Bulk Modulus (GPa) = 13.59487 82.85039 48.22263
# Shear Modulus (GPa) = 54.70503 18.92458 36.81480
#
# Velocity S-wave (km/s) = 5.44549 3.20285 4.46719
# Velocity P-wave (km/s) = 6.84888 7.65425 7.26273
#
# Compressibility (1/GPa) = 0.07355718
#
# Stress axis : x y z
#
# Youngs Moduli (GPa) = 41.48243 9.76731 47.78083
#
# Poissons Ratio (x) = 0.13944 0.83046
# Poissons Ratio (y) = 0.59220 0.25199
# Poissons Ratio (z) = 0.72099 0.05151
#
# Static dielectric constant tensor:
#      x y z
#    x 1.635230 0.000000 0.000000 
#    y 0.000000 1.635790 0.000000 
#    z 0.000000 0.000000 1.600590 
# 
# From -- ./inp_files/5271.got.cif
#   From: 2010.05.17/outbox.cif.g08.bks.cpg/sg35_3_cif.got.tgz:5271.got - 2010.06.03 17:29:28.
