data_PCOD9349532
_publ_section_title
;
Structure prediction by ZEFSAII (Michael W. Deem and Ramdas Pophale) SiO2 
 PCOD9349532
Probable space group: C M M 2
;
_chemical_formula_sum "Si O2"
_cell_formula_units_Z 52
_cell_length_a 25.130395
_cell_length_b 9.708251
_cell_length_c 9.808995
_cell_angle_alpha 90.000000
_cell_angle_beta 90.000000
_cell_angle_gamma 90.000000
_cell_volume 2393.121917
_symmetry_space_group_name_H-M "C M M 2"
_symmetry_group_IT_number 35
_symmetry_cell_setting 'orthorhombic'
loop_
_space_group_symop_operation_xyz
x,y,z
-x,-y,z
-x,y,z
x,-y,z
1/2+x,1/2+y,z
1/2-x,1/2-y,z
1/2-x,1/2+y,z
1/2+x,1/2-y,z
loop_
_atom_site_type_symbol
_atom_site_label
_atom_site_fract_x
_atom_site_fract_y
_atom_site_fract_z
Si Si1 0.798232 0.156400 0.812510
Si Si2 0.441569 0.338618 0.448407
Si Si3 0.323631 0.747587 0.408404
Si Si4 0.581412 0.658957 0.761574
Si Si5 0.749276 0.500000 0.488903
Si Si6 0.059818 0.662983 0.019019
Si Si7 0.341178 0.662528 0.117174
O O1 0.750000 0.250000 0.769640
O O2 0.855554 0.186784 0.750456
O O3 0.782792 0.000000 0.779213
O O4 0.808648 0.170723 0.975405
O O5 0.500000 0.291799 0.398667
O O6 0.434995 0.500000 0.408490
O O7 0.387942 0.257720 0.412301
O O8 0.442711 0.335209 0.612891
O O9 0.297636 0.619038 0.484880
O O10 0.295336 0.880907 0.465867
O O11 0.311516 0.723151 0.247555
O O12 0.575926 0.500000 0.814068
O O13 0.559847 0.768645 0.868531
O O14 0.073045 0.500000 0.014582
O O15 0.000000 0.677270 0.074667
O O16 0.104700 0.751442 0.095182
O O17 0.351756 0.500000 0.140104
#
# Coordination Sequence:
#
# PCOD9349532 Si02
#       7
#     8   8   8   8   4   8   8
#     4   9  19  32  49  78 112 147 186 234 286 345
#     4  10  20  38  65  91 120 157 208 260 301 362
#     4  11  22  42  61  96 119 165 204 247 308 360
#     4   9  19  38  58  83 112 154 203 243 297 357
#     4  10  24  40  64  84 128 160 204 254 292 364
#     4  10  21  36  55  83 117 152 193 247 306 361
#     4  10  21  35  57  84 117 151 199 242 290 365
#
# _framework density 21.728937999999999
#
# number of rings (size 3 to 8) (size 9 to 14) (size 15 to 20)
#    0.000    2.154    1.538    1.846    3.231    4.923 
#    4.154    0.385    0.000    0.000    0.000    0.000 
#    0.000    0.000    0.000    0.000    0.000    0.000 
#
# Total GULP energy -144784.798109 kJ/mol
# GULP energy per Si atom -5568.646081 kJ/mol
# Density = 2.167948 g / cm^3
# Si number density = 21.728938 Si / 1000 Ang^3
#
#
#
# Elastic Constant Matrix: (Units=GPa)
#
#
# Indices 1 2 3 4 5 6 
#
# 1 159.3371 60.8132 2.9405 0.0000 0.0000 0.0000
# 2 60.8132 123.8718 1.1442 0.0000 0.0000 0.0000
# 3 2.9405 1.1442 48.0365 0.0000 0.0000 0.0000
# 4 0.0000 0.0000 0.0000 -16.8397 0.0000 0.0000
# 5 0.0000 0.0000 0.0000 0.0000 -6.9674 0.0000
# 6 0.0000 0.0000 0.0000 0.0000 0.0000 35.8314
#
#
#
# Elastic Compliance Matrix: (Units=1/GPa)
#
#
# Indices 1 2 3 4 5 6 
#
# 1 0.007730 -0.003791 -0.000383 0.000000 0.000000 0.000000
# 2 -0.003791 0.009934 -0.000005 0.000000 0.000000 0.000000
# 3 -0.000383 -0.000005 0.020841 0.000000 0.000000 0.000000
# 4 0.000000 0.000000 0.000000 -0.059383 0.000000 0.000000
# 5 0.000000 0.000000 0.000000 0.000000 -0.143527 0.000000
# 6 0.000000 0.000000 0.000000 0.000000 0.000000 0.027908
#
#
# Mechanical properties :
#
#
# Convention : Reuss Voigt Hill
#
# Bulk Modulus (GPa) = 33.17005 51.22681 42.19843
# Shear Modulus (GPa) = -42.34098 20.16135 -11.08981
#
# Velocity S-wave (km/s) = -4.41908 3.04938 -2.26159
# Velocity P-wave (km/s) = 3.27707 6.00207 3.55568
#
# Compressibility (1/GPa) = 0.03014768
#
# Stress axis : x y z
#
# Youngs Moduli (GPa) = 129.36380 100.66153 47.98222
#
# Poissons Ratio (x) = 0.38166 0.01837
# Poissons Ratio (y) = 0.49048 0.00022
# Poissons Ratio (z) = 0.04953 0.00046
#
# Static dielectric constant tensor:
#      x y z
#    x 1.774020 0.000000 0.000000 
#    y 0.000000 1.726020 0.000000 
#    z 0.000000 0.000000 1.919410 
# 
# From -- ./inp_files/14413.got.cif
#   From: 2010.05.17/outbox.cif.g08.bks.cpg/sg35_8_cif.got.tgz:14413.got - 2010.06.03 17:29:28.
