data_PCOD9349085
_publ_section_title
;
Structure prediction by ZEFSAII (Michael W. Deem and Ramdas Pophale) SiO2 
 PCOD9349085
Probable space group: C M M 2
;
_chemical_formula_sum "Si O2"
_cell_formula_units_Z 64
_cell_length_a 28.033162
_cell_length_b 9.677402
_cell_length_c 12.232085
_cell_angle_alpha 90.000000
_cell_angle_beta 90.000000
_cell_angle_gamma 90.000000
_cell_volume 3318.420053
_symmetry_space_group_name_H-M "C M M 2"
_symmetry_group_IT_number 35
_symmetry_cell_setting 'orthorhombic'
loop_
_space_group_symop_operation_xyz
x,y,z
-x,-y,z
-x,y,z
x,-y,z
1/2+x,1/2+y,z
1/2-x,1/2-y,z
1/2-x,1/2+y,z
1/2+x,1/2-y,z
loop_
_atom_site_type_symbol
_atom_site_label
_atom_site_fract_x
_atom_site_fract_y
_atom_site_fract_z
Si Si1 0.844813 0.663353 0.886430
Si Si2 0.707373 0.656601 0.454042
Si Si3 0.869524 0.159673 0.262912
Si Si4 0.446142 0.741729 0.627422
Si Si5 0.443871 0.845106 0.380113
Si Si6 0.949053 0.340654 0.870460
Si Si7 0.841025 0.157023 0.676732
Si Si8 0.201777 0.335022 0.117697
O O1 0.848590 0.500000 0.860769
O O2 0.898879 0.715562 0.913583
O O3 0.830651 0.746552 0.779209
O O4 0.810400 0.677582 0.989092
O O5 0.724588 0.500000 0.467367
O O6 0.750000 0.750000 0.413836
O O7 0.664739 0.655721 0.368556
O O8 0.687225 0.706193 0.570053
O O9 0.917028 0.232580 0.307354
O O10 0.841733 0.258629 0.178905
O O11 0.875788 0.000000 0.225654
O O12 0.500000 0.677379 0.623729
O O13 0.439622 0.815344 0.510482
O O14 0.446772 0.833971 0.737774
O O15 0.397616 0.656880 0.646849
O O16 0.500000 0.842339 0.355994
O O17 0.425163 0.000000 0.358371
O O18 0.950790 0.500000 0.904598
O O19 0.000000 0.274495 0.901904
O O20 0.827136 0.000000 0.701467
O O21 0.205497 0.500000 0.144179
O O22 0.250000 0.250000 0.142197
#
# Coordination Sequence:
#
# PCOD9349085 Si02
#       8
#     8   8   8   8   8   8   8   8
#     4   9  20  37  57  83 113 146 189 237 289 348
#     4  10  22  38  54  79 111 146 187 234 289 349
#     4  11  23  41  62  85 117 153 196 245 296 351
#     4   9  16  28  49  79 117 157 193 230 275 333
#     4  10  20  34  56  88 123 159 199 240 286 345
#     4   8  13  25  48  78 111 146 183 223 270 326
#     4  10  20  35  53  81 119 152 188 234 288 349
#     4  11  24  43  65  88 112 144 196 253 305 360
#
# _framework density 19.286287000000002
#
# number of rings (size 3 to 8) (size 9 to 14) (size 15 to 20)
#    0.000    2.250    1.250    1.500    0.000    6.500 
#    0.000    4.375    0.000    2.250    0.000    1.750 
#    0.000    0.000    0.000    0.000    0.000    0.000 
#
# Total GULP energy -178275.779828 kJ/mol
# GULP energy per Si atom -5571.118120 kJ/mol
# Density = 1.924239 g / cm^3
# Si number density = 19.286287 Si / 1000 Ang^3
#
#
#
# Elastic Constant Matrix: (Units=GPa)
#
#
# Indices 1 2 3 4 5 6 
#
# 1 50.2298 30.5036 13.8561 0.0000 0.0000 0.0000
# 2 30.5036 91.7411 36.2568 0.0000 0.0000 0.0000
# 3 13.8561 36.2568 55.3325 0.0000 0.0000 0.0000
# 4 0.0000 0.0000 0.0000 43.9495 0.0000 0.0000
# 5 0.0000 0.0000 0.0000 0.0000 -26.5528 0.0000
# 6 0.0000 0.0000 0.0000 0.0000 0.0000 24.6892
#
#
#
# Elastic Compliance Matrix: (Units=1/GPa)
#
#
# Indices 1 2 3 4 5 6 
#
# 1 0.024995 -0.007877 -0.001098 0.000000 0.000000 0.000000
# 2 -0.007877 0.017192 -0.009292 0.000000 0.000000 0.000000
# 3 -0.001098 -0.009292 0.024436 0.000000 0.000000 0.000000
# 4 0.000000 0.000000 0.000000 0.022753 0.000000 0.000000
# 5 0.000000 0.000000 0.000000 0.000000 -0.037661 0.000000
# 6 0.000000 0.000000 0.000000 0.000000 0.000000 0.040504
#
#
# Mechanical properties :
#
#
# Convention : Reuss Voigt Hill
#
# Bulk Modulus (GPa) = 33.23496 39.83736 36.53616
# Shear Modulus (GPa) = 36.02757 16.19631 26.11194
#
# Velocity S-wave (km/s) = 4.32677 2.90105 3.68355
# Velocity P-wave (km/s) = 6.49855 5.64996 6.08906
#
# Compressibility (1/GPa) = 0.03008879
#
# Stress axis : x y z
#
# Youngs Moduli (GPa) = 40.00835 58.16756 40.92261
#
# Poissons Ratio (x) = 0.45818 0.04492
# Poissons Ratio (y) = 0.31514 0.38027
# Poissons Ratio (z) = 0.04392 0.54052
#
# Static dielectric constant tensor:
#      x y z
#    x 1.801440 0.000000 0.000000 
#    y 0.000000 1.664860 0.000000 
#    z 0.000000 0.000000 1.655010 
# 
# From -- ./inp_files/14580.got.cif
#   From: 2010.05.17/outbox.cif.g08.bks.cpg/sg35_8_cif.got.tgz:14580.got - 2010.06.03 17:29:28.
