data_PCOD9349333
_publ_section_title
;
Structure prediction by ZEFSAII (Michael W. Deem and Ramdas Pophale) SiO2 
 PCOD9349333
Probable space group: C M M 2
;
_chemical_formula_sum "Si O2"
_cell_formula_units_Z 64
_cell_length_a 24.659253
_cell_length_b 13.962567
_cell_length_c 9.680815
_cell_angle_alpha 90.000000
_cell_angle_beta 90.000000
_cell_angle_gamma 90.000000
_cell_volume 3333.167261
_symmetry_space_group_name_H-M "C M M 2"
_symmetry_group_IT_number 35
_symmetry_cell_setting 'orthorhombic'
loop_
_space_group_symop_operation_xyz
x,y,z
-x,-y,z
-x,y,z
x,-y,z
1/2+x,1/2+y,z
1/2-x,1/2-y,z
1/2-x,1/2+y,z
1/2+x,1/2-y,z
loop_
_atom_site_type_symbol
_atom_site_label
_atom_site_fract_x
_atom_site_fract_y
_atom_site_fract_z
Si Si1 0.231245 0.611594 0.010060
Si Si2 0.665318 0.385830 0.201749
Si Si3 0.369083 0.108113 0.607419
Si Si4 0.127611 0.708336 0.893347
Si Si5 0.564211 0.896891 0.343805
Si Si6 0.693409 0.287784 0.480204
Si Si7 0.063386 0.767972 0.130900
Si Si8 0.813673 0.889547 0.766202
O O1 0.218165 0.500000 0.036973
O O2 0.279362 0.639873 0.116896
O O3 0.176408 0.671955 0.993592
O O4 0.259955 0.618664 0.859864
O O5 0.665452 0.500000 0.207776
O O6 0.665572 0.341023 0.353989
O O7 0.609092 0.350326 0.134134
O O8 0.378623 0.136078 0.765596
O O9 0.420358 0.111382 0.504371
O O10 0.333312 0.192046 0.541550
O O11 0.346276 0.000000 0.599635
O O12 0.145251 0.810632 0.827886
O O13 0.073932 0.717819 0.984061
O O14 0.500000 0.900445 0.330060
O O15 0.580472 0.807821 0.249771
O O16 0.587453 0.000000 0.295914
O O17 0.750000 0.250000 0.424912
O O18 0.698744 0.359307 0.609860
O O19 0.000000 0.794831 0.148822
O O20 0.832299 0.000000 0.776355
#
# Coordination Sequence:
#
# PCOD9349333 Si02
#       8
#     8   8   8   8   8   8   8   8
#     4  10  21  37  60  88 122 161 195 241 303 367
#     4  11  24  41  62  90 122 160 207 253 304 360
#     4  10  21  38  60  91 123 157 197 242 301 368
#     4  11  22  36  61  89 125 160 201 250 305 363
#     4   9  19  38  62  86 117 157 198 246 304 361
#     4  11  23  36  58  88 124 160 194 244 297 362
#     4  11  24  41  62  87 120 161 209 259 307 358
#     4  10  20  36  57  85 122 161 197 239 298 362
#
# _framework density 19.200956999999999
#
# number of rings (size 3 to 8) (size 9 to 14) (size 15 to 20)
#    0.000    1.625    2.500    2.625    1.750    3.750 
#    0.000    2.500    0.000    0.000    0.000    0.000 
#    0.000    0.000    0.000    0.000    0.000    0.000 
#
# Total GULP energy -178437.758204 kJ/mol
# GULP energy per Si atom -5576.179944 kJ/mol
# Density = 1.915725 g / cm^3
# Si number density = 19.200957 Si / 1000 Ang^3
#
#
#
# Elastic Constant Matrix: (Units=GPa)
#
#
# Indices 1 2 3 4 5 6 
#
# 1 42.7212 21.2647 31.2220 0.0000 0.0000 0.0000
# 2 21.2647 100.9174 29.2429 0.0000 0.0000 0.0000
# 3 31.2220 29.2429 86.6259 0.0000 0.0000 0.0000
# 4 0.0000 0.0000 0.0000 23.0487 0.0000 0.0000
# 5 0.0000 0.0000 0.0000 0.0000 19.1780 0.0000
# 6 0.0000 0.0000 0.0000 0.0000 0.0000 17.6972
#
#
#
# Elastic Compliance Matrix: (Units=1/GPa)
#
#
# Indices 1 2 3 4 5 6 
#
# 1 0.033107 -0.003900 -0.010616 0.000000 0.000000 0.000000
# 2 -0.003900 0.011443 -0.002457 0.000000 0.000000 0.000000
# 3 -0.010616 -0.002457 0.016200 0.000000 0.000000 0.000000
# 4 0.000000 0.000000 0.000000 0.043386 0.000000 0.000000
# 5 0.000000 0.000000 0.000000 0.000000 0.052143 0.000000
# 6 0.000000 0.000000 0.000000 0.000000 0.000000 0.056506
#
#
# Mechanical properties :
#
#
# Convention : Reuss Voigt Hill
#
# Bulk Modulus (GPa) = 37.30874 43.74709 40.52792
# Shear Modulus (GPa) = 19.55670 21.88710 20.72190
#
# Velocity S-wave (km/s) = 3.19490 3.37990 3.28870
# Velocity P-wave (km/s) = 5.75176 6.16967 5.96438
#
# Compressibility (1/GPa) = 0.02680337
#
# Stress axis : x y z
#
# Youngs Moduli (GPa) = 30.20469 87.39043 61.72953
#
# Poissons Ratio (x) = 0.34082 0.65533
# Poissons Ratio (y) = 0.11780 0.15168
# Poissons Ratio (z) = 0.32066 0.21474
#
# Static dielectric constant tensor:
#      x y z
#    x 1.678080 0.000000 0.000000 
#    y 0.000000 1.709000 0.000000 
#    z 0.000000 0.000000 1.675340 
# 
# From -- ./inp_files/9902.got.cif
#   From: 2010.05.17/outbox.cif.g08.bks.cpg/sg35_5_cif.got.tgz:9902.got - 2010.06.03 17:29:28.
