data_PCOD9349673
_publ_section_title
;
Structure prediction by ZEFSAII (Michael W. Deem and Ramdas Pophale) SiO2 
 PCOD9349673
Probable space group: C M M 2
;
_chemical_formula_sum "Si O2"
_cell_formula_units_Z 64
_cell_length_a 8.612102
_cell_length_b 30.037215
_cell_length_c 12.782359
_cell_angle_alpha 90.000000
_cell_angle_beta 90.000000
_cell_angle_gamma 90.000000
_cell_volume 3306.586123
_symmetry_space_group_name_H-M "C M M 2"
_symmetry_group_IT_number 35
_symmetry_cell_setting 'orthorhombic'
loop_
_space_group_symop_operation_xyz
x,y,z
-x,-y,z
-x,y,z
x,-y,z
1/2+x,1/2+y,z
1/2-x,1/2-y,z
1/2-x,1/2+y,z
1/2+x,1/2-y,z
loop_
_atom_site_type_symbol
_atom_site_label
_atom_site_fract_x
_atom_site_fract_y
_atom_site_fract_z
Si Si1 0.812823 0.200129 0.165460
Si Si2 0.685998 0.300563 0.395651
Si Si3 0.822307 0.054174 0.400401
Si Si4 0.684304 0.800123 0.612396
Si Si5 0.316155 0.052197 0.621910
Si Si6 0.310409 0.624905 0.007410
Si Si7 0.685371 0.372463 0.767401
Si Si8 0.310162 0.551118 0.170474
O O1 0.750000 0.250000 0.155351
O O2 0.771111 0.181261 0.281010
O O3 0.760262 0.168317 0.072272
O O4 0.000000 0.202086 0.163434
O O5 0.500000 0.300230 0.404651
O O6 0.750000 0.250000 0.393675
O O7 0.755116 0.320110 0.501882
O O8 0.727297 0.065795 0.503343
O O9 0.761312 0.067570 0.286061
O O10 0.000000 0.070345 0.412627
O O11 0.827498 0.000000 0.395802
O O12 0.500000 0.797738 0.608673
O O13 0.750000 0.750000 0.623071
O O14 0.740008 0.831227 0.706077
O O15 0.500000 0.056739 0.636639
O O16 0.229427 0.083238 0.703959
O O17 0.273956 0.000000 0.633853
O O18 0.500000 0.624600 0.006880
O O19 0.260620 0.582579 0.076205
O O20 0.259992 0.624690 0.887473
O O21 0.500000 0.366905 0.766876
O O22 0.500000 0.551414 0.174072
O O23 0.261447 0.500000 0.155715
#
# Coordination Sequence:
#
# PCOD9349673 Si02
#       8
#     8   8   8   8   8   8   8   8
#     4   9  18  33  53  78 108 139 171 212 263 315
#     4   9  16  29  52  81 110 139 173 214 264 323
#     4   8  14  27  51  82 110 136 171 214 263 325
#     4  11  22  38  59  82 112 145 180 224 274 325
#     4  10  21  37  56  79 111 147 181 224 277 326
#     4   9  19  34  51  75 105 136 176 223 265 311
#     4  11  23  38  56  79 108 144 190 233 268 317
#     4   8  14  27  50  80 110 136 165 210 267 319
#
# _framework density 19.355309999999999
#
# number of rings (size 3 to 8) (size 9 to 14) (size 15 to 20)
#    0.000    2.625    0.000    3.750    0.000    3.250 
#    0.000    6.250    0.000    2.250    0.000    1.750 
#    0.000    0.000    0.000    0.000    0.000    0.000 
#
# Total GULP energy -178537.673676 kJ/mol
# GULP energy per Si atom -5579.302302 kJ/mol
# Density = 1.931126 g / cm^3
# Si number density = 19.355310 Si / 1000 Ang^3
#
#
#
# Elastic Constant Matrix: (Units=GPa)
#
#
# Indices 1 2 3 4 5 6 
#
# 1 49.7088 24.1361 40.3361 0.0000 0.0000 0.0000
# 2 24.1361 89.0771 73.8515 0.0000 0.0000 0.0000
# 3 40.3361 73.8515 201.5603 0.0000 0.0000 0.0000
# 4 0.0000 0.0000 0.0000 32.7648 0.0000 0.0000
# 5 0.0000 0.0000 0.0000 0.0000 12.4296 0.0000
# 6 0.0000 0.0000 0.0000 0.0000 0.0000 20.5857
#
#
#
# Elastic Compliance Matrix: (Units=1/GPa)
#
#
# Indices 1 2 3 4 5 6 
#
# 1 0.024860 -0.003751 -0.003601 0.000000 0.000000 0.000000
# 2 -0.003751 0.016690 -0.005365 0.000000 0.000000 0.000000
# 3 -0.003601 -0.005365 0.007647 0.000000 0.000000 0.000000
# 4 0.000000 0.000000 0.000000 0.030521 0.000000 0.000000
# 5 0.000000 0.000000 0.000000 0.000000 0.080453 0.000000
# 6 0.000000 0.000000 0.000000 0.000000 0.000000 0.048577
#
#
# Mechanical properties :
#
#
# Convention : Reuss Voigt Hill
#
# Bulk Modulus (GPa) = 42.07779 68.55487 55.31633
# Shear Modulus (GPa) = 20.65238 26.62420 23.63829
#
# Velocity S-wave (km/s) = 3.27006 3.71286 3.49848
# Velocity P-wave (km/s) = 6.00371 7.34006 6.70526
#
# Compressibility (1/GPa) = 0.02376551
#
# Stress axis : x y z
#
# Youngs Moduli (GPa) = 40.22507 59.91520 130.76191
#
# Poissons Ratio (x) = 0.22473 0.47084
# Poissons Ratio (y) = 0.15087 0.70150
# Poissons Ratio (z) = 0.14484 0.32143
#
# Static dielectric constant tensor:
#      x y z
#    x 1.653460 0.000000 0.000000 
#    y 0.000000 1.671340 0.000000 
#    z 0.000000 0.000000 1.684460 
# 
# From -- ./inp_files/11872.got.cif
#   From: 2010.05.17/outbox.cif.g08.bks.cpg/sg35_6_cif.got.tgz:11872.got - 2010.06.03 17:29:28.
