data_PCOD9349449
_publ_section_title
;
Structure prediction by ZEFSAII (Michael W. Deem and Ramdas Pophale) SiO2 
 PCOD9349449
Probable space group: C M M 2
;
_chemical_formula_sum "Si O2"
_cell_formula_units_Z 40
_cell_length_a 14.969416
_cell_length_b 8.032458
_cell_length_c 15.861217
_cell_angle_alpha 90.000000
_cell_angle_beta 90.000000
_cell_angle_gamma 90.000000
_cell_volume 1907.171850
_symmetry_space_group_name_H-M "C M M 2"
_symmetry_group_IT_number 35
_symmetry_cell_setting 'orthorhombic'
loop_
_space_group_symop_operation_xyz
x,y,z
-x,-y,z
-x,y,z
x,-y,z
1/2+x,1/2+y,z
1/2-x,1/2-y,z
1/2-x,1/2+y,z
1/2+x,1/2-y,z
loop_
_atom_site_type_symbol
_atom_site_label
_atom_site_fract_x
_atom_site_fract_y
_atom_site_fract_z
Si Si1 0.146683 0.300911 0.142520
Si Si2 0.000000 0.698820 0.819039
Si Si3 0.500000 0.694265 0.010640
Si Si4 0.853100 0.701215 0.691486
Si Si5 0.145236 0.298789 0.326342
Si Si6 0.354773 0.201041 0.507446
O O1 0.142449 0.500000 0.144168
O O2 0.250000 0.250000 0.132917
O O3 0.085628 0.241619 0.066551
O O4 0.112532 0.239439 0.234805
O O5 0.913677 0.763020 0.768121
O O6 0.000000 0.500000 0.808447
O O7 0.000000 0.729284 0.917932
O O8 0.500000 0.500000 0.997674
O O9 0.856359 0.500000 0.690134
O O10 0.750000 0.750000 0.700711
O O11 0.887816 0.758862 0.599011
O O12 0.137307 0.500000 0.326488
O O13 0.250000 0.250000 0.326465
O O14 0.108345 0.239024 0.416865
O O15 0.250000 0.250000 0.507431
O O16 0.362591 0.000000 0.506676
#
# Coordination Sequence:
#
# PCOD9349449 Si02
#       6
#     8   4   4   8   8   8
#     4  10  20  37  60  86 115 148 184 226 274 328
#     4  10  22  40  57  76 104 138 177 228 283 332
#     4  12  26  42  59  80 106 142 187 238 289 336
#     4   9  18  33  55  80 108 141 176 215 263 317
#     4   8  14  25  46  76 109 142 175 210 254 309
#     4   8  13  24  44  74 107 139 173 208 249 306
#
# _framework density 20.973462000000001
#
# number of rings (size 3 to 8) (size 9 to 14) (size 15 to 20)
#    0.000    2.800    0.000    1.500    0.000    2.400 
#    0.000    3.000    0.000    4.800    0.000    1.400 
#    0.000    0.000    0.000    0.000    0.000    0.000 
#
# Total GULP energy -111458.563944 kJ/mol
# GULP energy per Si atom -5572.928197 kJ/mol
# Density = 2.092573 g / cm^3
# Si number density = 20.973462 Si / 1000 Ang^3
#
#
#
# Elastic Constant Matrix: (Units=GPa)
#
#
# Indices 1 2 3 4 5 6 
#
# 1 92.0807 -0.1797 74.7685 0.0000 0.0000 0.0000
# 2 -0.1797 17.4300 -0.7970 0.0000 0.0000 0.0000
# 3 74.7685 -0.7970 220.3801 0.0000 0.0000 0.0000
# 4 0.0000 0.0000 0.0000 15.4719 0.0000 0.0000
# 5 0.0000 0.0000 0.0000 0.0000 44.4929 0.0000
# 6 0.0000 0.0000 0.0000 0.0000 0.0000 13.0252
#
#
#
# Elastic Compliance Matrix: (Units=1/GPa)
#
#
# Indices 1 2 3 4 5 6 
#
# 1 0.014989 -0.000078 -0.005086 0.000000 0.000000 0.000000
# 2 -0.000078 0.057382 0.000234 0.000000 0.000000 0.000000
# 3 -0.005086 0.000234 0.006264 0.000000 0.000000 0.000000
# 4 0.000000 0.000000 0.000000 0.064633 0.000000 0.000000
# 5 0.000000 0.000000 0.000000 0.000000 0.022476 0.000000
# 6 0.000000 0.000000 0.000000 0.000000 0.000000 0.076774
#
#
# Mechanical properties :
#
#
# Convention : Reuss Voigt Hill
#
# Bulk Modulus (GPa) = 14.53994 53.05272 33.79633
# Shear Modulus (GPa) = 18.16178 31.67127 24.91652
#
# Velocity S-wave (km/s) = 2.94588 3.89017 3.45048
# Velocity P-wave (km/s) = 4.30332 6.74744 5.65891
#
# Compressibility (1/GPa) = 0.06877608
#
# Stress axis : x y z
#
# Youngs Moduli (GPa) = 66.71348 17.42698 159.64456
#
# Poissons Ratio (x) = 0.00136 0.81192
# Poissons Ratio (y) = 0.00520 -0.03735
# Poissons Ratio (z) = 0.33929 -0.00408
#
# Static dielectric constant tensor:
#      x y z
#    x 1.640050 0.000000 0.000000 
#    y 0.000000 1.736650 0.000000 
#    z 0.000000 0.000000 1.837280 
# 
# From -- ./inp_files/14726.got.cif
#   From: 2010.05.17/outbox.cif.g08.bks.cpg/sg35_8_cif.got.tgz:14726.got - 2010.06.03 17:29:28.
