data_PCOD9349533
_publ_section_title
;
Structure prediction by ZEFSAII (Michael W. Deem and Ramdas Pophale) SiO2 
 PCOD9349533
Probable space group: C M M 2
;
_chemical_formula_sum "Si O2"
_cell_formula_units_Z 64
_cell_length_a 14.609780
_cell_length_b 22.457135
_cell_length_c 9.021073
_cell_angle_alpha 90.000000
_cell_angle_beta 90.000000
_cell_angle_gamma 90.000000
_cell_volume 2959.758137
_symmetry_space_group_name_H-M "C M M 2"
_symmetry_group_IT_number 35
_symmetry_cell_setting 'orthorhombic'
loop_
_space_group_symop_operation_xyz
x,y,z
-x,-y,z
-x,y,z
x,-y,z
1/2+x,1/2+y,z
1/2-x,1/2-y,z
1/2-x,1/2+y,z
1/2+x,1/2-y,z
loop_
_atom_site_type_symbol
_atom_site_label
_atom_site_fract_x
_atom_site_fract_y
_atom_site_fract_z
Si Si1 0.720719 0.863012 0.845700
Si Si2 0.393926 0.762198 0.683285
Si Si3 0.103457 0.624887 0.339581
Si Si4 0.108169 0.934183 0.375177
Si Si5 0.396543 0.624888 0.684183
Si Si6 0.391831 0.065817 0.648587
Si Si7 0.393926 0.262198 0.340478
Si Si8 0.779281 0.863012 0.178064
O O1 0.678663 0.803656 0.766779
O O2 0.808177 0.895576 0.771650
O O3 0.641895 0.909858 0.805606
O O4 0.750000 0.850097 0.011882
O O5 0.500000 0.785829 0.689595
O O6 0.398172 0.693971 0.736270
O O7 0.369901 0.750000 0.511881
O O8 0.126488 0.611747 0.512610
O O9 0.101828 0.693971 0.287493
O O10 0.191823 0.604424 0.252114
O O11 0.000000 0.601298 0.315358
O O12 0.126488 0.888253 0.511153
O O13 0.141896 0.909858 0.218158
O O14 0.000000 0.938068 0.370288
O O15 0.145135 0.000000 0.409950
O O16 0.500000 0.601298 0.708405
O O17 0.500000 0.061933 0.653477
O O18 0.354866 0.000000 0.613814
O O19 0.500000 0.285829 0.334167
O O20 0.321337 0.303656 0.256984
#
# Coordination Sequence:
#
# PCOD9349533 Si02
#       8
#     8   8   8   8   8   8   8   8
#     4  12  25  38  61  98 138 172 210 262 334 409
#     4  10  20  38  65  92 124 167 221 271 318 380
#     4  10  22  39  62  92 125 169 222 276 323 378
#     4  10  22  43  69  94 123 168 229 284 324 374
#     4  10  22  39  62  92 125 169 222 276 323 378
#     4  10  22  43  69  94 123 168 229 284 324 374
#     4  10  20  38  65  92 124 167 221 271 318 380
#     4  12  25  38  61  98 138 172 210 262 334 409
#
# _framework density 21.623389
#
# number of rings (size 3 to 8) (size 9 to 14) (size 15 to 20)
#    0.000    1.500    2.500    2.250    0.000    7.500 
#    0.000    2.500    0.000    3.000    0.000    0.000 
#    0.000    0.000    0.000    0.000    0.000    0.000 
#
# Total GULP energy -178181.648490 kJ/mol
# GULP energy per Si atom -5568.176515 kJ/mol
# Density = 2.157417 g / cm^3
# Si number density = 21.623389 Si / 1000 Ang^3
#
#
#
# Elastic Constant Matrix: (Units=GPa)
#
#
# Indices 1 2 3 4 5 6 
#
# 1 87.9644 26.4387 60.3771 0.0000 0.0000 0.0000
# 2 26.4387 90.7491 30.6199 0.0000 0.0000 0.0000
# 3 60.3771 30.6199 124.0349 0.0000 0.0000 0.0000
# 4 0.0000 0.0000 0.0000 7.5456 0.0000 0.0000
# 5 0.0000 0.0000 0.0000 0.0000 -44.8585 0.0000
# 6 0.0000 0.0000 0.0000 0.0000 0.0000 18.7375
#
#
#
# Elastic Compliance Matrix: (Units=1/GPa)
#
#
# Indices 1 2 3 4 5 6 
#
# 1 0.017551 -0.002433 -0.007943 0.000000 0.000000 0.000000
# 2 -0.002433 0.012358 -0.001866 0.000000 0.000000 0.000000
# 3 -0.007943 -0.001866 0.012389 0.000000 0.000000 0.000000
# 4 0.000000 0.000000 0.000000 0.132527 0.000000 0.000000
# 5 0.000000 0.000000 0.000000 0.000000 -0.022292 0.000000
# 6 0.000000 0.000000 0.000000 0.000000 0.000000 0.053369
#
#
# Mechanical properties :
#
#
# Convention : Reuss Voigt Hill
#
# Bulk Modulus (GPa) = 56.13629 59.73554 57.93592
# Shear Modulus (GPa) = 21.15724 8.63910 14.89817
#
# Velocity S-wave (km/s) = 3.13140 2.00098 2.62770
# Velocity P-wave (km/s) = 6.25232 5.74665 6.00481
#
# Compressibility (1/GPa) = 0.01781379
#
# Stress axis : x y z
#
# Youngs Moduli (GPa) = 56.97523 80.91901 80.71433
#
# Poissons Ratio (x) = 0.19691 0.64111
# Poissons Ratio (y) = 0.13864 0.15063
# Poissons Ratio (z) = 0.45255 0.15102
#
# Static dielectric constant tensor:
#      x y z
#    x 1.880800 0.000000 0.000000 
#    y 0.000000 1.897460 0.000000 
#    z 0.000000 0.000000 1.798130 
# 
# From -- ./inp_files/7838.got.cif
#   From: 2010.05.17/outbox.cif.g08.bks.cpg/sg35_4_cif.got.tgz:7838.got - 2010.06.03 17:29:28.
