data_PCOD9349822
_publ_section_title
;
Structure prediction by ZEFSAII (Michael W. Deem and Ramdas Pophale) SiO2 
 PCOD9349822
Probable space group: C M M 2
;
_chemical_formula_sum "Si O2"
_cell_formula_units_Z 64
_cell_length_a 30.298526
_cell_length_b 8.729185
_cell_length_c 12.472938
_cell_angle_alpha 90.000000
_cell_angle_beta 90.000000
_cell_angle_gamma 90.000000
_cell_volume 3298.860587
_symmetry_space_group_name_H-M "C M M 2"
_symmetry_group_IT_number 35
_symmetry_cell_setting 'orthorhombic'
loop_
_space_group_symop_operation_xyz
x,y,z
-x,-y,z
-x,y,z
x,-y,z
1/2+x,1/2+y,z
1/2-x,1/2-y,z
1/2-x,1/2+y,z
1/2+x,1/2-y,z
loop_
_atom_site_type_symbol
_atom_site_label
_atom_site_fract_x
_atom_site_fract_y
_atom_site_fract_z
Si Si1 0.853866 0.316632 0.933420
Si Si2 0.707319 0.820674 0.507989
Si Si3 0.859135 0.317985 0.318080
Si Si4 0.422198 0.818077 0.639500
Si Si5 0.451795 0.814091 0.400492
Si Si6 0.952254 0.316742 0.878404
Si Si7 0.832197 0.178187 0.709941
Si Si8 0.200618 0.182018 0.131302
O O1 0.854305 0.500000 0.945891
O O2 0.905406 0.261545 0.926709
O O3 0.832244 0.273327 0.819528
O O4 0.825506 0.242237 0.027090
O O5 0.750000 0.750000 0.450909
O O6 0.664938 0.801854 0.432610
O O7 0.701188 0.734534 0.619734
O O8 0.713491 0.000000 0.526397
O O9 0.859758 0.500000 0.292065
O O10 0.909285 0.261522 0.333567
O O11 0.829442 0.233988 0.231220
O O12 0.445163 0.781406 0.527154
O O13 0.449328 0.797983 0.749282
O O14 0.379514 0.714784 0.656787
O O15 0.409396 0.000000 0.635564
O O16 0.500000 0.758834 0.365446
O O17 0.451522 0.000000 0.392897
O O18 0.952493 0.500000 0.897612
O O19 0.000000 0.255129 0.915781
O O20 0.826908 0.000000 0.733426
O O21 0.250000 0.250000 0.137212
O O22 0.204181 0.000000 0.128215
#
# Coordination Sequence:
#
# PCOD9349822 Si02
#       8
#     8   8   8   8   8   8   8   8
#     4  10  21  39  63  89 119 153 196 247 296 348
#     4  11  22  37  57  85 117 153 194 240 295 357
#     4  10  21  39  62  89 121 154 196 248 296 347
#     4   9  15  28  50  80 117 160 203 246 286 332
#     4   9  16  29  55  89 121 157 203 249 289 336
#     4   8  14  26  51  87 121 154 195 240 283 331
#     4  11  21  34  54  83 121 161 196 237 292 353
#     4  12  26  45  68  90 113 147 195 248 304 363
#
# _framework density 19.400638000000001
#
# number of rings (size 3 to 8) (size 9 to 14) (size 15 to 20)
#    0.000    2.000    1.250    4.500    0.000    4.000 
#    0.000    3.125    0.000   17.625    0.000    0.000 
#    0.000    0.000    0.000    0.000    0.000    0.000 
#
# Total GULP energy -178534.749922 kJ/mol
# GULP energy per Si atom -5579.210935 kJ/mol
# Density = 1.935648 g / cm^3
# Si number density = 19.400638 Si / 1000 Ang^3
#
#
#
# Elastic Constant Matrix: (Units=GPa)
#
#
# Indices 1 2 3 4 5 6 
#
# 1 157.6579 49.1549 57.5306 0.0000 0.0000 0.0000
# 2 49.1549 65.4999 37.3341 0.0000 0.0000 0.0000
# 3 57.5306 37.3341 80.4435 0.0000 0.0000 0.0000
# 4 0.0000 0.0000 0.0000 13.5642 0.0000 0.0000
# 5 0.0000 0.0000 0.0000 0.0000 15.0726 0.0000
# 6 0.0000 0.0000 0.0000 0.0000 0.0000 17.5810
#
#
#
# Elastic Compliance Matrix: (Units=1/GPa)
#
#
# Indices 1 2 3 4 5 6 
#
# 1 0.009430 -0.004395 -0.004704 0.000000 0.000000 0.000000
# 2 -0.004395 0.022807 -0.007441 0.000000 0.000000 0.000000
# 3 -0.004704 -0.007441 0.019249 0.000000 0.000000 0.000000
# 4 0.000000 0.000000 0.000000 0.073723 0.000000 0.000000
# 5 0.000000 0.000000 0.000000 0.000000 0.066346 0.000000
# 6 0.000000 0.000000 0.000000 0.000000 0.000000 0.056880
#
#
# Mechanical properties :
#
#
# Convention : Reuss Voigt Hill
#
# Bulk Modulus (GPa) = 54.33544 65.73784 60.03664
# Shear Modulus (GPa) = 17.38218 19.88234 18.63226
#
# Velocity S-wave (km/s) = 2.99651 3.20477 3.10238
# Velocity P-wave (km/s) = 6.32771 6.90304 6.62163
#
# Compressibility (1/GPa) = 0.01840419
#
# Stress axis : x y z
#
# Youngs Moduli (GPa) = 106.04706 43.84553 51.95133
#
# Poissons Ratio (x) = 0.19272 0.24438
# Poissons Ratio (y) = 0.46613 0.38659
# Poissons Ratio (z) = 0.49884 0.32627
#
# Static dielectric constant tensor:
#      x y z
#    x 1.826720 0.000000 0.000000 
#    y 0.000000 1.651870 0.000000 
#    z 0.000000 0.000000 1.671920 
# 
# From -- ./inp_files/14579.got.cif
#   From: 2010.05.17/outbox.cif.g08.bks.cpg/sg35_8_cif.got.tgz:14579.got - 2010.06.03 17:29:28.
