data_PCOD9349494
_publ_section_title
;
Structure prediction by ZEFSAII (Michael W. Deem and Ramdas Pophale) SiO2 
 PCOD9349494
Probable space group: C M M 2
;
_chemical_formula_sum "Si O2"
_cell_formula_units_Z 48
_cell_length_a 7.811742
_cell_length_b 18.675228
_cell_length_c 17.523780
_cell_angle_alpha 90.000000
_cell_angle_beta 90.000000
_cell_angle_gamma 90.000000
_cell_volume 2556.475272
_symmetry_space_group_name_H-M "C M M 2"
_symmetry_group_IT_number 35
_symmetry_cell_setting 'orthorhombic'
loop_
_space_group_symop_operation_xyz
x,y,z
-x,-y,z
-x,y,z
x,-y,z
1/2+x,1/2+y,z
1/2-x,1/2-y,z
1/2-x,1/2+y,z
1/2+x,1/2-y,z
loop_
_atom_site_type_symbol
_atom_site_label
_atom_site_fract_x
_atom_site_fract_y
_atom_site_fract_z
Si Si1 0.306133 0.414931 0.125000
Si Si2 0.796610 0.580190 0.826015
Si Si3 0.000000 0.413226 0.234875
Si Si4 0.705444 0.833319 0.972750
Si Si5 0.000000 0.413585 0.411420
Si Si6 0.706178 0.666216 0.503136
Si Si7 0.202934 0.167818 0.678990
O O1 0.500000 0.405237 0.152726
O O2 0.279698 0.500000 0.110462
O O3 0.167105 0.390999 0.187168
O O4 0.280239 0.372767 0.046524
O O5 0.724251 0.500000 0.828228
O O6 0.730211 0.629161 0.895066
O O7 0.772125 0.616490 0.744189
O O8 0.000000 0.575137 0.838121
O O9 0.000000 0.500000 0.236014
O O10 0.000000 0.390783 0.322586
O O11 0.500000 0.840384 0.976963
O O12 0.750000 0.750000 0.972323
O O13 0.829880 0.381742 0.451345
O O14 0.000000 0.500000 0.416334
O O15 0.500000 0.655434 0.493585
O O16 0.750000 0.750000 0.489382
O O17 0.755139 0.651789 0.591919
O O18 0.250000 0.250000 0.695919
O O19 0.000000 0.162098 0.680770
#
# Coordination Sequence:
#
# PCOD9349494 Si02
#       7
#     8   8   4   8   4   8   8
#     4  10  20  37  64  90 115 155 201 243 297 361
#     4  10  22  37  55  82 117 157 199 244 296 349
#     4   9  20  40  62  89 125 158 195 245 301 368
#     4  11  22  37  57  82 118 155 197 251 297 353
#     4  11  24  40  66  99 130 166 205 259 326 374
#     4  10  21  40  66  92 126 168 216 257 311 385
#     4  10  21  36  58  85 114 155 201 250 296 353
#
# _framework density 18.775852
#
# number of rings (size 3 to 8) (size 9 to 14) (size 15 to 20)
#    0.000    1.833    1.667    2.000    2.333    5.333 
#    0.000    4.167    0.000    0.000    0.000    0.000 
#    0.000    0.000    0.000    0.000    0.000    0.000 
#
# Total GULP energy -133996.167844 kJ/mol
# GULP energy per Si atom -5583.173660 kJ/mol
# Density = 1.873312 g / cm^3
# Si number density = 18.775852 Si / 1000 Ang^3
#
#
#
# Elastic Constant Matrix: (Units=GPa)
#
#
# Indices 1 2 3 4 5 6 
#
# 1 96.9316 49.5350 61.8384 0.0000 0.0000 0.0000
# 2 49.5350 100.3381 86.5294 0.0000 0.0000 0.0000
# 3 61.8384 86.5294 148.3035 0.0000 0.0000 0.0000
# 4 0.0000 0.0000 0.0000 49.2999 0.0000 0.0000
# 5 0.0000 0.0000 0.0000 0.0000 56.3562 0.0000
# 6 0.0000 0.0000 0.0000 0.0000 0.0000 26.3453
#
#
#
# Elastic Compliance Matrix: (Units=1/GPa)
#
#
# Indices 1 2 3 4 5 6 
#
# 1 0.014811 -0.003998 -0.003844 0.000000 0.000000 0.000000
# 2 -0.003998 0.021138 -0.010667 0.000000 0.000000 0.000000
# 3 -0.003844 -0.010667 0.014569 0.000000 0.000000 0.000000
# 4 0.000000 0.000000 0.000000 0.020284 0.000000 0.000000
# 5 0.000000 0.000000 0.000000 0.000000 0.017744 0.000000
# 6 0.000000 0.000000 0.000000 0.000000 0.000000 0.037957
#
#
# Mechanical properties :
#
#
# Convention : Reuss Voigt Hill
#
# Bulk Modulus (GPa) = 74.05407 82.37541 78.21474
# Shear Modulus (GPa) = 29.75809 36.24495 33.00152
#
# Velocity S-wave (km/s) = 3.98542 4.39840 4.19699
# Velocity P-wave (km/s) = 7.79133 8.35242 8.07675
#
# Compressibility (1/GPa) = 0.01350365
#
# Stress axis : x y z
#
# Youngs Moduli (GPa) = 67.51538 47.30708 68.63813
#
# Poissons Ratio (x) = 0.18911 0.26381
# Poissons Ratio (y) = 0.26989 0.73214
# Poissons Ratio (z) = 0.25950 0.50461
#
# Static dielectric constant tensor:
#      x y z
#    x 1.660740 0.000000 0.000000 
#    y 0.000000 1.627960 0.000000 
#    z 0.000000 0.000000 1.636270 
# 
# From -- ./inp_files/17875.got.cif
#   From: 2010.05.17/outbox.cif.g08.bks.cpg/sg35_9_cif.got.tgz:17875.got - 2010.06.03 17:29:28.
