data_PCOD9349808
_publ_section_title
;
Structure prediction by ZEFSAII (Michael W. Deem and Ramdas Pophale) SiO2 
 PCOD9349808
Probable space group: C M M 2
;
_chemical_formula_sum "Si O2"
_cell_formula_units_Z 64
_cell_length_a 14.739260
_cell_length_b 15.743813
_cell_length_c 14.287631
_cell_angle_alpha 90.000000
_cell_angle_beta 90.000000
_cell_angle_gamma 90.000000
_cell_volume 3315.475538
_symmetry_space_group_name_H-M "C M M 2"
_symmetry_group_IT_number 35
_symmetry_cell_setting 'orthorhombic'
loop_
_space_group_symop_operation_xyz
x,y,z
-x,-y,z
-x,y,z
x,-y,z
1/2+x,1/2+y,z
1/2-x,1/2-y,z
1/2-x,1/2+y,z
1/2+x,1/2-y,z
loop_
_atom_site_type_symbol
_atom_site_label
_atom_site_fract_x
_atom_site_fract_y
_atom_site_fract_z
Si Si1 0.889647 0.249999 0.983620
Si Si2 0.392347 0.904221 0.116601
Si Si3 0.610140 0.749999 0.770196
Si Si4 0.392348 0.595779 0.116605
Si Si5 0.108374 0.099265 0.632171
Si Si6 0.249998 0.601301 0.474132
Si Si7 0.250001 0.848782 0.261494
Si Si8 0.608374 0.900735 0.632175
O O1 0.857722 0.249997 0.876896
O O2 0.000000 0.249998 0.980939
O O3 0.863094 0.333546 0.041684
O O4 0.863094 0.166453 0.041688
O O5 0.500000 0.894172 0.132878
O O6 0.337046 0.890071 0.211678
O O7 0.376174 0.000000 0.082391
O O8 0.500000 0.749999 0.773015
O O9 0.635833 0.665529 0.712703
O O10 0.635833 0.834470 0.712706
O O11 0.500000 0.605829 0.132883
O O12 0.376176 0.500000 0.082395
O O13 0.337045 0.609929 0.211681
O O14 0.163031 0.121977 0.538314
O O15 0.000000 0.106185 0.618376
O O16 0.128524 0.000000 0.654724
O O17 0.249998 0.500000 0.459525
O O18 0.249997 0.641733 0.372529
O O19 0.163030 0.621976 0.538318
O O20 0.250000 0.750000 0.237074
O O21 0.500000 0.893816 0.618381
O O22 0.628525 0.000000 0.654728
#
# Coordination Sequence:
#
# PCOD9349808 Si02
#       8
#     8   8   8   8   8   8   8   8
#     4   9  18  35  57  86 115 145 190 232 278 336
#     4  10  21  39  61  84 116 153 189 234 283 335
#     4   9  18  33  57  84 113 147 184 226 274 332
#     4  10  21  39  61  84 116 153 189 234 283 335
#     4   9  19  36  56  80 112 147 183 226 274 325
#     4  10  22  38  56  81 110 143 188 232 274 333
#     4  12  24  38  60  86 115 150 190 239 287 341
#     4   9  19  36  56  80 112 147 183 226 274 325
#
# _framework density 19.303415000000001
#
# number of rings (size 3 to 8) (size 9 to 14) (size 15 to 20)
#    0.000    2.250    1.250    1.125    1.750    2.000 
#    0.000   10.000    0.000    3.000    0.000    0.000 
#    0.000    0.000    0.000    0.000    0.000    0.000 
#
# Total GULP energy -178645.790362 kJ/mol
# GULP energy per Si atom -5582.680949 kJ/mol
# Density = 1.925948 g / cm^3
# Si number density = 19.303415 Si / 1000 Ang^3
#
#
#
# Elastic Constant Matrix: (Units=GPa)
#
#
# Indices 1 2 3 4 5 6 
#
# 1 77.8429 44.4980 46.8407 0.0000 0.0000 0.0000
# 2 44.4980 140.6882 89.7325 0.0000 0.0000 0.0000
# 3 46.8407 89.7325 168.8203 0.0000 0.0000 0.0000
# 4 0.0000 0.0000 0.0000 14.5791 0.0000 0.0000
# 5 0.0000 0.0000 0.0000 0.0000 29.4714 0.0000
# 6 0.0000 0.0000 0.0000 0.0000 0.0000 9.8366
#
#
#
# Elastic Compliance Matrix: (Units=1/GPa)
#
#
# Indices 1 2 3 4 5 6 
#
# 1 0.016470 -0.003472 -0.002725 0.000000 0.000000 0.000000
# 2 -0.003472 0.011485 -0.005141 0.000000 0.000000 0.000000
# 3 -0.002725 -0.005141 0.009412 0.000000 0.000000 0.000000
# 4 0.000000 0.000000 0.000000 0.068592 0.000000 0.000000
# 5 0.000000 0.000000 0.000000 0.000000 0.033931 0.000000
# 6 0.000000 0.000000 0.000000 0.000000 0.000000 0.101661
#
#
# Mechanical properties :
#
#
# Convention : Reuss Voigt Hill
#
# Bulk Modulus (GPa) = 68.06196 83.27708 75.66952
# Shear Modulus (GPa) = 18.57873 24.52941 21.55407
#
# Velocity S-wave (km/s) = 3.10572 3.56860 3.34517
# Velocity P-wave (km/s) = 6.94235 7.75981 7.36243
#
# Compressibility (1/GPa) = 0.01469250
#
# Stress axis : x y z
#
# Youngs Moduli (GPa) = 60.71509 87.06827 106.24436
#
# Poissons Ratio (x) = 0.30227 0.28947
# Poissons Ratio (y) = 0.21078 0.54625
# Poissons Ratio (z) = 0.16542 0.44766
#
# Static dielectric constant tensor:
#      x y z
#    x 1.696290 0.000000 0.000000 
#    y 0.000000 1.677240 0.000000 
#    z 0.000000 0.000000 1.620900 
# 
# From -- ./inp_files/13599.got.cif
#   From: 2010.05.17/outbox.cif.g08.bks.cpg/sg35_7_cif.got.tgz:13599.got - 2010.06.03 17:29:28.
