data_PCOD9349611
_publ_section_title
;
Structure prediction by ZEFSAII (Michael W. Deem and Ramdas Pophale) SiO2 
 PCOD9349611
Probable space group: C M M 2
;
_chemical_formula_sum "Si O2"
_cell_formula_units_Z 64
_cell_length_a 9.160669
_cell_length_b 19.179832
_cell_length_c 21.057121
_cell_angle_alpha 90.000000
_cell_angle_beta 90.000000
_cell_angle_gamma 90.000000
_cell_volume 3699.738106
_symmetry_space_group_name_H-M "C M M 2"
_symmetry_group_IT_number 35
_symmetry_cell_setting 'orthorhombic'
loop_
_space_group_symop_operation_xyz
x,y,z
-x,-y,z
-x,y,z
x,-y,z
1/2+x,1/2+y,z
1/2-x,1/2-y,z
1/2-x,1/2+y,z
1/2+x,1/2-y,z
loop_
_atom_site_type_symbol
_atom_site_label
_atom_site_fract_x
_atom_site_fract_y
_atom_site_fract_z
Si Si1 0.174760 0.582373 0.142720
Si Si2 0.175850 0.174384 0.249769
Si Si3 0.675038 0.580775 0.371110
Si Si4 0.824721 0.417192 0.640959
Si Si5 0.828810 0.416966 0.995689
Si Si6 0.831632 0.415311 0.499530
Si Si7 0.173197 0.824582 0.892109
Si Si8 0.174222 0.825119 0.747229
O O1 0.205960 0.500000 0.152952
O O2 0.264183 0.630343 0.190316
O O3 0.000000 0.591755 0.151718
O O4 0.208054 0.599250 0.069072
O O5 0.250000 0.250000 0.250952
O O6 0.216072 0.130370 0.312894
O O7 0.000000 0.180492 0.246933
O O8 0.500000 0.580343 0.375511
O O9 0.722245 0.500000 0.359905
O O10 0.740223 0.605516 0.438159
O O11 0.797403 0.500000 0.646042
O O12 0.780592 0.393281 0.569694
O O13 0.741418 0.376449 0.695493
O O14 0.000000 0.407120 0.646072
O O15 0.812344 0.500000 0.988060
O O16 0.734174 0.376311 0.944831
O O17 0.000000 0.400074 0.986403
O O18 0.829425 0.500000 0.501137
O O19 0.000000 0.393902 0.491627
O O20 0.250000 0.750000 0.899852
O O21 0.203573 0.849089 0.819796
O O22 0.000000 0.816301 0.898424
O O23 0.250000 0.750000 0.740010
O O24 0.000000 0.818728 0.739560
#
# Coordination Sequence:
#
# PCOD9349611 Si02
#       8
#     8   8   8   8   8   8   8   8
#     4   9  19  37  59  81 105 135 172 211 253 306
#     4  11  23  37  53  76 107 140 175 215 258 304
#     4   9  18  33  53  76 101 131 169 212 257 306
#     4   9  18  33  53  78 107 137 171 212 257 306
#     4   9  19  36  57  81 108 136 168 209 256 306
#     4   8  15  29  50  76 103 131 166 207 251 303
#     4  10  21  36  54  76 103 137 176 216 257 306
#     4  10  21  36  53  74 102 137 177 217 258 307
#
# _framework density 17.298521000000001
#
# number of rings (size 3 to 8) (size 9 to 14) (size 15 to 20)
#    0.000    2.625    0.000    3.000    0.000    5.750 
#    0.000    6.875    0.000    1.500    0.000    0.000 
#    0.000    0.000    0.000    0.000    0.000    0.000 
#
# Total GULP energy -178460.585887 kJ/mol
# GULP energy per Si atom -5576.893309 kJ/mol
# Density = 1.725915 g / cm^3
# Si number density = 17.298521 Si / 1000 Ang^3
#
#
#
# Elastic Constant Matrix: (Units=GPa)
#
#
# Indices 1 2 3 4 5 6 
#
# 1 62.3730 54.5789 86.4082 0.0000 0.0000 0.0000
# 2 54.5789 71.5093 88.5118 0.0000 0.0000 0.0000
# 3 86.4082 88.5118 172.1284 0.0000 0.0000 0.0000
# 4 0.0000 0.0000 0.0000 -58.0446 0.0000 0.0000
# 5 0.0000 0.0000 0.0000 0.0000 36.4062 0.0000
# 6 0.0000 0.0000 0.0000 0.0000 0.0000 28.3912
#
#
#
# Elastic Compliance Matrix: (Units=1/GPa)
#
#
# Indices 1 2 3 4 5 6 
#
# 1 0.066507 -0.025959 -0.020038 0.000000 0.000000 0.000000
# 2 -0.025959 0.048601 -0.011961 0.000000 0.000000 0.000000
# 3 -0.020038 -0.011961 0.022019 0.000000 0.000000 0.000000
# 4 0.000000 0.000000 0.000000 -0.017228 0.000000 0.000000
# 5 0.000000 0.000000 0.000000 0.000000 0.027468 0.000000
# 6 0.000000 0.000000 0.000000 0.000000 0.000000 0.035222
#
#
# Mechanical properties :
#
#
# Convention : Reuss Voigt Hill
#
# Bulk Modulus (GPa) = 47.14098 85.00096 66.07097
# Shear Modulus (GPa) = 16.36263 6.45135 11.40699
#
# Velocity S-wave (km/s) = 3.07888 1.93327 2.57070
# Velocity P-wave (km/s) = 6.32060 7.36395 6.86213
#
# Compressibility (1/GPa) = 0.02121297
#
# Stress axis : x y z
#
# Youngs Moduli (GPa) = 15.03602 20.57560 45.41530
#
# Poissons Ratio (x) = 0.53411 0.91003
# Poissons Ratio (y) = 0.39031 0.54319
# Poissons Ratio (z) = 0.30129 0.24610
#
# Static dielectric constant tensor:
#      x y z
#    x 1.574630 0.000000 0.000000 
#    y 0.000000 1.563550 0.000000 
#    z 0.000000 0.000000 1.584010 
# 
# From -- ./inp_files/18449.got.cif
#   From: 2010.05.17/outbox.cif.g08.bks.cpg/sg35_10_cif.got.tgz:18449.got - 2010.06.03 17:29:28.
