data_PCOD9349572
_publ_section_title
;
Structure prediction by ZEFSAII (Michael W. Deem and Ramdas Pophale) SiO2 
 PCOD9349572
Probable space group: C M M 2
;
_chemical_formula_sum "Si O2"
_cell_formula_units_Z 64
_cell_length_a 7.530105
_cell_length_b 29.874540
_cell_length_c 12.962724
_cell_angle_alpha 90.000000
_cell_angle_beta 90.000000
_cell_angle_gamma 90.000000
_cell_volume 2916.073949
_symmetry_space_group_name_H-M "C M M 2"
_symmetry_group_IT_number 35
_symmetry_cell_setting 'orthorhombic'
loop_
_space_group_symop_operation_xyz
x,y,z
-x,-y,z
-x,y,z
x,-y,z
1/2+x,1/2+y,z
1/2-x,1/2-y,z
1/2-x,1/2+y,z
1/2+x,1/2-y,z
loop_
_atom_site_type_symbol
_atom_site_label
_atom_site_fract_x
_atom_site_fract_y
_atom_site_fract_z
Si Si1 0.787227 0.197525 0.165460
Si Si2 0.712479 0.303275 0.389498
Si Si3 0.795899 0.054441 0.406120
Si Si4 0.786127 0.802800 0.613413
Si Si5 0.294689 0.050875 0.635518
Si Si6 0.282453 0.622412 0.012000
Si Si7 0.704061 0.370065 0.780994
Si Si8 0.282492 0.551653 0.181458
O O1 0.750000 0.250000 0.152790
O O2 0.718921 0.181510 0.277948
O O3 0.000000 0.192542 0.169237
O O4 0.725320 0.167334 0.071299
O O5 0.500000 0.310217 0.389425
O O6 0.750000 0.250000 0.389973
O O7 0.780696 0.319099 0.500712
O O8 0.714391 0.066118 0.516078
O O9 0.722627 0.068639 0.294778
O O10 0.000000 0.069544 0.411901
O O11 0.792795 0.000000 0.400954
O O12 0.750000 0.750000 0.624393
O O13 0.714403 0.831768 0.708131
O O14 0.000000 0.808266 0.611122
O O15 0.500000 0.049447 0.665384
O O16 0.204594 0.085282 0.712261
O O17 0.222575 0.000000 0.640094
O O18 0.500000 0.620510 0.010668
O O19 0.219057 0.621751 0.894329
O O20 0.225973 0.581801 0.085943
O O21 0.500000 0.356264 0.799255
O O22 0.500000 0.552380 0.185960
O O23 0.229438 0.500000 0.168623
#
# Coordination Sequence:
#
# PCOD9349572 Si02
#       8
#     8   8   8   8   8   8   8   8
#     4   9  17  30  48  69  94 124 157 197 245 292
#     4   8  14  26  45  68  93 122 156 196 244 295
#     4   8  14  27  50  78 102 124 156 199 247 302
#     4   9  18  32  50  73 100 130 165 206 251 297
#     4  10  21  36  53  74 102 134 166 204 253 305
#     4   9  18  31  47  71 101 130 165 207 245 285
#     4  10  21  35  51  74 102 133 175 217 247 288
#     4   8  14  26  47  75 102 126 156 199 250 299
#
# _framework density 21.947317999999999
#
# number of rings (size 3 to 8) (size 9 to 14) (size 15 to 20)
#    0.000    3.125    0.000    1.125    0.000    3.250 
#    0.000    5.625    0.000    6.000    0.000    1.750 
#    0.000    0.000    0.000    0.000    0.000    0.000 
#
# Total GULP energy -178459.444447 kJ/mol
# GULP energy per Si atom -5576.857639 kJ/mol
# Density = 2.189737 g / cm^3
# Si number density = 21.947318 Si / 1000 Ang^3
#
#
#
# Elastic Constant Matrix: (Units=GPa)
#
#
# Indices 1 2 3 4 5 6 
#
# 1 53.6362 -6.7647 4.7091 0.0000 0.0000 0.0000
# 2 -6.7647 98.8896 83.8290 0.0000 0.0000 0.0000
# 3 4.7091 83.8290 234.4189 0.0000 0.0000 0.0000
# 4 0.0000 0.0000 0.0000 32.1542 0.0000 0.0000
# 5 0.0000 0.0000 0.0000 0.0000 -12.7134 0.0000
# 6 0.0000 0.0000 0.0000 0.0000 0.0000 8.9440
#
#
#
# Elastic Compliance Matrix: (Units=1/GPa)
#
#
# Indices 1 2 3 4 5 6 
#
# 1 0.019046 0.002335 -0.001218 0.000000 0.000000 0.000000
# 2 0.002335 0.014798 -0.005339 0.000000 0.000000 0.000000
# 3 -0.001218 -0.005339 0.006199 0.000000 0.000000 0.000000
# 4 0.000000 0.000000 0.000000 0.031100 0.000000 0.000000
# 5 0.000000 0.000000 0.000000 0.000000 -0.078657 0.000000
# 6 0.000000 0.000000 0.000000 0.000000 0.000000 0.111807
#
#
# Mechanical properties :
#
#
# Convention : Reuss Voigt Hill
#
# Bulk Modulus (GPa) = 31.64541 61.16571 46.40556
# Shear Modulus (GPa) = 40.56196 26.02171 33.29183
#
# Velocity S-wave (km/s) = 4.30368 3.44705 3.89896
# Velocity P-wave (km/s) = 6.25665 6.61610 6.43888
#
# Compressibility (1/GPa) = 0.03160016
#
# Stress axis : x y z
#
# Youngs Moduli (GPa) = 52.50578 67.57891 161.30564
#
# Poissons Ratio (x) = -0.15780 0.19641
# Poissons Ratio (y) = -0.12260 0.86114
# Poissons Ratio (z) = 0.06393 0.36077
#
# Static dielectric constant tensor:
#      x y z
#    x 1.937650 0.000000 0.000000 
#    y 0.000000 1.787030 0.000000 
#    z 0.000000 0.000000 1.814970 
# 
# From -- ./inp_files/11871.got.cif
#   From: 2010.05.17/outbox.cif.g08.bks.cpg/sg35_6_cif.got.tgz:11871.got - 2010.06.03 17:29:28.
