data_PCOD9349236
_publ_section_title
;
Structure prediction by ZEFSAII (Michael W. Deem and Ramdas Pophale) SiO2 
 PCOD9349236
Probable space group: C M M 2
;
_chemical_formula_sum "Si O2"
_cell_formula_units_Z 40
_cell_length_a 8.813638
_cell_length_b 15.796630
_cell_length_c 14.555906
_cell_angle_alpha 90.000000
_cell_angle_beta 90.000000
_cell_angle_gamma 90.000000
_cell_volume 2026.557344
_symmetry_space_group_name_H-M "C M M 2"
_symmetry_group_IT_number 35
_symmetry_cell_setting 'orthorhombic'
loop_
_space_group_symop_operation_xyz
x,y,z
-x,-y,z
-x,y,z
x,-y,z
1/2+x,1/2+y,z
1/2-x,1/2-y,z
1/2-x,1/2+y,z
1/2+x,1/2-y,z
loop_
_atom_site_type_symbol
_atom_site_label
_atom_site_fract_x
_atom_site_fract_y
_atom_site_fract_z
Si Si1 0.181931 0.843120 0.516350
Si Si2 0.678272 0.837669 0.138000
Si Si3 0.817879 0.654837 0.710258
Si Si4 0.175368 0.901468 0.314649
Si Si5 0.678082 0.500000 0.041134
Si Si6 0.320300 0.500000 0.821858
O O1 0.250000 0.750000 0.501603
O O2 0.261116 0.874469 0.609145
O O3 0.212085 0.892217 0.422066
O O4 0.000000 0.840139 0.530692
O O5 0.500000 0.836027 0.125993
O O6 0.750000 0.750000 0.105641
O O7 0.720119 0.850519 0.245271
O O8 0.748179 0.916707 0.084357
O O9 0.750000 0.750000 0.724757
O O10 0.755691 0.584576 0.780264
O O11 0.000000 0.659656 0.712869
O O12 0.000000 0.873602 0.302365
O O13 0.185090 0.000000 0.289648
O O14 0.500000 0.500000 0.063643
O O15 0.696282 0.500000 0.931569
O O16 0.500000 0.500000 0.799294
#
# Coordination Sequence:
#
# PCOD9349236 Si02
#       6
#     8   8   8   8   4   4
#     4  10  20  35  57  86 123 168 212 257 306 363
#     4  12  25  42  67  96 128 169 210 257 313 374
#     4  11  23  41  65  95 130 169 211 260 311 372
#     4  10  21  37  59  89 128 170 211 258 309 366
#     4  11  25  47  70  95 126 159 205 264 320 379
#     4  11  25  45  70  95 124 163 205 260 324 379
#
# _framework density 19.737905999999999
#
# number of rings (size 3 to 8) (size 9 to 14) (size 15 to 20)
#    0.000    1.200    1.000    6.600    1.400    5.600 
#    0.000    0.000    0.000    0.000    0.000    0.000 
#    0.000    0.000    0.000    0.000    0.000    0.000 
#
# Total GULP energy -111831.285091 kJ/mol
# GULP energy per Si atom -5591.564255 kJ/mol
# Density = 1.969298 g / cm^3
# Si number density = 19.737906 Si / 1000 Ang^3
#
#
#
# Elastic Constant Matrix: (Units=GPa)
#
#
# Indices 1 2 3 4 5 6 
#
# 1 180.2151 85.6684 79.4943 0.0000 0.0000 0.0000
# 2 85.6684 131.6668 64.9599 0.0000 0.0000 0.0000
# 3 79.4943 64.9599 89.3636 0.0000 0.0000 0.0000
# 4 0.0000 0.0000 0.0000 50.6841 0.0000 0.0000
# 5 0.0000 0.0000 0.0000 0.0000 26.7153 0.0000
# 6 0.0000 0.0000 0.0000 0.0000 0.0000 32.4559
#
#
#
# Elastic Compliance Matrix: (Units=1/GPa)
#
#
# Indices 1 2 3 4 5 6 
#
# 1 0.009971 -0.003292 -0.006476 0.000000 0.000000 0.000000
# 2 -0.003292 0.012929 -0.006470 0.000000 0.000000 0.000000
# 3 -0.006476 -0.006470 0.021654 0.000000 0.000000 0.000000
# 4 0.000000 0.000000 0.000000 0.019730 0.000000 0.000000
# 5 0.000000 0.000000 0.000000 0.000000 0.037432 0.000000
# 6 0.000000 0.000000 0.000000 0.000000 0.000000 0.030811
#
#
# Mechanical properties :
#
#
# Convention : Reuss Voigt Hill
#
# Bulk Modulus (GPa) = 82.79904 95.72118 89.26011
# Shear Modulus (GPa) = 29.58076 33.37927 31.48001
#
# Velocity S-wave (km/s) = 3.87548 4.11679 3.99795
# Velocity P-wave (km/s) = 7.87820 8.43793 8.16287
#
# Compressibility (1/GPa) = 0.01207743
#
# Stress axis : x y z
#
# Youngs Moduli (GPa) = 100.29387 77.34642 46.18030
#
# Poissons Ratio (x) = 0.25464 0.29908
# Poissons Ratio (y) = 0.33018 0.29877
# Poissons Ratio (z) = 0.64954 0.50040
#
# Static dielectric constant tensor:
#      x y z
#    x 1.663160 0.000000 0.000000 
#    y 0.000000 1.635270 0.000000 
#    z 0.000000 0.000000 1.698930 
# 
# From -- ./inp_files/14794.got.cif
#   From: 2010.05.17/outbox.cif.g08.bks.cpg/sg35_8_cif.got.tgz:14794.got - 2010.06.03 17:29:28.
