data_PCOD9349600
_publ_section_title
;
Structure prediction by ZEFSAII (Michael W. Deem and Ramdas Pophale) SiO2 
 PCOD9349600
Probable space group: C M M 2
;
_chemical_formula_sum "Si O2"
_cell_formula_units_Z 38
_cell_length_a 15.910169
_cell_length_b 26.036595
_cell_length_c 5.148583
_cell_angle_alpha 90.000000
_cell_angle_beta 90.000000
_cell_angle_gamma 90.000000
_cell_volume 2132.783140
_symmetry_space_group_name_H-M "C M M 2"
_symmetry_group_IT_number 35
_symmetry_cell_setting 'orthorhombic'
loop_
_space_group_symop_operation_xyz
x,y,z
-x,-y,z
-x,y,z
x,-y,z
1/2+x,1/2+y,z
1/2-x,1/2-y,z
1/2-x,1/2+y,z
1/2+x,1/2-y,z
loop_
_atom_site_type_symbol
_atom_site_label
_atom_site_fract_x
_atom_site_fract_y
_atom_site_fract_z
Si Si1 0.596844 0.383300 0.002340
Si Si2 0.246033 0.689135 0.028716
Si Si3 0.000000 0.421954 0.496206
Si Si4 0.176891 0.366526 0.528376
Si Si5 0.000000 0.500000 0.996447
Si Si6 0.834737 0.939067 0.502047
O O1 0.500000 0.368527 0.027083
O O2 0.660657 0.335521 0.016983
O O3 0.623863 0.421536 0.232899
O O4 0.613684 0.412721 0.733683
O O5 0.250000 0.750000 0.003182
O O6 0.204389 0.671281 0.297413
O O7 0.194299 0.662532 0.797147
O O8 0.916383 0.387410 0.499563
O O9 0.000000 0.455807 0.761173
O O10 0.000000 0.455720 0.231544
O O11 0.241359 0.414847 0.514670
O O12 0.832470 0.000000 0.527781
#
# Coordination Sequence:
#
# PCOD9349600 Si02
#       6
#     8   8   4   8   2   8
#     4  10  21  37  55  83 114 144 188 238 280 340
#     4  10  21  41  63  83 116 154 195 245 306 350
#     4  11  22  42  56  94 124 160 210 246 299 350
#     4  10  22  39  60  85 122 151 196 251 287 358
#     4  10  24  34  60  86 124 170 190 254 288 354
#     4  10  21  35  55  83 113 154 185 224 286 342
#
# _framework density 17.817094999999998
#
# number of rings (size 3 to 8) (size 9 to 14) (size 15 to 20)
#    0.000    1.895    0.000    3.158    2.947    2.526 
#    3.789    0.000    0.000    0.000    0.000    0.000 
#    0.000    0.000    0.000    0.000    0.000    0.000 
#
# Total GULP energy -105836.879960 kJ/mol
# GULP energy per Si atom -5570.362103 kJ/mol
# Density = 1.777654 g / cm^3
# Si number density = 17.817095 Si / 1000 Ang^3
#
#
#
# Elastic Constant Matrix: (Units=GPa)
#
#
# Indices 1 2 3 4 5 6 
#
# 1 110.8791 34.5466 -6.9287 0.0000 0.0000 0.0000
# 2 34.5466 97.2910 -17.5110 0.0000 0.0000 0.0000
# 3 -6.9287 -17.5110 55.4563 0.0000 0.0000 0.0000
# 4 0.0000 0.0000 0.0000 3.3222 0.0000 0.0000
# 5 0.0000 0.0000 0.0000 0.0000 16.1185 0.0000
# 6 0.0000 0.0000 0.0000 0.0000 0.0000 -37.6469
#
#
#
# Elastic Compliance Matrix: (Units=1/GPa)
#
#
# Indices 1 2 3 4 5 6 
#
# 1 0.010142 -0.003576 0.000138 0.000000 0.000000 0.000000
# 2 -0.003576 0.012159 0.003393 0.000000 0.000000 0.000000
# 3 0.000138 0.003393 0.019121 0.000000 0.000000 0.000000
# 4 0.000000 0.000000 0.000000 0.301005 0.000000 0.000000
# 5 0.000000 0.000000 0.000000 0.000000 0.062040 0.000000
# 6 0.000000 0.000000 0.000000 0.000000 0.000000 -0.026563
#
#
# Mechanical properties :
#
#
# Convention : Reuss Voigt Hill
#
# Bulk Modulus (GPa) = 24.19590 31.53778 27.86684
# Shear Modulus (GPa) = 12.76249 13.26006 13.01128
#
# Velocity S-wave (km/s) = 2.67929 2.73102 2.70528
# Velocity P-wave (km/s) = 4.81468 5.26155 5.04307
#
# Compressibility (1/GPa) = 0.04132931
#
# Stress axis : x y z
#
# Youngs Moduli (GPa) = 98.60246 82.24379 52.29942
#
# Poissons Ratio (x) = 0.29413 -0.00721
# Poissons Ratio (y) = 0.35264 -0.17743
# Poissons Ratio (z) = -0.01359 -0.27901
#
# Static dielectric constant tensor:
#      x y z
#    x 1.591850 0.000000 0.000000 
#    y 0.000000 1.565880 0.000000 
#    z 0.000000 0.000000 1.601660 
# 
# From -- ./inp_files/1784.got.cif
#   From: 2010.05.17/outbox.cif.g08.bks.cpg/sg35_1_cif.got.tgz:1784.got - 2010.06.03 17:29:28.
