data_PCOD9349022
_publ_section_title
;
Structure prediction by ZEFSAII (Michael W. Deem and Ramdas Pophale) SiO2 
 PCOD9349022
Probable space group: C M M 2
;
_chemical_formula_sum "Si O2"
_cell_formula_units_Z 64
_cell_length_a 7.763906
_cell_length_b 28.746965
_cell_length_c 13.527032
_cell_angle_alpha 90.000000
_cell_angle_beta 90.000000
_cell_angle_gamma 90.000000
_cell_volume 3019.081147
_symmetry_space_group_name_H-M "C M M 2"
_symmetry_group_IT_number 35
_symmetry_cell_setting 'orthorhombic'
loop_
_space_group_symop_operation_xyz
x,y,z
-x,-y,z
-x,y,z
x,-y,z
1/2+x,1/2+y,z
1/2-x,1/2-y,z
1/2-x,1/2+y,z
1/2+x,1/2-y,z
loop_
_atom_site_type_symbol
_atom_site_label
_atom_site_fract_x
_atom_site_fract_y
_atom_site_fract_z
Si Si1 0.792525 0.055276 0.272030
Si Si2 0.795998 0.947923 0.881828
Si Si3 0.299944 0.108028 0.073425
Si Si4 0.205015 0.696068 0.605190
Si Si5 0.708053 0.804081 0.174988
Si Si6 0.705011 0.396104 0.688566
Si Si7 0.290233 0.554735 0.490109
Si Si8 0.793324 0.695100 0.390425
O O1 0.717174 0.081052 0.177476
O O2 0.732198 0.071744 0.381233
O O3 0.000000 0.060093 0.267727
O O4 0.754604 0.000000 0.266245
O O5 0.724758 0.920354 0.786994
O O6 0.000000 0.952248 0.864740
O O7 0.723170 0.000000 0.889689
O O8 0.778240 0.920443 0.983826
O O9 0.500000 0.112640 0.048786
O O10 0.227194 0.159594 0.094017
O O11 0.250000 0.750000 0.621529
O O12 0.266161 0.659030 0.684745
O O13 0.275815 0.679643 0.497045
O O14 0.000000 0.693643 0.600525
O O15 0.500000 0.807296 0.177573
O O16 0.750000 0.750000 0.159829
O O17 0.773227 0.820634 0.283626
O O18 0.500000 0.403898 0.685944
O O19 0.774945 0.418445 0.586633
O O20 0.500000 0.557244 0.488453
O O21 0.246817 0.500000 0.498551
O O22 0.750000 0.750000 0.390170
O O23 0.000000 0.688985 0.390588
#
# Coordination Sequence:
#
# PCOD9349022 Si02
#       8
#     8   8   8   8   8   8   8   8
#     4   9  18  33  53  79 111 145 181 222 272 336
#     4  10  22  41  63  84 108 143 189 237 280 330
#     4  11  23  36  55  82 113 146 185 232 283 333
#     4  10  20  34  54  80 114 152 188 229 275 327
#     4   9  19  35  53  77 109 145 184 226 271 324
#     4  10  20  35  58  85 110 141 186 234 284 334
#     4   8  15  30  53  81 111 141 177 224 277 336
#     4   8  15  29  48  71 103 142 179 216 260 312
#
# _framework density 21.198501
#
# number of rings (size 3 to 8) (size 9 to 14) (size 15 to 20)
#    0.000    2.625    0.000    2.250    1.750    5.500 
#    0.000    0.625    0.000    3.375    0.000    0.000 
#    0.000    0.000    0.000    0.000    0.000    0.000 
#
# Total GULP energy -178536.088727 kJ/mol
# GULP energy per Si atom -5579.252773 kJ/mol
# Density = 2.115025 g / cm^3
# Si number density = 21.198501 Si / 1000 Ang^3
#
#
#
# Elastic Constant Matrix: (Units=GPa)
#
#
# Indices 1 2 3 4 5 6 
#
# 1 32.6622 -0.1826 3.8706 0.0000 0.0000 0.0000
# 2 -0.1826 122.9740 90.3760 0.0000 0.0000 0.0000
# 3 3.8706 90.3760 142.6068 0.0000 0.0000 0.0000
# 4 0.0000 0.0000 0.0000 34.9088 0.0000 0.0000
# 5 0.0000 0.0000 0.0000 0.0000 -84.1391 0.0000
# 6 0.0000 0.0000 0.0000 0.0000 0.0000 14.4222
#
#
#
# Elastic Compliance Matrix: (Units=1/GPa)
#
#
# Indices 1 2 3 4 5 6 
#
# 1 0.030815 0.001236 -0.001620 0.000000 0.000000 0.000000
# 2 0.001236 0.015271 -0.009711 0.000000 0.000000 0.000000
# 3 -0.001620 -0.009711 0.013211 0.000000 0.000000 0.000000
# 4 0.000000 0.000000 0.000000 0.028646 0.000000 0.000000
# 5 0.000000 0.000000 0.000000 0.000000 -0.011885 0.000000
# 6 0.000000 0.000000 0.000000 0.000000 0.000000 0.069338
#
#
# Mechanical properties :
#
#
# Convention : Reuss Voigt Hill
#
# Bulk Modulus (GPa) = 25.57089 54.04119 39.80604
# Shear Modulus (GPa) = 27.99232 6.65029 17.32131
#
# Velocity S-wave (km/s) = 3.63779 1.77312 2.86160
# Velocity P-wave (km/s) = 5.45284 5.45346 5.45315
#
# Compressibility (1/GPa) = 0.03910697
#
# Stress axis : x y z
#
# Youngs Moduli (GPa) = 32.45139 65.48555 75.69670
#
# Poissons Ratio (x) = -0.08095 0.12261
# Poissons Ratio (y) = -0.04012 0.73510
# Poissons Ratio (z) = 0.05256 0.63594
#
# Static dielectric constant tensor:
#      x y z
#    x 1.826770 0.000000 0.000000 
#    y 0.000000 1.770060 0.000000 
#    z 0.000000 0.000000 1.775890 
# 
# From -- ./inp_files/11902.got.cif
#   From: 2010.05.17/outbox.cif.g08.bks.cpg/sg35_6_cif.got.tgz:11902.got - 2010.06.03 17:29:28.
