data_PCOD9349412
_publ_section_title
;
Structure prediction by ZEFSAII (Michael W. Deem and Ramdas Pophale) SiO2 
 PCOD9349412
Probable space group: C M M 2
;
_chemical_formula_sum "Si O2"
_cell_formula_units_Z 58
_cell_length_a 29.829061
_cell_length_b 7.480018
_cell_length_c 12.487873
_cell_angle_alpha 90.000000
_cell_angle_beta 90.000000
_cell_angle_gamma 90.000000
_cell_volume 2786.318116
_symmetry_space_group_name_H-M "C M M 2"
_symmetry_group_IT_number 35
_symmetry_cell_setting 'orthorhombic'
loop_
_space_group_symop_operation_xyz
x,y,z
-x,-y,z
-x,y,z
x,-y,z
1/2+x,1/2+y,z
1/2-x,1/2-y,z
1/2-x,1/2+y,z
1/2+x,1/2-y,z
loop_
_atom_site_type_symbol
_atom_site_label
_atom_site_fract_x
_atom_site_fract_y
_atom_site_fract_z
Si Si1 0.130755 0.717338 0.287670
Si Si2 0.302684 0.786154 0.104533
Si Si3 0.551429 0.284027 0.908537
Si Si4 0.000000 0.500000 0.457061
Si Si5 0.549747 0.209849 0.148271
Si Si6 0.302556 0.211364 0.866604
Si Si7 0.418865 0.289262 0.492474
Si Si8 0.384374 0.289320 0.723720
O O1 0.132139 0.500000 0.288939
O O2 0.170504 0.778874 0.208846
O O3 0.085907 0.783549 0.227967
O O4 0.122331 0.776950 0.408289
O O5 0.250000 0.750000 0.115846
O O6 0.309585 0.000000 0.101348
O O7 0.315862 0.715831 0.985454
O O8 0.500000 0.226040 0.892785
O O9 0.551882 0.500000 0.908504
O O10 0.583228 0.214261 0.815949
O O11 0.565790 0.225266 0.026457
O O12 0.040107 0.341636 0.459861
O O13 0.500000 0.288373 0.155100
O O14 0.545975 0.000000 0.173760
O O15 0.250000 0.250000 0.850317
O O16 0.334346 0.269868 0.769789
O O17 0.307548 0.000000 0.872774
O O18 0.432660 0.500000 0.498373
O O19 0.399185 0.225430 0.607236
O O20 0.393052 0.500000 0.719402
#
# Coordination Sequence:
#
# PCOD9349412 Si02
#       8
#     8   8   8   2   8   8   8   8
#     4  10  20  37  59  84 120 161 205 262 315 371
#     4   9  19  35  58  91 126 162 206 257 316 383
#     4   9  18  33  51  75 111 151 188 238 301 361
#     4  12  26  48  68  90 126 172 218 276 308 372
#     4   9  18  31  50  78 111 146 188 242 302 366
#     4  10  20  36  62  93 124 162 204 251 316 383
#     4  11  26  44  66  94 124 167 220 263 317 372
#     4  10  22  39  58  84 120 157 204 262 307 369
#
# _framework density 20.815999000000001
#
# number of rings (size 3 to 8) (size 9 to 14) (size 15 to 20)
#    0.000    2.207    0.690    1.448    2.897    3.310 
#    0.000    0.690    0.000    1.655    0.000    0.000 
#    0.000    0.000    0.000    0.000    0.000    0.000 
#
# Total GULP energy -161517.350444 kJ/mol
# GULP energy per Si atom -5569.563808 kJ/mol
# Density = 2.076862 g / cm^3
# Si number density = 20.815999 Si / 1000 Ang^3
#
#
#
# Elastic Constant Matrix: (Units=GPa)
#
#
# Indices 1 2 3 4 5 6 
#
# 1 50.9073 -0.2300 29.4743 0.0000 0.0000 0.0000
# 2 -0.2300 88.7940 -8.8513 0.0000 0.0000 0.0000
# 3 29.4743 -8.8513 57.6462 0.0000 0.0000 0.0000
# 4 0.0000 0.0000 0.0000 17.8722 0.0000 0.0000
# 5 0.0000 0.0000 0.0000 0.0000 -143.6363 0.0000
# 6 0.0000 0.0000 0.0000 0.0000 0.0000 33.4690
#
#
#
# Elastic Compliance Matrix: (Units=1/GPa)
#
#
# Indices 1 2 3 4 5 6 
#
# 1 0.028069 -0.001379 -0.014563 0.000000 0.000000 0.000000
# 2 -0.001379 0.011505 0.002472 0.000000 0.000000 0.000000
# 3 -0.014563 0.002472 0.025173 0.000000 0.000000 0.000000
# 4 0.000000 0.000000 0.000000 0.055953 0.000000 0.000000
# 5 0.000000 0.000000 0.000000 0.000000 -0.006962 0.000000
# 6 0.000000 0.000000 0.000000 0.000000 0.000000 0.029878
#
#
# Mechanical properties :
#
#
# Convention : Reuss Voigt Hill
#
# Bulk Modulus (GPa) = 26.45132 26.45926 26.45529
# Shear Modulus (GPa) = 27.29858 -6.66207 10.31826
#
# Velocity S-wave (km/s) = 3.62529 -1.79092 2.22882
# Velocity P-wave (km/s) = 5.50076 2.90896 4.40003
#
# Compressibility (1/GPa) = 0.03780530
#
# Stress axis : x y z
#
# Youngs Moduli (GPa) = 35.62623 86.92001 39.72522
#
# Poissons Ratio (x) = 0.11986 0.57853
# Poissons Ratio (y) = 0.04913 -0.09818
# Poissons Ratio (z) = 0.51884 -0.21483
#
# Static dielectric constant tensor:
#      x y z
#    x 1.749920 0.000000 0.000000 
#    y 0.000000 1.791260 0.000000 
#    z 0.000000 0.000000 1.777950 
# 
# From -- ./inp_files/14342.got.cif
#   From: 2010.05.17/outbox.cif.g08.bks.cpg/sg35_8_cif.got.tgz:14342.got - 2010.06.03 17:29:28.
