data_PCOD9349004
_publ_section_title
;
Structure prediction by ZEFSAII (Michael W. Deem and Ramdas Pophale) SiO2 
 PCOD9349004
Probable space group: C M M 2
;
_chemical_formula_sum "Si O2"
_cell_formula_units_Z 48
_cell_length_a 19.284281
_cell_length_b 8.174898
_cell_length_c 15.943930
_cell_angle_alpha 90.000000
_cell_angle_beta 90.000000
_cell_angle_gamma 90.000000
_cell_volume 2513.513214
_symmetry_space_group_name_H-M "C M M 2"
_symmetry_group_IT_number 35
_symmetry_cell_setting 'orthorhombic'
loop_
_space_group_symop_operation_xyz
x,y,z
-x,-y,z
-x,y,z
x,-y,z
1/2+x,1/2+y,z
1/2-x,1/2-y,z
1/2-x,1/2+y,z
1/2+x,1/2-y,z
loop_
_atom_site_type_symbol
_atom_site_label
_atom_site_fract_x
_atom_site_fract_y
_atom_site_fract_z
Si Si1 0.080137 0.302430 0.451830
Si Si2 0.671141 0.802410 0.109049
Si Si3 0.829409 0.303920 0.920555
Si Si4 0.670464 0.694870 0.608570
Si Si5 0.580097 0.800583 0.263912
Si Si6 0.920693 0.197009 0.764930
O O1 0.079890 0.500000 0.452267
O O2 0.131647 0.243666 0.523299
O O3 0.101218 0.248441 0.357775
O O4 0.000000 0.249540 0.466883
O O5 0.750000 0.750000 0.122458
O O6 0.625066 0.740789 0.186009
O O7 0.667400 0.000000 0.108803
O O8 0.651412 0.747204 0.014972
O O9 0.830931 0.500000 0.919188
O O10 0.750000 0.250000 0.903908
O O11 0.881411 0.239801 0.850510
O O12 0.670584 0.500000 0.614200
O O13 0.750000 0.750000 0.611233
O O14 0.625343 0.759950 0.687047
O O15 0.500000 0.754866 0.252644
O O16 0.583046 0.000000 0.263610
O O17 0.000000 0.258102 0.762567
O O18 0.923474 0.000000 0.758450
#
# Coordination Sequence:
#
# PCOD9349004 Si02
#       6
#     8   8   8   8   8   8
#     4   9  18  34  56  80 106 138 175 214 258 307
#     4   9  18  32  51  75 104 137 172 211 254 301
#     4  10  20  34  54  79 106 139 177 216 258 304
#     4  11  23  38  56  78 105 137 173 213 259 310
#     4   8  15  30  52  76 103 136 172 210 253 301
#     4  10  22  39  57  78 105 136 169 210 262 314
#
# _framework density 19.096776999999999
#
# number of rings (size 3 to 8) (size 9 to 14) (size 15 to 20)
#    0.000    2.500    0.000    3.000    0.000    6.000 
#    0.000    4.167    0.000    1.500    0.000    0.000 
#    0.000    0.000    0.000    0.000    0.000    0.000 
#
# Total GULP energy -133910.842568 kJ/mol
# GULP energy per Si atom -5579.618440 kJ/mol
# Density = 1.905331 g / cm^3
# Si number density = 19.096777 Si / 1000 Ang^3
#
#
#
# Elastic Constant Matrix: (Units=GPa)
#
#
# Indices 1 2 3 4 5 6 
#
# 1 151.7075 16.6443 141.6967 0.0000 0.0000 0.0000
# 2 16.6443 13.6302 15.5526 0.0000 0.0000 0.0000
# 3 141.6967 15.5526 209.1258 0.0000 0.0000 0.0000
# 4 0.0000 0.0000 0.0000 -3.5138 0.0000 0.0000
# 5 0.0000 0.0000 0.0000 0.0000 41.0860 0.0000
# 6 0.0000 0.0000 0.0000 0.0000 0.0000 14.6329
#
#
#
# Elastic Compliance Matrix: (Units=1/GPa)
#
#
# Indices 1 2 3 4 5 6 
#
# 1 0.018972 -0.009288 -0.012164 0.000000 0.000000 0.000000
# 2 -0.009288 0.084717 -0.000007 0.000000 0.000000 0.000000
# 3 -0.012164 -0.000007 0.013024 0.000000 0.000000 0.000000
# 4 0.000000 0.000000 0.000000 -0.284591 0.000000 0.000000
# 5 0.000000 0.000000 0.000000 0.000000 0.024339 0.000000
# 6 0.000000 0.000000 0.000000 0.000000 0.000000 0.068339
#
#
# Mechanical properties :
#
#
# Convention : Reuss Voigt Hill
#
# Bulk Modulus (GPa) = 13.55109 80.25008 46.90058
# Shear Modulus (GPa) = -650.73224 23.81234 -313.45995
#
# Velocity S-wave (km/s) = -18.47958 3.53502 -12.82572
# Velocity P-wave (km/s) = 21.17109 7.66654 13.95419
#
# Compressibility (1/GPa) = 0.07379481
#
# Stress axis : x y z
#
# Youngs Moduli (GPa) = 52.70916 11.80406 76.77923
#
# Poissons Ratio (x) = 0.10963 0.93395
# Poissons Ratio (y) = 0.48954 0.00056
# Poissons Ratio (z) = 0.64116 0.00009
#
# Static dielectric constant tensor:
#      x y z
#    x 1.632530 0.000000 0.000000 
#    y 0.000000 1.668490 0.000000 
#    z 0.000000 0.000000 1.676880 
# 
# From -- ./inp_files/15080.got.cif
#   From: 2010.05.17/outbox.cif.g08.bks.cpg/sg35_8_cif.got.tgz:15080.got - 2010.06.03 17:29:28.
