data_PCOD9349463
_publ_section_title
;
Structure prediction by ZEFSAII (Michael W. Deem and Ramdas Pophale) SiO2 
 PCOD9349463
Probable space group: C M M 2
;
_chemical_formula_sum "Si O2"
_cell_formula_units_Z 48
_cell_length_a 15.718090
_cell_length_b 8.696597
_cell_length_c 19.097061
_cell_angle_alpha 90.000000
_cell_angle_beta 90.000000
_cell_angle_gamma 90.000000
_cell_volume 2610.451639
_symmetry_space_group_name_H-M "C M M 2"
_symmetry_group_IT_number 35
_symmetry_cell_setting 'orthorhombic'
loop_
_space_group_symop_operation_xyz
x,y,z
-x,-y,z
-x,y,z
x,-y,z
1/2+x,1/2+y,z
1/2-x,1/2-y,z
1/2-x,1/2+y,z
1/2+x,1/2-y,z
loop_
_atom_site_type_symbol
_atom_site_label
_atom_site_fract_x
_atom_site_fract_y
_atom_site_fract_z
Si Si1 0.500000 0.815366 0.952131
Si Si2 0.000000 0.316311 0.289949
Si Si3 0.842483 0.816230 0.038220
Si Si4 0.500000 0.187762 0.790453
Si Si5 0.343220 0.184944 0.534142
Si Si6 0.657159 0.684302 0.202778
Si Si7 0.158051 0.684986 0.697015
Si Si8 0.500000 0.316189 0.446251
O O1 0.500000 0.764603 0.871104
O O2 0.500000 0.000000 0.954034
O O3 0.583151 0.753953 0.991663
O O4 0.083054 0.257513 0.248714
O O5 0.000000 0.247410 0.367619
O O6 0.000000 0.500000 0.292971
O O7 0.750000 0.750000 0.019276
O O8 0.857534 0.779699 0.120454
O O9 0.841842 0.000000 0.031207
O O10 0.583510 0.238591 0.748198
O O11 0.500000 0.000000 0.789350
O O12 0.250000 0.250000 0.515901
O O13 0.359514 0.226265 0.615856
O O14 0.416820 0.254541 0.486512
O O15 0.343221 0.000000 0.528355
O O16 0.656666 0.500000 0.210661
O O17 0.750000 0.750000 0.221514
O O18 0.161490 0.500000 0.699911
O O19 0.250000 0.750000 0.716396
O O20 0.500000 0.500000 0.445777
#
# Coordination Sequence:
#
# PCOD9349463 Si02
#       8
#     4   4   8   4   8   8   8   4
#     4  11  22  35  54  81 116 153 190 231 280 336
#     4  12  25  40  59  85 117 152 187 226 276 334
#     4  10  21  38  60  84 112 146 188 234 281 332
#     4   9  19  35  53  77 111 151 186 223 276 334
#     4  10  20  37  61  87 113 145 186 233 282 334
#     4  10  21  39  62  87 113 145 186 233 281 332
#     4   9  18  35  58  81 108 142 183 229 278 330
#     4  12  25  40  58  83 116 152 189 230 276 330
#
# _framework density 18.387623000000001
#
# number of rings (size 3 to 8) (size 9 to 14) (size 15 to 20)
#    0.000    1.833    0.000    4.250    0.000    7.333 
#    0.000    7.083    0.000    0.000    0.000    0.000 
#    0.000    0.000    0.000    0.000    0.000    0.000 
#
# Total GULP energy -134123.310218 kJ/mol
# GULP energy per Si atom -5588.471259 kJ/mol
# Density = 1.834577 g / cm^3
# Si number density = 18.387623 Si / 1000 Ang^3
#
#
#
# Elastic Constant Matrix: (Units=GPa)
#
#
# Indices 1 2 3 4 5 6 
#
# 1 211.7695 75.0149 143.4321 0.0000 0.0000 0.0000
# 2 75.0149 78.0887 63.4246 0.0000 0.0000 0.0000
# 3 143.4321 63.4246 134.7762 0.0000 0.0000 0.0000
# 4 0.0000 0.0000 0.0000 24.2630 0.0000 0.0000
# 5 0.0000 0.0000 0.0000 0.0000 -23.6039 0.0000
# 6 0.0000 0.0000 0.0000 0.0000 0.0000 40.9978
#
#
#
# Elastic Compliance Matrix: (Units=1/GPa)
#
#
# Indices 1 2 3 4 5 6 
#
# 1 0.017255 -0.002689 -0.017098 0.000000 0.000000 0.000000
# 2 -0.002689 0.021148 -0.007091 0.000000 0.000000 0.000000
# 3 -0.017098 -0.007091 0.028953 0.000000 0.000000 0.000000
# 4 0.000000 0.000000 0.000000 0.041215 0.000000 0.000000
# 5 0.000000 0.000000 0.000000 0.000000 -0.042366 0.000000
# 6 0.000000 0.000000 0.000000 0.000000 0.000000 0.024392
#
#
# Mechanical properties :
#
#
# Convention : Reuss Voigt Hill
#
# Bulk Modulus (GPa) = 73.52451 109.81974 91.67212
# Shear Modulus (GPa) = 33.58308 17.84888 25.71598
#
# Velocity S-wave (km/s) = 4.27827 3.11899 3.74377
# Velocity P-wave (km/s) = 8.02979 8.53377 8.28561
#
# Compressibility (1/GPa) = 0.01360091
#
# Stress axis : x y z
#
# Youngs Moduli (GPa) = 57.95428 47.28590 34.53926
#
# Poissons Ratio (x) = 0.12713 0.59055
# Poissons Ratio (y) = 0.15582 0.24491
# Poissons Ratio (z) = 0.99090 0.33529
#
# Static dielectric constant tensor:
#      x y z
#    x 1.602850 0.000000 0.000000 
#    y 0.000000 1.617180 0.000000 
#    z 0.000000 0.000000 1.615860 
# 
# From -- ./inp_files/17982.got.cif
#   From: 2010.05.17/outbox.cif.g08.bks.cpg/sg35_9_cif.got.tgz:17982.got - 2010.06.03 17:29:28.
