data_PCOD9349165
_publ_section_title
;
Structure prediction by ZEFSAII (Michael W. Deem and Ramdas Pophale) SiO2 
 PCOD9349165
Probable space group: C M M 2
;
_chemical_formula_sum "Si O2"
_cell_formula_units_Z 56
_cell_length_a 15.475085
_cell_length_b 21.837275
_cell_length_c 7.666867
_cell_angle_alpha 90.000000
_cell_angle_beta 90.000000
_cell_angle_gamma 90.000000
_cell_volume 2590.892631
_symmetry_space_group_name_H-M "C M M 2"
_symmetry_group_IT_number 35
_symmetry_cell_setting 'orthorhombic'
loop_
_space_group_symop_operation_xyz
x,y,z
-x,-y,z
-x,y,z
x,-y,z
1/2+x,1/2+y,z
1/2-x,1/2-y,z
1/2-x,1/2+y,z
1/2+x,1/2-y,z
loop_
_atom_site_type_symbol
_atom_site_label
_atom_site_fract_x
_atom_site_fract_y
_atom_site_fract_z
Si Si1 0.771308 0.565848 0.948960
Si Si2 0.597727 0.400576 0.100786
Si Si3 0.901535 0.770709 0.235142
Si Si4 0.907384 0.930978 0.493854
Si Si5 0.829131 0.700705 0.929923
Si Si6 0.604550 0.182488 0.535092
Si Si7 0.282441 0.930393 0.542436
O O1 0.797730 0.500000 0.030493
O O2 0.806252 0.632569 0.999830
O O3 0.797608 0.562716 0.747713
O O4 0.667735 0.570901 0.973373
O O5 0.500000 0.395697 0.028462
O O6 0.633337 0.334839 0.165513
O O7 0.591953 0.435211 0.284261
O O8 0.864960 0.735923 0.402741
O O9 0.000000 0.785703 0.281675
O O10 0.896248 0.726934 0.069014
O O11 0.814687 0.902521 0.533620
O O12 0.000000 0.902499 0.546384
O O13 0.904929 0.000000 0.566933
O O14 0.750000 0.750000 0.929379
O O15 0.865103 0.695868 0.732951
O O16 0.500000 0.178273 0.528211
O O17 0.648843 0.118659 0.475610
O O18 0.283353 0.000000 0.466840
#
# Coordination Sequence:
#
# PCOD9349165 Si02
#       7
#     8   8   8   8   8   8   8
#     4  10  21  37  56  85 120 156 201 249 309 377
#     4  10  20  35  55  82 117 159 199 243 309 380
#     4  10  22  40  60  86 119 158 208 260 314 375
#     4   9  18  33  53  81 118 156 194 244 306 373
#     4  11  22  39  63  92 120 162 206 259 322 379
#     4  10  23  41  62  89 125 166 210 267 321 374
#     4   9  20  37  59  87 118 161 213 260 318 384
#
# _framework density 21.614170999999999
#
# number of rings (size 3 to 8) (size 9 to 14) (size 15 to 20)
#    0.000    2.143    1.429    0.857    2.000    4.571 
#    0.000    1.429    0.000    2.143    0.000    0.000 
#    0.000    0.000    0.000    0.000    0.000    0.000 
#
# Total GULP energy -155923.750340 kJ/mol
# GULP energy per Si atom -5568.705369 kJ/mol
# Density = 2.156498 g / cm^3
# Si number density = 21.614171 Si / 1000 Ang^3
#
#
#
# Elastic Constant Matrix: (Units=GPa)
#
#
# Indices 1 2 3 4 5 6 
#
# 1 70.7362 34.9526 -4.3007 0.0000 0.0000 0.0000
# 2 34.9526 150.8537 21.5574 0.0000 0.0000 0.0000
# 3 -4.3007 21.5574 48.6073 0.0000 0.0000 0.0000
# 4 0.0000 0.0000 0.0000 18.1242 0.0000 0.0000
# 5 0.0000 0.0000 0.0000 0.0000 -8.8913 0.0000
# 6 0.0000 0.0000 0.0000 0.0000 0.0000 3.3542
#
#
#
# Elastic Compliance Matrix: (Units=1/GPa)
#
#
# Indices 1 2 3 4 5 6 
#
# 1 0.016464 -0.004295 0.003362 0.000000 0.000000 0.000000
# 2 -0.004295 0.008198 -0.004016 0.000000 0.000000 0.000000
# 3 0.003362 -0.004016 0.022651 0.000000 0.000000 0.000000
# 4 0.000000 0.000000 0.000000 0.055175 0.000000 0.000000
# 5 0.000000 0.000000 0.000000 0.000000 -0.112469 0.000000
# 6 0.000000 0.000000 0.000000 0.000000 0.000000 0.298137
#
#
# Mechanical properties :
#
#
# Convention : Reuss Voigt Hill
#
# Bulk Modulus (GPa) = 26.72760 41.62399 34.17579
# Shear Modulus (GPa) = 16.10170 17.04992 16.57581
#
# Velocity S-wave (km/s) = 2.73236 2.81166 2.77229
# Velocity P-wave (km/s) = 4.72726 5.46261 5.10818
#
# Compressibility (1/GPa) = 0.03741451
#
# Stress axis : x y z
#
# Youngs Moduli (GPa) = 60.73975 121.98164 44.14726
#
# Poissons Ratio (x) = 0.52391 -0.14840
# Poissons Ratio (y) = 0.26088 0.17729
# Poissons Ratio (z) = -0.20418 0.48986
#
# Static dielectric constant tensor:
#      x y z
#    x 1.876550 0.000000 0.000000 
#    y 0.000000 1.879210 0.000000 
#    z 0.000000 0.000000 1.770730 
# 
# From -- ./inp_files/7638.got.cif
#   From: 2010.05.17/outbox.cif.g08.bks.cpg/sg35_4_cif.got.tgz:7638.got - 2010.06.03 17:29:28.
