data_PCOD9349930
_publ_section_title
;
Structure prediction by ZEFSAII (Michael W. Deem and Ramdas Pophale) SiO2 
 PCOD9349930
Probable space group: C M M 2
;
_chemical_formula_sum "Si O2"
_cell_formula_units_Z 40
_cell_length_a 14.275068
_cell_length_b 22.111462
_cell_length_c 6.075835
_cell_angle_alpha 90.000000
_cell_angle_beta 90.000000
_cell_angle_gamma 90.000000
_cell_volume 1917.792500
_symmetry_space_group_name_H-M "C M M 2"
_symmetry_group_IT_number 35
_symmetry_cell_setting 'orthorhombic'
loop_
_space_group_symop_operation_xyz
x,y,z
-x,-y,z
-x,y,z
x,-y,z
1/2+x,1/2+y,z
1/2-x,1/2-y,z
1/2-x,1/2+y,z
1/2+x,1/2-y,z
loop_
_atom_site_type_symbol
_atom_site_label
_atom_site_fract_x
_atom_site_fract_y
_atom_site_fract_z
Si Si1 0.352918 0.732616 0.266400
Si Si2 0.283728 0.067938 0.264557
Si Si3 0.227790 0.840599 0.884585
Si Si4 0.104369 0.341792 0.547411
Si Si5 0.105795 0.108719 0.510151
O O1 0.250000 0.750000 0.349553
O O2 0.403141 0.792591 0.349519
O O3 0.392565 0.674067 0.388066
O O4 0.330983 0.710983 0.016897
O O5 0.357015 0.096860 0.436251
O O6 0.181606 0.069272 0.380462
O O7 0.307785 0.000000 0.198060
O O8 0.272846 0.115279 0.066229
O O9 0.314325 0.823860 0.723090
O O10 0.151178 0.877522 0.745901
O O11 0.000000 0.347687 0.644604
O O12 0.000000 0.085889 0.518037
#
# Coordination Sequence:
#
# PCOD9349930 Si02
#       5
#     8   8   8   8   8
#     4  11  20  39  62  89 126 161 193 242 305 369
#     4  10  23  43  64  85 122 165 207 258 309 356
#     4  10  22  39  64  90 127 160 205 247 307 363
#     4  11  24  41  64  93 124 162 207 251 302 363
#     4  10  22  39  63  93 124 157 201 254 309 368
#
# _framework density 20.857316000000001
#
# number of rings (size 3 to 8) (size 9 to 14) (size 15 to 20)
#    0.000    1.600    6.000    0.600    2.800    8.800 
#    0.000    0.000    0.000    0.000    0.000    0.000 
#    0.000    0.000    0.000    0.000    0.000    0.000 
#
# Total GULP energy -111401.941879 kJ/mol
# GULP energy per Si atom -5570.097094 kJ/mol
# Density = 2.080984 g / cm^3
# Si number density = 20.857316 Si / 1000 Ang^3
#
#
#
# Elastic Constant Matrix: (Units=GPa)
#
#
# Indices 1 2 3 4 5 6 
#
# 1 119.7541 -3.2340 19.9274 0.0000 0.0000 0.0000
# 2 -3.2340 77.6778 17.1350 0.0000 0.0000 0.0000
# 3 19.9274 17.1350 98.9873 0.0000 0.0000 0.0000
# 4 0.0000 0.0000 0.0000 10.2675 0.0000 0.0000
# 5 0.0000 0.0000 0.0000 0.0000 -77.7398 0.0000
# 6 0.0000 0.0000 0.0000 0.0000 0.0000 6.4217
#
#
#
# Elastic Compliance Matrix: (Units=1/GPa)
#
#
# Indices 1 2 3 4 5 6 
#
# 1 0.008685 0.000777 -0.001883 0.000000 0.000000 0.000000
# 2 0.000777 0.013454 -0.002485 0.000000 0.000000 0.000000
# 3 -0.001883 -0.002485 0.010912 0.000000 0.000000 0.000000
# 4 0.000000 0.000000 0.000000 0.097395 0.000000 0.000000
# 5 0.000000 0.000000 0.000000 0.000000 -0.012863 0.000000
# 6 0.000000 0.000000 0.000000 0.000000 0.000000 0.155722
#
#
# Mechanical properties :
#
#
# Convention : Reuss Voigt Hill
#
# Bulk Modulus (GPa) = 38.65779 40.45286 39.55533
# Shear Modulus (GPa) = 17.29451 5.29594 11.29523
#
# Velocity S-wave (km/s) = 2.88268 1.59519 2.32964
# Velocity P-wave (km/s) = 5.44559 4.77808 5.12271
#
# Compressibility (1/GPa) = 0.02586801
#
# Stress axis : x y z
#
# Youngs Moduli (GPa) = 115.14455 74.32572 91.64580
#
# Poissons Ratio (x) = -0.05774 0.17255
# Poissons Ratio (y) = -0.08946 0.22777
# Poissons Ratio (z) = 0.21680 0.18473
#
# Static dielectric constant tensor:
#      x y z
#    x 1.887150 0.000000 0.000000 
#    y 0.000000 1.786000 0.000000 
#    z 0.000000 0.000000 1.772530 
# 
# From -- ./inp_files/1767.got.cif
#   From: 2010.05.17/outbox.cif.g08.bks.cpg/sg35_1_cif.got.tgz:1767.got - 2010.06.03 17:29:28.
