data_PCOD9349778
_publ_section_title
;
Structure prediction by ZEFSAII (Michael W. Deem and Ramdas Pophale) SiO2 
 PCOD9349778
Probable space group: C M M 2
;
_chemical_formula_sum "Si O2"
_cell_formula_units_Z 58
_cell_length_a 7.948016
_cell_length_b 19.727507
_cell_length_c 18.034317
_cell_angle_alpha 90.000000
_cell_angle_beta 90.000000
_cell_angle_gamma 90.000000
_cell_volume 2827.682461
_symmetry_space_group_name_H-M "C M M 2"
_symmetry_group_IT_number 35
_symmetry_cell_setting 'orthorhombic'
loop_
_space_group_symop_operation_xyz
x,y,z
-x,-y,z
-x,y,z
x,-y,z
1/2+x,1/2+y,z
1/2-x,1/2-y,z
1/2-x,1/2+y,z
1/2+x,1/2-y,z
loop_
_atom_site_type_symbol
_atom_site_label
_atom_site_fract_x
_atom_site_fract_y
_atom_site_fract_z
Si Si1 0.803958 0.325567 0.816310
Si Si2 0.500000 0.500000 0.665548
Si Si3 0.796814 0.922695 0.370587
Si Si4 0.800849 0.923454 0.940969
Si Si5 0.199731 0.422604 0.203106
Si Si6 0.297552 0.672846 0.505196
Si Si7 0.303082 0.671954 0.070140
Si Si8 0.695455 0.111282 0.659838
O O1 0.750000 0.250000 0.837813
O O2 0.716905 0.384533 0.863424
O O3 0.778195 0.338357 0.729248
O O4 0.000000 0.332125 0.832499
O O5 0.348170 0.558018 0.664047
O O6 0.736779 0.904237 0.288345
O O7 0.741795 0.873703 0.436276
O O8 0.000000 0.922148 0.369377
O O9 0.741411 0.000000 0.385367
O O10 0.000000 0.930233 0.955445
O O11 0.730257 0.000000 0.940252
O O12 0.726152 0.874262 0.004309
O O13 0.264834 0.500000 0.190698
O O14 0.272431 0.368561 0.146094
O O15 0.000000 0.424066 0.192484
O O16 0.500000 0.666278 0.512559
O O17 0.250000 0.750000 0.490415
O O18 0.214173 0.648309 0.581197
O O19 0.500000 0.674652 0.055802
O O20 0.250000 0.750000 0.072576
O O21 0.500000 0.085753 0.666373
#
# Coordination Sequence:
#
# PCOD9349778 Si02
#       8
#     8   2   8   8   8   8   8   8
#     4  11  25  42  65  94 128 170 216 261 317 383
#     4  12  26  44  72  98 136 172 210 288 324 390
#     4   9  20  38  62  89 122 165 213 262 317 379
#     4  10  23  41  65  93 124 162 205 257 316 377
#     4  10  21  38  61  90 123 161 205 255 316 375
#     4  11  23  40  65  93 129 173 218 268 327 388
#     4  11  23  40  62  90 122 160 207 255 312 381
#     4  11  26  44  68 101 132 173 223 270 329 393
#
# _framework density 20.511498
#
# number of rings (size 3 to 8) (size 9 to 14) (size 15 to 20)
#    0.000    1.517    0.690    3.103    3.862    6.621 
#    0.000    1.379    0.000    0.000    0.000    0.000 
#    0.000    0.000    0.000    0.000    0.000    0.000 
#
# Total GULP energy -161713.922640 kJ/mol
# GULP energy per Si atom -5576.342160 kJ/mol
# Density = 2.046481 g / cm^3
# Si number density = 20.511498 Si / 1000 Ang^3
#
#
#
# Elastic Constant Matrix: (Units=GPa)
#
#
# Indices 1 2 3 4 5 6 
#
# 1 62.6267 33.6064 9.6619 0.0000 0.0000 0.0000
# 2 33.6064 156.2635 79.8712 0.0000 0.0000 0.0000
# 3 9.6619 79.8712 100.2166 0.0000 0.0000 0.0000
# 4 0.0000 0.0000 0.0000 4.5819 0.0000 0.0000
# 5 0.0000 0.0000 0.0000 0.0000 -51.0938 0.0000
# 6 0.0000 0.0000 0.0000 0.0000 0.0000 18.6717
#
#
#
# Elastic Compliance Matrix: (Units=1/GPa)
#
#
# Indices 1 2 3 4 5 6 
#
# 1 0.018366 -0.005138 0.002324 0.000000 0.000000 0.000000
# 2 -0.005138 0.012236 -0.009256 0.000000 0.000000 0.000000
# 3 0.002324 -0.009256 0.017131 0.000000 0.000000 0.000000
# 4 0.000000 0.000000 0.000000 0.218249 0.000000 0.000000
# 5 0.000000 0.000000 0.000000 0.000000 -0.019572 0.000000
# 6 0.000000 0.000000 0.000000 0.000000 0.000000 0.053557
#
#
# Mechanical properties :
#
#
# Convention : Reuss Voigt Hill
#
# Bulk Modulus (GPa) = 42.38516 62.82063 52.60290
# Shear Modulus (GPa) = 15.06154 7.49646 11.27900
#
# Velocity S-wave (km/s) = 2.71273 1.91382 2.34751
# Velocity P-wave (km/s) = 5.52457 5.96466 5.74882
#
# Compressibility (1/GPa) = 0.02359316
#
# Stress axis : x y z
#
# Youngs Moduli (GPa) = 54.44819 81.72925 58.37238
#
# Poissons Ratio (x) = 0.41990 -0.13566
# Poissons Ratio (y) = 0.27974 0.54031
# Poissons Ratio (z) = -0.12654 0.75650
#
# Static dielectric constant tensor:
#      x y z
#    x 1.760770 0.000000 0.000000 
#    y 0.000000 1.722170 0.000000 
#    z 0.000000 0.000000 1.714240 
# 
# From -- ./inp_files/18138.got.cif
#   From: 2010.05.17/outbox.cif.g08.bks.cpg/sg35_10_cif.got.tgz:18138.got - 2010.06.03 17:29:28.
