data_PCOD9349701
_publ_section_title
;
Structure prediction by ZEFSAII (Michael W. Deem and Ramdas Pophale) SiO2 
 PCOD9349701
Probable space group: C M M 2
;
_chemical_formula_sum "Si O2"
_cell_formula_units_Z 48
_cell_length_a 16.427252
_cell_length_b 10.084746
_cell_length_c 14.710078
_cell_angle_alpha 90.000000
_cell_angle_beta 90.000000
_cell_angle_gamma 90.000000
_cell_volume 2436.940128
_symmetry_space_group_name_H-M "C M M 2"
_symmetry_group_IT_number 35
_symmetry_cell_setting 'orthorhombic'
loop_
_space_group_symop_operation_xyz
x,y,z
-x,-y,z
-x,y,z
x,-y,z
1/2+x,1/2+y,z
1/2-x,1/2-y,z
1/2-x,1/2+y,z
1/2+x,1/2-y,z
loop_
_atom_site_type_symbol
_atom_site_label
_atom_site_fract_x
_atom_site_fract_y
_atom_site_fract_z
Si Si1 0.378109 0.500000 0.180681
Si Si2 0.168290 0.659276 0.466548
Si Si3 0.136250 0.000000 0.969877
Si Si4 0.150167 0.257330 0.861671
Si Si5 0.590007 0.772353 0.283787
Si Si6 0.834848 0.500000 0.984501
Si Si7 0.329522 0.843647 0.670650
Si Si8 0.684339 0.000000 0.189093
O O1 0.405410 0.369935 0.235477
O O2 0.280645 0.500000 0.182461
O O3 0.398924 0.500000 0.072527
O O4 0.183484 0.500000 0.448987
O O5 0.250000 0.750000 0.462114
O O6 0.109575 0.720708 0.390691
O O7 0.134093 0.666380 0.569544
O O8 0.116625 0.873535 0.908443
O O9 0.235552 0.000000 0.979644
O O10 0.250000 0.250000 0.857244
O O11 0.132940 0.374148 0.931347
O O12 0.123122 0.292356 0.759493
O O13 0.500000 0.827393 0.268304
O O14 0.655810 0.868857 0.239730
O O15 0.854838 0.500000 0.089677
O O16 0.250000 0.750000 0.666011
O O17 0.308867 0.000000 0.686157
#
# Coordination Sequence:
#
# PCOD9349701 Si02
#       8
#     4   8   4   8   8   4   8   4
#     4  11  23  41  60  85 116 158 197 239 288 345
#     4  10  21  37  58  85 116 153 194 240 292 350
#     4   9  18  29  48  75 110 144 187 223 280 331
#     4   9  15  25  42  72 111 146 173 221 283 333
#     4  12  25  40  58  85 116 152 195 244 299 349
#     4   9  16  27  46  75 106 142 175 231 276 333
#     4   9  17  28  46  75 112 150 182 226 284 342
#     4  11  21  37  62  85 114 150 197 241 288 343
#
# _framework density 19.696831
#
# number of rings (size 3 to 8) (size 9 to 14) (size 15 to 20)
#    0.000    2.000    1.667    3.000    4.667    2.667 
#    0.000    0.000    0.000    0.000    0.000    7.000 
#    0.000    0.000    0.000    0.000    0.000    0.000 
#
# Total GULP energy -133800.627007 kJ/mol
# GULP energy per Si atom -5575.026125 kJ/mol
# Density = 1.965200 g / cm^3
# Si number density = 19.696831 Si / 1000 Ang^3
#
#
#
# Elastic Constant Matrix: (Units=GPa)
#
#
# Indices 1 2 3 4 5 6 
#
# 1 35.6098 5.7060 13.3157 0.0000 0.0000 0.0000
# 2 5.7060 143.0829 70.4836 0.0000 0.0000 0.0000
# 3 13.3157 70.4836 179.6904 0.0000 0.0000 0.0000
# 4 0.0000 0.0000 0.0000 34.7442 0.0000 0.0000
# 5 0.0000 0.0000 0.0000 0.0000 -13.7386 0.0000
# 6 0.0000 0.0000 0.0000 0.0000 0.0000 -5.8837
#
#
#
# Elastic Compliance Matrix: (Units=1/GPa)
#
#
# Indices 1 2 3 4 5 6 
#
# 1 0.028884 -0.000121 -0.002093 0.000000 0.000000 0.000000
# 2 -0.000121 0.008663 -0.003389 0.000000 0.000000 0.000000
# 3 -0.002093 -0.003389 0.007050 0.000000 0.000000 0.000000
# 4 0.000000 0.000000 0.000000 0.028782 0.000000 0.000000
# 5 0.000000 0.000000 0.000000 0.000000 -0.072788 0.000000
# 6 0.000000 0.000000 0.000000 0.000000 0.000000 -0.169962
#
#
# Mechanical properties :
#
#
# Convention : Reuss Voigt Hill
#
# Bulk Modulus (GPa) = 29.94822 59.71042 44.82932
# Shear Modulus (GPa) = -34.00582 20.94957 -6.52812
#
# Velocity S-wave (km/s) = -4.15958 3.26483 -1.82250
# Velocity P-wave (km/s) = 2.79855 6.67778 4.28724
#
# Compressibility (1/GPa) = 0.03339096
#
# Stress axis : x y z
#
# Youngs Moduli (GPa) = 34.62104 115.42899 141.85083
#
# Poissons Ratio (x) = 0.01395 0.29690
# Poissons Ratio (y) = 0.00418 0.48077
# Poissons Ratio (z) = 0.07246 0.39122
#
# Static dielectric constant tensor:
#      x y z
#    x 1.670430 0.000000 0.000000 
#    y 0.000000 1.654530 0.000000 
#    z 0.000000 0.000000 1.715890 
# 
# From -- ./inp_files/15360.got.cif
#   From: 2010.05.17/outbox.cif.g08.bks.cpg/sg35_8_cif.got.tgz:15360.got - 2010.06.03 17:29:28.
