data_PCOD9349404
_publ_section_title
;
Structure prediction by ZEFSAII (Michael W. Deem and Ramdas Pophale) SiO2 
 PCOD9349404
Probable space group: C M M 2
;
_chemical_formula_sum "Si O2"
_cell_formula_units_Z 48
_cell_length_a 15.806887
_cell_length_b 8.598335
_cell_length_c 17.775724
_cell_angle_alpha 90.000000
_cell_angle_beta 90.000000
_cell_angle_gamma 90.000000
_cell_volume 2415.950371
_symmetry_space_group_name_H-M "C M M 2"
_symmetry_group_IT_number 35
_symmetry_cell_setting 'orthorhombic'
loop_
_space_group_symop_operation_xyz
x,y,z
-x,-y,z
-x,y,z
x,-y,z
1/2+x,1/2+y,z
1/2-x,1/2-y,z
1/2-x,1/2+y,z
1/2+x,1/2-y,z
loop_
_atom_site_type_symbol
_atom_site_label
_atom_site_fract_x
_atom_site_fract_y
_atom_site_fract_z
Si Si1 0.846466 0.185230 0.965300
Si Si2 0.338684 0.687320 0.599302
Si Si3 0.600551 0.323966 0.276765
Si Si4 0.155976 0.683362 0.123560
Si Si5 0.500000 0.688572 0.698789
Si Si6 0.901321 0.189761 0.438681
Si Si7 0.500000 0.814760 0.867109
O O1 0.750000 0.250000 0.955958
O O2 0.915182 0.249380 0.906856
O O3 0.842181 0.000000 0.960544
O O4 0.878557 0.235093 0.048537
O O5 0.337177 0.500000 0.597751
O O6 0.250000 0.750000 0.628143
O O7 0.417333 0.733791 0.651044
O O8 0.353514 0.742239 0.513341
O O9 0.500000 0.336777 0.288341
O O10 0.634011 0.500000 0.263880
O O11 0.613890 0.224407 0.202588
O O12 0.632845 0.259455 0.356910
O O13 0.156526 0.500000 0.110723
O O14 0.250000 0.750000 0.130838
O O15 0.500000 0.500000 0.705775
O O16 0.500000 0.762730 0.780599
O O17 0.000000 0.234671 0.447377
O O18 0.899545 0.000000 0.436455
O O19 0.500000 0.000000 0.873946
#
# Coordination Sequence:
#
# PCOD9349404 Si02
#       7
#     8   8   8   8   4   8   4
#     4  11  23  43  68  95 127 162 205 254 307 366
#     4  10  20  36  61  89 118 155 201 246 300 360
#     4   9  18  32  53  81 114 154 202 247 294 351
#     4  11  22  37  56  80 116 157 200 248 301 354
#     4  10  22  42  64  87 120 159 198 243 298 369
#     4   8  14  30  55  80 110 154 202 247 293 352
#     4  12  26  44  68  97 126 161 202 247 306 373
#
# _framework density 19.867957000000001
#
# number of rings (size 3 to 8) (size 9 to 14) (size 15 to 20)
#    0.000    2.000    0.833    5.750    1.167    2.333 
#    0.000    4.167    0.000    1.000    0.000    0.000 
#    0.000    0.000    0.000    0.000    0.000    0.000 
#
# Total GULP energy -133961.611404 kJ/mol
# GULP energy per Si atom -5581.733809 kJ/mol
# Density = 1.982274 g / cm^3
# Si number density = 19.867957 Si / 1000 Ang^3
#
#
#
# Elastic Constant Matrix: (Units=GPa)
#
#
# Indices 1 2 3 4 5 6 
#
# 1 105.2215 36.0112 73.9035 0.0000 0.0000 0.0000
# 2 36.0112 96.1287 53.0395 0.0000 0.0000 0.0000
# 3 73.9035 53.0395 166.4446 0.0000 0.0000 0.0000
# 4 0.0000 0.0000 0.0000 -1.2504 0.0000 0.0000
# 5 0.0000 0.0000 0.0000 0.0000 -22.9960 0.0000
# 6 0.0000 0.0000 0.0000 0.0000 0.0000 24.3847
#
#
#
# Elastic Compliance Matrix: (Units=1/GPa)
#
#
# Indices 1 2 3 4 5 6 
#
# 1 0.014195 -0.002233 -0.005591 0.000000 0.000000 0.000000
# 2 -0.002233 0.012973 -0.003143 0.000000 0.000000 0.000000
# 3 -0.005591 -0.003143 0.009492 0.000000 0.000000 0.000000
# 4 0.000000 0.000000 0.000000 -0.799735 0.000000 0.000000
# 5 0.000000 0.000000 0.000000 0.000000 -0.043486 0.000000
# 6 0.000000 0.000000 0.000000 0.000000 0.000000 0.041009
#
#
# Mechanical properties :
#
#
# Convention : Reuss Voigt Hill
#
# Bulk Modulus (GPa) = 67.90304 77.07815 72.49059
# Shear Modulus (GPa) = -6.76857 13.68370 3.45757
#
# Velocity S-wave (km/s) = -1.84775 2.62722 1.32063
# Velocity P-wave (km/s) = 5.44969 6.93415 6.23625
#
# Compressibility (1/GPa) = 0.01472688
#
# Stress axis : x y z
#
# Youngs Moduli (GPa) = 70.44755 77.08260 105.35108
#
# Poissons Ratio (x) = 0.17210 0.58905
# Poissons Ratio (y) = 0.15728 0.33109
# Poissons Ratio (z) = 0.39389 0.24225
#
# Static dielectric constant tensor:
#      x y z
#    x 1.699750 0.000000 0.000000 
#    y 0.000000 1.685500 0.000000 
#    z 0.000000 0.000000 1.729380 
# 
# From -- ./inp_files/18757.got.cif
#   From: 2010.05.17/outbox.cif.g08.bks.cpg/sg35_10_cif.got.tgz:18757.got - 2010.06.03 17:29:28.
