data_PCOD9349967
_publ_section_title
;
Structure prediction by ZEFSAII (Michael W. Deem and Ramdas Pophale) SiO2 
 PCOD9349967
Probable space group: C M M 2
;
_chemical_formula_sum "Si O2"
_cell_formula_units_Z 40
_cell_length_a 10.105703
_cell_length_b 15.502435
_cell_length_c 13.182314
_cell_angle_alpha 90.000000
_cell_angle_beta 90.000000
_cell_angle_gamma 90.000000
_cell_volume 2065.180909
_symmetry_space_group_name_H-M "C M M 2"
_symmetry_group_IT_number 35
_symmetry_cell_setting 'orthorhombic'
loop_
_space_group_symop_operation_xyz
x,y,z
-x,-y,z
-x,y,z
x,-y,z
1/2+x,1/2+y,z
1/2-x,1/2-y,z
1/2-x,1/2+y,z
1/2+x,1/2-y,z
loop_
_atom_site_type_symbol
_atom_site_label
_atom_site_fract_x
_atom_site_fract_y
_atom_site_fract_z
Si Si1 0.000000 0.593137 0.801141
Si Si2 0.500000 0.596395 0.797261
Si Si3 0.654241 0.103768 0.451339
Si Si4 0.500000 0.247783 0.957609
Si Si5 0.253643 0.851216 0.673218
Si Si6 0.841165 0.103212 0.258475
Si Si7 0.750000 0.750000 0.103309
O O1 0.874879 0.604058 0.729128
O O2 0.000000 0.500000 0.851525
O O3 0.000000 0.669088 0.880518
O O4 0.500000 0.500000 0.840198
O O5 0.500000 0.666002 0.888124
O O6 0.376261 0.609455 0.722795
O O7 0.500000 0.133838 0.440274
O O8 0.721255 0.138018 0.553925
O O9 0.751252 0.122999 0.357318
O O10 0.648685 0.000000 0.459674
O O11 0.374207 0.240002 0.029684
O O12 0.250000 0.750000 0.697414
O O13 0.784141 0.166718 0.172456
O O14 0.000000 0.118582 0.272848
O O15 0.826440 0.000000 0.236323
#
# Coordination Sequence:
#
# PCOD9349967 Si02
#       7
#     4   4   8   4   8   8   4
#     4  12  24  46  71  95 134 177 219 272 335 396
#     4  12  26  44  69  99 136 179 225 274 331 394
#     4  10  22  40  67 102 138 178 221 264 323 402
#     4  12  26  46  68 100 132 168 230 288 334 396
#     4  12  23  42  66 101 143 176 218 271 325 397
#     4  10  24  47  71  99 135 175 221 273 335 402
#     4  12  26  46  72  96 136 168 222 292 344 388
#
# _framework density 19.368763000000001
#
# number of rings (size 3 to 8) (size 9 to 14) (size 15 to 20)
#    0.000    0.800    4.000    3.000    4.200    1.600 
#    0.000    0.000    0.000    0.000    0.000    0.000 
#    0.000    0.000    0.000    0.000    0.000    0.000 
#
# Total GULP energy -111749.743492 kJ/mol
# GULP energy per Si atom -5587.487175 kJ/mol
# Density = 1.932468 g / cm^3
# Si number density = 19.368763 Si / 1000 Ang^3
#
#
#
# Elastic Constant Matrix: (Units=GPa)
#
#
# Indices 1 2 3 4 5 6 
#
# 1 185.3169 46.3932 77.8709 0.0000 0.0000 0.0000
# 2 46.3932 125.6496 64.6763 0.0000 0.0000 0.0000
# 3 77.8709 64.6763 131.4475 0.0000 0.0000 0.0000
# 4 0.0000 0.0000 0.0000 -10.1692 0.0000 0.0000
# 5 0.0000 0.0000 0.0000 0.0000 55.2467 0.0000
# 6 0.0000 0.0000 0.0000 0.0000 0.0000 27.4591
#
#
#
# Elastic Compliance Matrix: (Units=1/GPa)
#
#
# Indices 1 2 3 4 5 6 
#
# 1 0.007221 -0.000622 -0.003972 0.000000 0.000000 0.000000
# 2 -0.000622 0.010711 -0.004902 0.000000 0.000000 0.000000
# 3 -0.003972 -0.004902 0.012372 0.000000 0.000000 0.000000
# 4 0.000000 0.000000 0.000000 -0.098336 0.000000 0.000000
# 5 0.000000 0.000000 0.000000 0.000000 0.018101 0.000000
# 6 0.000000 0.000000 0.000000 0.000000 0.000000 0.036418
#
#
# Mechanical properties :
#
#
# Convention : Reuss Voigt Hill
#
# Bulk Modulus (GPa) = 88.38886 91.14388 89.76637
# Shear Modulus (GPa) = 540.58907 31.40556 285.99731
#
# Velocity S-wave (km/s) = 16.72452 4.03110 12.16469
# Velocity P-wave (km/s) = 20.46167 8.29612 15.61258
#
# Compressibility (1/GPa) = 0.01131364
#
# Stress axis : x y z
#
# Youngs Moduli (GPa) = 138.48981 93.35794 80.82444
#
# Poissons Ratio (x) = 0.05804 0.32102
# Poissons Ratio (y) = 0.08610 0.39621
# Poissons Ratio (z) = 0.55005 0.45765
#
# Static dielectric constant tensor:
#      x y z
#    x 1.654280 0.000000 0.000000 
#    y 0.000000 1.669260 0.000000 
#    z 0.000000 0.000000 1.662620 
# 
# From -- ./inp_files/14868.got.cif
#   From: 2010.05.17/outbox.cif.g08.bks.cpg/sg35_8_cif.got.tgz:14868.got - 2010.06.03 17:29:28.
