data_PCOD9349135
_publ_section_title
;
Structure prediction by ZEFSAII (Michael W. Deem and Ramdas Pophale) SiO2 
 PCOD9349135
Probable space group: C M M 2
;
_chemical_formula_sum "Si O2"
_cell_formula_units_Z 64
_cell_length_a 9.314844
_cell_length_b 18.615715
_cell_length_c 21.201175
_cell_angle_alpha 90.000000
_cell_angle_beta 90.000000
_cell_angle_gamma 90.000000
_cell_volume 3676.336349
_symmetry_space_group_name_H-M "C M M 2"
_symmetry_group_IT_number 35
_symmetry_cell_setting 'orthorhombic'
loop_
_space_group_symop_operation_xyz
x,y,z
-x,-y,z
-x,y,z
x,-y,z
1/2+x,1/2+y,z
1/2-x,1/2-y,z
1/2-x,1/2+y,z
1/2+x,1/2-y,z
loop_
_atom_site_type_symbol
_atom_site_label
_atom_site_fract_x
_atom_site_fract_y
_atom_site_fract_z
Si Si1 0.172083 0.673936 0.072700
Si Si2 0.334513 0.912300 0.696407
Si Si3 0.834855 0.087540 0.821110
Si Si4 0.171875 0.173037 0.305433
Si Si5 0.171364 0.825452 0.448791
Si Si6 0.328539 0.915193 0.948083
Si Si7 0.670695 0.915173 0.198855
Si Si8 0.330475 0.585632 0.571098
O O1 0.250000 0.750000 0.075990
O O2 0.205571 0.626123 0.134055
O O3 0.000000 0.684523 0.071724
O O4 0.211347 0.630800 0.009257
O O5 0.500000 0.890088 0.698977
O O6 0.248520 0.888547 0.758441
O O7 0.258726 0.889070 0.631692
O O8 0.331505 0.000000 0.696513
O O9 0.754693 0.108415 0.885345
O O10 0.000000 0.110864 0.820545
O O11 0.833784 0.000000 0.820105
O O12 0.250000 0.250000 0.297335
O O13 0.200962 0.148292 0.377538
O O14 0.237678 0.118776 0.255059
O O15 0.000000 0.180944 0.297572
O O16 0.250000 0.750000 0.456609
O O17 0.213256 0.877606 0.505671
O O18 0.000000 0.814720 0.452505
O O19 0.500000 0.908743 0.937823
O O20 0.299025 0.000000 0.959208
O O21 0.500000 0.904849 0.211149
O O22 0.696281 0.000000 0.192125
O O23 0.500000 0.599236 0.581913
O O24 0.312380 0.500000 0.565427
#
# Coordination Sequence:
#
# PCOD9349135 Si02
#       8
#     8   8   8   8   8   8   8   8
#     4  10  21  36  54  75 101 135 171 206 248 300
#     4   9  16  26  42  67  98 130 164 202 245 294
#     4   9  16  26  43  69  99 129 161 200 247 296
#     4  10  20  35  55  78 104 136 174 213 255 306
#     4   9  19  34  52  73  99 133 169 206 249 299
#     4   9  17  31  51  73  97 127 164 205 248 295
#     4  10  21  37  56  79 107 137 170 211 258 305
#     4   9  17  30  48  70  97 129 165 206 251 296
#
# _framework density 17.408635
#
# number of rings (size 3 to 8) (size 9 to 14) (size 15 to 20)
#    0.000    2.625    0.000    1.875    0.000    8.250 
#    0.000    1.250    0.000    4.500    0.000    5.250 
#    0.000    0.000    0.000    0.000    0.000    0.000 
#
# Total GULP energy -178458.751182 kJ/mol
# GULP energy per Si atom -5576.835974 kJ/mol
# Density = 1.736901 g / cm^3
# Si number density = 17.408635 Si / 1000 Ang^3
#
#
#
# Elastic Constant Matrix: (Units=GPa)
#
#
# Indices 1 2 3 4 5 6 
#
# 1 78.6042 50.7499 97.1898 0.0000 0.0000 0.0000
# 2 50.7499 60.8866 77.5263 0.0000 0.0000 0.0000
# 3 97.1898 77.5263 195.7749 0.0000 0.0000 0.0000
# 4 0.0000 0.0000 0.0000 -28.6382 0.0000 0.0000
# 5 0.0000 0.0000 0.0000 0.0000 33.8741 0.0000
# 6 0.0000 0.0000 0.0000 0.0000 0.0000 22.7613
#
#
#
# Elastic Compliance Matrix: (Units=1/GPa)
#
#
# Indices 1 2 3 4 5 6 
#
# 1 0.039411 -0.016010 -0.013225 0.000000 0.000000 0.000000
# 2 -0.016010 0.039632 -0.007746 0.000000 0.000000 0.000000
# 3 -0.013225 -0.007746 0.014741 0.000000 0.000000 0.000000
# 4 0.000000 0.000000 0.000000 -0.034918 0.000000 0.000000
# 5 0.000000 0.000000 0.000000 0.000000 0.029521 0.000000
# 6 0.000000 0.000000 0.000000 0.000000 0.000000 0.043934
#
#
# Mechanical properties :
#
#
# Convention : Reuss Voigt Hill
#
# Bulk Modulus (GPa) = 50.45233 87.35531 68.90382
# Shear Modulus (GPa) = 23.48643 12.91940 18.20291
#
# Velocity S-wave (km/s) = 3.67703 2.72715 3.23712
# Velocity P-wave (km/s) = 6.86087 7.75917 7.32380
#
# Compressibility (1/GPa) = 0.01982069
#
# Stress axis : x y z
#
# Youngs Moduli (GPa) = 25.37382 25.23240 67.84005
#
# Poissons Ratio (x) = 0.40398 0.89718
# Poissons Ratio (y) = 0.40624 0.52548
# Poissons Ratio (z) = 0.33557 0.19545
#
# Static dielectric constant tensor:
#      x y z
#    x 1.582760 0.000000 0.000000 
#    y 0.000000 1.563890 0.000000 
#    z 0.000000 0.000000 1.584570 
# 
# From -- ./inp_files/18385.got.cif
#   From: 2010.05.17/outbox.cif.g08.bks.cpg/sg35_10_cif.got.tgz:18385.got - 2010.06.03 17:29:28.
