data_PCOD9349213
_publ_section_title
;
Structure prediction by ZEFSAII (Michael W. Deem and Ramdas Pophale) SiO2 
 PCOD9349213
Probable space group: C M M 2
;
_chemical_formula_sum "Si O2"
_cell_formula_units_Z 48
_cell_length_a 15.862456
_cell_length_b 8.676031
_cell_length_c 17.963636
_cell_angle_alpha 90.000000
_cell_angle_beta 90.000000
_cell_angle_gamma 90.000000
_cell_volume 2472.212351
_symmetry_space_group_name_H-M "C M M 2"
_symmetry_group_IT_number 35
_symmetry_cell_setting 'orthorhombic'
loop_
_space_group_symop_operation_xyz
x,y,z
-x,-y,z
-x,y,z
x,-y,z
1/2+x,1/2+y,z
1/2-x,1/2-y,z
1/2-x,1/2+y,z
1/2+x,1/2-y,z
loop_
_atom_site_type_symbol
_atom_site_label
_atom_site_fract_x
_atom_site_fract_y
_atom_site_fract_z
Si Si1 0.654386 0.814715 0.450170
Si Si2 0.345562 0.684803 0.073342
Si Si3 0.344078 0.314306 0.605861
Si Si4 0.843295 0.681809 0.919111
Si Si5 0.000000 0.186125 0.178181
Si Si6 0.500000 0.185931 0.344205
Si Si7 0.099053 0.172210 0.768454
O O1 0.750000 0.750000 0.438528
O O2 0.619434 0.754916 0.529861
O O3 0.585426 0.768585 0.388406
O O4 0.660618 0.000000 0.452489
O O5 0.339131 0.500000 0.073259
O O6 0.250000 0.750000 0.083957
O O7 0.414585 0.733814 0.134537
O O8 0.380657 0.739284 0.992854
O O9 0.347609 0.500000 0.601744
O O10 0.250000 0.250000 0.605189
O O11 0.378708 0.267442 0.686505
O O12 0.843259 0.500000 0.930105
O O13 0.750000 0.750000 0.917032
O O14 0.879672 0.724774 0.839039
O O15 0.000000 0.248217 0.261535
O O16 0.000000 0.000000 0.179050
O O17 0.500000 0.000000 0.341456
O O18 0.000000 0.154520 0.768778
O O19 0.138618 0.000000 0.777522
#
# Coordination Sequence:
#
# PCOD9349213 Si02
#       7
#     8   8   8   8   4   4   8
#     4  10  21  39  61  88 119 156 196 241 293 348
#     4  10  21  40  63  90 120 157 197 242 295 351
#     4  10  20  35  57  82 110 150 194 238 287 340
#     4  11  22  37  58  84 112 151 197 240 289 344
#     4  10  24  42  64  91 120 155 194 235 294 357
#     4  10  24  42  62  89 122 155 190 237 296 351
#     4  10  22  37  53  79 116 154 193 240 291 340
#
# _framework density 19.41581
#
# number of rings (size 3 to 8) (size 9 to 14) (size 15 to 20)
#    0.000    1.833    0.000    5.500    2.333    6.333 
#    0.000    3.333    0.000    0.000    0.000    0.000 
#    0.000    0.000    0.000    0.000    0.000    0.000 
#
# Total GULP energy -133868.549842 kJ/mol
# GULP energy per Si atom -5577.856243 kJ/mol
# Density = 1.937162 g / cm^3
# Si number density = 19.415810 Si / 1000 Ang^3
#
#
#
# Elastic Constant Matrix: (Units=GPa)
#
#
# Indices 1 2 3 4 5 6 
#
# 1 84.6181 30.1190 81.4356 0.0000 0.0000 0.0000
# 2 30.1190 60.6874 51.3232 0.0000 0.0000 0.0000
# 3 81.4356 51.3232 195.9316 0.0000 0.0000 0.0000
# 4 0.0000 0.0000 0.0000 39.0125 0.0000 0.0000
# 5 0.0000 0.0000 0.0000 0.0000 43.8644 0.0000
# 6 0.0000 0.0000 0.0000 0.0000 0.0000 17.5052
#
#
#
# Elastic Compliance Matrix: (Units=1/GPa)
#
#
# Indices 1 2 3 4 5 6 
#
# 1 0.020352 -0.003785 -0.007467 0.000000 0.000000 0.000000
# 2 -0.003785 0.021871 -0.004156 0.000000 0.000000 0.000000
# 3 -0.007467 -0.004156 0.009296 0.000000 0.000000 0.000000
# 4 0.000000 0.000000 0.000000 0.025633 0.000000 0.000000
# 5 0.000000 0.000000 0.000000 0.000000 0.022798 0.000000
# 6 0.000000 0.000000 0.000000 0.000000 0.000000 0.057126
#
#
# Mechanical properties :
#
#
# Convention : Reuss Voigt Hill
#
# Bulk Modulus (GPa) = 48.30455 74.11031 61.20743
# Shear Modulus (GPa) = 25.66843 31.96705 28.81774
#
# Velocity S-wave (km/s) = 3.63993 4.06204 3.85676
# Velocity P-wave (km/s) = 6.52675 7.76229 7.17118
#
# Compressibility (1/GPa) = 0.02070198
#
# Stress axis : x y z
#
# Youngs Moduli (GPa) = 49.13639 45.72265 107.57346
#
# Poissons Ratio (x) = 0.17308 0.80327
# Poissons Ratio (y) = 0.18600 0.44704
# Poissons Ratio (z) = 0.36691 0.19001
#
# Static dielectric constant tensor:
#      x y z
#    x 1.665430 0.000000 0.000000 
#    y 0.000000 1.690300 0.000000 
#    z 0.000000 0.000000 1.776410 
# 
# From -- ./inp_files/17123.got.cif
#   From: 2010.05.17/outbox.cif.g08.bks.cpg/sg35_9_cif.got.tgz:17123.got - 2010.06.03 17:29:28.
