data_PCOD9349182
_publ_section_title
;
Structure prediction by ZEFSAII (Michael W. Deem and Ramdas Pophale) SiO2 
 PCOD9349182
Probable space group: C M M 2
;
_chemical_formula_sum "Si O2"
_cell_formula_units_Z 64
_cell_length_a 9.012768
_cell_length_b 18.650994
_cell_length_c 21.450617
_cell_angle_alpha 90.000000
_cell_angle_beta 90.000000
_cell_angle_gamma 90.000000
_cell_volume 3605.786122
_symmetry_space_group_name_H-M "C M M 2"
_symmetry_group_IT_number 35
_symmetry_cell_setting 'orthorhombic'
loop_
_space_group_symop_operation_xyz
x,y,z
-x,-y,z
-x,y,z
x,-y,z
1/2+x,1/2+y,z
1/2-x,1/2-y,z
1/2-x,1/2+y,z
1/2+x,1/2-y,z
loop_
_atom_site_type_symbol
_atom_site_label
_atom_site_fract_x
_atom_site_fract_y
_atom_site_fract_z
Si Si1 0.328451 0.412732 0.898800
Si Si2 0.822347 0.415485 0.526463
Si Si3 0.670678 0.587216 0.398323
Si Si4 0.321641 0.083266 0.771394
Si Si5 0.678579 0.328195 0.157375
Si Si6 0.324986 0.086077 0.269835
Si Si7 0.679412 0.172046 0.649967
Si Si8 0.819291 0.082682 0.035620
O O1 0.500000 0.390810 0.892680
O O2 0.325391 0.500000 0.900461
O O3 0.240507 0.390114 0.837520
O O4 0.270057 0.390913 0.967104
O O5 0.789290 0.500000 0.535636
O O6 0.742154 0.389773 0.463666
O O7 0.779239 0.371888 0.587881
O O8 0.000000 0.409497 0.517953
O O9 0.500000 0.610049 0.393126
O O10 0.673447 0.500000 0.399251
O O11 0.762992 0.608768 0.337449
O O12 0.500000 0.084372 0.773712
O O13 0.273509 0.129501 0.712149
O O14 0.275685 0.000000 0.763199
O O15 0.500000 0.323869 0.159107
O O16 0.750000 0.250000 0.159715
O O17 0.736909 0.374417 0.215402
O O18 0.723956 0.368217 0.093361
O O19 0.500000 0.101137 0.265394
O O20 0.304401 0.000000 0.264254
O O21 0.500000 0.176889 0.650928
O O22 0.750000 0.250000 0.648818
O O23 0.000000 0.081460 0.033199
O O24 0.771311 0.000000 0.045084
#
# Coordination Sequence:
#
# PCOD9349182 Si02
#       8
#     8   8   8   8   8   8   8   8
#     4   8  14  27  49  76 101 125 160 206 252 298
#     4   9  17  32  54  76  98 128 166 206 249 297
#     4   9  17  30  51  80 108 131 161 205 254 301
#     4   9  17  31  51  74  99 128 164 205 249 296
#     4  11  22  36  53  74 104 140 176 214 257 305
#     4  10  20  35  56  81 107 135 170 212 256 304
#     4  10  21  35  50  70  99 134 168 204 247 296
#     4   8  15  30  53  77  99 128 167 208 252 304
#
# _framework density 17.749251000000001
#
# number of rings (size 3 to 8) (size 9 to 14) (size 15 to 20)
#    0.000    2.750    0.000    2.625    0.000    5.250 
#    0.000    2.500    0.000   11.250    0.000    0.000 
#    0.000    0.000    0.000    0.000    0.000    0.000 
#
# Total GULP energy -178414.992838 kJ/mol
# GULP energy per Si atom -5575.468526 kJ/mol
# Density = 1.770885 g / cm^3
# Si number density = 17.749251 Si / 1000 Ang^3
#
#
#
# Elastic Constant Matrix: (Units=GPa)
#
#
# Indices 1 2 3 4 5 6 
#
# 1 48.0922 36.4768 61.2012 0.0000 0.0000 0.0000
# 2 36.4768 57.4968 67.6591 0.0000 0.0000 0.0000
# 3 61.2012 67.6591 196.6238 0.0000 0.0000 0.0000
# 4 0.0000 0.0000 0.0000 -5.4433 0.0000 0.0000
# 5 0.0000 0.0000 0.0000 0.0000 31.5191 0.0000
# 6 0.0000 0.0000 0.0000 0.0000 0.0000 20.9033
#
#
#
# Elastic Compliance Matrix: (Units=1/GPa)
#
#
# Indices 1 2 3 4 5 6 
#
# 1 0.045258 -0.020393 -0.007070 0.000000 0.000000 0.000000
# 2 -0.020393 0.038416 -0.006872 0.000000 0.000000 0.000000
# 3 -0.007070 -0.006872 0.009651 0.000000 0.000000 0.000000
# 4 0.000000 0.000000 0.000000 -0.183710 0.000000 0.000000
# 5 0.000000 0.000000 0.000000 0.000000 0.031727 0.000000
# 6 0.000000 0.000000 0.000000 0.000000 0.000000 0.047839
#
#
# Mechanical properties :
#
#
# Convention : Reuss Voigt Hill
#
# Bulk Modulus (GPa) = 40.55779 70.32078 55.43928
# Shear Modulus (GPa) = 75.68016 18.52085 47.10051
#
# Velocity S-wave (km/s) = 6.53690 3.23379 5.15696
# Velocity P-wave (km/s) = 8.93727 7.32449 8.17077
#
# Compressibility (1/GPa) = 0.02465618
#
# Stress axis : x y z
#
# Youngs Moduli (GPa) = 22.09570 26.03077 103.61748
#
# Poissons Ratio (x) = 0.53085 0.73253
# Poissons Ratio (y) = 0.45060 0.71202
# Poissons Ratio (z) = 0.15621 0.17887
#
# Static dielectric constant tensor:
#      x y z
#    x 1.596930 0.000000 0.000000 
#    y 0.000000 1.583040 0.000000 
#    z 0.000000 0.000000 1.606250 
# 
# From -- ./inp_files/18364.got.cif
#   From: 2010.05.17/outbox.cif.g08.bks.cpg/sg35_10_cif.got.tgz:18364.got - 2010.06.03 17:29:28.
