data_PCOD9349694
_publ_section_title
;
Structure prediction by ZEFSAII (Michael W. Deem and Ramdas Pophale) SiO2 
 PCOD9349694
Probable space group: C M M 2
;
_chemical_formula_sum "Si O2"
_cell_formula_units_Z 56
_cell_length_a 14.735527
_cell_length_b 27.377915
_cell_length_c 6.969618
_cell_angle_alpha 90.000000
_cell_angle_beta 90.000000
_cell_angle_gamma 90.000000
_cell_volume 2811.739090
_symmetry_space_group_name_H-M "C M M 2"
_symmetry_group_IT_number 35
_symmetry_cell_setting 'orthorhombic'
loop_
_space_group_symop_operation_xyz
x,y,z
-x,-y,z
-x,y,z
x,-y,z
1/2+x,1/2+y,z
1/2-x,1/2-y,z
1/2-x,1/2+y,z
1/2+x,1/2-y,z
loop_
_atom_site_type_symbol
_atom_site_label
_atom_site_fract_x
_atom_site_fract_y
_atom_site_fract_z
Si Si1 0.391266 0.278562 0.164590
Si Si2 0.391386 0.362016 0.878763
Si Si3 0.798631 0.201571 0.551166
Si Si4 0.241613 0.056023 0.002606
Si Si5 0.395574 0.180682 0.992501
Si Si6 0.677436 0.120253 0.335999
Si Si7 0.392238 0.905548 0.736364
O O1 0.500000 0.275695 0.158715
O O2 0.360582 0.276513 0.381939
O O3 0.353681 0.232380 0.046658
O O4 0.366202 0.329148 0.063955
O O5 0.500000 0.368655 0.870550
O O6 0.356932 0.329349 0.701809
O O7 0.336700 0.412225 0.899748
O O8 0.750000 0.250000 0.633740
O O9 0.735324 0.162790 0.438693
O O10 0.329994 0.059243 0.863850
O O11 0.216054 0.000000 0.031916
O O12 0.266278 0.082668 0.203430
O O13 0.500000 0.189686 0.943844
O O14 0.387036 0.147444 0.182605
O O15 0.360233 0.147859 0.818481
O O16 0.627468 0.093118 0.510815
O O17 0.500000 0.911107 0.772639
#
# Coordination Sequence:
#
# PCOD9349694 Si02
#       7
#     8   8   8   8   8   8   8
#     4  10  21  37  57  87 128 172 214 257 314 383
#     4  11  25  44  65  93 131 172 222 278 329 387
#     4  12  23  36  63  98 131 171 211 259 324 400
#     4  11  25  45  69  93 122 168 228 286 342 393
#     4   9  19  34  56  89 130 174 211 244 299 383
#     4  11  21  38  61  93 128 168 210 266 321 390
#     4  10  22  41  64  95 134 170 210 265 328 399
#
# _framework density 19.916501
#
# number of rings (size 3 to 8) (size 9 to 14) (size 15 to 20)
#    0.000    1.429    4.286    0.857    2.000    2.286 
#    0.000    0.000    0.000    0.000    0.000    0.000 
#    0.000    0.000    0.000    0.000    0.000    0.000 
#
# Total GULP energy -156316.993470 kJ/mol
# GULP energy per Si atom -5582.749767 kJ/mol
# Density = 1.987117 g / cm^3
# Si number density = 19.916501 Si / 1000 Ang^3
#
#
#
# Elastic Constant Matrix: (Units=GPa)
#
#
# Indices 1 2 3 4 5 6 
#
# 1 70.7553 47.1826 37.1768 0.0000 0.0000 0.0000
# 2 47.1826 137.6046 31.2491 0.0000 0.0000 0.0000
# 3 37.1768 31.2491 108.1342 0.0000 0.0000 0.0000
# 4 0.0000 0.0000 0.0000 14.2297 0.0000 0.0000
# 5 0.0000 0.0000 0.0000 0.0000 31.7248 0.0000
# 6 0.0000 0.0000 0.0000 0.0000 0.0000 17.6592
#
#
#
# Elastic Compliance Matrix: (Units=1/GPa)
#
#
# Indices 1 2 3 4 5 6 
#
# 1 0.020988 -0.005948 -0.005497 0.000000 0.000000 0.000000
# 2 -0.005948 0.009463 -0.000690 0.000000 0.000000 0.000000
# 3 -0.005497 -0.000690 0.011337 0.000000 0.000000 0.000000
# 4 0.000000 0.000000 0.000000 0.070275 0.000000 0.000000
# 5 0.000000 0.000000 0.000000 0.000000 0.031521 0.000000
# 6 0.000000 0.000000 0.000000 0.000000 0.000000 0.056628
#
#
# Mechanical properties :
#
#
# Convention : Reuss Voigt Hill
#
# Bulk Modulus (GPa) = 57.08165 60.85678 58.96922
# Shear Modulus (GPa) = 21.70881 26.11513 23.91197
#
# Velocity S-wave (km/s) = 3.30508 3.62502 3.46874
# Velocity P-wave (km/s) = 6.57932 6.93854 6.76132
#
# Compressibility (1/GPa) = 0.01751876
#
# Stress axis : x y z
#
# Youngs Moduli (GPa) = 47.64670 105.67058 88.20759
#
# Poissons Ratio (x) = 0.62854 0.48485
# Poissons Ratio (y) = 0.28341 0.06084
# Poissons Ratio (z) = 0.26190 0.07289
#
# Static dielectric constant tensor:
#      x y z
#    x 1.732160 0.000000 0.000000 
#    y 0.000000 1.713390 0.000000 
#    z 0.000000 0.000000 1.698820 
# 
# From -- ./inp_files/2062.got.cif
#   From: 2010.05.17/outbox.cif.g08.bks.cpg/sg35_2_cif.got.tgz:2062.got - 2010.06.03 17:29:28.
