data_PCOD9349902
_publ_section_title
;
Structure prediction by ZEFSAII (Michael W. Deem and Ramdas Pophale) SiO2 
 PCOD9349902
Probable space group: C M M 2
;
_chemical_formula_sum "Si O2"
_cell_formula_units_Z 64
_cell_length_a 22.364060
_cell_length_b 24.343160
_cell_length_c 7.702878
_cell_angle_alpha 90.000000
_cell_angle_beta 90.000000
_cell_angle_gamma 90.000000
_cell_volume 4193.538377
_symmetry_space_group_name_H-M "C M M 2"
_symmetry_group_IT_number 35
_symmetry_cell_setting 'orthorhombic'
loop_
_space_group_symop_operation_xyz
x,y,z
-x,-y,z
-x,y,z
x,-y,z
1/2+x,1/2+y,z
1/2-x,1/2-y,z
1/2-x,1/2+y,z
1/2+x,1/2-y,z
loop_
_atom_site_type_symbol
_atom_site_label
_atom_site_fract_x
_atom_site_fract_y
_atom_site_fract_z
Si Si1 0.267300 0.663052 0.732200
Si Si2 0.655493 0.563011 0.225817
Si Si3 0.568689 0.565671 0.905151
Si Si4 0.846752 0.731731 0.147840
Si Si5 0.623095 0.385089 0.559467
Si Si6 0.846711 0.725508 0.741847
Si Si7 0.071097 0.233349 0.453671
Si Si8 0.736182 0.659702 0.138421
O O1 0.307891 0.622765 0.620117
O O2 0.199873 0.678665 0.680547
O O3 0.306842 0.718914 0.729109
O O4 0.262274 0.646537 0.933298
O O5 0.674062 0.500000 0.203467
O O6 0.620593 0.570917 0.406074
O O7 0.612467 0.578816 0.065002
O O8 0.709293 0.606556 0.228769
O O9 0.500000 0.578654 0.949100
O O10 0.572978 0.500000 0.874787
O O11 0.588068 0.597341 0.732082
O O12 0.900618 0.740549 0.279907
O O13 0.862542 0.721384 0.945686
O O14 0.800173 0.683330 0.196981
O O15 0.808803 0.788568 0.157598
O O16 0.596808 0.328303 0.483112
O O17 0.902509 0.732707 0.616528
O O18 0.000000 0.232236 0.449095
#
# Coordination Sequence:
#
# PCOD9349902 Si02
#       8
#     8   8   8   8   8   8   8   8
#     4   8  15  29  50  69  88 116 162 197 244 290
#     4  11  22  34  50  73  97 127 167 211 253 287
#     4  10  22  38  50  62  92 137 177 212 244 278
#     4   9  18  32  51  69  94 123 161 197 243 293
#     4  11  20  33  50  70  95 127 168 212 245 284
#     4   8  17  30  45  68  92 121 155 200 236 288
#     4  11  22  30  44  72 100 131 165 196 241 292
#     4   9  16  33  52  71  91 124 159 202 247 293
#
# _framework density 15.261574
#
# number of rings (size 3 to 8) (size 9 to 14) (size 15 to 20)
#    0.000    2.375    2.500    2.250    1.750    2.500 
#    0.000    1.250    0.000    0.000    0.000    0.000 
#    0.000    0.500    0.000    0.250    0.000    0.000 
#
# Total GULP energy -178281.212018 kJ/mol
# GULP energy per Si atom -5571.287876 kJ/mol
# Density = 1.522684 g / cm^3
# Si number density = 15.261574 Si / 1000 Ang^3
#
#
#
# Elastic Constant Matrix: (Units=GPa)
#
#
# Indices 1 2 3 4 5 6 
#
# 1 71.1094 29.1120 38.5581 0.0000 0.0000 0.0000
# 2 29.1120 45.4104 21.1977 0.0000 0.0000 0.0000
# 3 38.5581 21.1977 73.0987 0.0000 0.0000 0.0000
# 4 0.0000 0.0000 0.0000 14.8003 0.0000 0.0000
# 5 0.0000 0.0000 0.0000 0.0000 21.8580 0.0000
# 6 0.0000 0.0000 0.0000 0.0000 0.0000 17.1073
#
#
#
# Elastic Compliance Matrix: (Units=1/GPa)
#
#
# Indices 1 2 3 4 5 6 
#
# 1 0.023484 -0.010725 -0.009277 0.000000 0.000000 0.000000
# 2 -0.010725 0.030367 -0.003149 0.000000 0.000000 0.000000
# 3 -0.009277 -0.003149 0.019487 0.000000 0.000000 0.000000
# 4 0.000000 0.000000 0.000000 0.067566 0.000000 0.000000
# 5 0.000000 0.000000 0.000000 0.000000 0.045750 0.000000
# 6 0.000000 0.000000 0.000000 0.000000 0.000000 0.058454
#
#
# Mechanical properties :
#
#
# Convention : Reuss Voigt Hill
#
# Bulk Modulus (GPa) = 36.98791 40.81711 38.90251
# Shear Modulus (GPa) = 16.64328 17.46986 17.05657
#
# Velocity S-wave (km/s) = 3.30591 3.38701 3.34670
# Velocity P-wave (km/s) = 6.23383 6.48836 6.36237
#
# Compressibility (1/GPa) = 0.02703586
#
# Stress axis : x y z
#
# Youngs Moduli (GPa) = 42.58225 32.93075 51.31658
#
# Poissons Ratio (x) = 0.35317 0.47608
# Poissons Ratio (y) = 0.45668 0.16159
# Poissons Ratio (z) = 0.39505 0.10370
#
# Static dielectric constant tensor:
#      x y z
#    x 1.504750 0.000000 0.000000 
#    y 0.000000 1.508010 0.000000 
#    z 0.000000 0.000000 1.541490 
# 
# From -- ./inp_files/9551.got.cif
#   From: 2010.05.17/outbox.cif.g08.bks.cpg/sg35_5_cif.got.tgz:9551.got - 2010.06.03 17:29:28.
