data_PCOD9349283
_publ_section_title
;
Structure prediction by ZEFSAII (Michael W. Deem and Ramdas Pophale) SiO2 
 PCOD9349283
Probable space group: C M M 2
;
_chemical_formula_sum "Si O2"
_cell_formula_units_Z 26
_cell_length_a 8.612331
_cell_length_b 19.046045
_cell_length_c 7.039009
_cell_angle_alpha 90.000000
_cell_angle_beta 90.000000
_cell_angle_gamma 90.000000
_cell_volume 1154.614586
_symmetry_space_group_name_H-M "C M M 2"
_symmetry_group_IT_number 35
_symmetry_cell_setting 'orthorhombic'
loop_
_space_group_symop_operation_xyz
x,y,z
-x,-y,z
-x,y,z
x,-y,z
1/2+x,1/2+y,z
1/2-x,1/2-y,z
1/2-x,1/2+y,z
1/2+x,1/2-y,z
loop_
_atom_site_type_symbol
_atom_site_label
_atom_site_fract_x
_atom_site_fract_y
_atom_site_fract_z
Si Si1 0.500000 0.084475 0.105880
Si Si2 0.000000 0.500000 0.538321
Si Si3 0.165306 0.000000 0.581793
Si Si4 0.667779 0.615903 0.910964
Si Si5 0.000000 0.650452 0.524525
Si Si6 0.250000 0.250000 0.701794
O O1 0.500000 0.120878 0.312682
O O2 0.500000 0.000000 0.110884
O O3 0.332260 0.105434 0.016333
O O4 0.177514 0.500000 0.459800
O O5 0.000000 0.576310 0.641608
O O6 0.168631 0.934334 0.725741
O O7 0.000000 0.000000 0.477731
O O8 0.500000 0.600908 0.010254
O O9 0.664175 0.695422 0.837648
O O10 0.143541 0.699814 0.574559
#
# Coordination Sequence:
#
# PCOD9349283 Si02
#       6
#     4   2   4   8   4   4
#     4  12  26  47  73 106 148 192 239 296 361 435
#     4  12  20  42  72  98 140 200 236 292 348 426
#     4  10  20  35  67 107 131 177 250 302 336 408
#     4  11  23  42  72 103 138 183 247 300 351 418
#     4  12  27  46  72 104 150 194 233 299 374 429
#     4  12  24  46  72 104 142 190 246 300 352 428
#
# _framework density 22.518336999999999
#
# number of rings (size 3 to 8) (size 9 to 14) (size 15 to 20)
#    0.000    0.615    6.923    1.846    0.000    1.231 
#    2.769    0.000    0.000    0.000    0.000    0.000 
#    0.000    0.000    0.000    0.000    0.000    0.000 
#
# Total GULP energy -72436.956911 kJ/mol
# GULP energy per Si atom -5572.073609 kJ/mol
# Density = 2.246708 g / cm^3
# Si number density = 22.518337 Si / 1000 Ang^3
#
#
#
# Elastic Constant Matrix: (Units=GPa)
#
#
# Indices 1 2 3 4 5 6 
#
# 1 293.2228 62.1979 72.1577 0.0000 0.0000 0.0000
# 2 62.1979 193.9477 28.1728 0.0000 0.0000 0.0000
# 3 72.1577 28.1728 66.2683 0.0000 0.0000 0.0000
# 4 0.0000 0.0000 0.0000 32.2549 0.0000 0.0000
# 5 0.0000 0.0000 0.0000 0.0000 11.8486 0.0000
# 6 0.0000 0.0000 0.0000 0.0000 0.0000 6.4698
#
#
#
# Elastic Compliance Matrix: (Units=1/GPa)
#
#
# Indices 1 2 3 4 5 6 
#
# 1 0.004780 -0.000828 -0.004853 0.000000 0.000000 0.000000
# 2 -0.000828 0.005639 -0.001496 0.000000 0.000000 0.000000
# 3 -0.004853 -0.001496 0.021010 0.000000 0.000000 0.000000
# 4 0.000000 0.000000 0.000000 0.031003 0.000000 0.000000
# 5 0.000000 0.000000 0.000000 0.000000 0.084398 0.000000
# 6 0.000000 0.000000 0.000000 0.000000 0.000000 0.154565
#
#
# Mechanical properties :
#
#
# Convention : Reuss Voigt Hill
#
# Bulk Modulus (GPa) = 58.56170 97.61063 78.08617
# Shear Modulus (GPa) = 15.55495 36.17536 25.86515
#
# Velocity S-wave (km/s) = 2.63110 4.01245 3.39282
# Velocity P-wave (km/s) = 5.94078 8.05652 7.07815
#
# Compressibility (1/GPa) = 0.01707601
#
# Stress axis : x y z
#
# Youngs Moduli (GPa) = 209.19216 177.34167 47.59550
#
# Poissons Ratio (x) = 0.14685 0.23099
# Poissons Ratio (y) = 0.17322 0.07118
# Poissons Ratio (z) = 1.01523 0.26523
#
# Static dielectric constant tensor:
#      x y z
#    x 1.925770 0.000000 0.000000 
#    y 0.000000 1.861940 0.000000 
#    z 0.000000 0.000000 1.857840 
# 
# From -- ./inp_files/4472.got.cif
#   From: 2010.05.17/outbox.cif.g08.bks.cpg/sg35_3_cif.got.tgz:4472.got - 2010.06.03 17:29:28.
