data_PCOD9349374
_publ_section_title
;
Structure prediction by ZEFSAII (Michael W. Deem and Ramdas Pophale) SiO2 
 PCOD9349374
Probable space group: C M M 2
;
_chemical_formula_sum "Si O2"
_cell_formula_units_Z 48
_cell_length_a 8.994160
_cell_length_b 18.241012
_cell_length_c 15.881168
_cell_angle_alpha 90.000000
_cell_angle_beta 90.000000
_cell_angle_gamma 90.000000
_cell_volume 2605.505403
_symmetry_space_group_name_H-M "C M M 2"
_symmetry_group_IT_number 35
_symmetry_cell_setting 'orthorhombic'
loop_
_space_group_symop_operation_xyz
x,y,z
-x,-y,z
-x,y,z
x,-y,z
1/2+x,1/2+y,z
1/2-x,1/2-y,z
1/2-x,1/2+y,z
1/2+x,1/2-y,z
loop_
_atom_site_type_symbol
_atom_site_label
_atom_site_fract_x
_atom_site_fract_y
_atom_site_fract_z
Si Si1 0.322648 0.669859 0.091130
Si Si2 0.678975 0.829627 0.418581
Si Si3 0.671025 0.589200 0.761553
Si Si4 0.674834 0.911735 0.935186
Si Si5 0.321746 0.913342 0.587995
Si Si6 0.177711 0.413280 0.246995
O O1 0.500000 0.675286 0.090928
O O2 0.250000 0.750000 0.092767
O O3 0.265999 0.625836 0.172642
O O4 0.265226 0.627460 0.008626
O O5 0.500000 0.823278 0.420386
O O6 0.750000 0.750000 0.411609
O O7 0.724856 0.869293 0.505125
O O8 0.716933 0.878038 0.336950
O O9 0.500000 0.612619 0.768655
O O10 0.673501 0.500000 0.760402
O O11 0.764032 0.611143 0.843647
O O12 0.742593 0.612679 0.673267
O O13 0.500000 0.895149 0.942786
O O14 0.692306 0.000000 0.942532
O O15 0.500000 0.906560 0.598179
O O16 0.289974 0.000000 0.576098
O O17 0.205767 0.500000 0.247462
O O18 0.000000 0.402497 0.233471
#
# Coordination Sequence:
#
# PCOD9349374 Si02
#       6
#     8   8   8   8   8   8
#     4  12  25  40  58  82 114 149 185 227 277 332
#     4  10  21  36  55  80 111 147 184 225 274 328
#     4   9  17  30  51  81 113 143 180 229 280 326
#     4  10  20  36  59  85 113 147 187 230 277 330
#     4   9  17  32  54  78 105 141 186 231 275 326
#     4  10  21  39  62  86 112 144 184 229 277 330
#
# _framework density 18.422529000000001
#
# number of rings (size 3 to 8) (size 9 to 14) (size 15 to 20)
#    0.000    2.000    0.000    4.000    0.000   10.000 
#    0.000    0.833    0.000    5.000    0.000    0.000 
#    0.000    0.000    0.000    0.000    0.000    0.000 
#
# Total GULP energy -134063.708426 kJ/mol
# GULP energy per Si atom -5585.987851 kJ/mol
# Density = 1.838060 g / cm^3
# Si number density = 18.422529 Si / 1000 Ang^3
#
#
#
# Elastic Constant Matrix: (Units=GPa)
#
#
# Indices 1 2 3 4 5 6 
#
# 1 103.6624 67.1530 92.5269 0.0000 0.0000 0.0000
# 2 67.1530 82.1645 75.5095 0.0000 0.0000 0.0000
# 3 92.5269 75.5095 192.5911 0.0000 0.0000 0.0000
# 4 0.0000 0.0000 0.0000 -24.3294 0.0000 0.0000
# 5 0.0000 0.0000 0.0000 0.0000 -62.8983 0.0000
# 6 0.0000 0.0000 0.0000 0.0000 0.0000 27.9308
#
#
#
# Elastic Compliance Matrix: (Units=1/GPa)
#
#
# Indices 1 2 3 4 5 6 
#
# 1 0.024348 -0.014303 -0.006090 0.000000 0.000000 0.000000
# 2 -0.014303 0.027428 -0.003882 0.000000 0.000000 0.000000
# 3 -0.006090 -0.003882 0.009640 0.000000 0.000000 0.000000
# 4 0.000000 0.000000 0.000000 -0.041102 0.000000 0.000000
# 5 0.000000 0.000000 0.000000 0.000000 -0.015899 0.000000
# 6 0.000000 0.000000 0.000000 0.000000 0.000000 0.035803
#
#
# Mechanical properties :
#
#
# Convention : Reuss Voigt Hill
#
# Bulk Modulus (GPa) = 77.72160 94.31076 86.01618
# Shear Modulus (GPa) = 53.73099 -2.31080 25.71009
#
# Velocity S-wave (km/s) = 5.40641 -1.12118 3.73980
# Velocity P-wave (km/s) = 9.01400 7.04473 8.08951
#
# Compressibility (1/GPa) = 0.01286644
#
# Stress axis : x y z
#
# Youngs Moduli (GPa) = 41.07170 36.45863 103.73317
#
# Poissons Ratio (x) = 0.52147 0.63169
# Poissons Ratio (y) = 0.58745 0.40272
# Poissons Ratio (z) = 0.25011 0.14154
#
# Static dielectric constant tensor:
#      x y z
#    x 1.617560 0.000000 0.000000 
#    y 0.000000 1.610550 0.000000 
#    z 0.000000 0.000000 1.613560 
# 
# From -- ./inp_files/15107.got.cif
#   From: 2010.05.17/outbox.cif.g08.bks.cpg/sg35_8_cif.got.tgz:15107.got - 2010.06.03 17:29:28.
