data_PCOD9349064
_publ_section_title
;
Structure prediction by ZEFSAII (Michael W. Deem and Ramdas Pophale) SiO2 
 PCOD9349064
Probable space group: C M M 2
;
_chemical_formula_sum "Si O2"
_cell_formula_units_Z 64
_cell_length_a 24.662525
_cell_length_b 14.879634
_cell_length_c 9.611455
_cell_angle_alpha 90.000000
_cell_angle_beta 90.000000
_cell_angle_gamma 90.000000
_cell_volume 3527.109351
_symmetry_space_group_name_H-M "C M M 2"
_symmetry_group_IT_number 35
_symmetry_cell_setting 'orthorhombic'
loop_
_space_group_symop_operation_xyz
x,y,z
-x,-y,z
-x,y,z
x,-y,z
1/2+x,1/2+y,z
1/2-x,1/2-y,z
1/2-x,1/2+y,z
1/2+x,1/2-y,z
loop_
_atom_site_type_symbol
_atom_site_label
_atom_site_fract_x
_atom_site_fract_y
_atom_site_fract_z
Si Si1 0.062069 0.096766 0.156740
Si Si2 0.628278 0.642440 0.894871
Si Si3 0.196327 0.695002 0.993196
Si Si4 0.259507 0.398623 0.749512
Si Si5 0.835148 0.603144 0.277333
Si Si6 0.881970 0.215565 0.374263
Si Si7 0.935314 0.894037 0.621067
Si Si8 0.779033 0.894830 0.436099
O O1 0.078780 0.176511 0.256824
O O2 0.000000 0.105915 0.109195
O O3 0.066288 0.000000 0.232186
O O4 0.102789 0.096157 0.028491
O O5 0.683337 0.602003 0.830627
O O6 0.584216 0.635143 0.773714
O O7 0.647908 0.739302 0.948905
O O8 0.250000 0.750000 0.043824
O O9 0.176724 0.631186 0.117322
O O10 0.217601 0.650178 0.850625
O O11 0.240407 0.500000 0.728361
O O12 0.270060 0.361608 0.594915
O O13 0.854738 0.500000 0.285531
O O14 0.872492 0.678929 0.350110
O O15 0.777533 0.607748 0.356163
O O16 0.906048 0.174660 0.516230
O O17 0.823569 0.166473 0.361686
O O18 0.000000 0.888480 0.605287
O O19 0.919898 0.000000 0.600330
O O20 0.797035 0.000000 0.441021
#
# Coordination Sequence:
#
# PCOD9349064 Si02
#       8
#     8   8   8   8   8   8   8   8
#     4  11  23  38  58  86 117 150 193 239 287 350
#     4  11  21  36  58  86 120 157 187 228 287 350
#     4  10  21  36  55  86 117 158 195 235 282 343
#     4  10  20  34  55  86 121 155 193 231 280 346
#     4  11  24  40  58  84 116 155 202 247 288 334
#     4  12  22  38  61  85 119 156 194 237 291 346
#     4  11  23  39  61  91 124 154 188 233 290 356
#     4  10  21  35  57  88 121 156 190 231 286 354
#
# _framework density 18.145171000000001
#
# number of rings (size 3 to 8) (size 9 to 14) (size 15 to 20)
#    0.000    1.250    2.500    4.500    3.500    3.000 
#    0.000    0.000    0.000    1.500    0.000    0.000 
#    0.000    0.000    0.000    0.000    0.000    0.000 
#
# Total GULP energy -178611.378933 kJ/mol
# GULP energy per Si atom -5581.605592 kJ/mol
# Density = 1.810387 g / cm^3
# Si number density = 18.145171 Si / 1000 Ang^3
#
#
#
# Elastic Constant Matrix: (Units=GPa)
#
#
# Indices 1 2 3 4 5 6 
#
# 1 54.1391 38.6152 4.1422 0.0000 0.0000 0.0000
# 2 38.6152 119.6867 22.5253 0.0000 0.0000 0.0000
# 3 4.1422 22.5253 52.6858 0.0000 0.0000 0.0000
# 4 0.0000 0.0000 0.0000 15.4004 0.0000 0.0000
# 5 0.0000 0.0000 0.0000 0.0000 22.8033 0.0000
# 6 0.0000 0.0000 0.0000 0.0000 0.0000 24.9949
#
#
#
# Elastic Compliance Matrix: (Units=1/GPa)
#
#
# Indices 1 2 3 4 5 6 
#
# 1 0.024109 -0.008071 0.001555 0.000000 0.000000 0.000000
# 2 -0.008071 0.011788 -0.004405 0.000000 0.000000 0.000000
# 3 0.001555 -0.004405 0.020742 0.000000 0.000000 0.000000
# 4 0.000000 0.000000 0.000000 0.064933 0.000000 0.000000
# 5 0.000000 0.000000 0.000000 0.000000 0.043853 0.000000
# 6 0.000000 0.000000 0.000000 0.000000 0.000000 0.040008
#
#
# Mechanical properties :
#
#
# Convention : Reuss Voigt Hill
#
# Bulk Modulus (GPa) = 28.73874 39.67521 34.20697
# Shear Modulus (GPa) = 20.93147 23.38830 22.15989
#
# Velocity S-wave (km/s) = 3.40009 3.59410 3.49844
# Velocity P-wave (km/s) = 5.59346 6.25590 5.93393
#
# Compressibility (1/GPa) = 0.03479624
#
# Stress axis : x y z
#
# Youngs Moduli (GPa) = 41.47882 84.83026 48.21217
#
# Poissons Ratio (x) = 0.68467 -0.07498
# Poissons Ratio (y) = 0.33478 0.21239
# Poissons Ratio (z) = -0.06451 0.37371
#
# Static dielectric constant tensor:
#      x y z
#    x 1.599590 0.000000 0.000000 
#    y 0.000000 1.693960 0.000000 
#    z 0.000000 0.000000 1.638530 
# 
# From -- ./inp_files/7836.got.cif
#   From: 2010.05.17/outbox.cif.g08.bks.cpg/sg35_4_cif.got.tgz:7836.got - 2010.06.03 17:29:28.
