data_PCOD9349914
_publ_section_title
;
Structure prediction by ZEFSAII (Michael W. Deem and Ramdas Pophale) SiO2 
 PCOD9349914
Probable space group: C M M 2
;
_chemical_formula_sum "Si O2"
_cell_formula_units_Z 28
_cell_length_a 22.820015
_cell_length_b 11.459639
_cell_length_c 5.117298
_cell_angle_alpha 90.000000
_cell_angle_beta 90.000000
_cell_angle_gamma 90.000000
_cell_volume 1338.220168
_symmetry_space_group_name_H-M "C M M 2"
_symmetry_group_IT_number 35
_symmetry_cell_setting 'orthorhombic'
loop_
_space_group_symop_operation_xyz
x,y,z
-x,-y,z
-x,y,z
x,-y,z
1/2+x,1/2+y,z
1/2-x,1/2-y,z
1/2-x,1/2+y,z
1/2+x,1/2-y,z
loop_
_atom_site_type_symbol
_atom_site_label
_atom_site_fract_x
_atom_site_fract_y
_atom_site_fract_z
Si Si1 0.750000 0.750000 0.783330
Si Si2 0.430934 0.865583 0.055706
Si Si3 0.121888 0.749204 0.551654
Si Si4 0.281567 0.500000 0.916240
Si Si5 0.639284 0.500000 0.412212
O O1 0.808866 0.745497 0.611978
O O2 0.749383 0.626720 0.942305
O O3 0.500000 0.850153 0.104937
O O4 0.396085 0.834602 0.317037
O O5 0.420660 0.000000 0.981622
O O6 0.409898 0.786418 0.817435
O O7 0.105928 0.880342 0.465799
O O8 0.307417 0.500000 0.622601
O O9 0.334115 0.500000 0.123455
#
# Coordination Sequence:
#
# PCOD9349914 Si02
#       5
#     4   8   8   4   4
#     4  10  24  40  64 104 134 182 230 274 348 416
#     4  11  25  44  68  98 134 175 230 290 333 392
#     4  11  23  43  67  95 136 178 221 281 339 410
#     4  10  22  38  60  92 138 174 216 274 325 410
#     4  10  22  42  61  90 134 168 205 282 335 380
#
# _framework density 20.923316
#
# number of rings (size 3 to 8) (size 9 to 14) (size 15 to 20)
#    0.000    1.429    0.000    5.143    4.000   12.571 
#    0.000    4.286    0.000    0.000    0.000    0.000 
#    0.000    0.000    0.000    0.000    0.000    0.000 
#
# Total GULP energy -78232.697011 kJ/mol
# GULP energy per Si atom -5588.049786 kJ/mol
# Density = 2.087569 g / cm^3
# Si number density = 20.923316 Si / 1000 Ang^3
#
#
#
# Elastic Constant Matrix: (Units=GPa)
#
#
# Indices 1 2 3 4 5 6 
#
# 1 70.9186 52.2032 33.4512 0.0000 0.0000 0.0000
# 2 52.2032 110.5108 23.9576 0.0000 0.0000 0.0000
# 3 33.4512 23.9576 71.2698 0.0000 0.0000 0.0000
# 4 0.0000 0.0000 0.0000 28.2530 0.0000 0.0000
# 5 0.0000 0.0000 0.0000 0.0000 -11.6990 0.0000
# 6 0.0000 0.0000 0.0000 0.0000 0.0000 49.2091
#
#
#
# Elastic Compliance Matrix: (Units=1/GPa)
#
#
# Indices 1 2 3 4 5 6 
#
# 1 0.025744 -0.010291 -0.008624 0.000000 0.000000 0.000000
# 2 -0.010291 0.013874 0.000166 0.000000 0.000000 0.000000
# 3 -0.008624 0.000166 0.018023 0.000000 0.000000 0.000000
# 4 0.000000 0.000000 0.000000 0.035395 0.000000 0.000000
# 5 0.000000 0.000000 0.000000 0.000000 -0.085477 0.000000
# 6 0.000000 0.000000 0.000000 0.000000 0.000000 0.020321
#
#
# Mechanical properties :
#
#
# Convention : Reuss Voigt Hill
#
# Bulk Modulus (GPa) = 49.64303 52.43592 51.03948
# Shear Modulus (GPa) = 69.35653 22.69175 46.02414
#
# Velocity S-wave (km/s) = 5.76367 3.29678 4.69514
# Velocity P-wave (km/s) = 8.25051 6.29341 7.33751
#
# Compressibility (1/GPa) = 0.02014381
#
# Stress axis : x y z
#
# Youngs Moduli (GPa) = 38.84431 72.07606 55.48519
#
# Poissons Ratio (x) = 0.74176 0.47848
# Poissons Ratio (y) = 0.39976 -0.00924
# Poissons Ratio (z) = 0.33498 -0.01200
#
# Static dielectric constant tensor:
#      x y z
#    x 1.741010 0.000000 0.000000 
#    y 0.000000 1.800800 0.000000 
#    z 0.000000 0.000000 1.701560 
# 
# From -- ./inp_files/2818.got.cif
#   From: 2010.05.17/outbox.cif.g08.bks.cpg/sg35_2_cif.got.tgz:2818.got - 2010.06.03 17:29:28.
