data_PCOD9349824
_publ_section_title
;
Structure prediction by ZEFSAII (Michael W. Deem and Ramdas Pophale) SiO2 
 PCOD9349824
Probable space group: C M M 2
;
_chemical_formula_sum "Si O2"
_cell_formula_units_Z 56
_cell_length_a 14.418824
_cell_length_b 20.437710
_cell_length_c 8.834442
_cell_angle_alpha 90.000000
_cell_angle_beta 90.000000
_cell_angle_gamma 90.000000
_cell_volume 2603.401778
_symmetry_space_group_name_H-M "C M M 2"
_symmetry_group_IT_number 35
_symmetry_cell_setting 'orthorhombic'
loop_
_space_group_symop_operation_xyz
x,y,z
-x,-y,z
-x,y,z
x,-y,z
1/2+x,1/2+y,z
1/2-x,1/2-y,z
1/2-x,1/2+y,z
1/2+x,1/2-y,z
loop_
_atom_site_type_symbol
_atom_site_label
_atom_site_fract_x
_atom_site_fract_y
_atom_site_fract_z
Si Si1 0.104669 0.193286 0.821160
Si Si2 0.890971 0.716715 0.259505
Si Si3 0.746343 0.138904 0.044028
Si Si4 0.394941 0.625430 0.269367
Si Si5 0.662472 0.072781 0.752685
Si Si6 0.862968 0.925775 0.607497
Si Si7 0.104697 0.698034 0.591211
O O1 0.098453 0.126121 0.727197
O O2 0.142238 0.247780 0.705402
O O3 0.000000 0.211199 0.874397
O O4 0.178919 0.181922 0.951128
O O5 0.827911 0.682650 0.133516
O O6 0.885954 0.795456 0.266301
O O7 0.853677 0.693255 0.424392
O O8 0.000000 0.698802 0.238641
O O9 0.812291 0.100479 0.162232
O O10 0.695134 0.094188 0.920152
O O11 0.500000 0.609207 0.217353
O O12 0.382885 0.599692 0.439420
O O13 0.754139 0.072870 0.647475
O O14 0.603236 0.130165 0.679235
O O15 0.622482 0.000000 0.753788
O O16 0.896529 0.000000 0.625344
O O17 0.000000 0.721884 0.560981
#
# Coordination Sequence:
#
# PCOD9349824 Si02
#       7
#     8   8   8   8   8   8   8
#     4  10  21  39  62  96 129 162 214 262 310 374
#     4  10  22  40  62  94 128 161 207 265 315 371
#     4  11  24  38  61  90 126 172 201 256 324 376
#     4  11  22  37  58  91 130 166 211 256 305 373
#     4  10  24  42  60  89 125 164 215 266 317 383
#     4  10  21  39  64  91 128 175 215 254 305 366
#     4  10  21  40  66  91 121 160 210 272 323 369
#
# _framework density 21.510318999999999
#
# number of rings (size 3 to 8) (size 9 to 14) (size 15 to 20)
#    0.000    1.714    1.429    2.143    4.000    4.286 
#    0.000    0.714    0.000    3.429    0.000    0.000 
#    0.000    0.000    0.000    0.000    0.000    0.000 
#
# Total GULP energy -156494.797113 kJ/mol
# GULP energy per Si atom -5589.099897 kJ/mol
# Density = 2.146136 g / cm^3
# Si number density = 21.510319 Si / 1000 Ang^3
#
#
#
# Elastic Constant Matrix: (Units=GPa)
#
#
# Indices 1 2 3 4 5 6 
#
# 1 94.6140 24.2374 38.0310 0.0000 0.0000 0.0000
# 2 24.2374 116.6012 49.4635 0.0000 0.0000 0.0000
# 3 38.0310 49.4635 128.4500 0.0000 0.0000 0.0000
# 4 0.0000 0.0000 0.0000 22.5679 0.0000 0.0000
# 5 0.0000 0.0000 0.0000 0.0000 22.1743 0.0000
# 6 0.0000 0.0000 0.0000 0.0000 0.0000 21.7432
#
#
#
# Elastic Compliance Matrix: (Units=1/GPa)
#
#
# Indices 1 2 3 4 5 6 
#
# 1 0.012134 -0.001193 -0.003133 0.000000 0.000000 0.000000
# 2 -0.001193 0.010368 -0.003639 0.000000 0.000000 0.000000
# 3 -0.003133 -0.003639 0.010114 0.000000 0.000000 0.000000
# 4 0.000000 0.000000 0.000000 0.044311 0.000000 0.000000
# 5 0.000000 0.000000 0.000000 0.000000 0.045097 0.000000
# 6 0.000000 0.000000 0.000000 0.000000 0.000000 0.045991
#
#
# Mechanical properties :
#
#
# Convention : Reuss Voigt Hill
#
# Bulk Modulus (GPa) = 59.93294 62.56988 61.25141
# Shear Modulus (GPa) = 26.38398 28.49265 27.43832
#
# Velocity S-wave (km/s) = 3.50605 3.64346 3.57541
# Velocity P-wave (km/s) = 6.65678 6.84479 6.75144
#
# Compressibility (1/GPa) = 0.01668532
#
# Stress axis : x y z
#
# Youngs Moduli (GPa) = 82.41072 96.44984 98.87077
#
# Poissons Ratio (x) = 0.11508 0.30978
# Poissons Ratio (y) = 0.09833 0.35982
# Poissons Ratio (z) = 0.25821 0.35101
#
# Static dielectric constant tensor:
#      x y z
#    x 1.824660 0.000000 0.000000 
#    y 0.000000 1.760640 0.000000 
#    z 0.000000 0.000000 1.808800 
# 
# From -- ./inp_files/7625.got.cif
#   From: 2010.05.17/outbox.cif.g08.bks.cpg/sg35_4_cif.got.tgz:7625.got - 2010.06.03 17:29:28.
