data_PCOD9349908
_publ_section_title
;
Structure prediction by ZEFSAII (Michael W. Deem and Ramdas Pophale) SiO2 
 PCOD9349908
Probable space group: C M M 2
;
_chemical_formula_sum "Si O2"
_cell_formula_units_Z 36
_cell_length_a 14.514641
_cell_length_b 17.694126
_cell_length_c 7.700255
_cell_angle_alpha 90.000000
_cell_angle_beta 90.000000
_cell_angle_gamma 90.000000
_cell_volume 1977.609418
_symmetry_space_group_name_H-M "C M M 2"
_symmetry_group_IT_number 35
_symmetry_cell_setting 'orthorhombic'
loop_
_space_group_symop_operation_xyz
x,y,z
-x,-y,z
-x,y,z
x,-y,z
1/2+x,1/2+y,z
1/2-x,1/2-y,z
1/2-x,1/2+y,z
1/2+x,1/2-y,z
loop_
_atom_site_type_symbol
_atom_site_label
_atom_site_fract_x
_atom_site_fract_y
_atom_site_fract_z
Si Si1 0.204235 0.832429 0.284110
Si Si2 0.500000 0.722007 0.270920
Si Si3 0.176743 0.911663 0.926038
Si Si4 0.000000 0.806780 0.875547
Si Si5 0.310045 0.911459 0.599782
Si Si6 0.500000 0.175816 0.590207
O O1 0.250000 0.750000 0.259371
O O2 0.253147 0.871647 0.446127
O O3 0.094494 0.822072 0.313099
O O4 0.213986 0.881128 0.109430
O O5 0.500000 0.795149 0.391720
O O6 0.500000 0.735021 0.063477
O O7 0.089481 0.860241 0.875370
O O8 0.252706 0.903850 0.776983
O O9 0.150745 0.000000 0.940560
O O10 0.000000 0.748043 0.718181
O O11 0.408263 0.871932 0.619742
O O12 0.320872 0.000000 0.560667
#
# Coordination Sequence:
#
# PCOD9349908 Si02
#       6
#     8   4   8   4   8   4
#     4  11  22  39  66  90 124 158 207 253 308 371
#     4  10  22  38  58 100 114 152 200 256 304 352
#     4  10  23  41  62  92 125 159 200 252 316 371
#     4  10  23  37  65  91 122 158 200 253 308 363
#     4  11  25  41  61  89 125 166 204 254 311 365
#     4  12  23  39  61  89 124 160 212 253 294 361
#
# _framework density 18.203797000000002
#
# number of rings (size 3 to 8) (size 9 to 14) (size 15 to 20)
#    0.000    1.333    2.222    2.667    6.222    0.000 
#    0.000    2.778    0.000    5.333    0.000    0.000 
#    0.000    0.000    0.000    0.000    0.000    0.000 
#
# Total GULP energy -100589.471312 kJ/mol
# GULP energy per Si atom -5588.303962 kJ/mol
# Density = 1.816236 g / cm^3
# Si number density = 18.203797 Si / 1000 Ang^3
#
#
#
# Elastic Constant Matrix: (Units=GPa)
#
#
# Indices 1 2 3 4 5 6 
#
# 1 126.0210 63.1739 58.2254 0.0000 0.0000 0.0000
# 2 63.1739 107.4672 57.6625 0.0000 0.0000 0.0000
# 3 58.2254 57.6625 75.0384 0.0000 0.0000 0.0000
# 4 0.0000 0.0000 0.0000 38.8021 0.0000 0.0000
# 5 0.0000 0.0000 0.0000 0.0000 11.4576 0.0000
# 6 0.0000 0.0000 0.0000 0.0000 0.0000 17.8570
#
#
#
# Elastic Compliance Matrix: (Units=1/GPa)
#
#
# Indices 1 2 3 4 5 6 
#
# 1 0.013252 -0.003867 -0.007311 0.000000 0.000000 0.000000
# 2 -0.003867 0.016962 -0.010034 0.000000 0.000000 0.000000
# 3 -0.007311 -0.010034 0.026709 0.000000 0.000000 0.000000
# 4 0.000000 0.000000 0.000000 0.025772 0.000000 0.000000
# 5 0.000000 0.000000 0.000000 0.000000 0.087279 0.000000
# 6 0.000000 0.000000 0.000000 0.000000 0.000000 0.056001
#
#
# Mechanical properties :
#
#
# Convention : Reuss Voigt Hill
#
# Bulk Modulus (GPa) = 68.96556 74.07225 71.51890
# Shear Modulus (GPa) = 18.29956 22.25431 20.27694
#
# Velocity S-wave (km/s) = 3.17402 3.50023 3.34111
# Velocity P-wave (km/s) = 7.16938 7.55741 7.36595
#
# Compressibility (1/GPa) = 0.01449999
#
# Stress axis : x y z
#
# Youngs Moduli (GPa) = 75.46279 58.95486 37.44000
#
# Poissons Ratio (x) = 0.22799 0.27371
# Poissons Ratio (y) = 0.29183 0.37566
# Poissons Ratio (z) = 0.55169 0.59153
#
# Static dielectric constant tensor:
#      x y z
#    x 1.617300 0.000000 0.000000 
#    y 0.000000 1.599740 0.000000 
#    z 0.000000 0.000000 1.604800 
# 
# From -- ./inp_files/6946.got.cif
#   From: 2010.05.17/outbox.cif.g08.bks.cpg/sg35_4_cif.got.tgz:6946.got - 2010.06.03 17:29:28.
