data_PCOD9349840
_publ_section_title
;
Structure prediction by ZEFSAII (Michael W. Deem and Ramdas Pophale) SiO2 
 PCOD9349840
Probable space group: C M M 2
;
_chemical_formula_sum "Si O2"
_cell_formula_units_Z 64
_cell_length_a 15.555355
_cell_length_b 16.856784
_cell_length_c 11.641659
_cell_angle_alpha 90.000000
_cell_angle_beta 90.000000
_cell_angle_gamma 90.000000
_cell_volume 3052.597350
_symmetry_space_group_name_H-M "C M M 2"
_symmetry_group_IT_number 35
_symmetry_cell_setting 'orthorhombic'
loop_
_space_group_symop_operation_xyz
x,y,z
-x,-y,z
-x,y,z
x,-y,z
1/2+x,1/2+y,z
1/2-x,1/2-y,z
1/2-x,1/2+y,z
1/2+x,1/2-y,z
loop_
_atom_site_type_symbol
_atom_site_label
_atom_site_fract_x
_atom_site_fract_y
_atom_site_fract_z
Si Si1 0.595778 0.309370 0.343010
Si Si2 0.600132 0.173058 0.772487
Si Si3 0.823764 0.589802 0.572394
Si Si4 0.265435 0.097050 0.936476
Si Si5 0.596657 0.123617 0.327323
Si Si6 0.353767 0.677737 0.606901
Si Si7 0.731951 0.589179 0.200150
Si Si8 0.908599 0.907282 0.810902
O O1 0.500000 0.340803 0.317470
O O2 0.599403 0.217803 0.306634
O O3 0.608886 0.308408 0.480852
O O4 0.670133 0.356828 0.277626
O O5 0.500000 0.181200 0.799942
O O6 0.617270 0.101722 0.683084
O O7 0.658042 0.148749 0.881369
O O8 0.629605 0.249751 0.696245
O O9 0.790316 0.500000 0.565892
O O10 0.878467 0.608114 0.459552
O O11 0.744185 0.650363 0.585826
O O12 0.179398 0.121011 0.867456
O O13 0.279650 0.000000 0.925066
O O14 0.245425 0.114692 0.068912
O O15 0.500000 0.095485 0.303782
O O16 0.673444 0.087536 0.254719
O O17 0.399047 0.606659 0.675421
O O18 0.695817 0.500000 0.199461
O O19 0.000000 0.872008 0.850268
O O20 0.910898 0.000000 0.836860
#
# Coordination Sequence:
#
# PCOD9349840 Si02
#       8
#     8   8   8   8   8   8   8   8
#     4  11  24  43  67  98 139 178 219 279 342 404
#     4  12  25  42  67 100 137 177 220 276 341 406
#     4  12  24  39  65  99 134 177 224 274 340 408
#     4  10  24  45  67  96 132 178 236 286 334 397
#     4  11  24  43  65  94 132 177 225 279 341 405
#     4  12  23  41  66  99 135 173 215 272 339 407
#     4  11  25  45  70  97 131 179 232 285 340 402
#     4  10  21  39  64  93 130 174 217 270 333 397
#
# _framework density 20.965751999999998
#
# number of rings (size 3 to 8) (size 9 to 14) (size 15 to 20)
#    0.000    0.875    3.750    3.375    0.000    4.250 
#    4.500    2.500    0.000    0.000    0.000    0.000 
#    0.000    0.000    0.000    0.000    0.000    0.000 
#
# Total GULP energy -178733.699964 kJ/mol
# GULP energy per Si atom -5585.428124 kJ/mol
# Density = 2.091803 g / cm^3
# Si number density = 20.965752 Si / 1000 Ang^3
#
#
#
# Elastic Constant Matrix: (Units=GPa)
#
#
# Indices 1 2 3 4 5 6 
#
# 1 162.0126 55.3400 39.8088 0.0000 0.0000 0.0000
# 2 55.3400 72.3996 37.5862 0.0000 0.0000 0.0000
# 3 39.8088 37.5862 108.7261 0.0000 0.0000 0.0000
# 4 0.0000 0.0000 0.0000 28.1866 0.0000 0.0000
# 5 0.0000 0.0000 0.0000 0.0000 -8.7034 0.0000
# 6 0.0000 0.0000 0.0000 0.0000 0.0000 -6.8929
#
#
#
# Elastic Compliance Matrix: (Units=1/GPa)
#
#
# Indices 1 2 3 4 5 6 
#
# 1 0.008450 -0.005914 -0.001049 0.000000 0.000000 0.000000
# 2 -0.005914 0.020973 -0.005085 0.000000 0.000000 0.000000
# 3 -0.001049 -0.005085 0.011339 0.000000 0.000000 0.000000
# 4 0.000000 0.000000 0.000000 0.035478 0.000000 0.000000
# 5 0.000000 0.000000 0.000000 0.000000 -0.114898 0.000000
# 6 0.000000 0.000000 0.000000 0.000000 0.000000 -0.145078
#
#
# Mechanical properties :
#
#
# Convention : Reuss Voigt Hill
#
# Bulk Modulus (GPa) = 60.00429 67.62317 63.81373
# Shear Modulus (GPa) = -32.45010 16.54496 -7.95257
#
# Velocity S-wave (km/s) = -3.93843 2.81222 -1.94971
# Velocity P-wave (km/s) = 2.82853 6.54743 5.04329
#
# Compressibility (1/GPa) = 0.01666547
#
# Stress axis : x y z
#
# Youngs Moduli (GPa) = 118.33655 47.68085 88.18788
#
# Poissons Ratio (x) = 0.28201 0.09255
# Poissons Ratio (y) = 0.69990 0.44841
# Poissons Ratio (z) = 0.12419 0.24244
#
# Static dielectric constant tensor:
#      x y z
#    x 1.750860 0.000000 0.000000 
#    y 0.000000 1.831420 0.000000 
#    z 0.000000 0.000000 1.731800 
# 
# From -- ./inp_files/13194.got.cif
#   From: 2010.05.17/outbox.cif.g08.bks.cpg/sg35_7_cif.got.tgz:13194.got - 2010.06.03 17:29:28.
