data_PCOD9349557
_publ_section_title
;
Structure prediction by ZEFSAII (Michael W. Deem and Ramdas Pophale) SiO2 
 PCOD9349557
Probable space group: C M M 2
;
_chemical_formula_sum "Si O2"
_cell_formula_units_Z 48
_cell_length_a 14.627246
_cell_length_b 8.204596
_cell_length_c 17.645849
_cell_angle_alpha 90.000000
_cell_angle_beta 90.000000
_cell_angle_gamma 90.000000
_cell_volume 2117.689703
_symmetry_space_group_name_H-M "C M M 2"
_symmetry_group_IT_number 35
_symmetry_cell_setting 'orthorhombic'
loop_
_space_group_symop_operation_xyz
x,y,z
-x,-y,z
-x,y,z
x,-y,z
1/2+x,1/2+y,z
1/2-x,1/2-y,z
1/2-x,1/2+y,z
1/2+x,1/2-y,z
loop_
_atom_site_type_symbol
_atom_site_label
_atom_site_fract_x
_atom_site_fract_y
_atom_site_fract_z
Si Si1 0.104309 0.684849 0.807190
Si Si2 0.611490 0.682682 0.314089
Si Si3 0.852170 0.305081 0.639964
Si Si4 0.109267 0.315359 0.473661
Si Si5 0.887518 0.000000 0.894150
Si Si6 0.388177 0.176983 0.158244
Si Si7 0.888138 0.000000 0.069967
O O1 0.144189 0.500000 0.811264
O O2 0.099862 0.736672 0.718661
O O3 0.000000 0.669942 0.834566
O O4 0.145959 0.834726 0.853415
O O5 0.500000 0.685930 0.315504
O O6 0.638955 0.500000 0.293886
O O7 0.642681 0.725238 0.398683
O O8 0.639167 0.800693 0.246183
O O9 0.864412 0.500000 0.632869
O O10 0.750000 0.250000 0.653941
O O11 0.875552 0.238148 0.556489
O O12 0.146794 0.500000 0.472625
O O13 0.000000 0.326501 0.466542
O O14 0.000000 0.000000 0.888793
O O15 0.862531 0.000000 0.982135
O O16 0.500000 0.178680 0.156500
O O17 0.357693 0.334873 0.111763
O O18 0.358555 0.000000 0.129337
O O19 0.000000 0.000000 0.073571
#
# Coordination Sequence:
#
# PCOD9349557 Si02
#       7
#     8   8   8   8   4   8   4
#     4   9  18  34  53  72  97 131 170 206 246 300
#     4   9  15  24  38  60  91 125 163 204 237 278
#     4  10  21  34  50  71  97 130 162 210 254 296
#     4   9  17  30  47  67  93 129 170 205 244 292
#     4   9  18  30  48  71  95 129 164 203 250 295
#     4   9  15  23  37  57  88 130 163 191 235 286
#     4   9  16  26  38  61  95 123 157 199 240 291
#
# _framework density 22.666211000000001
#
# number of rings (size 3 to 8) (size 9 to 14) (size 15 to 20)
#    0.000    2.833    0.833    1.000    1.167    5.333 
#    0.000    3.333    0.000    0.000    0.000    0.000 
#    0.000    1.333    1.333    0.000    0.000    0.000 
#
# Total GULP energy -133861.429778 kJ/mol
# GULP energy per Si atom -5577.559574 kJ/mol
# Density = 2.261462 g / cm^3
# Si number density = 22.666211 Si / 1000 Ang^3
#
#
#
# Elastic Constant Matrix: (Units=GPa)
#
#
# Indices 1 2 3 4 5 6 
#
# 1 41.5341 9.7664 0.2271 0.0000 0.0000 0.0000
# 2 9.7664 146.6518 99.7244 0.0000 0.0000 0.0000
# 3 0.2271 99.7244 160.2461 0.0000 0.0000 0.0000
# 4 0.0000 0.0000 0.0000 1.6104 0.0000 0.0000
# 5 0.0000 0.0000 0.0000 0.0000 -56.2630 0.0000
# 6 0.0000 0.0000 0.0000 0.0000 0.0000 11.2270
#
#
#
# Elastic Compliance Matrix: (Units=1/GPa)
#
#
# Indices 1 2 3 4 5 6 
#
# 1 0.024729 -0.002814 0.001716 0.000000 0.000000 0.000000
# 2 -0.002814 0.012142 -0.007552 0.000000 0.000000 0.000000
# 3 0.001716 -0.007552 0.010938 0.000000 0.000000 0.000000
# 4 0.000000 0.000000 0.000000 0.620969 0.000000 0.000000
# 5 0.000000 0.000000 0.000000 0.000000 -0.017774 0.000000
# 6 0.000000 0.000000 0.000000 0.000000 0.000000 0.089071
#
#
# Mechanical properties :
#
#
# Convention : Reuss Voigt Hill
#
# Bulk Modulus (GPa) = 32.77747 63.09645 47.93696
# Shear Modulus (GPa) = 6.51429 7.22915 6.87172
#
# Velocity S-wave (km/s) = 1.69713 1.78782 1.74307
# Velocity P-wave (km/s) = 4.28167 5.67093 5.02454
#
# Compressibility (1/GPa) = 0.03050876
#
# Stress axis : x y z
#
# Youngs Moduli (GPa) = 40.43858 82.36077 91.42643
#
# Poissons Ratio (x) = 0.23174 -0.15689
# Poissons Ratio (y) = 0.11378 0.69046
# Poissons Ratio (z) = -0.06939 0.62199
#
# Static dielectric constant tensor:
#      x y z
#    x 1.864220 0.000000 0.000000 
#    y 0.000000 1.956030 0.000000 
#    z 0.000000 0.000000 1.831420 
# 
# From -- ./inp_files/17087.got.cif
#   From: 2010.05.17/outbox.cif.g08.bks.cpg/sg35_9_cif.got.tgz:17087.got - 2010.06.03 17:29:28.
