data_PCOD9349349
_publ_section_title
;
Structure prediction by ZEFSAII (Michael W. Deem and Ramdas Pophale) SiO2 
 PCOD9349349
Probable space group: C M M 2
;
_chemical_formula_sum "Si O2"
_cell_formula_units_Z 48
_cell_length_a 8.790958
_cell_length_b 15.635735
_cell_length_c 17.811177
_cell_angle_alpha 90.000000
_cell_angle_beta 90.000000
_cell_angle_gamma 90.000000
_cell_volume 2448.201310
_symmetry_space_group_name_H-M "C M M 2"
_symmetry_group_IT_number 35
_symmetry_cell_setting 'orthorhombic'
loop_
_space_group_symop_operation_xyz
x,y,z
-x,-y,z
-x,y,z
x,-y,z
1/2+x,1/2+y,z
1/2-x,1/2-y,z
1/2-x,1/2+y,z
1/2+x,1/2-y,z
loop_
_atom_site_type_symbol
_atom_site_label
_atom_site_fract_x
_atom_site_fract_y
_atom_site_fract_z
Si Si1 0.314500 0.500000 0.594691
Si Si2 0.683314 0.345888 0.314524
Si Si3 0.182028 0.840208 0.695876
Si Si4 0.170383 0.101499 0.005997
Si Si5 0.323245 0.896050 0.852388
Si Si6 0.815051 0.000000 0.422894
Si Si7 0.181149 0.344777 0.158510
O O1 0.500000 0.500000 0.593790
O O2 0.266960 0.583623 0.640941
O O3 0.261858 0.500000 0.508794
O O4 0.500000 0.339862 0.311523
O O5 0.750000 0.250000 0.325841
O O6 0.729013 0.414026 0.378158
O O7 0.744759 0.380802 0.234626
O O8 0.250000 0.750000 0.671716
O O9 0.237811 0.860728 0.779892
O O10 0.000000 0.836736 0.695365
O O11 0.267821 0.113574 0.080817
O O12 0.000000 0.137623 0.016060
O O13 0.156837 0.000000 0.995023
O O14 0.249209 0.134572 0.930377
O O15 0.500000 0.871630 0.849720
O O16 0.315120 0.000000 0.849853
O O17 0.000000 0.000000 0.423712
O O18 0.250000 0.250000 0.154483
O O19 0.000000 0.343865 0.165644
#
# Coordination Sequence:
#
# PCOD9349349 Si02
#       7
#     4   8   8   8   8   4   8
#     4   9  20  40  63  88 121 156 193 241 296 363
#     4  10  20  37  60  87 119 156 198 245 296 353
#     4  11  22  38  62  90 120 158 202 243 296 355
#     4  10  21  36  56  83 116 154 197 240 290 346
#     4  10  20  36  58  84 118 155 197 248 298 346
#     4   9  20  38  63  90 117 156 197 235 296 365
#     4  11  22  37  56  80 114 153 195 243 295 344
#
# _framework density 19.606231000000001
#
# number of rings (size 3 to 8) (size 9 to 14) (size 15 to 20)
#    0.000    1.833    0.833    4.500    1.167    3.000 
#    0.000    4.583    0.000    7.000    0.000    0.000 
#    0.000    0.000    0.000    0.000    0.000    0.000 
#
# Total GULP energy -134046.196291 kJ/mol
# GULP energy per Si atom -5585.258179 kJ/mol
# Density = 1.956161 g / cm^3
# Si number density = 19.606231 Si / 1000 Ang^3
#
#
#
# Elastic Constant Matrix: (Units=GPa)
#
#
# Indices 1 2 3 4 5 6 
#
# 1 109.7247 40.8325 52.3310 0.0000 0.0000 0.0000
# 2 40.8325 92.3977 76.9533 0.0000 0.0000 0.0000
# 3 52.3310 76.9533 185.6876 0.0000 0.0000 0.0000
# 4 0.0000 0.0000 0.0000 -19.6859 0.0000 0.0000
# 5 0.0000 0.0000 0.0000 0.0000 3.0959 0.0000
# 6 0.0000 0.0000 0.0000 0.0000 0.0000 27.0429
#
#
#
# Elastic Compliance Matrix: (Units=1/GPa)
#
#
# Indices 1 2 3 4 5 6 
#
# 1 0.011246 -0.003559 -0.001695 0.000000 0.000000 0.000000
# 2 -0.003559 0.017653 -0.006313 0.000000 0.000000 0.000000
# 3 -0.001695 -0.006313 0.008479 0.000000 0.000000 0.000000
# 4 0.000000 0.000000 0.000000 -0.050798 0.000000 0.000000
# 5 0.000000 0.000000 0.000000 0.000000 0.323006 0.000000
# 6 0.000000 0.000000 0.000000 0.000000 0.000000 0.036978
#
#
# Mechanical properties :
#
#
# Convention : Reuss Voigt Hill
#
# Bulk Modulus (GPa) = 70.19433 80.89375 75.54404
# Shear Modulus (GPa) = 13.35304 16.60345 14.97825
#
# Velocity S-wave (km/s) = 2.61255 2.91322 2.76697
# Velocity P-wave (km/s) = 6.70674 7.25704 6.98731
#
# Compressibility (1/GPa) = 0.01424616
#
# Stress axis : x y z
#
# Youngs Moduli (GPa) = 88.91868 56.64709 117.93485
#
# Poissons Ratio (x) = 0.20158 0.19987
# Poissons Ratio (y) = 0.31642 0.74452
# Poissons Ratio (z) = 0.15069 0.35761
#
# Static dielectric constant tensor:
#      x y z
#    x 1.674570 0.000000 0.000000 
#    y 0.000000 1.693170 0.000000 
#    z 0.000000 0.000000 1.681570 
# 
# From -- ./inp_files/15272.got.cif
#   From: 2010.05.17/outbox.cif.g08.bks.cpg/sg35_8_cif.got.tgz:15272.got - 2010.06.03 17:29:28.
