data_PCOD9349204
_publ_section_title
;
Structure prediction by ZEFSAII (Michael W. Deem and Ramdas Pophale) SiO2 
 PCOD9349204
Probable space group: C M M 2
;
_chemical_formula_sum "Si O2"
_cell_formula_units_Z 48
_cell_length_a 14.173954
_cell_length_b 17.995186
_cell_length_c 10.137152
_cell_angle_alpha 90.000000
_cell_angle_beta 90.000000
_cell_angle_gamma 90.000000
_cell_volume 2585.611778
_symmetry_space_group_name_H-M "C M M 2"
_symmetry_group_IT_number 35
_symmetry_cell_setting 'orthorhombic'
loop_
_space_group_symop_operation_xyz
x,y,z
-x,-y,z
-x,y,z
x,-y,z
1/2+x,1/2+y,z
1/2-x,1/2-y,z
1/2-x,1/2+y,z
1/2+x,1/2-y,z
loop_
_atom_site_type_symbol
_atom_site_label
_atom_site_fract_x
_atom_site_fract_y
_atom_site_fract_z
Si Si1 0.391956 0.678039 0.446440
Si Si2 0.106880 0.087669 0.720442
Si Si3 0.782247 0.334515 0.836115
Si Si4 0.889828 0.588187 0.072877
Si Si5 0.770058 0.585483 0.336225
Si Si6 0.888112 0.656929 0.556537
O O1 0.500000 0.672121 0.399769
O O2 0.383748 0.631466 0.582592
O O3 0.316795 0.642084 0.348824
O O4 0.373147 0.763204 0.485679
O O5 0.187971 0.116898 0.815749
O O6 0.000000 0.101562 0.769500
O O7 0.117326 0.000000 0.697087
O O8 0.750000 0.250000 0.855755
O O9 0.841912 0.339734 0.700581
O O10 0.843630 0.365372 0.955720
O O11 0.883299 0.500000 0.041948
O O12 0.833353 0.600560 0.208205
O O13 0.000000 0.606489 0.089995
O O14 0.737114 0.500000 0.331973
O O15 0.834941 0.597994 0.465046
O O16 0.000000 0.643579 0.565219
#
# Coordination Sequence:
#
# PCOD9349204 Si02
#       6
#     8   8   8   8   8   8
#     4  10  20  36  59  88 119 151 189 237 295 349
#     4  10  20  35  56  84 118 153 189 235 292 345
#     4  12  22  37  61  91 118 153 196 244 293 349
#     4  10  24  44  61  81 118 162 200 242 293 347
#     4  11  22  39  61  86 116 155 200 244 294 347
#     4  11  22  37  60  88 121 152 192 246 293 349
#
# _framework density 18.564273
#
# number of rings (size 3 to 8) (size 9 to 14) (size 15 to 20)
#    0.000    1.333    3.333    2.500    0.000    4.667 
#    0.000    0.833    0.000    1.000    0.000    0.000 
#    0.000    0.000    0.000    0.000    0.000    0.000 
#
# Total GULP energy -134135.695627 kJ/mol
# GULP energy per Si atom -5588.987318 kJ/mol
# Density = 1.852202 g / cm^3
# Si number density = 18.564273 Si / 1000 Ang^3
#
#
#
# Elastic Constant Matrix: (Units=GPa)
#
#
# Indices 1 2 3 4 5 6 
#
# 1 93.3235 7.9215 34.3915 0.0000 0.0000 0.0000
# 2 7.9215 26.6492 19.2764 0.0000 0.0000 0.0000
# 3 34.3915 19.2764 88.0584 0.0000 0.0000 0.0000
# 4 0.0000 0.0000 0.0000 22.4002 0.0000 0.0000
# 5 0.0000 0.0000 0.0000 0.0000 31.7628 0.0000
# 6 0.0000 0.0000 0.0000 0.0000 0.0000 27.0965
#
#
#
# Elastic Compliance Matrix: (Units=1/GPa)
#
#
# Indices 1 2 3 4 5 6 
#
# 1 0.012518 -0.000219 -0.004841 0.000000 0.000000 0.000000
# 2 -0.000219 0.044588 -0.009675 0.000000 0.000000 0.000000
# 3 -0.004841 -0.009675 0.015365 0.000000 0.000000 0.000000
# 4 0.000000 0.000000 0.000000 0.044642 0.000000 0.000000
# 5 0.000000 0.000000 0.000000 0.000000 0.031483 0.000000
# 6 0.000000 0.000000 0.000000 0.000000 0.000000 0.036905
#
#
# Mechanical properties :
#
#
# Convention : Reuss Voigt Hill
#
# Bulk Modulus (GPa) = 23.25561 36.80110 30.02836
# Shear Modulus (GPa) = 21.80498 26.01467 23.90982
#
# Velocity S-wave (km/s) = 3.43091 3.74749 3.59269
# Velocity P-wave (km/s) = 5.31499 6.21221 5.78104
#
# Compressibility (1/GPa) = 0.04300037
#
# Stress axis : x y z
#
# Youngs Moduli (GPa) = 79.88488 22.42755 65.08458
#
# Poissons Ratio (x) = 0.00492 0.31507
# Poissons Ratio (y) = 0.01752 0.62968
# Poissons Ratio (z) = 0.38672 0.21698
#
# Static dielectric constant tensor:
#      x y z
#    x 1.651160 0.000000 0.000000 
#    y 0.000000 1.644070 0.000000 
#    z 0.000000 0.000000 1.601300 
# 
# From -- ./inp_files/7293.got.cif
#   From: 2010.05.17/outbox.cif.g08.bks.cpg/sg35_4_cif.got.tgz:7293.got - 2010.06.03 17:29:28.
