data_PCOD9349876
_publ_section_title
;
Structure prediction by ZEFSAII (Michael W. Deem and Ramdas Pophale) SiO2 
 PCOD9349876
Probable space group: C M M 2
;
_chemical_formula_sum "Si O2"
_cell_formula_units_Z 58
_cell_length_a 26.627790
_cell_length_b 17.884596
_cell_length_c 5.494660
_cell_angle_alpha 90.000000
_cell_angle_beta 90.000000
_cell_angle_gamma 90.000000
_cell_volume 2616.706912
_symmetry_space_group_name_H-M "C M M 2"
_symmetry_group_IT_number 35
_symmetry_cell_setting 'orthorhombic'
loop_
_space_group_symop_operation_xyz
x,y,z
-x,-y,z
-x,y,z
x,-y,z
1/2+x,1/2+y,z
1/2-x,1/2-y,z
1/2-x,1/2+y,z
1/2+x,1/2-y,z
loop_
_atom_site_type_symbol
_atom_site_label
_atom_site_fract_x
_atom_site_fract_y
_atom_site_fract_z
Si Si1 0.942904 0.086460 0.440000
Si Si2 0.634055 0.201379 0.143569
Si Si3 0.081464 0.629144 0.527870
Si Si4 0.319060 0.086665 0.828345
Si Si5 0.000000 0.500000 0.595274
Si Si6 0.843442 0.146542 0.272432
Si Si7 0.296961 0.586763 0.773774
Si Si8 0.444364 0.723158 0.799902
O O1 0.899469 0.111416 0.256272
O O2 0.938793 0.144642 0.663027
O O3 0.000000 0.093776 0.343608
O O4 0.935857 0.000000 0.511027
O O5 0.594092 0.141919 0.246384
O O6 0.654898 0.264124 0.323391
O O7 0.676720 0.149618 0.034949
O O8 0.602381 0.254455 0.965465
O O9 0.135117 0.609742 0.651199
O O10 0.043404 0.564704 0.586868
O O11 0.058855 0.708493 0.608864
O O12 0.326768 0.000000 0.906589
O O13 0.262893 0.091953 0.729995
O O14 0.813731 0.129404 0.021724
O O15 0.821763 0.111429 0.520487
O O16 0.309467 0.500000 0.819760
O O17 0.500000 0.725722 0.916632
#
# Coordination Sequence:
#
# PCOD9349876 Si02
#       8
#     8   8   8   8   2   8   8   8
#     4  10  21  41  72 104 142 191 241 300 371 447
#     4  11  26  42  68 102 144 194 240 313 378 452
#     4  11  23  44  67 103 146 187 247 304 382 449
#     4  10  25  48  70 101 143 195 246 313 382 450
#     4  12  24  40  78 112 138 202 252 320 364 480
#     4  12  25  47  74 110 151 190 254 307 374 453
#     4  11  26  48  78 109 147 198 253 318 376 440
#     4  10  21  41  67  97 145 193 240 298 370 447
#
# _framework density 22.165264000000001
#
# number of rings (size 3 to 8) (size 9 to 14) (size 15 to 20)
#    0.000    1.241    2.759    2.069    5.793    1.103 
#    0.000    4.828    0.000    7.448    0.000    0.000 
#    0.000    0.000    0.000    0.000    0.000    0.000 
#
# Total GULP energy -161623.913033 kJ/mol
# GULP energy per Si atom -5573.238380 kJ/mol
# Density = 2.211481 g / cm^3
# Si number density = 22.165264 Si / 1000 Ang^3
#
#
#
# Elastic Constant Matrix: (Units=GPa)
#
#
# Indices 1 2 3 4 5 6 
#
# 1 126.3696 49.3424 29.9865 0.0000 0.0000 0.0000
# 2 49.3424 142.0108 25.4689 0.0000 0.0000 0.0000
# 3 29.9865 25.4689 51.7126 0.0000 0.0000 0.0000
# 4 0.0000 0.0000 0.0000 15.8086 0.0000 0.0000
# 5 0.0000 0.0000 0.0000 0.0000 -1.2263 0.0000
# 6 0.0000 0.0000 0.0000 0.0000 0.0000 89.7977
#
#
#
# Elastic Compliance Matrix: (Units=1/GPa)
#
#
# Indices 1 2 3 4 5 6 
#
# 1 0.010025 -0.002677 -0.004495 0.000000 0.000000 0.000000
# 2 -0.002677 0.008439 -0.002604 0.000000 0.000000 0.000000
# 3 -0.004495 -0.002604 0.023226 0.000000 0.000000 0.000000
# 4 0.000000 0.000000 0.000000 0.063257 0.000000 0.000000
# 5 0.000000 0.000000 0.000000 0.000000 -0.815456 0.000000
# 6 0.000000 0.000000 0.000000 0.000000 0.000000 0.011136
#
#
# Mechanical properties :
#
#
# Convention : Reuss Voigt Hill
#
# Bulk Modulus (GPa) = 45.16915 58.85428 52.01171
# Shear Modulus (GPa) = -7.43559 35.22900 13.89670
#
# Velocity S-wave (km/s) = -1.83355 3.99103 2.50663
# Velocity P-wave (km/s) = 3.99250 6.91721 5.64747
#
# Compressibility (1/GPa) = 0.02213901
#
# Stress axis : x y z
#
# Youngs Moduli (GPa) = 99.74851 118.49877 43.05440
#
# Poissons Ratio (x) = 0.31725 0.19352
# Poissons Ratio (y) = 0.26705 0.11211
# Poissons Ratio (z) = 0.44835 0.30855
#
# Static dielectric constant tensor:
#      x y z
#    x 1.834830 0.000000 0.000000 
#    y 0.000000 1.807170 0.000000 
#    z 0.000000 0.000000 1.895660 
# 
# From -- ./inp_files/3760.got.cif
#   From: 2010.05.17/outbox.cif.g08.bks.cpg/sg35_2_cif.got.tgz:3760.got - 2010.06.03 17:29:28.
