data_PCOD9349624
_publ_section_title
;
Structure prediction by ZEFSAII (Michael W. Deem and Ramdas Pophale) SiO2 
 PCOD9349624
Probable space group: C M M 2
;
_chemical_formula_sum "Si O2"
_cell_formula_units_Z 56
_cell_length_a 15.319710
_cell_length_b 14.612401
_cell_length_c 10.543146
_cell_angle_alpha 90.000000
_cell_angle_beta 90.000000
_cell_angle_gamma 90.000000
_cell_volume 2360.164896
_symmetry_space_group_name_H-M "C M M 2"
_symmetry_group_IT_number 35
_symmetry_cell_setting 'orthorhombic'
loop_
_space_group_symop_operation_xyz
x,y,z
-x,-y,z
-x,y,z
x,-y,z
1/2+x,1/2+y,z
1/2-x,1/2-y,z
1/2-x,1/2+y,z
1/2+x,1/2-y,z
loop_
_atom_site_type_symbol
_atom_site_label
_atom_site_fract_x
_atom_site_fract_y
_atom_site_fract_z
Si Si1 0.901681 0.648970 0.061580
Si Si2 0.768537 0.857440 0.954100
Si Si3 0.902735 0.387165 0.617980
Si Si4 0.402389 0.645043 0.148918
Si Si5 0.894872 0.399449 0.338192
Si Si6 0.102120 0.110938 0.436620
Si Si7 0.214597 0.890064 0.679826
O O1 0.911090 0.758284 0.075331
O O2 0.863380 0.630599 0.202338
O O3 0.000000 0.612412 0.043249
O O4 0.831684 0.608494 0.964376
O O5 0.750000 0.750000 0.974960
O O6 0.817683 0.869225 0.821061
O O7 0.826490 0.898848 0.066296
O O8 0.905252 0.500000 0.617437
O O9 0.886493 0.352706 0.473383
O O10 0.814781 0.355831 0.684731
O O11 0.000000 0.358044 0.659767
O O12 0.500000 0.603958 0.149215
O O13 0.377550 0.653093 0.297830
O O14 0.857014 0.500000 0.358458
O O15 0.000000 0.403853 0.322391
O O16 0.161125 0.140705 0.556129
O O17 0.000000 0.130549 0.463548
O O18 0.110751 0.000000 0.422800
O O19 0.217131 0.000000 0.668773
#
# Coordination Sequence:
#
# PCOD9349624 Si02
#       7
#     8   8   8   8   8   8   8
#     4   9  18  33  53  76 107 141 175 214 257 307
#     4  10  22  38  51  76 109 145 178 217 261 312
#     4   8  15  29  48  72 105 138 165 199 247 304
#     4   9  19  37  58  76 101 137 177 223 274 320
#     4   8  14  26  46  74 104 132 165 206 249 294
#     4   9  19  37  59  82 105 130 172 233 286 322
#     4  10  21  36  54  78 108 142 177 216 266 319
#
# _framework density 23.727156000000001
#
# number of rings (size 3 to 8) (size 9 to 14) (size 15 to 20)
#    0.000    3.000    0.000    0.857    2.000    2.286 
#    2.571    0.000    0.000    0.000    0.000    0.000 
#    0.000    0.000    0.000    0.000    0.000    0.000 
#
# Total GULP energy -155917.708967 kJ/mol
# GULP energy per Si atom -5568.489606 kJ/mol
# Density = 2.367315 g / cm^3
# Si number density = 23.727156 Si / 1000 Ang^3
#
#
#
# Elastic Constant Matrix: (Units=GPa)
#
#
# Indices 1 2 3 4 5 6 
#
# 1 123.7695 7.9962 87.2836 0.0000 0.0000 0.0000
# 2 7.9962 49.9580 -2.0331 0.0000 0.0000 0.0000
# 3 87.2836 -2.0331 142.1061 0.0000 0.0000 0.0000
# 4 0.0000 0.0000 0.0000 29.1117 0.0000 0.0000
# 5 0.0000 0.0000 0.0000 0.0000 17.8811 0.0000
# 6 0.0000 0.0000 0.0000 0.0000 0.0000 -2.9083
#
#
#
# Elastic Compliance Matrix: (Units=1/GPa)
#
#
# Indices 1 2 3 4 5 6 
#
# 1 0.014610 -0.002705 -0.009012 0.000000 0.000000 0.000000
# 2 -0.002705 0.020529 0.001955 0.000000 0.000000 0.000000
# 3 -0.009012 0.001955 0.012600 0.000000 0.000000 0.000000
# 4 0.000000 0.000000 0.000000 0.034350 0.000000 0.000000
# 5 0.000000 0.000000 0.000000 0.000000 0.055925 0.000000
# 6 0.000000 0.000000 0.000000 0.000000 0.000000 -0.343846
#
#
# Mechanical properties :
#
#
# Convention : Reuss Voigt Hill
#
# Bulk Modulus (GPa) = 35.44177 55.81412 45.62795
# Shear Modulus (GPa) = -28.26431 23.65603 -2.30414
#
# Velocity S-wave (km/s) = -3.45515 3.16096 -0.98651
# Velocity P-wave (km/s) = 0.97355 6.07426 4.23962
#
# Compressibility (1/GPa) = 0.02821529
#
# Stress axis : x y z
#
# Youngs Moduli (GPa) = 68.44680 48.71064 79.36214
#
# Poissons Ratio (x) = 0.13177 0.71524
# Poissons Ratio (y) = 0.18516 -0.15518
# Poissons Ratio (z) = 0.61686 -0.09524
#
# Static dielectric constant tensor:
#      x y z
#    x 1.984900 0.000000 0.000000 
#    y 0.000000 1.970160 0.000000 
#    z 0.000000 0.000000 1.907870 
# 
# From -- ./inp_files/7591.got.cif
#   From: 2010.05.17/outbox.cif.g08.bks.cpg/sg35_4_cif.got.tgz:7591.got - 2010.06.03 17:29:28.
