data_PCOD9349438
_publ_section_title
;
Structure prediction by ZEFSAII (Michael W. Deem and Ramdas Pophale) SiO2 
 PCOD9349438
Probable space group: C M M 2
;
_chemical_formula_sum "Si O2"
_cell_formula_units_Z 64
_cell_length_a 18.934305
_cell_length_b 31.479934
_cell_length_c 5.254896
_cell_angle_alpha 90.000000
_cell_angle_beta 90.000000
_cell_angle_gamma 90.000000
_cell_volume 3132.184291
_symmetry_space_group_name_H-M "C M M 2"
_symmetry_group_IT_number 35
_symmetry_cell_setting 'orthorhombic'
loop_
_space_group_symop_operation_xyz
x,y,z
-x,-y,z
-x,y,z
x,-y,z
1/2+x,1/2+y,z
1/2-x,1/2-y,z
1/2-x,1/2+y,z
1/2+x,1/2-y,z
loop_
_atom_site_type_symbol
_atom_site_label
_atom_site_fract_x
_atom_site_fract_y
_atom_site_fract_z
Si Si1 0.690257 0.780874 0.336830
Si Si2 0.855412 0.835195 0.956458
Si Si3 0.711991 0.142609 0.732775
Si Si4 0.419318 0.627306 0.452653
Si Si5 0.921618 0.240239 0.663941
Si Si6 0.079117 0.325329 0.969865
Si Si7 0.769970 0.952050 0.706445
Si Si8 0.865733 0.045794 0.209191
O O1 0.750000 0.750000 0.212040
O O2 0.716594 0.820185 0.516329
O O3 0.646039 0.744908 0.487361
O O4 0.628718 0.803645 0.178880
O O5 0.770905 0.839742 0.931804
O O6 0.883599 0.866516 0.728245
O O7 0.895579 0.792202 0.879092
O O8 0.878291 0.845807 0.240785
O O9 0.632196 0.141828 0.839040
O O10 0.729459 0.093068 0.682794
O O11 0.500000 0.639557 0.480599
O O12 0.416432 0.581675 0.316638
O O13 0.929175 0.287281 0.771666
O O14 0.000000 0.229076 0.562402
O O15 0.000000 0.338889 0.049025
O O16 0.808788 0.955371 0.436360
O O17 0.736939 0.000000 0.747530
O O18 0.824098 0.946820 0.945179
O O19 0.901058 0.000000 0.186902
#
# Coordination Sequence:
#
# PCOD9349438 Si02
#       8
#     8   8   8   8   8   8   8   8
#     4  11  23  36  60  92 124 168 219 267 312 378
#     4  12  25  39  61  92 123 163 228 265 310 367
#     4  11  23  39  66  90 125 162 216 270 321 382
#     4  12  24  39  57  87 129 171 214 269 322 370
#     4  10  22  40  56  81 122 170 211 261 314 367
#     4  10  25  42  61  89 127 168 212 263 329 389
#     4  10  21  39  65  95 125 159 209 271 330 385
#     4  10  20  37  59  86 122 163 209 261 316 383
#
# _framework density 20.433026000000002
#
# number of rings (size 3 to 8) (size 9 to 14) (size 15 to 20)
#    0.000    1.250    3.750    1.500    7.000    0.750 
#    0.000    0.000    0.000    4.125    0.000    0.000 
#    0.000    0.000    0.000    0.000    0.000    0.000 
#
# Total GULP energy -178186.067471 kJ/mol
# GULP energy per Si atom -5568.314608 kJ/mol
# Density = 2.038652 g / cm^3
# Si number density = 20.433026 Si / 1000 Ang^3
#
#
#
# Elastic Constant Matrix: (Units=GPa)
#
#
# Indices 1 2 3 4 5 6 
#
# 1 116.1828 36.0580 16.7107 0.0000 0.0000 0.0000
# 2 36.0580 125.1478 14.6585 0.0000 0.0000 0.0000
# 3 16.7107 14.6585 66.8472 0.0000 0.0000 0.0000
# 4 0.0000 0.0000 0.0000 35.1563 0.0000 0.0000
# 5 0.0000 0.0000 0.0000 0.0000 38.7046 0.0000
# 6 0.0000 0.0000 0.0000 0.0000 0.0000 13.5222
#
#
#
# Elastic Compliance Matrix: (Units=1/GPa)
#
#
# Indices 1 2 3 4 5 6 
#
# 1 0.009671 -0.002569 -0.001854 0.000000 0.000000 0.000000
# 2 -0.002569 0.008884 -0.001306 0.000000 0.000000 0.000000
# 3 -0.001854 -0.001306 0.015709 0.000000 0.000000 0.000000
# 4 0.000000 0.000000 0.000000 0.028444 0.000000 0.000000
# 5 0.000000 0.000000 0.000000 0.000000 0.025837 0.000000
# 6 0.000000 0.000000 0.000000 0.000000 0.000000 0.073952
#
#
# Mechanical properties :
#
#
# Convention : Reuss Voigt Hill
#
# Bulk Modulus (GPa) = 43.84873 49.22582 46.53727
# Shear Modulus (GPa) = 27.53934 33.52666 30.53300
#
# Velocity S-wave (km/s) = 3.67520 4.05508 3.86981
# Velocity P-wave (km/s) = 6.28616 6.78738 6.54157
#
# Compressibility (1/GPa) = 0.02280568
#
# Stress axis : x y z
#
# Youngs Moduli (GPa) = 103.39947 112.56473 63.65629
#
# Poissons Ratio (x) = 0.28921 0.11803
# Poissons Ratio (y) = 0.26567 0.08312
# Poissons Ratio (z) = 0.19173 0.14699
#
# Static dielectric constant tensor:
#      x y z
#    x 1.776980 0.000000 0.000000 
#    y 0.000000 1.817080 0.000000 
#    z 0.000000 0.000000 1.793810 
# 
# From -- ./inp_files/2736.got.cif
#   From: 2010.05.17/outbox.cif.g08.bks.cpg/sg35_2_cif.got.tgz:2736.got - 2010.06.03 17:29:28.
