data_PCOD9349304
_publ_section_title
;
Structure prediction by ZEFSAII (Michael W. Deem and Ramdas Pophale) SiO2 
 PCOD9349304
Probable space group: C M M 2
;
_chemical_formula_sum "Si O2"
_cell_formula_units_Z 64
_cell_length_a 15.423204
_cell_length_b 21.233451
_cell_length_c 10.294671
_cell_angle_alpha 90.000000
_cell_angle_beta 90.000000
_cell_angle_gamma 90.000000
_cell_volume 3371.379635
_symmetry_space_group_name_H-M "C M M 2"
_symmetry_group_IT_number 35
_symmetry_cell_setting 'orthorhombic'
loop_
_space_group_symop_operation_xyz
x,y,z
-x,-y,z
-x,y,z
x,-y,z
1/2+x,1/2+y,z
1/2-x,1/2-y,z
1/2-x,1/2+y,z
1/2+x,1/2-y,z
loop_
_atom_site_type_symbol
_atom_site_label
_atom_site_fract_x
_atom_site_fract_y
_atom_site_fract_z
Si Si1 0.667653 0.702993 0.352860
Si Si2 0.221152 0.069923 0.764641
Si Si3 0.765820 0.573306 0.045070
Si Si4 0.214704 0.611245 0.497313
Si Si5 0.402099 0.924835 0.255765
Si Si6 0.339870 0.709978 0.821112
Si Si7 0.099237 0.160451 0.082270
Si Si8 0.593074 0.219335 0.580326
O O1 0.750000 0.750000 0.333159
O O2 0.705570 0.638275 0.412962
O O3 0.618398 0.692605 0.219502
O O4 0.606642 0.733704 0.460659
O O5 0.259257 0.069234 0.619521
O O6 0.170827 0.136589 0.776308
O O7 0.178988 0.000000 0.784875
O O8 0.284969 0.076447 0.890247
O O9 0.755391 0.500000 0.078680
O O10 0.840365 0.600050 0.139496
O O11 0.674499 0.607907 0.067277
O O12 0.146055 0.586139 0.392481
O O13 0.171102 0.671004 0.566889
O O14 0.500000 0.898696 0.254561
O O15 0.408624 0.000000 0.237114
O O16 0.250000 0.750000 0.827376
O O17 0.397012 0.743773 0.713523
O O18 0.382442 0.707152 0.962477
O O19 0.000000 0.137571 0.075730
O O20 0.500000 0.187272 0.571932
#
# Coordination Sequence:
#
# PCOD9349304 Si02
#       8
#     8   8   8   8   8   8   8   8
#     4  10  20  36  56  80 115 154 187 242 300 353
#     4  10  20  36  62  88 114 154 201 242 295 361
#     4   9  20  38  59  83 116 159 197 244 304 358
#     4  11  19  36  58  87 116 158 195 247 302 358
#     4  10  20  36  59  87 120 160 205 248 297 362
#     4  11  20  39  61  84 118 158 197 248 299 356
#     4  11  22  36  59  87 114 151 198 249 299 355
#     4  11  21  35  56  85 118 155 197 240 300 363
#
# _framework density 18.983326999999999
#
# number of rings (size 3 to 8) (size 9 to 14) (size 15 to 20)
#    0.000    1.625    3.750    2.250    0.000    0.250 
#    0.000    1.250    0.000    4.125    0.000    0.000 
#    0.000    0.000    0.000    0.000    0.000    0.000 
#
# Total GULP energy -178280.629061 kJ/mol
# GULP energy per Si atom -5571.269658 kJ/mol
# Density = 1.894012 g / cm^3
# Si number density = 18.983327 Si / 1000 Ang^3
#
#
#
# Elastic Constant Matrix: (Units=GPa)
#
#
# Indices 1 2 3 4 5 6 
#
# 1 68.5505 11.0314 35.1594 0.0000 0.0000 0.0000
# 2 11.0314 48.4790 17.0716 0.0000 0.0000 0.0000
# 3 35.1594 17.0716 138.0329 0.0000 0.0000 0.0000
# 4 0.0000 0.0000 0.0000 17.1592 0.0000 0.0000
# 5 0.0000 0.0000 0.0000 0.0000 -36.5246 0.0000
# 6 0.0000 0.0000 0.0000 0.0000 0.0000 15.8333
#
#
#
# Elastic Compliance Matrix: (Units=1/GPa)
#
#
# Indices 1 2 3 4 5 6 
#
# 1 0.017056 -0.002458 -0.004040 0.000000 0.000000 0.000000
# 2 -0.002458 0.021921 -0.002085 0.000000 0.000000 0.000000
# 3 -0.004040 -0.002085 0.008532 0.000000 0.000000 0.000000
# 4 0.000000 0.000000 0.000000 0.058278 0.000000 0.000000
# 5 0.000000 0.000000 0.000000 0.000000 -0.027379 0.000000
# 6 0.000000 0.000000 0.000000 0.000000 0.000000 0.063158
#
#
# Mechanical properties :
#
#
# Convention : Reuss Voigt Hill
#
# Bulk Modulus (GPa) = 32.95844 42.39859 37.67851
# Shear Modulus (GPa) = 29.61276 12.08025 20.84651
#
# Velocity S-wave (km/s) = 3.95389 2.52536 3.31743
# Velocity P-wave (km/s) = 6.18415 5.55755 5.87921
#
# Compressibility (1/GPa) = 0.03034124
#
# Stress axis : x y z
#
# Youngs Moduli (GPa) = 58.63155 45.61817 117.21036
#
# Poissons Ratio (x) = 0.11214 0.47357
# Poissons Ratio (y) = 0.14413 0.24438
# Poissons Ratio (z) = 0.23689 0.09511
#
# Static dielectric constant tensor:
#      x y z
#    x 1.660500 0.000000 0.000000 
#    y 0.000000 1.698240 0.000000 
#    z 0.000000 0.000000 1.689880 
# 
# From -- ./inp_files/7882.got.cif
#   From: 2010.05.17/outbox.cif.g08.bks.cpg/sg35_4_cif.got.tgz:7882.got - 2010.06.03 17:29:28.
