data_PCOD9349976
_publ_section_title
;
Structure prediction by ZEFSAII (Michael W. Deem and Ramdas Pophale) SiO2 
 PCOD9349976
Probable space group: C M M 2
;
_chemical_formula_sum "Si O2"
_cell_formula_units_Z 40
_cell_length_a 16.400253
_cell_length_b 22.331148
_cell_length_c 5.179511
_cell_angle_alpha 90.000000
_cell_angle_beta 90.000000
_cell_angle_gamma 90.000000
_cell_volume 1896.925861
_symmetry_space_group_name_H-M "C M M 2"
_symmetry_group_IT_number 35
_symmetry_cell_setting 'orthorhombic'
loop_
_space_group_symop_operation_xyz
x,y,z
-x,-y,z
-x,y,z
x,-y,z
1/2+x,1/2+y,z
1/2-x,1/2-y,z
1/2-x,1/2+y,z
1/2+x,1/2-y,z
loop_
_atom_site_type_symbol
_atom_site_label
_atom_site_fract_x
_atom_site_fract_y
_atom_site_fract_z
Si Si1 0.183973 0.662007 0.904860
Si Si2 0.409649 0.934490 0.182516
Si Si3 0.752961 0.932739 0.518694
Si Si4 0.595474 0.278988 0.716532
Si Si5 0.835484 0.159665 0.208882
O O1 0.240566 0.617628 0.735950
O O2 0.149510 0.720101 0.768377
O O3 0.109788 0.620641 0.998087
O O4 0.242836 0.680087 0.141047
O O5 0.500000 0.928849 0.296784
O O6 0.335816 0.934518 0.383493
O O7 0.405839 0.000000 0.048701
O O8 0.818519 0.907821 0.311928
O O9 0.771912 0.000000 0.609620
O O10 0.500000 0.264314 0.711251
O O11 0.623489 0.306245 0.445806
O O12 0.613222 0.324620 0.953704
#
# Coordination Sequence:
#
# PCOD9349976 Si02
#       5
#     8   8   8   8   8
#     4  11  23  38  69  95 136 177 222 269 331 404
#     4   9  19  35  56  92 139 180 220 267 321 390
#     4  10  22  41  68  98 129 176 229 277 335 400
#     4  12  27  44  68 101 138 179 223 277 338 401
#     4  11  25  45  68  98 135 173 225 280 330 396
#
# _framework density 21.086749999999999
#
# number of rings (size 3 to 8) (size 9 to 14) (size 15 to 20)
#    0.000    1.400    2.000    2.400    8.400    2.400 
#    0.000    2.000    0.000    3.600    0.000    0.000 
#    0.000    0.000    0.000    0.000    0.000    0.000 
#
# Total GULP energy -111634.291586 kJ/mol
# GULP energy per Si atom -5581.714579 kJ/mol
# Density = 2.103876 g / cm^3
# Si number density = 21.086750 Si / 1000 Ang^3
#
#
#
# Elastic Constant Matrix: (Units=GPa)
#
#
# Indices 1 2 3 4 5 6 
#
# 1 68.9547 32.8491 26.1498 0.0000 0.0000 0.0000
# 2 32.8491 75.8575 30.6389 0.0000 0.0000 0.0000
# 3 26.1498 30.6389 97.3974 0.0000 0.0000 0.0000
# 4 0.0000 0.0000 0.0000 24.3603 0.0000 0.0000
# 5 0.0000 0.0000 0.0000 0.0000 21.9757 0.0000
# 6 0.0000 0.0000 0.0000 0.0000 0.0000 25.6594
#
#
#
# Elastic Compliance Matrix: (Units=1/GPa)
#
#
# Indices 1 2 3 4 5 6 
#
# 1 0.018947 -0.007045 -0.002871 0.000000 0.000000 0.000000
# 2 -0.007045 0.017721 -0.003683 0.000000 0.000000 0.000000
# 3 -0.002871 -0.003683 0.012197 0.000000 0.000000 0.000000
# 4 0.000000 0.000000 0.000000 0.041050 0.000000 0.000000
# 5 0.000000 0.000000 0.000000 0.000000 0.045505 0.000000
# 6 0.000000 0.000000 0.000000 0.000000 0.000000 0.038972
#
#
# Mechanical properties :
#
#
# Convention : Reuss Voigt Hill
#
# Bulk Modulus (GPa) = 46.15405 46.83170 46.49288
# Shear Modulus (GPa) = 23.94488 24.57052 24.25770
#
# Velocity S-wave (km/s) = 3.37344 3.41722 3.39540
# Velocity P-wave (km/s) = 6.09169 6.15038 6.12110
#
# Compressibility (1/GPa) = 0.02166657
#
# Stress axis : x y z
#
# Youngs Moduli (GPa) = 52.77802 56.42986 81.99022
#
# Poissons Ratio (x) = 0.39757 0.23538
# Poissons Ratio (y) = 0.37184 0.30198
# Poissons Ratio (z) = 0.15151 0.20783
#
# Static dielectric constant tensor:
#      x y z
#    x 1.733080 0.000000 0.000000 
#    y 0.000000 1.812210 0.000000 
#    z 0.000000 0.000000 1.830650 
# 
# From -- ./inp_files/1763.got.cif
#   From: 2010.05.17/outbox.cif.g08.bks.cpg/sg35_1_cif.got.tgz:1763.got - 2010.06.03 17:29:28.
