data_PCOD9349143
_publ_section_title
;
Structure prediction by ZEFSAII (Michael W. Deem and Ramdas Pophale) SiO2 
 PCOD9349143
Probable space group: C M M 2
;
_chemical_formula_sum "Si O2"
_cell_formula_units_Z 56
_cell_length_a 8.817098
_cell_length_b 19.416289
_cell_length_c 18.407748
_cell_angle_alpha 90.000000
_cell_angle_beta 90.000000
_cell_angle_gamma 90.000000
_cell_volume 3151.320363
_symmetry_space_group_name_H-M "C M M 2"
_symmetry_group_IT_number 35
_symmetry_cell_setting 'orthorhombic'
loop_
_space_group_symop_operation_xyz
x,y,z
-x,-y,z
-x,y,z
x,-y,z
1/2+x,1/2+y,z
1/2-x,1/2-y,z
1/2-x,1/2+y,z
1/2+x,1/2-y,z
loop_
_atom_site_type_symbol
_atom_site_label
_atom_site_fract_x
_atom_site_fract_y
_atom_site_fract_z
Si Si1 0.182317 0.673442 0.530190
Si Si2 0.817282 0.674200 0.112713
Si Si3 0.319420 0.418968 0.823243
Si Si4 0.682590 0.079867 0.667321
Si Si5 0.681824 0.826219 0.949166
Si Si6 0.181398 0.080651 0.403130
Si Si7 0.181547 0.419249 0.247223
O O1 0.250000 0.750000 0.530817
O O2 0.227015 0.630562 0.602337
O O3 0.241899 0.629926 0.461762
O O4 0.000000 0.677172 0.527721
O O5 0.750000 0.750000 0.122723
O O6 0.768260 0.624863 0.177973
O O7 0.000000 0.678280 0.114871
O O8 0.776084 0.650195 0.031162
O O9 0.500000 0.409746 0.823810
O O10 0.285370 0.500000 0.833388
O O11 0.254848 0.399721 0.744114
O O12 0.245450 0.375396 0.887243
O O13 0.500000 0.081663 0.673966
O O14 0.725900 0.000000 0.651570
O O15 0.500000 0.822958 0.944503
O O16 0.750000 0.750000 0.939967
O O17 0.235995 0.099373 0.322086
O O18 0.000000 0.085882 0.408090
O O19 0.224016 0.000000 0.415415
O O20 0.209176 0.500000 0.233462
O O21 0.000000 0.410183 0.256951
#
# Coordination Sequence:
#
# PCOD9349143 Si02
#       7
#     8   8   8   8   8   8   8
#     4  11  23  38  57  82 111 142 178 220 266 315
#     4   9  19  34  53  77 104 138 177 218 266 318
#     4  10  21  36  55  81 111 142 178 220 266 316
#     4   9  19  37  59  80 104 139 181 221 265 318
#     4  10  20  35  55  78 107 143 182 223 268 319
#     4  10  21  37  57  81 109 142 180 220 265 318
#     4   9  18  34  55  78 105 138 178 221 264 313
#
# _framework density 17.770329
#
# number of rings (size 3 to 8) (size 9 to 14) (size 15 to 20)
#    0.000    2.286    0.000    2.143    0.000    6.286 
#    0.000    5.714    0.000    1.714    0.000    0.000 
#    0.000    0.000    0.000    0.000    0.000    0.000 
#
# Total GULP energy -156293.837821 kJ/mol
# GULP energy per Si atom -5581.922779 kJ/mol
# Density = 1.772988 g / cm^3
# Si number density = 17.770329 Si / 1000 Ang^3
#
#
#
# Elastic Constant Matrix: (Units=GPa)
#
#
# Indices 1 2 3 4 5 6 
#
# 1 40.2335 49.3957 65.7685 0.0000 0.0000 0.0000
# 2 49.3957 102.4192 120.6392 0.0000 0.0000 0.0000
# 3 65.7685 120.6392 200.0176 0.0000 0.0000 0.0000
# 4 0.0000 0.0000 0.0000 210.5336 0.0000 0.0000
# 5 0.0000 0.0000 0.0000 0.0000 22.6222 0.0000
# 6 0.0000 0.0000 0.0000 0.0000 0.0000 27.7759
#
#
#
# Elastic Compliance Matrix: (Units=1/GPa)
#
#
# Indices 1 2 3 4 5 6 
#
# 1 0.064863 -0.021276 -0.008495 0.000000 0.000000 0.000000
# 2 -0.021276 0.040698 -0.017551 0.000000 0.000000 0.000000
# 3 -0.008495 -0.017551 0.018379 0.000000 0.000000 0.000000
# 4 0.000000 0.000000 0.000000 0.004750 0.000000 0.000000
# 5 0.000000 0.000000 0.000000 0.000000 0.044204 0.000000
# 6 0.000000 0.000000 0.000000 0.000000 0.000000 0.036002
#
#
# Mechanical properties :
#
#
# Convention : Reuss Voigt Hill
#
# Bulk Modulus (GPa) = 34.13528 90.47523 62.30526
# Shear Modulus (GPa) = 15.95876 59.31081 37.63479
#
# Velocity S-wave (km/s) = 3.00001 5.78349 4.60700
# Velocity P-wave (km/s) = 5.59025 9.77868 7.96472
#
# Compressibility (1/GPa) = 0.02929521
#
# Stress axis : x y z
#
# Youngs Moduli (GPa) = 15.41700 24.57098 54.41095
#
# Poissons Ratio (x) = 0.52278 0.46223
# Poissons Ratio (y) = 0.32802 0.95497
# Poissons Ratio (z) = 0.13097 0.43124
#
# Static dielectric constant tensor:
#      x y z
#    x 1.595750 0.000000 0.000000 
#    y 0.000000 1.580630 0.000000 
#    z 0.000000 0.000000 1.590180 
# 
# From -- ./inp_files/15591.got.cif
#   From: 2010.05.17/outbox.cif.g08.bks.cpg/sg35_8_cif.got.tgz:15591.got - 2010.06.03 17:29:28.
