data_PCOD9349650
_publ_section_title
;
Structure prediction by ZEFSAII (Michael W. Deem and Ramdas Pophale) SiO2 
 PCOD9349650
Probable space group: C M M 2
;
_chemical_formula_sum "Si O2"
_cell_formula_units_Z 64
_cell_length_a 8.593527
_cell_length_b 28.570741
_cell_length_c 13.422680
_cell_angle_alpha 90.000000
_cell_angle_beta 90.000000
_cell_angle_gamma 90.000000
_cell_volume 3295.582490
_symmetry_space_group_name_H-M "C M M 2"
_symmetry_group_IT_number 35
_symmetry_cell_setting 'orthorhombic'
loop_
_space_group_symop_operation_xyz
x,y,z
-x,-y,z
-x,y,z
x,-y,z
1/2+x,1/2+y,z
1/2-x,1/2-y,z
1/2-x,1/2+y,z
1/2+x,1/2-y,z
loop_
_atom_site_type_symbol
_atom_site_label
_atom_site_fract_x
_atom_site_fract_y
_atom_site_fract_z
Si Si1 0.815136 0.197405 0.828030
Si Si2 0.687272 0.945445 0.723586
Si Si3 0.313211 0.890500 0.921402
Si Si4 0.686892 0.196878 0.618481
Si Si5 0.687889 0.392669 0.312718
Si Si6 0.312750 0.445109 0.512635
Si Si7 0.811613 0.054377 0.111622
Si Si8 0.313776 0.197508 0.396868
O O1 0.750000 0.250000 0.840213
O O2 0.754010 0.161622 0.910631
O O3 0.755838 0.177716 0.720922
O O4 0.000000 0.199514 0.826779
O O5 0.500000 0.943604 0.721021
O O6 0.739486 0.918691 0.822414
O O7 0.747171 0.926846 0.617512
O O8 0.735241 0.000000 0.730931
O O9 0.500000 0.888555 0.921061
O O10 0.255155 0.917639 0.018149
O O11 0.500000 0.195832 0.626079
O O12 0.750000 0.250000 0.617804
O O13 0.733016 0.179685 0.508536
O O14 0.500000 0.391781 0.314123
O O15 0.741372 0.419152 0.413081
O O16 0.736591 0.420677 0.214481
O O17 0.749774 0.339937 0.319202
O O18 0.500000 0.442283 0.516460
O O19 0.269557 0.500000 0.505193
O O20 0.000000 0.055519 0.107309
O O21 0.763389 0.000000 0.109819
O O22 0.500000 0.199291 0.394113
O O23 0.250000 0.250000 0.383503
#
# Coordination Sequence:
#
# PCOD9349650 Si02
#       8
#     8   8   8   8   8   8   8   8
#     4  11  22  37  58  85 119 157 199 244 295 352
#     4   9  19  35  54  79 114 152 187 231 289 348
#     4  11  23  39  60  86 118 155 199 246 299 355
#     4   9  17  31  51  78 113 154 195 238 286 339
#     4  10  21  37  59  86 117 153 195 243 297 350
#     4   9  18  33  54  82 115 150 188 231 284 347
#     4  10  22  42  66  90 117 152 198 250 300 354
#     4  10  21  36  56  83 118 157 199 244 291 347
#
# _framework density 19.419937000000001
#
# number of rings (size 3 to 8) (size 9 to 14) (size 15 to 20)
#    0.000    2.125    0.000    3.750    1.750    5.750 
#    0.000    1.875    0.000    5.250    0.000    0.000 
#    0.000    0.000    0.000    0.000    0.000    0.000 
#
# Total GULP energy -178686.601796 kJ/mol
# GULP energy per Si atom -5583.956306 kJ/mol
# Density = 1.937574 g / cm^3
# Si number density = 19.419937 Si / 1000 Ang^3
#
#
#
# Elastic Constant Matrix: (Units=GPa)
#
#
# Indices 1 2 3 4 5 6 
#
# 1 41.6234 34.3102 39.5698 0.0000 0.0000 0.0000
# 2 34.3102 134.1339 91.8850 0.0000 0.0000 0.0000
# 3 39.5698 91.8850 150.4169 0.0000 0.0000 0.0000
# 4 0.0000 0.0000 0.0000 39.4724 0.0000 0.0000
# 5 0.0000 0.0000 0.0000 0.0000 30.1038 0.0000
# 6 0.0000 0.0000 0.0000 0.0000 0.0000 20.8840
#
#
#
# Elastic Compliance Matrix: (Units=1/GPa)
#
#
# Indices 1 2 3 4 5 6 
#
# 1 0.033449 -0.004347 -0.006144 0.000000 0.000000 0.000000
# 2 -0.004347 0.013385 -0.007033 0.000000 0.000000 0.000000
# 3 -0.006144 -0.007033 0.012560 0.000000 0.000000 0.000000
# 4 0.000000 0.000000 0.000000 0.025334 0.000000 0.000000
# 5 0.000000 0.000000 0.000000 0.000000 0.033218 0.000000
# 6 0.000000 0.000000 0.000000 0.000000 0.000000 0.047884
#
#
# Mechanical properties :
#
#
# Convention : Reuss Voigt Hill
#
# Bulk Modulus (GPa) = 41.07315 73.07825 57.07570
# Shear Modulus (GPa) = 23.92416 28.78599 26.35508
#
# Velocity S-wave (km/s) = 3.51371 3.85423 3.68790
# Velocity P-wave (km/s) = 6.13656 7.58413 6.89842
#
# Compressibility (1/GPa) = 0.02434681
#
# Stress axis : x y z
#
# Youngs Moduli (GPa) = 29.89616 74.71135 79.61490
#
# Poissons Ratio (x) = 0.32480 0.48913
# Poissons Ratio (y) = 0.12997 0.55991
# Poissons Ratio (z) = 0.18367 0.52542
#
# Static dielectric constant tensor:
#      x y z
#    x 1.655250 0.000000 0.000000 
#    y 0.000000 1.685210 0.000000 
#    z 0.000000 0.000000 1.677350 
# 
# From -- ./inp_files/11970.got.cif
#   From: 2010.05.17/outbox.cif.g08.bks.cpg/sg35_6_cif.got.tgz:11970.got - 2010.06.03 17:29:28.
