data_PCOD9349676
_publ_section_title
;
Structure prediction by ZEFSAII (Michael W. Deem and Ramdas Pophale) SiO2 
 PCOD9349676
Probable space group: C M M 2
;
_chemical_formula_sum "Si O2"
_cell_formula_units_Z 48
_cell_length_a 8.140064
_cell_length_b 29.303270
_cell_length_c 10.580822
_cell_angle_alpha 90.000000
_cell_angle_beta 90.000000
_cell_angle_gamma 90.000000
_cell_volume 2523.848690
_symmetry_space_group_name_H-M "C M M 2"
_symmetry_group_IT_number 35
_symmetry_cell_setting 'orthorhombic'
loop_
_space_group_symop_operation_xyz
x,y,z
-x,-y,z
-x,y,z
x,-y,z
1/2+x,1/2+y,z
1/2-x,1/2-y,z
1/2-x,1/2+y,z
1/2+x,1/2-y,z
loop_
_atom_site_type_symbol
_atom_site_label
_atom_site_fract_x
_atom_site_fract_y
_atom_site_fract_z
Si Si1 0.698282 0.050852 0.506550
Si Si2 0.301169 0.448893 0.215968
Si Si3 0.195887 0.197447 0.857436
Si Si4 0.803034 0.856170 0.102185
Si Si5 0.198605 0.645866 0.604992
Si Si6 0.197016 0.697614 0.350730
O O1 0.500000 0.050195 0.511814
O O2 0.746601 0.059306 0.360612
O O3 0.755602 0.093403 0.590458
O O4 0.758375 0.000000 0.541249
O O5 0.500000 0.448641 0.214682
O O6 0.245844 0.500000 0.180138
O O7 0.241060 0.407521 0.128632
O O8 0.250000 0.250000 0.857090
O O9 0.244720 0.171679 0.729578
O O10 0.000000 0.197655 0.865803
O O11 0.262828 0.169827 0.979009
O O12 0.766085 0.827164 0.227314
O O13 0.000000 0.859261 0.088363
O O14 0.253189 0.672563 0.478809
O O15 0.000000 0.645886 0.605117
O O16 0.250000 0.750000 0.353016
O O17 0.000000 0.694826 0.345689
#
# Coordination Sequence:
#
# PCOD9349676 Si02
#       6
#     8   8   8   8   8   8
#     4   9  17  32  55  83 114 144 177 220 269 321
#     4   9  17  31  54  83 113 144 178 219 269 322
#     4  11  24  40  57  78 107 148 189 228 276 329
#     4  10  21  37  56  81 111 144 183 225 273 324
#     4  10  21  37  56  82 111 144 183 224 273 325
#     4  11  22  35  54  81 108 138 180 228 278 327
#
# _framework density 19.018573
#
# number of rings (size 3 to 8) (size 9 to 14) (size 15 to 20)
#    0.000    2.000    1.667    2.000    0.000    6.000 
#    0.000    0.833    0.000    1.000    0.000    0.000 
#    0.000    0.000    0.000    0.000    0.000    0.000 
#
# Total GULP energy -133971.038792 kJ/mol
# GULP energy per Si atom -5582.126616 kJ/mol
# Density = 1.897529 g / cm^3
# Si number density = 19.018573 Si / 1000 Ang^3
#
#
#
# Elastic Constant Matrix: (Units=GPa)
#
#
# Indices 1 2 3 4 5 6 
#
# 1 6.9568 11.1706 3.7323 0.0000 0.0000 0.0000
# 2 11.1706 211.5938 101.8198 0.0000 0.0000 0.0000
# 3 3.7323 101.8198 144.4250 0.0000 0.0000 0.0000
# 4 0.0000 0.0000 0.0000 33.6678 0.0000 0.0000
# 5 0.0000 0.0000 0.0000 0.0000 28.9695 0.0000
# 6 0.0000 0.0000 0.0000 0.0000 0.0000 -3.4912
#
#
#
# Elastic Compliance Matrix: (Units=1/GPa)
#
#
# Indices 1 2 3 4 5 6 
#
# 1 0.157759 -0.009636 0.002716 0.000000 0.000000 0.000000
# 2 -0.009636 0.007741 -0.005208 0.000000 0.000000 0.000000
# 3 0.002716 -0.005208 0.010526 0.000000 0.000000 0.000000
# 4 0.000000 0.000000 0.000000 0.029702 0.000000 0.000000
# 5 0.000000 0.000000 0.000000 0.000000 0.034519 0.000000
# 6 0.000000 0.000000 0.000000 0.000000 0.000000 -0.286437
#
#
# Mechanical properties :
#
#
# Convention : Reuss Voigt Hill
#
# Bulk Modulus (GPa) = 6.58889 66.26901 36.42895
# Shear Modulus (GPa) = 174.47986 28.24608 101.36297
#
# Velocity S-wave (km/s) = 9.58859 3.85799 7.30839
# Velocity P-wave (km/s) = 11.22764 7.40037 9.50856
#
# Compressibility (1/GPa) = 0.15177053
#
# Stress axis : x y z
#
# Youngs Moduli (GPa) = 6.33876 129.18152 95.00498
#
# Poissons Ratio (x) = 1.24474 -0.25805
# Poissons Ratio (y) = 0.06108 0.49483
# Poissons Ratio (z) = -0.01722 0.67283
#
# Static dielectric constant tensor:
#      x y z
#    x 1.661020 0.000000 0.000000 
#    y 0.000000 1.688090 0.000000 
#    z 0.000000 0.000000 1.628850 
# 
# From -- ./inp_files/5309.got.cif
#   From: 2010.05.17/outbox.cif.g08.bks.cpg/sg35_3_cif.got.tgz:5309.got - 2010.06.03 17:29:28.
