data_PCOD9349639
_publ_section_title
;
Structure prediction by ZEFSAII (Michael W. Deem and Ramdas Pophale) SiO2 
 PCOD9349639
Probable space group: C M M 2
;
_chemical_formula_sum "Si O2"
_cell_formula_units_Z 58
_cell_length_a 31.219380
_cell_length_b 8.009419
_cell_length_c 12.824805
_cell_angle_alpha 90.000000
_cell_angle_beta 90.000000
_cell_angle_gamma 90.000000
_cell_volume 3206.830888
_symmetry_space_group_name_H-M "C M M 2"
_symmetry_group_IT_number 35
_symmetry_cell_setting 'orthorhombic'
loop_
_space_group_symop_operation_xyz
x,y,z
-x,-y,z
-x,y,z
x,-y,z
1/2+x,1/2+y,z
1/2-x,1/2-y,z
1/2-x,1/2+y,z
1/2+x,1/2-y,z
loop_
_atom_site_type_symbol
_atom_site_label
_atom_site_fract_x
_atom_site_fract_y
_atom_site_fract_z
Si Si1 0.797889 0.200608 0.820670
Si Si2 0.000000 0.000000 0.022946
Si Si3 0.047401 0.698846 0.715399
Si Si4 0.701869 0.198993 0.461572
Si Si5 0.798290 0.699934 0.224265
Si Si6 0.138662 0.197859 0.642696
Si Si7 0.153993 0.802419 0.022039
Si Si8 0.061265 0.304216 0.961265
O O1 0.750000 0.250000 0.791414
O O2 0.833597 0.267190 0.740208
O O3 0.799333 0.000000 0.817418
O O4 0.810378 0.253230 0.937606
O O5 0.036503 0.847601 0.017458
O O6 0.045200 0.500000 0.706199
O O7 0.089070 0.752161 0.651049
O O8 0.055424 0.735136 0.837851
O O9 0.000000 0.767499 0.687252
O O10 0.750000 0.250000 0.495405
O O11 0.695007 0.261707 0.343036
O O12 0.664868 0.255585 0.539501
O O13 0.701352 0.000000 0.458487
O O14 0.801691 0.500000 0.223966
O O15 0.750000 0.750000 0.194993
O O16 0.830213 0.770463 0.138526
O O17 0.139286 0.000000 0.651756
O O18 0.147038 0.000000 0.006921
O O19 0.110471 0.709459 0.993985
O O20 0.047833 0.500000 0.976933
#
# Coordination Sequence:
#
# PCOD9349639 Si02
#       8
#     8   2   8   8   8   8   8   8
#     4  10  22  34  48  74 112 153 187 224 277 342
#     4  12  22  36  60  82 120 154 202 244 300 338
#     4  10  21  36  55  82 112 149 192 235 286 344
#     4  10  21  38  58  81 112 147 193 243 291 342
#     4  10  21  37  57  82 111 149 195 245 290 342
#     4  11  22  35  55  81 113 148 189 232 286 347
#     4  11  21  36  55  82 117 153 193 238 290 349
#     4  11  22  36  57  85 117 156 196 241 295 353
#
# _framework density 18.086390999999999
#
# number of rings (size 3 to 8) (size 9 to 14) (size 15 to 20)
#    0.000    1.517    2.759    2.690    0.966    6.345 
#    0.000    0.000    0.000    0.000    1.793    0.000 
#    0.000    0.000    0.000    0.000    0.000    0.000 
#
# Total GULP energy -161545.090823 kJ/mol
# GULP energy per Si atom -5570.520373 kJ/mol
# Density = 1.804523 g / cm^3
# Si number density = 18.086391 Si / 1000 Ang^3
#
#
#
# Elastic Constant Matrix: (Units=GPa)
#
#
# Indices 1 2 3 4 5 6 
#
# 1 161.4617 23.4598 62.1930 0.0000 0.0000 0.0000
# 2 23.4598 55.9825 11.0978 0.0000 0.0000 0.0000
# 3 62.1930 11.0978 68.7124 0.0000 0.0000 0.0000
# 4 0.0000 0.0000 0.0000 14.9975 0.0000 0.0000
# 5 0.0000 0.0000 0.0000 0.0000 17.2564 0.0000
# 6 0.0000 0.0000 0.0000 0.0000 0.0000 28.8011
#
#
#
# Elastic Compliance Matrix: (Units=1/GPa)
#
#
# Indices 1 2 3 4 5 6 
#
# 1 0.009818 -0.002431 -0.008494 0.000000 0.000000 0.000000
# 2 -0.002431 0.019055 -0.000878 0.000000 0.000000 0.000000
# 3 -0.008494 -0.000878 0.022384 0.000000 0.000000 0.000000
# 4 0.000000 0.000000 0.000000 0.066678 0.000000 0.000000
# 5 0.000000 0.000000 0.000000 0.000000 0.057950 0.000000
# 6 0.000000 0.000000 0.000000 0.000000 0.000000 0.034721
#
#
# Mechanical properties :
#
#
# Convention : Reuss Voigt Hill
#
# Bulk Modulus (GPa) = 36.16358 53.29531 44.72944
# Shear Modulus (GPa) = 20.53993 24.83806 22.68899
#
# Velocity S-wave (km/s) = 3.37361 3.70983 3.54570
# Velocity P-wave (km/s) = 5.93408 6.91964 6.44573
#
# Compressibility (1/GPa) = 0.02765213
#
# Stress axis : x y z
#
# Youngs Moduli (GPa) = 101.84865 52.47888 44.67563
#
# Poissons Ratio (x) = 0.12756 0.37949
# Poissons Ratio (y) = 0.24755 0.03921
# Poissons Ratio (z) = 0.86514 0.04606
#
# Static dielectric constant tensor:
#      x y z
#    x 1.639050 0.000000 0.000000 
#    y 0.000000 1.642770 0.000000 
#    z 0.000000 0.000000 1.629980 
# 
# From -- ./inp_files/11782.got.cif
#   From: 2010.05.17/outbox.cif.g08.bks.cpg/sg35_6_cif.got.tgz:11782.got - 2010.06.03 17:29:28.
