data_PCOD9349558
_publ_section_title
;
Structure prediction by ZEFSAII (Michael W. Deem and Ramdas Pophale) SiO2 
 PCOD9349558
Probable space group: C M M 2
;
_chemical_formula_sum "Si O2"
_cell_formula_units_Z 56
_cell_length_a 16.480258
_cell_length_b 17.485418
_cell_length_c 9.608032
_cell_angle_alpha 90.000000
_cell_angle_beta 90.000000
_cell_angle_gamma 90.000000
_cell_volume 2768.690854
_symmetry_space_group_name_H-M "C M M 2"
_symmetry_group_IT_number 35
_symmetry_cell_setting 'orthorhombic'
loop_
_space_group_symop_operation_xyz
x,y,z
-x,-y,z
-x,y,z
x,-y,z
1/2+x,1/2+y,z
1/2-x,1/2-y,z
1/2-x,1/2+y,z
1/2+x,1/2-y,z
loop_
_atom_site_type_symbol
_atom_site_label
_atom_site_fract_x
_atom_site_fract_y
_atom_site_fract_z
Si Si1 0.345525 0.585031 0.533780
Si Si2 0.272340 0.586970 0.223595
Si Si3 0.590165 0.746068 0.465472
Si Si4 0.206058 0.328607 0.673648
Si Si5 0.594641 0.701277 0.142167
Si Si6 0.590084 0.912993 0.205482
Si Si7 0.909544 0.660111 0.926398
O O1 0.378888 0.500000 0.564259
O O2 0.311028 0.583288 0.376776
O O3 0.401040 0.660802 0.532106
O O4 0.270598 0.607339 0.632308
O O5 0.267739 0.500000 0.168572
O O6 0.334011 0.638696 0.134621
O O7 0.180244 0.617037 0.240607
O O8 0.500000 0.774157 0.493747
O O9 0.654111 0.801745 0.538971
O O10 0.601396 0.734849 0.299605
O O11 0.250000 0.250000 0.716781
O O12 0.150607 0.351782 0.801262
O O13 0.500000 0.673745 0.130647
O O14 0.606809 0.765789 0.024879
O O15 0.500000 0.879880 0.243662
O O16 0.590886 0.907644 0.038349
O O17 0.589345 0.000000 0.256778
O O18 0.000000 0.670101 0.869527
#
# Coordination Sequence:
#
# PCOD9349558 Si02
#       7
#     8   8   8   8   8   8   8
#     4   9  19  35  54  81 111 139 183 230 272 330
#     4   9  18  33  55  80 108 143 177 222 280 328
#     4   9  18  35  57  80 108 143 179 222 277 332
#     4  10  21  34  51  78 107 144 178 219 269 321
#     4   9  19  33  54  83 109 137 179 226 271 327
#     4   9  19  34  50  72 103 138 178 219 261 314
#     4  10  21  35  52  77 105 138 179 224 268 316
#
# _framework density 20.226165000000002
#
# number of rings (size 3 to 8) (size 9 to 14) (size 15 to 20)
#    0.000    2.714    0.000    0.429    4.000    1.143 
#    0.000    3.571    0.000    2.143    0.000    2.000 
#    0.000    0.000    0.000    0.000    0.000    0.000 
#
# Total GULP energy -155975.281482 kJ/mol
# GULP energy per Si atom -5570.545767 kJ/mol
# Density = 2.018013 g / cm^3
# Si number density = 20.226165 Si / 1000 Ang^3
#
#
#
# Elastic Constant Matrix: (Units=GPa)
#
#
# Indices 1 2 3 4 5 6 
#
# 1 89.1588 24.5118 7.4128 0.0000 0.0000 0.0000
# 2 24.5118 69.6072 -1.0886 0.0000 0.0000 0.0000
# 3 7.4128 -1.0886 40.1302 0.0000 0.0000 0.0000
# 4 0.0000 0.0000 0.0000 10.2865 0.0000 0.0000
# 5 0.0000 0.0000 0.0000 0.0000 33.9559 0.0000
# 6 0.0000 0.0000 0.0000 0.0000 0.0000 11.7087
#
#
#
# Elastic Compliance Matrix: (Units=1/GPa)
#
#
# Indices 1 2 3 4 5 6 
#
# 1 0.012656 -0.004495 -0.002460 0.000000 0.000000 0.000000
# 2 -0.004495 0.015969 0.001264 0.000000 0.000000 0.000000
# 3 -0.002460 0.001264 0.025408 0.000000 0.000000 0.000000
# 4 0.000000 0.000000 0.000000 0.097214 0.000000 0.000000
# 5 0.000000 0.000000 0.000000 0.000000 0.029450 0.000000
# 6 0.000000 0.000000 0.000000 0.000000 0.000000 0.085407
#
#
# Mechanical properties :
#
#
# Convention : Reuss Voigt Hill
#
# Bulk Modulus (GPa) = 23.44674 28.95200 26.19937
# Shear Modulus (GPa) = 17.14068 22.39425 19.76747
#
# Velocity S-wave (km/s) = 2.91426 3.33106 3.12961
# Velocity P-wave (km/s) = 4.78971 5.39813 5.10300
#
# Compressibility (1/GPa) = 0.04264986
#
# Stress axis : x y z
#
# Youngs Moduli (GPa) = 79.01189 62.62098 39.35838
#
# Poissons Ratio (x) = 0.28150 0.09681
# Poissons Ratio (y) = 0.35518 -0.04973
# Poissons Ratio (z) = 0.19435 -0.07913
#
# Static dielectric constant tensor:
#      x y z
#    x 1.743850 0.000000 0.000000 
#    y 0.000000 1.794230 0.000000 
#    z 0.000000 0.000000 1.696780 
# 
# From -- ./inp_files/7654.got.cif
#   From: 2010.05.17/outbox.cif.g08.bks.cpg/sg35_4_cif.got.tgz:7654.got - 2010.06.03 17:29:28.
