data_PCOD9349271
_publ_section_title
;
Structure prediction by ZEFSAII (Michael W. Deem and Ramdas Pophale) SiO2 
 PCOD9349271
Probable space group: C M M 2
;
_chemical_formula_sum "Si O2"
_cell_formula_units_Z 40
_cell_length_a 8.927641
_cell_length_b 15.673136
_cell_length_c 14.512821
_cell_angle_alpha 90.000000
_cell_angle_beta 90.000000
_cell_angle_gamma 90.000000
_cell_volume 2030.693875
_symmetry_space_group_name_H-M "C M M 2"
_symmetry_group_IT_number 35
_symmetry_cell_setting 'orthorhombic'
loop_
_space_group_symop_operation_xyz
x,y,z
-x,-y,z
-x,y,z
x,-y,z
1/2+x,1/2+y,z
1/2-x,1/2-y,z
1/2-x,1/2+y,z
1/2+x,1/2-y,z
loop_
_atom_site_type_symbol
_atom_site_label
_atom_site_fract_x
_atom_site_fract_y
_atom_site_fract_z
Si Si1 0.175986 0.500000 0.089780
Si Si2 0.822047 0.839217 0.410346
Si Si3 0.326281 0.896625 0.595514
Si Si4 0.324091 0.397508 0.785471
Si Si5 0.824089 0.500000 0.310000
Si Si6 0.179705 0.839139 0.989433
O O1 0.189091 0.500000 0.199985
O O2 0.000000 0.500000 0.065624
O O3 0.254038 0.582982 0.047226
O O4 0.750000 0.750000 0.380491
O O5 0.774145 0.856246 0.516080
O O6 0.000000 0.837022 0.401839
O O7 0.753437 0.916872 0.352464
O O8 0.500000 0.874325 0.580741
O O9 0.272039 0.871176 0.697229
O O10 0.312504 0.000000 0.589405
O O11 0.500000 0.381054 0.767386
O O12 0.307482 0.500000 0.797268
O O13 0.281310 0.354833 0.881769
O O14 0.000000 0.500000 0.335660
O O15 0.250000 0.750000 0.019904
O O16 0.000000 0.838215 0.996667
#
# Coordination Sequence:
#
# PCOD9349271 Si02
#       6
#     4   8   8   8   4   8
#     4  11  25  45  70  95 124 163 205 260 322 379
#     4  12  25  42  67  96 128 168 210 258 313 373
#     4  10  20  35  59  91 129 170 211 257 307 367
#     4   9  18  35  58  86 124 170 215 258 307 364
#     4  11  25  47  70  95 126 159 205 262 320 381
#     4  11  23  41  65  95 130 168 211 261 312 372
#
# _framework density 19.697700000000001
#
# number of rings (size 3 to 8) (size 9 to 14) (size 15 to 20)
#    0.000    1.400    2.000    3.600    0.000    5.600 
#    0.000    2.000    0.000    0.000    0.000    0.000 
#    0.000    0.000    0.000    0.000    0.000    0.000 
#
# Total GULP energy -111897.678606 kJ/mol
# GULP energy per Si atom -5594.883930 kJ/mol
# Density = 1.965287 g / cm^3
# Si number density = 19.697700 Si / 1000 Ang^3
#
#
#
# Elastic Constant Matrix: (Units=GPa)
#
#
# Indices 1 2 3 4 5 6 
#
# 1 150.4420 85.5175 67.7346 0.0000 0.0000 0.0000
# 2 85.5175 148.2688 61.3990 0.0000 0.0000 0.0000
# 3 67.7346 61.3990 79.6420 0.0000 0.0000 0.0000
# 4 0.0000 0.0000 0.0000 -14.0619 0.0000 0.0000
# 5 0.0000 0.0000 0.0000 0.0000 34.0649 0.0000
# 6 0.0000 0.0000 0.0000 0.0000 0.0000 32.3749
#
#
#
# Elastic Compliance Matrix: (Units=1/GPa)
#
#
# Indices 1 2 3 4 5 6 
#
# 1 0.012218 -0.004031 -0.007284 0.000000 0.000000 0.000000
# 2 -0.004031 0.011237 -0.005235 0.000000 0.000000 0.000000
# 3 -0.007284 -0.005235 0.022787 0.000000 0.000000 0.000000
# 4 0.000000 0.000000 0.000000 -0.071114 0.000000 0.000000
# 5 0.000000 0.000000 0.000000 0.000000 0.029356 0.000000
# 6 0.000000 0.000000 0.000000 0.000000 0.000000 0.030888
#
#
# Mechanical properties :
#
#
# Convention : Reuss Voigt Hill
#
# Bulk Modulus (GPa) = 76.08709 89.73943 82.91326
# Shear Modulus (GPa) = 68.63359 21.38904 45.01132
#
# Velocity S-wave (km/s) = 5.90924 3.29882 4.78546
# Velocity P-wave (km/s) = 9.23418 7.75673 8.52751
#
# Compressibility (1/GPa) = 0.01314283
#
# Stress axis : x y z
#
# Youngs Moduli (GPa) = 81.84930 88.99041 43.88508
#
# Poissons Ratio (x) = 0.35868 0.31964
# Poissons Ratio (y) = 0.32990 0.22975
# Poissons Ratio (z) = 0.59616 0.46588
#
# Static dielectric constant tensor:
#      x y z
#    x 1.653270 0.000000 0.000000 
#    y 0.000000 1.693360 0.000000 
#    z 0.000000 0.000000 1.667310 
# 
# From -- ./inp_files/14738.got.cif
#   From: 2010.05.17/outbox.cif.g08.bks.cpg/sg35_8_cif.got.tgz:14738.got - 2010.06.03 17:29:28.
