data_PCOD9349207
_publ_section_title
;
Structure prediction by ZEFSAII (Michael W. Deem and Ramdas Pophale) SiO2 
 PCOD9349207
Probable space group: C M M 2
;
_chemical_formula_sum "Si O2"
_cell_formula_units_Z 40
_cell_length_a 8.620039
_cell_length_b 16.003157
_cell_length_c 14.743784
_cell_angle_alpha 90.000000
_cell_angle_beta 90.000000
_cell_angle_gamma 90.000000
_cell_volume 2033.873119
_symmetry_space_group_name_H-M "C M M 2"
_symmetry_group_IT_number 35
_symmetry_cell_setting 'orthorhombic'
loop_
_space_group_symop_operation_xyz
x,y,z
-x,-y,z
-x,y,z
x,-y,z
1/2+x,1/2+y,z
1/2-x,1/2-y,z
1/2-x,1/2+y,z
1/2+x,1/2-y,z
loop_
_atom_site_type_symbol
_atom_site_label
_atom_site_fract_x
_atom_site_fract_y
_atom_site_fract_z
Si Si1 0.684208 0.663578 0.008060
Si Si2 0.813272 0.656668 0.632747
Si Si3 0.811262 0.000000 0.119294
Si Si4 0.185546 0.500000 0.322642
Si Si5 0.185659 0.845128 0.437718
Si Si6 0.185908 0.594584 0.829667
O O1 0.500000 0.666072 0.011261
O O2 0.750000 0.750000 0.045259
O O3 0.737465 0.582786 0.064393
O O4 0.736473 0.652807 0.903928
O O5 0.750000 0.750000 0.645159
O O6 0.739360 0.627098 0.538664
O O7 0.771005 0.609496 0.725109
O O8 0.000000 0.656219 0.623312
O O9 0.740000 0.000000 0.218767
O O10 0.000000 0.000000 0.125255
O O11 0.250784 0.584238 0.370051
O O12 0.000000 0.500000 0.329951
O O13 0.250000 0.750000 0.423188
O O14 0.000000 0.841430 0.433210
O O15 0.227156 0.500000 0.854346
O O16 0.000000 0.604845 0.835433
#
# Coordination Sequence:
#
# PCOD9349207 Si02
#       6
#     8   8   4   4   8   8
#     4  11  23  41  65  92 124 164 205 255 309 367
#     4  10  20  35  56  85 123 166 209 256 305 362
#     4  10  24  46  65  90 125 158 203 260 314 374
#     4  12  26  44  69  96 125 164 205 258 322 380
#     4  11  23  42  66  95 129 168 211 260 312 372
#     4  10  21  36  57  88 126 167 209 256 304 361
#
# _framework density 19.666909
#
# number of rings (size 3 to 8) (size 9 to 14) (size 15 to 20)
#    0.000    1.400    1.000    5.700    1.400    5.600 
#    0.000    2.000    0.000    0.000    0.000    0.000 
#    0.000    0.000    0.000    0.000    0.000    0.000 
#
# Total GULP energy -111758.150388 kJ/mol
# GULP energy per Si atom -5587.907519 kJ/mol
# Density = 1.962215 g / cm^3
# Si number density = 19.666909 Si / 1000 Ang^3
#
#
#
# Elastic Constant Matrix: (Units=GPa)
#
#
# Indices 1 2 3 4 5 6 
#
# 1 81.8136 52.4668 47.4552 0.0000 0.0000 0.0000
# 2 52.4668 141.7759 84.1572 0.0000 0.0000 0.0000
# 3 47.4552 84.1572 133.7963 0.0000 0.0000 0.0000
# 4 0.0000 0.0000 0.0000 13.9420 0.0000 0.0000
# 5 0.0000 0.0000 0.0000 0.0000 33.2869 0.0000
# 6 0.0000 0.0000 0.0000 0.0000 0.0000 31.8550
#
#
#
# Elastic Compliance Matrix: (Units=1/GPa)
#
#
# Indices 1 2 3 4 5 6 
#
# 1 0.016885 -0.004299 -0.003285 0.000000 0.000000 0.000000
# 2 -0.004299 0.012350 -0.006244 0.000000 0.000000 0.000000
# 3 -0.003285 -0.006244 0.012566 0.000000 0.000000 0.000000
# 4 0.000000 0.000000 0.000000 0.071726 0.000000 0.000000
# 5 0.000000 0.000000 0.000000 0.000000 0.030042 0.000000
# 6 0.000000 0.000000 0.000000 0.000000 0.000000 0.031392
#
#
# Mechanical properties :
#
#
# Convention : Reuss Voigt Hill
#
# Bulk Modulus (GPa) = 70.68539 80.61601 75.65070
# Shear Modulus (GPa) = 24.11590 27.37055 25.74322
#
# Velocity S-wave (km/s) = 3.50554 3.73460 3.62188
# Velocity P-wave (km/s) = 7.23909 7.72503 7.48600
#
# Compressibility (1/GPa) = 0.01414719
#
# Stress axis : x y z
#
# Youngs Moduli (GPa) = 59.22392 80.96906 79.57720
#
# Poissons Ratio (x) = 0.34806 0.26141
# Poissons Ratio (y) = 0.25459 0.49685
# Poissons Ratio (z) = 0.19455 0.50554
#
# Static dielectric constant tensor:
#      x y z
#    x 1.661870 0.000000 0.000000 
#    y 0.000000 1.688490 0.000000 
#    z 0.000000 0.000000 1.679470 
# 
# From -- ./inp_files/14765.got.cif
#   From: 2010.05.17/outbox.cif.g08.bks.cpg/sg35_8_cif.got.tgz:14765.got - 2010.06.03 17:29:28.
