data_PCOD9349998
_publ_section_title
;
Structure prediction by ZEFSAII (Michael W. Deem and Ramdas Pophale) SiO2 
 PCOD9349998
Probable space group: C M M 2
;
_chemical_formula_sum "Si O2"
_cell_formula_units_Z 40
_cell_length_a 23.616630
_cell_length_b 8.630905
_cell_length_c 10.392129
_cell_angle_alpha 90.000000
_cell_angle_beta 90.000000
_cell_angle_gamma 90.000000
_cell_volume 2118.257687
_symmetry_space_group_name_H-M "C M M 2"
_symmetry_group_IT_number 35
_symmetry_cell_setting 'orthorhombic'
loop_
_space_group_symop_operation_xyz
x,y,z
-x,-y,z
-x,y,z
x,-y,z
1/2+x,1/2+y,z
1/2-x,1/2-y,z
1/2-x,1/2+y,z
1/2+x,1/2-y,z
loop_
_atom_site_type_symbol
_atom_site_label
_atom_site_fract_x
_atom_site_fract_y
_atom_site_fract_z
Si Si1 0.382355 0.814100 0.226750
Si Si2 0.186042 0.314026 0.480215
Si Si3 0.879280 0.814422 0.726462
Si Si4 0.000000 0.185058 0.137065
Si Si5 0.187330 0.685548 0.969486
Si Si6 0.500000 0.688589 0.836880
O O1 0.346181 0.762410 0.350126
O O2 0.444106 0.742099 0.209829
O O3 0.388311 0.000000 0.235041
O O4 0.348126 0.777507 0.097086
O O5 0.189434 0.500000 0.479979
O O6 0.250000 0.250000 0.487282
O O7 0.148490 0.259310 0.600537
O O8 0.841487 0.765143 0.847610
O O9 0.943168 0.763073 0.762362
O O10 0.879193 0.000000 0.712639
O O11 0.000000 0.241128 0.986820
O O12 0.000000 0.000000 0.132636
O O13 0.188117 0.500000 0.951976
O O14 0.250000 0.750000 0.984725
O O15 0.500000 0.500000 0.840550
#
# Coordination Sequence:
#
# PCOD9349998 Si02
#       6
#     8   8   8   4   8   4
#     4  10  23  41  62  89 124 161 201 251 306 363
#     4  11  24  43  63  89 124 163 206 251 305 363
#     4  11  22  40  63  89 123 160 202 252 304 360
#     4  11  21  38  65  94 124 160 203 251 304 359
#     4  11  22  37  59  88 118 157 204 252 306 361
#     4   9  20  38  61  90 122 156 199 251 298 353
#
# _framework density 18.883444999999998
#
# number of rings (size 3 to 8) (size 9 to 14) (size 15 to 20)
#    0.000    1.400    2.000    3.300    0.000    3.200 
#    0.000    4.000    0.000    0.000    0.000    0.000 
#    0.000    0.000    0.000    0.000    0.000    0.000 
#
# Total GULP energy -111789.640323 kJ/mol
# GULP energy per Si atom -5589.482016 kJ/mol
# Density = 1.884047 g / cm^3
# Si number density = 18.883445 Si / 1000 Ang^3
#
#
#
# Elastic Constant Matrix: (Units=GPa)
#
#
# Indices 1 2 3 4 5 6 
#
# 1 142.8429 25.2535 41.2277 0.0000 0.0000 0.0000
# 2 25.2535 28.1686 27.6111 0.0000 0.0000 0.0000
# 3 41.2277 27.6111 118.2723 0.0000 0.0000 0.0000
# 4 0.0000 0.0000 0.0000 -66.1939 0.0000 0.0000
# 5 0.0000 0.0000 0.0000 0.0000 43.3696 0.0000
# 6 0.0000 0.0000 0.0000 0.0000 0.0000 87.6526
#
#
#
# Elastic Compliance Matrix: (Units=1/GPa)
#
#
# Indices 1 2 3 4 5 6 
#
# 1 0.008530 -0.006137 -0.001541 0.000000 0.000000 0.000000
# 2 -0.006137 0.050450 -0.009638 0.000000 0.000000 0.000000
# 3 -0.001541 -0.009638 0.011242 0.000000 0.000000 0.000000
# 4 0.000000 0.000000 0.000000 -0.015107 0.000000 0.000000
# 5 0.000000 0.000000 0.000000 0.000000 0.023058 0.000000
# 6 0.000000 0.000000 0.000000 0.000000 0.000000 0.011409
#
#
# Mechanical properties :
#
#
# Convention : Reuss Voigt Hill
#
# Bulk Modulus (GPa) = 28.09782 53.05206 40.57494
# Shear Modulus (GPa) = 36.74343 25.97843 31.36093
#
# Velocity S-wave (km/s) = 4.41591 3.71310 4.07967
# Velocity P-wave (km/s) = 6.39627 6.82190 6.61251
#
# Compressibility (1/GPa) = 0.03558995
#
# Stress axis : x y z
#
# Youngs Moduli (GPa) = 117.22733 19.82145 88.94987
#
# Poissons Ratio (x) = 0.12165 0.13705
# Poissons Ratio (y) = 0.71946 0.85734
# Poissons Ratio (z) = 0.18062 0.19105
#
# Static dielectric constant tensor:
#      x y z
#    x 1.626540 0.000000 0.000000 
#    y 0.000000 1.640520 0.000000 
#    z 0.000000 0.000000 1.632020 
# 
# From -- ./inp_files/13816.got.cif
#   From: 2010.05.17/outbox.cif.g08.bks.cpg/sg35_7_cif.got.tgz:13816.got - 2010.06.03 17:29:28.
