data_PCOD9349152
_publ_section_title
;
Structure prediction by ZEFSAII (Michael W. Deem and Ramdas Pophale) SiO2 
 PCOD9349152
Probable space group: C M M 2
;
_chemical_formula_sum "Si O2"
_cell_formula_units_Z 48
_cell_length_a 8.607947
_cell_length_b 18.821075
_cell_length_c 15.940364
_cell_angle_alpha 90.000000
_cell_angle_beta 90.000000
_cell_angle_gamma 90.000000
_cell_volume 2582.511380
_symmetry_space_group_name_H-M "C M M 2"
_symmetry_group_IT_number 35
_symmetry_cell_setting 'orthorhombic'
loop_
_space_group_symop_operation_xyz
x,y,z
-x,-y,z
-x,y,z
x,-y,z
1/2+x,1/2+y,z
1/2-x,1/2-y,z
1/2-x,1/2+y,z
1/2+x,1/2-y,z
loop_
_atom_site_type_symbol
_atom_site_label
_atom_site_fract_x
_atom_site_fract_y
_atom_site_fract_z
Si Si1 0.187043 0.329910 0.592320
Si Si2 0.185645 0.669726 0.276682
Si Si3 0.812897 0.829594 0.097423
Si Si4 0.687091 0.082323 0.755827
Si Si5 0.812888 0.082202 0.934590
Si Si6 0.186599 0.916895 0.433804
O O1 0.250000 0.250000 0.588895
O O2 0.237001 0.369143 0.678206
O O3 0.248838 0.375008 0.513996
O O4 0.000000 0.328597 0.589571
O O5 0.250000 0.750000 0.288466
O O6 0.246296 0.643823 0.186060
O O7 0.246617 0.620130 0.350775
O O8 0.000000 0.672539 0.276752
O O9 0.750000 0.750000 0.087287
O O10 0.000000 0.828947 0.102347
O O11 0.763997 0.874720 0.016593
O O12 0.500000 0.082035 0.757538
O O13 0.747512 0.108449 0.845814
O O14 0.738997 0.000000 0.744508
O O15 0.000000 0.084638 0.930629
O O16 0.764620 0.000000 0.943070
O O17 0.000000 0.911803 0.432667
O O18 0.230007 0.000000 0.437716
#
# Coordination Sequence:
#
# PCOD9349152 Si02
#       6
#     8   8   8   8   8   8
#     4  11  23  39  59  84 115 148 186 230 277 330
#     4  11  22  38  60  84 113 148 187 230 278 331
#     4  10  20  35  55  80 111 146 185 228 276 328
#     4   9  19  36  57  80 108 144 184 228 277 327
#     4   9  19  35  55  79 108 144 184 227 275 327
#     4  11  24  41  61  85 113 146 184 227 277 332
#
# _framework density 18.586559999999999
#
# number of rings (size 3 to 8) (size 9 to 14) (size 15 to 20)
#    0.000    1.833    0.000    5.000    0.000    6.000 
#    0.000    6.667    0.000    0.000    0.000    0.000 
#    0.000    0.000    0.000    0.000    0.000    0.000 
#
# Total GULP energy -134082.311620 kJ/mol
# GULP energy per Si atom -5586.762984 kJ/mol
# Density = 1.854426 g / cm^3
# Si number density = 18.586560 Si / 1000 Ang^3
#
#
#
# Elastic Constant Matrix: (Units=GPa)
#
#
# Indices 1 2 3 4 5 6 
#
# 1 67.5062 45.1246 57.8589 0.0000 0.0000 0.0000
# 2 45.1246 112.8072 117.3015 0.0000 0.0000 0.0000
# 3 57.8589 117.3015 230.2723 0.0000 0.0000 0.0000
# 4 0.0000 0.0000 0.0000 42.5330 0.0000 0.0000
# 5 0.0000 0.0000 0.0000 0.0000 37.7454 0.0000
# 6 0.0000 0.0000 0.0000 0.0000 0.0000 23.9550
#
#
#
# Elastic Compliance Matrix: (Units=1/GPa)
#
#
# Indices 1 2 3 4 5 6 
#
# 1 0.020682 -0.006101 -0.002089 0.000000 0.000000 0.000000
# 2 -0.006101 0.020649 -0.008986 0.000000 0.000000 0.000000
# 3 -0.002089 -0.008986 0.009445 0.000000 0.000000 0.000000
# 4 0.000000 0.000000 0.000000 0.023511 0.000000 0.000000
# 5 0.000000 0.000000 0.000000 0.000000 0.026493 0.000000
# 6 0.000000 0.000000 0.000000 0.000000 0.000000 0.041745
#
#
# Mechanical properties :
#
#
# Convention : Reuss Voigt Hill
#
# Bulk Modulus (GPa) = 60.88404 94.57286 77.72845
# Shear Modulus (GPa) = 27.41969 33.53342 30.47655
#
# Velocity S-wave (km/s) = 3.84506 4.25217 4.05373
# Velocity P-wave (km/s) = 7.24850 8.66607 7.98879
#
# Compressibility (1/GPa) = 0.01642466
#
# Stress axis : x y z
#
# Youngs Moduli (GPa) = 48.35127 48.42882 105.87890
#
# Poissons Ratio (x) = 0.29548 0.22114
# Poissons Ratio (y) = 0.29501 0.95138
# Poissons Ratio (z) = 0.10099 0.43516
#
# Static dielectric constant tensor:
#      x y z
#    x 1.627750 0.000000 0.000000 
#    y 0.000000 1.622390 0.000000 
#    z 0.000000 0.000000 1.626650 
# 
# From -- ./inp_files/15143.got.cif
#   From: 2010.05.17/outbox.cif.g08.bks.cpg/sg35_8_cif.got.tgz:15143.got - 2010.06.03 17:29:28.
