data_PCOD9349622
_publ_section_title
;
Structure prediction by ZEFSAII (Michael W. Deem and Ramdas Pophale) SiO2 
 PCOD9349622
Probable space group: C M M 2
;
_chemical_formula_sum "Si O2"
_cell_formula_units_Z 56
_cell_length_a 7.809605
_cell_length_b 18.991244
_cell_length_c 18.996981
_cell_angle_alpha 90.000000
_cell_angle_beta 90.000000
_cell_angle_gamma 90.000000
_cell_volume 2817.520408
_symmetry_space_group_name_H-M "C M M 2"
_symmetry_group_IT_number 35
_symmetry_cell_setting 'orthorhombic'
loop_
_space_group_symop_operation_xyz
x,y,z
-x,-y,z
-x,y,z
x,-y,z
1/2+x,1/2+y,z
1/2-x,1/2-y,z
1/2-x,1/2+y,z
1/2+x,1/2-y,z
loop_
_atom_site_type_symbol
_atom_site_label
_atom_site_fract_x
_atom_site_fract_y
_atom_site_fract_z
Si Si1 0.705157 0.080233 0.240630
Si Si2 0.290725 0.417632 0.934912
Si Si3 0.203908 0.168085 0.800127
Si Si4 0.293438 0.168138 0.529740
Si Si5 0.705349 0.079715 0.662296
Si Si6 0.793659 0.668430 0.372815
Si Si7 0.705730 0.581810 0.089002
O O1 0.500000 0.076571 0.247198
O O2 0.772311 0.123120 0.307411
O O3 0.740313 0.113165 0.163762
O O4 0.772841 0.000000 0.241433
O O5 0.500000 0.416936 0.934392
O O6 0.241426 0.500000 0.926696
O O7 0.228201 0.370420 0.870445
O O8 0.236258 0.391039 0.012608
O O9 0.250000 0.250000 0.797040
O O10 0.260505 0.126139 0.730997
O O11 0.000000 0.163316 0.802755
O O12 0.500000 0.163101 0.528982
O O13 0.250000 0.250000 0.542382
O O14 0.227937 0.119287 0.592644
O O15 0.231304 0.148422 0.451224
O O16 0.500000 0.075373 0.654909
O O17 0.771839 0.000000 0.669605
O O18 0.750000 0.750000 0.362346
O O19 0.000000 0.661824 0.373804
O O20 0.500000 0.582078 0.088305
O O21 0.763817 0.500000 0.090527
#
# Coordination Sequence:
#
# PCOD9349622 Si02
#       7
#     8   8   8   8   8   8   8
#     4   9  17  29  46  70  98 125 157 199 244 288
#     4   8  15  30  52  74  94 122 163 205 243 289
#     4  11  22  36  54  75 102 135 169 204 246 296
#     4   9  18  33  52  72  96 129 165 200 241 289
#     4  10  21  36  54  78 105 130 162 205 249 295
#     4   9  18  32  49  69  95 129 165 199 238 286
#     4   8  14  27  48  71  94 123 160 199 240 288
#
# _framework density 19.875632
#
# number of rings (size 3 to 8) (size 9 to 14) (size 15 to 20)
#    0.000    2.857    0.000    2.143    0.000    3.714 
#    0.000    5.000    0.000    6.857    0.000    6.000 
#    0.000    0.000    0.000    0.000    0.000    0.000 
#
# Total GULP energy -156089.345553 kJ/mol
# GULP energy per Si atom -5574.619484 kJ/mol
# Density = 1.983039 g / cm^3
# Si number density = 19.875632 Si / 1000 Ang^3
#
#
#
# Elastic Constant Matrix: (Units=GPa)
#
#
# Indices 1 2 3 4 5 6 
#
# 1 23.6960 3.0265 9.0702 0.0000 0.0000 0.0000
# 2 3.0265 105.6157 116.1271 0.0000 0.0000 0.0000
# 3 9.0702 116.1271 241.0479 0.0000 0.0000 0.0000
# 4 0.0000 0.0000 0.0000 -120.4599 0.0000 0.0000
# 5 0.0000 0.0000 0.0000 0.0000 20.8127 0.0000
# 6 0.0000 0.0000 0.0000 0.0000 0.0000 11.1946
#
#
#
# Elastic Compliance Matrix: (Units=1/GPa)
#
#
# Indices 1 2 3 4 5 6 
#
# 1 0.042885 0.001160 -0.002172 0.000000 0.000000 0.000000
# 2 0.001160 0.020164 -0.009758 0.000000 0.000000 0.000000
# 3 -0.002172 -0.009758 0.008931 0.000000 0.000000 0.000000
# 4 0.000000 0.000000 0.000000 -0.008302 0.000000 0.000000
# 5 0.000000 0.000000 0.000000 0.000000 0.048048 0.000000
# 6 0.000000 0.000000 0.000000 0.000000 0.000000 0.089329
#
#
# Mechanical properties :
#
#
# Convention : Reuss Voigt Hill
#
# Bulk Modulus (GPa) = 19.82602 69.64526 44.73564
# Shear Modulus (GPa) = 20.88479 -1.54812 9.66834
#
# Velocity S-wave (km/s) = 3.24508 -0.88351 2.20794
# Velocity P-wave (km/s) = 4.90280 5.83745 5.39042
#
# Compressibility (1/GPa) = 0.05043877
#
# Stress axis : x y z
#
# Youngs Moduli (GPa) = 23.31839 49.59315 111.96660
#
# Poissons Ratio (x) = -0.05751 0.24323
# Poissons Ratio (y) = -0.02704 1.09255
# Poissons Ratio (z) = 0.05066 0.48392
#
# Static dielectric constant tensor:
#      x y z
#    x 1.731720 0.000000 0.000000 
#    y 0.000000 1.704820 0.000000 
#    z 0.000000 0.000000 1.737600 
# 
# From -- ./inp_files/18228.got.cif
#   From: 2010.05.17/outbox.cif.g08.bks.cpg/sg35_10_cif.got.tgz:18228.got - 2010.06.03 17:29:28.
