data_PCOD9349105
_publ_section_title
;
Structure prediction by ZEFSAII (Michael W. Deem and Ramdas Pophale) SiO2 
 PCOD9349105
Probable space group: C M M 2
;
_chemical_formula_sum "Si O2"
_cell_formula_units_Z 64
_cell_length_a 20.113870
_cell_length_b 19.191232
_cell_length_c 9.568352
_cell_angle_alpha 90.000000
_cell_angle_beta 90.000000
_cell_angle_gamma 90.000000
_cell_volume 3693.479035
_symmetry_space_group_name_H-M "C M M 2"
_symmetry_group_IT_number 35
_symmetry_cell_setting 'orthorhombic'
loop_
_space_group_symop_operation_xyz
x,y,z
-x,-y,z
-x,y,z
x,-y,z
1/2+x,1/2+y,z
1/2-x,1/2-y,z
1/2-x,1/2+y,z
1/2+x,1/2-y,z
loop_
_atom_site_type_symbol
_atom_site_label
_atom_site_fract_x
_atom_site_fract_y
_atom_site_fract_z
Si Si1 0.211896 0.822619 0.632650
Si Si2 0.425533 0.263879 0.587166
Si Si3 0.577364 0.679930 0.277691
Si Si4 0.695722 0.417688 0.362553
Si Si5 0.712917 0.923656 0.829389
Si Si6 0.317650 0.078865 0.152397
Si Si7 0.574599 0.864042 0.779030
Si Si8 0.922726 0.306535 0.087521
O O1 0.250000 0.750000 0.602787
O O2 0.134687 0.805196 0.657215
O O3 0.213236 0.874969 0.501956
O O4 0.246782 0.861534 0.759960
O O5 0.500000 0.288701 0.623998
O O6 0.417789 0.274071 0.420711
O O7 0.420574 0.185506 0.644294
O O8 0.500000 0.657437 0.266358
O O9 0.629814 0.617963 0.297416
O O10 0.593860 0.730494 0.148088
O O11 0.685577 0.500000 0.388059
O O12 0.758257 0.409400 0.259804
O O13 0.635936 0.916144 0.783117
O O14 0.738508 0.000000 0.788127
O O15 0.712225 0.918106 0.996239
O O16 0.375037 0.136310 0.156971
O O17 0.344047 0.000000 0.172119
O O18 0.500000 0.894287 0.785434
O O19 0.582649 0.816837 0.919941
O O20 0.000000 0.319095 0.124062
#
# Coordination Sequence:
#
# PCOD9349105 Si02
#       8
#     8   8   8   8   8   8   8   8
#     4  11  21  34  54  81 104 133 177 213 257 311
#     4   9  18  33  51  72 103 132 164 211 255 298
#     4   9  19  34  53  76  99 131 172 218 261 302
#     4  10  22  37  53  76 105 138 171 212 262 311
#     4  10  20  35  52  75 108 140 171 214 258 306
#     4   9  20  35  51  74 107 142 174 208 257 312
#     4   9  17  31  50  75 105 136 170 209 253 307
#     4   9  18  31  50  76 104 134 174 214 253 300
#
# _framework density 17.327836999999999
#
# number of rings (size 3 to 8) (size 9 to 14) (size 15 to 20)
#    0.000    2.500    1.250    0.375    3.500    1.750 
#    0.000    2.500    0.000    1.125    0.000    7.000 
#    0.000    5.000    0.000    0.000    0.000    0.000 
#
# Total GULP energy -178302.739092 kJ/mol
# GULP energy per Si atom -5571.960597 kJ/mol
# Density = 1.728840 g / cm^3
# Si number density = 17.327837 Si / 1000 Ang^3
#
#
#
# Elastic Constant Matrix: (Units=GPa)
#
#
# Indices 1 2 3 4 5 6 
#
# 1 56.2501 33.1120 17.5030 0.0000 0.0000 0.0000
# 2 33.1120 93.3035 27.3688 0.0000 0.0000 0.0000
# 3 17.5030 27.3688 17.4950 0.0000 0.0000 0.0000
# 4 0.0000 0.0000 0.0000 21.6297 0.0000 0.0000
# 5 0.0000 0.0000 0.0000 0.0000 20.9511 0.0000
# 6 0.0000 0.0000 0.0000 0.0000 0.0000 21.0929
#
#
#
# Elastic Compliance Matrix: (Units=1/GPa)
#
#
# Indices 1 2 3 4 5 6 
#
# 1 0.026255 -0.002980 -0.021605 0.000000 0.000000 0.000000
# 2 -0.002980 0.020145 -0.028533 0.000000 0.000000 0.000000
# 3 -0.021605 -0.028533 0.123410 0.000000 0.000000 0.000000
# 4 0.000000 0.000000 0.000000 0.046233 0.000000 0.000000
# 5 0.000000 0.000000 0.000000 0.000000 0.047730 0.000000
# 6 0.000000 0.000000 0.000000 0.000000 0.000000 0.047409
#
#
# Mechanical properties :
#
#
# Convention : Reuss Voigt Hill
#
# Bulk Modulus (GPa) = 15.72962 35.89068 25.81015
# Shear Modulus (GPa) = 11.39969 18.67240 15.03605
#
# Velocity S-wave (km/s) = 2.56771 3.28624 2.94894
# Velocity P-wave (km/s) = 4.22944 5.92932 5.15000
#
# Compressibility (1/GPa) = 0.06357433
#
# Stress axis : x y z
#
# Youngs Moduli (GPa) = 38.08854 49.64066 8.10306
#
# Poissons Ratio (x) = 0.14793 0.17507
# Poissons Ratio (y) = 0.11350 0.23120
# Poissons Ratio (z) = 0.82290 1.41638
#
# Static dielectric constant tensor:
#      x y z
#    x 1.592290 0.000000 0.000000 
#    y 0.000000 1.578470 0.000000 
#    z 0.000000 0.000000 1.588870 
# 
# From -- ./inp_files/8768.got.cif
#   From: 2010.05.17/outbox.cif.g08.bks.cpg/sg35_5_cif.got.tgz:8768.got - 2010.06.03 17:29:28.
