data_PCOD9349368
_publ_section_title
;
Structure prediction by ZEFSAII (Michael W. Deem and Ramdas Pophale) SiO2 
 PCOD9349368
Probable space group: C M M 2
;
_chemical_formula_sum "Si O2"
_cell_formula_units_Z 48
_cell_length_a 8.599167
_cell_length_b 15.828200
_cell_length_c 17.974150
_cell_angle_alpha 90.000000
_cell_angle_beta 90.000000
_cell_angle_gamma 90.000000
_cell_volume 2446.449606
_symmetry_space_group_name_H-M "C M M 2"
_symmetry_group_IT_number 35
_symmetry_cell_setting 'orthorhombic'
loop_
_space_group_symop_operation_xyz
x,y,z
-x,-y,z
-x,y,z
x,-y,z
1/2+x,1/2+y,z
1/2-x,1/2-y,z
1/2-x,1/2+y,z
1/2+x,1/2-y,z
loop_
_atom_site_type_symbol
_atom_site_label
_atom_site_fract_x
_atom_site_fract_y
_atom_site_fract_z
Si Si1 0.313919 0.346040 0.473930
Si Si2 0.183038 0.656144 0.628424
Si Si3 0.186135 0.346797 0.099609
Si Si4 0.173592 0.900766 0.780161
Si Si5 0.810799 0.000000 0.370481
Si Si6 0.687503 0.655317 0.942601
Si Si7 0.687640 0.500000 0.197604
O O1 0.500000 0.340126 0.472055
O O2 0.250000 0.250000 0.464318
O O3 0.263328 0.381404 0.554977
O O4 0.260374 0.414446 0.412915
O O5 0.250000 0.750000 0.630457
O O6 0.224537 0.620397 0.708916
O O7 0.000000 0.655539 0.616598
O O8 0.250000 0.250000 0.109789
O O9 0.248386 0.414995 0.158551
O O10 0.000000 0.342487 0.101194
O O11 0.242218 0.380738 0.018584
O O12 0.235600 0.878913 0.861947
O O13 0.000000 0.860793 0.771809
O O14 0.155474 0.000000 0.779807
O O15 0.766300 0.000000 0.284314
O O16 0.000000 0.000000 0.373527
O O17 0.500000 0.650422 0.946933
O O18 0.750000 0.750000 0.943032
O O19 0.500000 0.500000 0.191975
#
# Coordination Sequence:
#
# PCOD9349368 Si02
#       7
#     8   8   8   8   4   8   4
#     4  10  20  39  63  90 120 158 200 246 299 360
#     4  11  22  37  57  83 113 153 198 244 294 347
#     4  11  23  41  64  94 126 165 208 253 307 366
#     4  10  22  37  54  81 116 156 197 241 295 349
#     4   9  22  41  65  92 121 158 197 239 304 369
#     4  10  20  36  59  84 113 155 200 247 298 353
#     4  11  23  43  67  94 127 162 201 251 308 373
#
# _framework density 19.620269
#
# number of rings (size 3 to 8) (size 9 to 14) (size 15 to 20)
#    0.000    1.667    0.000    6.750    2.333    3.667 
#    0.000    6.250    0.000    0.000    0.000    0.000 
#    0.000    0.000    0.000    0.000    0.000    0.000 
#
# Total GULP energy -133898.592345 kJ/mol
# GULP energy per Si atom -5579.108014 kJ/mol
# Density = 1.957561 g / cm^3
# Si number density = 19.620269 Si / 1000 Ang^3
#
#
#
# Elastic Constant Matrix: (Units=GPa)
#
#
# Indices 1 2 3 4 5 6 
#
# 1 92.2048 33.4115 57.9787 0.0000 0.0000 0.0000
# 2 33.4115 86.5933 82.0848 0.0000 0.0000 0.0000
# 3 57.9787 82.0848 194.7855 0.0000 0.0000 0.0000
# 4 0.0000 0.0000 0.0000 44.6063 0.0000 0.0000
# 5 0.0000 0.0000 0.0000 0.0000 36.8777 0.0000
# 6 0.0000 0.0000 0.0000 0.0000 0.0000 23.8170
#
#
#
# Elastic Compliance Matrix: (Units=1/GPa)
#
#
# Indices 1 2 3 4 5 6 
#
# 1 0.013625 -0.002352 -0.003064 0.000000 0.000000 0.000000
# 2 -0.002352 0.019636 -0.007575 0.000000 0.000000 0.000000
# 3 -0.003064 -0.007575 0.009238 0.000000 0.000000 0.000000
# 4 0.000000 0.000000 0.000000 0.022418 0.000000 0.000000
# 5 0.000000 0.000000 0.000000 0.000000 0.027117 0.000000
# 6 0.000000 0.000000 0.000000 0.000000 0.000000 0.041987
#
#
# Mechanical properties :
#
#
# Convention : Reuss Voigt Hill
#
# Bulk Modulus (GPa) = 60.54609 80.05929 70.30269
# Shear Modulus (GPa) = 30.20993 34.40077 32.30535
#
# Velocity S-wave (km/s) = 3.92820 4.19182 4.06215
# Velocity P-wave (km/s) = 7.17637 8.02006 7.60992
#
# Compressibility (1/GPa) = 0.01651634
#
# Stress axis : x y z
#
# Youngs Moduli (GPa) = 73.39696 50.92616 108.24882
#
# Poissons Ratio (x) = 0.11980 0.33168
# Poissons Ratio (y) = 0.17266 0.81996
# Poissons Ratio (z) = 0.22489 0.38575
#
# Static dielectric constant tensor:
#      x y z
#    x 1.693590 0.000000 0.000000 
#    y 0.000000 1.669400 0.000000 
#    z 0.000000 0.000000 1.795200 
# 
# From -- ./inp_files/15253.got.cif
#   From: 2010.05.17/outbox.cif.g08.bks.cpg/sg35_8_cif.got.tgz:15253.got - 2010.06.03 17:29:28.
