data_PCOD9349355
_publ_section_title
;
Structure prediction by ZEFSAII (Michael W. Deem and Ramdas Pophale) SiO2 
 PCOD9349355
Probable space group: C M M 2
;
_chemical_formula_sum "Si O2"
_cell_formula_units_Z 48
_cell_length_a 8.934434
_cell_length_b 15.596746
_cell_length_c 17.684696
_cell_angle_alpha 90.000000
_cell_angle_beta 90.000000
_cell_angle_gamma 90.000000
_cell_volume 2464.328747
_symmetry_space_group_name_H-M "C M M 2"
_symmetry_group_IT_number 35
_symmetry_cell_setting 'orthorhombic'
loop_
_space_group_symop_operation_xyz
x,y,z
-x,-y,z
-x,y,z
x,-y,z
1/2+x,1/2+y,z
1/2-x,1/2-y,z
1/2-x,1/2+y,z
1/2+x,1/2-y,z
loop_
_atom_site_type_symbol
_atom_site_label
_atom_site_fract_x
_atom_site_fract_y
_atom_site_fract_z
Si Si1 0.821940 0.343708 0.755740
Si Si2 0.332960 0.398924 0.604998
Si Si3 0.672277 0.895679 0.453904
Si Si4 0.820111 0.345568 0.927446
Si Si5 0.679183 0.339800 0.299132
Si Si6 0.181618 0.000000 0.197961
Si Si7 0.819073 0.000000 0.022266
O O1 0.750000 0.250000 0.754017
O O2 0.748849 0.390357 0.684901
O O3 0.791952 0.376371 0.840709
O O4 0.000000 0.340400 0.746011
O O5 0.500000 0.360895 0.608452
O O6 0.347332 0.500000 0.590557
O O7 0.239081 0.365103 0.533927
O O8 0.500000 0.868679 0.446255
O O9 0.767135 0.861795 0.383704
O O10 0.675690 0.000000 0.451854
O O11 0.750000 0.250000 0.936107
O O12 0.000000 0.340613 0.937709
O O13 0.747008 0.415218 0.982423
O O14 0.500000 0.334992 0.297509
O O15 0.750000 0.250000 0.275834
O O16 0.730474 0.415973 0.243718
O O17 0.225008 0.000000 0.110558
O O18 0.000000 0.000000 0.199726
O O19 0.000000 0.000000 0.016416
#
# Coordination Sequence:
#
# PCOD9349355 Si02
#       7
#     8   8   8   8   8   4   4
#     4  10  21  37  57  80 114 154 197 248 300 350
#     4  10  21  35  54  83 117 156 200 243 294 350
#     4  10  20  36  58  85 118 156 201 250 300 352
#     4  10  22  41  63  92 126 164 207 256 309 365
#     4  11  22  40  64  91 122 159 201 246 300 360
#     4   9  22  43  65  90 125 160 195 245 304 363
#     4  11  23  41  67  96 125 162 203 247 308 375
#
# _framework density 19.477920000000001
#
# number of rings (size 3 to 8) (size 9 to 14) (size 15 to 20)
#    0.000    1.833    0.833    2.750    1.167    5.000 
#    0.000    8.333    0.000    0.000    0.000    0.000 
#    0.000    0.000    0.000    0.000    0.000    0.000 
#
# Total GULP energy -134037.064748 kJ/mol
# GULP energy per Si atom -5584.877698 kJ/mol
# Density = 1.943359 g / cm^3
# Si number density = 19.477920 Si / 1000 Ang^3
#
#
#
# Elastic Constant Matrix: (Units=GPa)
#
#
# Indices 1 2 3 4 5 6 
#
# 1 109.6740 47.5232 68.3357 0.0000 0.0000 0.0000
# 2 47.5232 94.3971 71.9376 0.0000 0.0000 0.0000
# 3 68.3357 71.9376 160.3354 0.0000 0.0000 0.0000
# 4 0.0000 0.0000 0.0000 -50.8000 0.0000 0.0000
# 5 0.0000 0.0000 0.0000 0.0000 1.9663 0.0000
# 6 0.0000 0.0000 0.0000 0.0000 0.0000 32.2547
#
#
#
# Elastic Compliance Matrix: (Units=1/GPa)
#
#
# Indices 1 2 3 4 5 6 
#
# 1 0.013163 -0.003573 -0.004007 0.000000 0.000000 0.000000
# 2 -0.003573 0.017068 -0.006135 0.000000 0.000000 0.000000
# 3 -0.004007 -0.006135 0.010697 0.000000 0.000000 0.000000
# 4 0.000000 0.000000 0.000000 -0.019685 0.000000 0.000000
# 5 0.000000 0.000000 0.000000 0.000000 0.508562 0.000000
# 6 0.000000 0.000000 0.000000 0.000000 0.000000 0.031003
#
#
# Mechanical properties :
#
#
# Convention : Reuss Voigt Hill
#
# Bulk Modulus (GPa) = 74.08554 82.22217 78.15385
# Shear Modulus (GPa) = 8.43545 8.45822 8.44683
#
# Velocity S-wave (km/s) = 2.08331 2.08612 2.08471
# Velocity P-wave (km/s) = 6.62609 6.93593 6.78278
#
# Compressibility (1/GPa) = 0.01349791
#
# Stress axis : x y z
#
# Youngs Moduli (GPa) = 75.97145 58.59057 93.48240
#
# Poissons Ratio (x) = 0.20935 0.37458
# Poissons Ratio (y) = 0.27145 0.57350
# Poissons Ratio (z) = 0.30441 0.35944
#
# Static dielectric constant tensor:
#      x y z
#    x 1.668670 0.000000 0.000000 
#    y 0.000000 1.679700 0.000000 
#    z 0.000000 0.000000 1.668590 
# 
# From -- ./inp_files/15261.got.cif
#   From: 2010.05.17/outbox.cif.g08.bks.cpg/sg35_8_cif.got.tgz:15261.got - 2010.06.03 17:29:28.
