data_PCOD9349253
_publ_section_title
;
Structure prediction by ZEFSAII (Michael W. Deem and Ramdas Pophale) SiO2 
 PCOD9349253
Probable space group: C M M 2
;
_chemical_formula_sum "Si O2"
_cell_formula_units_Z 40
_cell_length_a 7.915756
_cell_length_b 16.030653
_cell_length_c 14.969715
_cell_angle_alpha 90.000000
_cell_angle_beta 90.000000
_cell_angle_gamma 90.000000
_cell_volume 1899.578058
_symmetry_space_group_name_H-M "C M M 2"
_symmetry_group_IT_number 35
_symmetry_cell_setting 'orthorhombic'
loop_
_space_group_symop_operation_xyz
x,y,z
-x,-y,z
-x,y,z
x,-y,z
1/2+x,1/2+y,z
1/2-x,1/2-y,z
1/2-x,1/2+y,z
1/2+x,1/2-y,z
loop_
_atom_site_type_symbol
_atom_site_label
_atom_site_fract_x
_atom_site_fract_y
_atom_site_fract_z
Si Si1 0.796407 0.159095 0.882940
Si Si2 0.298357 0.658352 0.457532
Si Si3 0.695876 0.000000 0.575288
Si Si4 0.205359 0.098454 0.268086
Si Si5 0.198471 0.000000 0.776181
Si Si6 0.794634 0.098429 0.072475
O O1 0.750000 0.250000 0.848959
O O2 0.731366 0.083686 0.821667
O O3 0.000000 0.154998 0.885739
O O4 0.733402 0.145782 0.984698
O O5 0.500000 0.652578 0.454756
O O6 0.250000 0.750000 0.490553
O O7 0.237085 0.582134 0.517938
O O8 0.232243 0.645493 0.355963
O O9 0.500000 0.000000 0.596485
O O10 0.787415 0.000000 0.670162
O O11 0.265450 0.127439 0.170302
O O12 0.000000 0.103417 0.267436
O O13 0.246580 0.000000 0.276991
O O14 0.000000 0.000000 0.798847
O O15 0.000000 0.103031 0.073318
O O16 0.753488 0.000000 0.063410
#
# Coordination Sequence:
#
# PCOD9349253 Si02
#       6
#     8   8   4   8   4   8
#     4  10  20  35  58  87 116 150 190 234 283 340
#     4  11  22  39  62  91 123 158 198 242 293 351
#     4  12  26  44  65  88 114 150 195 250 309 360
#     4   8  14  27  52  84 116 154 195 234 278 334
#     4  10  22  42  63  82 110 150 193 238 293 356
#     4   8  13  26  51  82 114 152 196 230 268 334
#
# _framework density 21.057309
#
# number of rings (size 3 to 8) (size 9 to 14) (size 15 to 20)
#    0.000    2.400    2.000    2.700    0.000    2.400 
#    0.000    2.000    0.000    1.200    0.000    0.000 
#    0.000    0.000    0.000    0.000    0.000    0.000 
#
# Total GULP energy -111641.441344 kJ/mol
# GULP energy per Si atom -5582.072067 kJ/mol
# Density = 2.100938 g / cm^3
# Si number density = 21.057309 Si / 1000 Ang^3
#
#
#
# Elastic Constant Matrix: (Units=GPa)
#
#
# Indices 1 2 3 4 5 6 
#
# 1 19.9857 -2.9312 -13.6396 0.0000 0.0000 0.0000
# 2 -2.9312 146.5248 68.0246 0.0000 0.0000 0.0000
# 3 -13.6396 68.0246 106.6523 0.0000 0.0000 0.0000
# 4 0.0000 0.0000 0.0000 -2.0034 0.0000 0.0000
# 5 0.0000 0.0000 0.0000 0.0000 -0.8179 0.0000
# 6 0.0000 0.0000 0.0000 0.0000 0.0000 18.4971
#
#
#
# Elastic Compliance Matrix: (Units=1/GPa)
#
#
# Indices 1 2 3 4 5 6 
#
# 1 0.055808 -0.003121 0.009128 0.000000 0.000000 0.000000
# 2 -0.003121 0.009870 -0.006695 0.000000 0.000000 0.000000
# 3 0.009128 -0.006695 0.014814 0.000000 0.000000 0.000000
# 4 0.000000 0.000000 0.000000 -0.499150 0.000000 0.000000
# 5 0.000000 0.000000 0.000000 0.000000 -1.222581 0.000000
# 6 0.000000 0.000000 0.000000 0.000000 0.000000 0.054062
#
#
# Mechanical properties :
#
#
# Convention : Reuss Voigt Hill
#
# Bulk Modulus (GPa) = 12.63974 41.78559 27.21267
# Shear Modulus (GPa) = -3.20630 17.91576 7.35473
#
# Velocity S-wave (km/s) = -1.23530 2.92003 1.87091
# Velocity P-wave (km/s) = 1.99523 5.59067 4.19741
#
# Compressibility (1/GPa) = 0.07911557
#
# Stress axis : x y z
#
# Youngs Moduli (GPa) = 17.91871 101.31359 67.50573
#
# Poissons Ratio (x) = 0.31622 -0.61619
# Poissons Ratio (y) = 0.05593 0.45193
# Poissons Ratio (z) = -0.16356 0.67826
#
# Static dielectric constant tensor:
#      x y z
#    x 1.760490 0.000000 0.000000 
#    y 0.000000 1.734800 0.000000 
#    z 0.000000 0.000000 1.770860 
# 
# From -- ./inp_files/14737.got.cif
#   From: 2010.05.17/outbox.cif.g08.bks.cpg/sg35_8_cif.got.tgz:14737.got - 2010.06.03 17:29:28.
