data_PCOD9349631
_publ_section_title
;
Structure prediction by ZEFSAII (Michael W. Deem and Ramdas Pophale) SiO2 
 PCOD9349631
Probable space group: C M M 2
;
_chemical_formula_sum "Si O2"
_cell_formula_units_Z 64
_cell_length_a 18.713116
_cell_length_b 14.092997
_cell_length_c 13.014939
_cell_angle_alpha 90.000000
_cell_angle_beta 90.000000
_cell_angle_gamma 90.000000
_cell_volume 3432.350311
_symmetry_space_group_name_H-M "C M M 2"
_symmetry_group_IT_number 35
_symmetry_cell_setting 'orthorhombic'
loop_
_space_group_symop_operation_xyz
x,y,z
-x,-y,z
-x,y,z
x,-y,z
1/2+x,1/2+y,z
1/2-x,1/2-y,z
1/2-x,1/2+y,z
1/2+x,1/2-y,z
loop_
_atom_site_type_symbol
_atom_site_label
_atom_site_fract_x
_atom_site_fract_y
_atom_site_fract_z
Si Si1 0.084759 0.886794 0.593410
Si Si2 0.307075 0.615086 0.984558
Si Si3 0.671562 0.720337 0.767235
Si Si4 0.849773 0.385793 0.065282
Si Si5 0.585854 0.109468 0.280752
Si Si6 0.417263 0.385393 0.163216
Si Si7 0.083312 0.390220 0.853253
Si Si8 0.586298 0.296959 0.379427
O O1 0.129206 0.842988 0.686279
O O2 0.110716 0.843956 0.484743
O O3 0.000000 0.864455 0.605882
O O4 0.091453 0.000000 0.590823
O O5 0.308500 0.500000 0.972280
O O6 0.319787 0.664625 0.875469
O O7 0.229334 0.642131 0.029457
O O8 0.366939 0.642483 0.068275
O O9 0.750000 0.750000 0.730769
O O10 0.628161 0.816667 0.787845
O O11 0.848705 0.500000 0.073812
O O12 0.876865 0.354711 0.176233
O O13 0.903315 0.364021 0.972502
O O14 0.500000 0.111473 0.264445
O O15 0.603411 0.185644 0.368242
O O16 0.605507 0.000000 0.302208
O O17 0.500000 0.354799 0.148043
O O18 0.416799 0.500000 0.167329
O O19 0.390829 0.347882 0.273706
O O20 0.106878 0.500000 0.840321
O O21 0.000000 0.384330 0.829162
O O22 0.500000 0.306549 0.379872
#
# Coordination Sequence:
#
# PCOD9349631 Si02
#       8
#     8   8   8   8   8   8   8   8
#     4  10  22  42  66  88 111 147 198 251 297 347
#     4  10  21  36  54  82 119 157 192 234 292 352
#     4  12  24  38  59  85 119 155 196 240 296 351
#     4   9  17  32  52  78 115 156 190 225 275 337
#     4   9  17  30  52  83 117 151 189 233 283 343
#     4   9  18  32  52  80 112 145 185 238 296 351
#     4  10  21  37  57  81 112 152 198 241 281 337
#     4   9  18  34  58  83 109 144 191 242 297 348
#
# _framework density 18.646115999999999
#
# number of rings (size 3 to 8) (size 9 to 14) (size 15 to 20)
#    0.000    2.250    1.250    1.500    1.750    4.500 
#    0.000    3.125    0.000    3.750    0.000    0.000 
#    0.000    0.000    0.000    0.000    0.000    0.000 
#
# Total GULP energy -178619.108841 kJ/mol
# GULP energy per Si atom -5581.847151 kJ/mol
# Density = 1.860368 g / cm^3
# Si number density = 18.646116 Si / 1000 Ang^3
#
#
#
# Elastic Constant Matrix: (Units=GPa)
#
#
# Indices 1 2 3 4 5 6 
#
# 1 70.3662 40.6922 48.3277 0.0000 0.0000 0.0000
# 2 40.6922 88.5651 49.6208 0.0000 0.0000 0.0000
# 3 48.3277 49.6208 108.3799 0.0000 0.0000 0.0000
# 4 0.0000 0.0000 0.0000 34.9844 0.0000 0.0000
# 5 0.0000 0.0000 0.0000 0.0000 16.3952 0.0000
# 6 0.0000 0.0000 0.0000 0.0000 0.0000 17.1521
#
#
#
# Elastic Compliance Matrix: (Units=1/GPa)
#
#
# Indices 1 2 3 4 5 6 
#
# 1 0.022945 -0.006470 -0.007270 0.000000 0.000000 0.000000
# 2 -0.006470 0.017011 -0.004903 0.000000 0.000000 0.000000
# 3 -0.007270 -0.004903 0.014713 0.000000 0.000000 0.000000
# 4 0.000000 0.000000 0.000000 0.028584 0.000000 0.000000
# 5 0.000000 0.000000 0.000000 0.000000 0.060993 0.000000
# 6 0.000000 0.000000 0.000000 0.000000 0.000000 0.058302
#
#
# Mechanical properties :
#
#
# Convention : Reuss Voigt Hill
#
# Bulk Modulus (GPa) = 57.52235 60.51029 59.01632
# Shear Modulus (GPa) = 20.35590 22.28439 21.32015
#
# Velocity S-wave (km/s) = 3.30767 3.46080 3.38510
# Velocity P-wave (km/s) = 6.74567 6.96362 6.85551
#
# Compressibility (1/GPa) = 0.01738455
#
# Stress axis : x y z
#
# Youngs Moduli (GPa) = 43.58173 58.78580 67.96541
#
# Poissons Ratio (x) = 0.38032 0.49408
# Poissons Ratio (y) = 0.28195 0.33327
# Poissons Ratio (z) = 0.31682 0.28825
#
# Static dielectric constant tensor:
#      x y z
#    x 1.638130 0.000000 0.000000 
#    y 0.000000 1.680860 0.000000 
#    z 0.000000 0.000000 1.616580 
# 
# From -- ./inp_files/13578.got.cif
#   From: 2010.05.17/outbox.cif.g08.bks.cpg/sg35_7_cif.got.tgz:13578.got - 2010.06.03 17:29:28.
