data_PCOD9349724
_publ_section_title
;
Structure prediction by ZEFSAII (Michael W. Deem and Ramdas Pophale) SiO2 
 PCOD9349724
Probable space group: C M M 2
;
_chemical_formula_sum "Si O2"
_cell_formula_units_Z 64
_cell_length_a 19.645743
_cell_length_b 15.383218
_cell_length_c 9.839015
_cell_angle_alpha 90.000000
_cell_angle_beta 90.000000
_cell_angle_gamma 90.000000
_cell_volume 2973.495432
_symmetry_space_group_name_H-M "C M M 2"
_symmetry_group_IT_number 35
_symmetry_cell_setting 'orthorhombic'
loop_
_space_group_symop_operation_xyz
x,y,z
-x,-y,z
-x,y,z
x,-y,z
1/2+x,1/2+y,z
1/2-x,1/2-y,z
1/2-x,1/2+y,z
1/2+x,1/2-y,z
loop_
_atom_site_type_symbol
_atom_site_label
_atom_site_fract_x
_atom_site_fract_y
_atom_site_fract_z
Si Si1 0.077973 0.234238 0.201980
Si Si2 0.352830 0.405327 0.616619
Si Si3 0.300072 0.397609 0.142798
Si Si4 0.754246 0.853353 0.842419
Si Si5 0.604380 0.774689 0.509527
Si Si6 0.605066 0.902062 0.743320
Si Si7 0.922091 0.595154 0.055694
Si Si8 0.277205 0.098669 0.418648
O O1 0.131785 0.158195 0.171519
O O2 0.074167 0.259563 0.360680
O O3 0.106449 0.319815 0.125812
O O4 0.000000 0.215053 0.155921
O O5 0.386561 0.500000 0.607876
O O6 0.318945 0.391029 0.763108
O O7 0.393530 0.320211 0.576203
O O8 0.289650 0.404682 0.511823
O O9 0.316568 0.500000 0.142598
O O10 0.248646 0.382257 0.267451
O O11 0.264243 0.374148 0.000534
O O12 0.750000 0.750000 0.823167
O O13 0.686020 0.891072 0.773635
O O14 0.578354 0.837465 0.628897
O O15 0.675125 0.824674 0.473057
O O16 0.591403 0.000000 0.699329
O O17 0.576061 0.890361 0.894345
O O18 0.889543 0.500000 0.080640
O O19 0.000000 0.590208 0.105569
O O20 0.307946 0.000000 0.423006
#
# Coordination Sequence:
#
# PCOD9349724 Si02
#       8
#     8   8   8   8   8   8   8   8
#     4  11  26  44  65  89 120 169 224 267 310 363
#     4  11  21  37  57  84 125 164 197 238 308 381
#     4  11  25  41  62  94 128 164 209 258 313 375
#     4  12  22  36  60  93 130 162 194 251 316 381
#     4  12  23  38  61  90 127 164 201 257 312 368
#     4  11  22  37  60  93 126 161 203 251 316 385
#     4   9  21  43  64  85 120 164 209 259 310 362
#     4  10  21  37  59  91 128 164 195 242 315 385
#
# _framework density 21.523489999999999
#
# number of rings (size 3 to 8) (size 9 to 14) (size 15 to 20)
#    0.000    1.125    3.750    2.625    3.500    1.750 
#    0.000    0.000    0.000    0.000    0.000    0.000 
#    0.000    0.000    0.000    0.000    0.000    0.000 
#
# Total GULP energy -178799.847131 kJ/mol
# GULP energy per Si atom -5587.495223 kJ/mol
# Density = 2.147450 g / cm^3
# Si number density = 21.523490 Si / 1000 Ang^3
#
#
#
# Elastic Constant Matrix: (Units=GPa)
#
#
# Indices 1 2 3 4 5 6 
#
# 1 47.9407 35.3873 11.5518 0.0000 0.0000 0.0000
# 2 35.3873 186.7258 43.5035 0.0000 0.0000 0.0000
# 3 11.5518 43.5035 114.3303 0.0000 0.0000 0.0000
# 4 0.0000 0.0000 0.0000 23.5907 0.0000 0.0000
# 5 0.0000 0.0000 0.0000 0.0000 35.7706 0.0000
# 6 0.0000 0.0000 0.0000 0.0000 0.0000 -62.9159
#
#
#
# Elastic Compliance Matrix: (Units=1/GPa)
#
#
# Indices 1 2 3 4 5 6 
#
# 1 0.024314 -0.004428 -0.000772 0.000000 0.000000 0.000000
# 2 -0.004428 0.006683 -0.002095 0.000000 0.000000 0.000000
# 3 -0.000772 -0.002095 0.009622 0.000000 0.000000 0.000000
# 4 0.000000 0.000000 0.000000 0.042390 0.000000 0.000000
# 5 0.000000 0.000000 0.000000 0.000000 0.027956 0.000000
# 6 0.000000 0.000000 0.000000 0.000000 0.000000 -0.015894
#
#
# Mechanical properties :
#
#
# Convention : Reuss Voigt Hill
#
# Bulk Modulus (GPa) = 38.42027 58.87577 48.64802
# Shear Modulus (GPa) = 42.25266 16.52606 29.38936
#
# Velocity S-wave (km/s) = 4.43549 2.77395 3.69922
# Velocity P-wave (km/s) = 6.64233 6.13786 6.39507
#
# Compressibility (1/GPa) = 0.02602793
#
# Stress axis : x y z
#
# Youngs Moduli (GPa) = 41.12931 149.63758 103.92960
#
# Poissons Ratio (x) = 0.66259 0.08021
# Poissons Ratio (y) = 0.18212 0.21778
# Poissons Ratio (z) = 0.03174 0.31356
#
# Static dielectric constant tensor:
#      x y z
#    x 1.798680 0.000000 0.000000 
#    y 0.000000 1.799770 0.000000 
#    z 0.000000 0.000000 1.784890 
# 
# From -- ./inp_files/7841.got.cif
#   From: 2010.05.17/outbox.cif.g08.bks.cpg/sg35_4_cif.got.tgz:7841.got - 2010.06.03 17:29:28.
