data_PCOD9349336
_publ_section_title
;
Structure prediction by ZEFSAII (Michael W. Deem and Ramdas Pophale) SiO2 
 PCOD9349336
Probable space group: C M M 2
;
_chemical_formula_sum "Si O2"
_cell_formula_units_Z 56
_cell_length_a 8.770686
_cell_length_b 18.543946
_cell_length_c 18.805666
_cell_angle_alpha 90.000000
_cell_angle_beta 90.000000
_cell_angle_gamma 90.000000
_cell_volume 3058.612334
_symmetry_space_group_name_H-M "C M M 2"
_symmetry_group_IT_number 35
_symmetry_cell_setting 'orthorhombic'
loop_
_space_group_symop_operation_xyz
x,y,z
-x,-y,z
-x,y,z
x,-y,z
1/2+x,1/2+y,z
1/2-x,1/2-y,z
1/2-x,1/2+y,z
1/2+x,1/2-y,z
loop_
_atom_site_type_symbol
_atom_site_label
_atom_site_fract_x
_atom_site_fract_y
_atom_site_fract_z
Si Si1 0.683408 0.913761 0.633190
Si Si2 0.318852 0.329898 0.075532
Si Si3 0.817081 0.330127 0.224633
Si Si4 0.180784 0.586904 0.944420
Si Si5 0.681294 0.329922 0.499824
Si Si6 0.184965 0.584632 0.789198
Si Si7 0.316329 0.083976 0.367017
O O1 0.500000 0.904872 0.627559
O O2 0.763030 0.871735 0.570001
O O3 0.733100 0.886888 0.712017
O O4 0.712765 0.000000 0.628324
O O5 0.500000 0.325205 0.081508
O O6 0.250000 0.250000 0.065613
O O7 0.249682 0.357823 0.149983
O O8 0.269868 0.377869 0.008956
O O9 0.750000 0.250000 0.235763
O O10 0.777333 0.379792 0.291604
O O11 0.000000 0.325524 0.219161
O O12 0.195847 0.500000 0.945535
O O13 0.000000 0.602951 0.951776
O O14 0.234226 0.613748 0.866058
O O15 0.500000 0.325719 0.498721
O O16 0.750000 0.250000 0.499045
O O17 0.740034 0.373150 0.431153
O O18 0.226316 0.500000 0.788693
O O19 0.000000 0.587341 0.789904
O O20 0.500000 0.088625 0.375248
O O21 0.273573 0.000000 0.368545
#
# Coordination Sequence:
#
# PCOD9349336 Si02
#       7
#     8   8   8   8   8   8   8
#     4   9  17  33  58  84 110 140 176 220 269 320
#     4  11  22  36  54  77 108 145 184 223 267 318
#     4  10  20  36  58  81 106 140 180 220 266 318
#     4   9  17  32  55  81 109 141 179 222 268 320
#     4  12  25  39  56  79 109 145 183 221 265 316
#     4   7  12  26  51  80 106 137 176 216 263 319
#     4  10  22  40  61  85 112 141 174 214 262 316
#
# _framework density 18.308955999999998
#
# number of rings (size 3 to 8) (size 9 to 14) (size 15 to 20)
#    0.000    2.286    0.000    6.429    0.000    5.429 
#    0.000    2.857    0.000    2.571    0.000    0.000 
#    0.000    0.000    0.000    0.000    0.000    0.000 
#
# Total GULP energy -156219.926151 kJ/mol
# GULP energy per Si atom -5579.283077 kJ/mol
# Density = 1.826728 g / cm^3
# Si number density = 18.308956 Si / 1000 Ang^3
#
#
#
# Elastic Constant Matrix: (Units=GPa)
#
#
# Indices 1 2 3 4 5 6 
#
# 1 68.3295 45.1522 77.5441 0.0000 0.0000 0.0000
# 2 45.1522 68.8809 77.7566 0.0000 0.0000 0.0000
# 3 77.5441 77.7566 210.3276 0.0000 0.0000 0.0000
# 4 0.0000 0.0000 0.0000 70.1337 0.0000 0.0000
# 5 0.0000 0.0000 0.0000 0.0000 -19.1882 0.0000
# 6 0.0000 0.0000 0.0000 0.0000 0.0000 25.2710
#
#
#
# Elastic Compliance Matrix: (Units=1/GPa)
#
#
# Indices 1 2 3 4 5 6 
#
# 1 0.030331 -0.012458 -0.006577 0.000000 0.000000 0.000000
# 2 -0.012458 0.030033 -0.006510 0.000000 0.000000 0.000000
# 3 -0.006577 -0.006510 0.009586 0.000000 0.000000 0.000000
# 4 0.000000 0.000000 0.000000 0.014258 0.000000 0.000000
# 5 0.000000 0.000000 0.000000 0.000000 -0.052115 0.000000
# 6 0.000000 0.000000 0.000000 0.000000 0.000000 0.039571
#
#
# Mechanical properties :
#
#
# Convention : Reuss Voigt Hill
#
# Bulk Modulus (GPa) = 53.02134 83.16041 68.09087
# Shear Modulus (GPa) = 38.74760 25.04899 31.89830
#
# Velocity S-wave (km/s) = 4.60534 3.70283 4.17852
# Velocity P-wave (km/s) = 7.56974 7.98752 7.78144
#
# Compressibility (1/GPa) = 0.01886033
#
# Stress axis : x y z
#
# Youngs Moduli (GPa) = 32.96962 33.29680 104.31944
#
# Poissons Ratio (x) = 0.41481 0.68610
# Poissons Ratio (y) = 0.41073 0.67911
# Poissons Ratio (z) = 0.21684 0.21676
#
# Static dielectric constant tensor:
#      x y z
#    x 1.610790 0.000000 0.000000 
#    y 0.000000 1.603570 0.000000 
#    z 0.000000 0.000000 1.649540 
# 
# From -- ./inp_files/15636.got.cif
#   From: 2010.05.17/outbox.cif.g08.bks.cpg/sg35_8_cif.got.tgz:15636.got - 2010.06.03 17:29:28.
