data_PCOD9349250
_publ_section_title
;
Structure prediction by ZEFSAII (Michael W. Deem and Ramdas Pophale) SiO2 
 PCOD9349250
Probable space group: C M M 2
;
_chemical_formula_sum "Si O2"
_cell_formula_units_Z 48
_cell_length_a 8.715214
_cell_length_b 28.694757
_cell_length_c 10.478030
_cell_angle_alpha 90.000000
_cell_angle_beta 90.000000
_cell_angle_gamma 90.000000
_cell_volume 2620.355675
_symmetry_space_group_name_H-M "C M M 2"
_symmetry_group_IT_number 35
_symmetry_cell_setting 'orthorhombic'
loop_
_space_group_symop_operation_xyz
x,y,z
-x,-y,z
-x,y,z
x,-y,z
1/2+x,1/2+y,z
1/2-x,1/2-y,z
1/2-x,1/2+y,z
1/2+x,1/2-y,z
loop_
_atom_site_type_symbol
_atom_site_label
_atom_site_fract_x
_atom_site_fract_y
_atom_site_fract_z
Si Si1 0.182341 0.555214 0.926400
Si Si2 0.817116 0.199947 0.079782
Si Si3 0.318593 0.608486 0.687332
Si Si4 0.185434 0.445640 0.445566
Si Si5 0.184340 0.391372 0.187795
Si Si6 0.816927 0.300177 0.796143
O O1 0.208039 0.500000 0.930271
O O2 0.274930 0.578898 0.812833
O O3 0.000000 0.563161 0.903002
O O4 0.220421 0.578267 0.062053
O O5 0.750000 0.250000 0.119740
O O6 0.765442 0.158206 0.171067
O O7 0.000000 0.202596 0.069833
O O8 0.747878 0.190140 0.938712
O O9 0.500000 0.615008 0.680057
O O10 0.257690 0.580777 0.565097
O O11 0.237546 0.658374 0.705346
O O12 0.230736 0.500000 0.442522
O O13 0.227443 0.419484 0.314586
O O14 0.000000 0.444200 0.456907
O O15 0.000000 0.384370 0.189565
O O16 0.750000 0.250000 0.757711
O O17 0.000000 0.298205 0.802864
#
# Coordination Sequence:
#
# PCOD9349250 Si02
#       6
#     8   8   8   8   8   8
#     4  10  20  35  58  86 115 150 195 248 300 352
#     4  11  21  35  58  89 123 157 194 240 295 355
#     4  12  24  38  57  86 121 159 200 245 297 353
#     4  10  22  41  63  86 117 161 206 247 299 359
#     4  10  20  37  61  88 118 154 199 248 297 353
#     4  11  21  37  61  89 120 154 194 244 298 356
#
# _framework density 18.318123
#
# number of rings (size 3 to 8) (size 9 to 14) (size 15 to 20)
#    0.000    1.333    1.667    6.500    0.000    5.333 
#    0.000    0.833    0.000    7.000    0.000    0.000 
#    0.000    0.000    0.000    0.000    0.000    0.000 
#
# Total GULP energy -134179.457205 kJ/mol
# GULP energy per Si atom -5590.810717 kJ/mol
# Density = 1.827643 g / cm^3
# Si number density = 18.318123 Si / 1000 Ang^3
#
#
#
# Elastic Constant Matrix: (Units=GPa)
#
#
# Indices 1 2 3 4 5 6 
#
# 1 107.8901 80.0186 66.6462 0.0000 0.0000 0.0000
# 2 80.0186 165.3905 81.5227 0.0000 0.0000 0.0000
# 3 66.6462 81.5227 125.9506 0.0000 0.0000 0.0000
# 4 0.0000 0.0000 0.0000 33.1133 0.0000 0.0000
# 5 0.0000 0.0000 0.0000 0.0000 -94.5352 0.0000
# 6 0.0000 0.0000 0.0000 0.0000 0.0000 31.0773
#
#
#
# Elastic Compliance Matrix: (Units=1/GPa)
#
#
# Indices 1 2 3 4 5 6 
#
# 1 0.016516 -0.005409 -0.005239 0.000000 0.000000 0.000000
# 2 -0.005409 0.010650 -0.004032 0.000000 0.000000 0.000000
# 3 -0.005239 -0.004032 0.013321 0.000000 0.000000 0.000000
# 4 0.000000 0.000000 0.000000 0.030199 0.000000 0.000000
# 5 0.000000 0.000000 0.000000 0.000000 -0.010578 0.000000
# 6 0.000000 0.000000 0.000000 0.000000 0.000000 0.032178
#
#
# Mechanical properties :
#
#
# Convention : Reuss Voigt Hill
#
# Bulk Modulus (GPa) = 89.84836 95.06735 92.45786
# Shear Modulus (GPa) = 39.88700 5.33398 22.61049
#
# Velocity S-wave (km/s) = 4.67139 1.70827 3.51711
# Velocity P-wave (km/s) = 8.84597 7.47673 8.19002
#
# Compressibility (1/GPa) = 0.01112986
#
# Stress axis : x y z
#
# Youngs Moduli (GPa) = 60.54695 93.89460 75.06890
#
# Poissons Ratio (x) = 0.50784 0.39326
# Poissons Ratio (y) = 0.32747 0.30264
# Poissons Ratio (z) = 0.31719 0.37854
#
# Static dielectric constant tensor:
#      x y z
#    x 1.639790 0.000000 0.000000 
#    y 0.000000 1.625870 0.000000 
#    z 0.000000 0.000000 1.599920 
# 
# From -- ./inp_files/5336.got.cif
#   From: 2010.05.17/outbox.cif.g08.bks.cpg/sg35_3_cif.got.tgz:5336.got - 2010.06.03 17:29:28.
