data_PCOD9349276
_publ_section_title
;
Structure prediction by ZEFSAII (Michael W. Deem and Ramdas Pophale) SiO2 
 PCOD9349276
Probable space group: C M M 2
;
_chemical_formula_sum "Si O2"
_cell_formula_units_Z 64
_cell_length_a 17.395099
_cell_length_b 22.724752
_cell_length_c 8.181190
_cell_angle_alpha 90.000000
_cell_angle_beta 90.000000
_cell_angle_gamma 90.000000
_cell_volume 3234.018768
_symmetry_space_group_name_H-M "C M M 2"
_symmetry_group_IT_number 35
_symmetry_cell_setting 'orthorhombic'
loop_
_space_group_symop_operation_xyz
x,y,z
-x,-y,z
-x,y,z
x,-y,z
1/2+x,1/2+y,z
1/2-x,1/2-y,z
1/2-x,1/2+y,z
1/2+x,1/2-y,z
loop_
_atom_site_type_symbol
_atom_site_label
_atom_site_fract_x
_atom_site_fract_y
_atom_site_fract_z
Si Si1 0.352171 0.068396 0.152460
Si Si2 0.089041 0.622588 0.832089
Si Si3 0.913182 0.819882 0.074049
Si Si4 0.342916 0.746550 0.769180
Si Si5 0.732467 0.934452 0.679992
Si Si6 0.820863 0.934662 0.010693
Si Si7 0.206618 0.654204 0.406036
Si Si8 0.361259 0.719884 0.412116
O O1 0.344390 0.105342 0.316300
O O2 0.376506 0.000000 0.163384
O O3 0.400869 0.106167 0.023070
O O4 0.262680 0.068867 0.095695
O O5 0.121905 0.687420 0.788011
O O6 0.146847 0.575057 0.752422
O O7 0.000000 0.618378 0.784663
O O8 0.914897 0.794776 0.258968
O O9 0.000000 0.819788 0.010328
O O10 0.862483 0.783881 0.942144
O O11 0.877280 0.884888 0.071955
O O12 0.250000 0.750000 0.746973
O O13 0.374574 0.710933 0.608443
O O14 0.795780 0.928332 0.821704
O O15 0.739704 0.881270 0.558040
O O16 0.738987 0.000000 0.608766
O O17 0.852203 0.000000 0.037674
O O18 0.284755 0.685809 0.346588
O O19 0.152932 0.710427 0.422544
#
# Coordination Sequence:
#
# PCOD9349276 Si02
#       8
#     8   8   8   8   8   8   8   8
#     4  10  20  35  60  88 118 156 206 261 305 367
#     4  11  22  38  58  86 124 164 205 252 322 388
#     4  12  26  40  62  94 129 168 205 253 328 396
#     4  12  23  41  68  94 123 166 216 269 317 377
#     4  10  20  37  62  91 119 158 214 264 309 371
#     4   9  19  38  62  87 117 157 208 257 302 368
#     4  11  19  37  59  91 115 155 205 260 318 359
#     4  11  23  39  62  92 127 158 206 265 320 373
#
# _framework density 19.789619999999999
#
# number of rings (size 3 to 8) (size 9 to 14) (size 15 to 20)
#    0.000    1.250    3.750    4.875    1.750    2.250 
#    0.000    0.625    0.000    1.500    0.000    1.750 
#    0.000    0.000    0.000    0.000    0.000    0.000 
#
# Total GULP energy -178158.938094 kJ/mol
# GULP energy per Si atom -5567.466815 kJ/mol
# Density = 1.974458 g / cm^3
# Si number density = 19.789620 Si / 1000 Ang^3
#
#
#
# Elastic Constant Matrix: (Units=GPa)
#
#
# Indices 1 2 3 4 5 6 
#
# 1 48.4214 14.5700 15.7950 0.0000 0.0000 0.0000
# 2 14.5700 102.7758 35.6256 0.0000 0.0000 0.0000
# 3 15.7950 35.6256 65.7354 0.0000 0.0000 0.0000
# 4 0.0000 0.0000 0.0000 29.9487 0.0000 0.0000
# 5 0.0000 0.0000 0.0000 0.0000 10.7041 0.0000
# 6 0.0000 0.0000 0.0000 0.0000 0.0000 10.2412
#
#
#
# Elastic Compliance Matrix: (Units=1/GPa)
#
#
# Indices 1 2 3 4 5 6 
#
# 1 0.022628 -0.001629 -0.004554 0.000000 0.000000 0.000000
# 2 -0.001629 0.012098 -0.006165 0.000000 0.000000 0.000000
# 3 -0.004554 -0.006165 0.019648 0.000000 0.000000 0.000000
# 4 0.000000 0.000000 0.000000 0.033390 0.000000 0.000000
# 5 0.000000 0.000000 0.000000 0.000000 0.093422 0.000000
# 6 0.000000 0.000000 0.000000 0.000000 0.000000 0.097645
#
#
# Mechanical properties :
#
#
# Convention : Reuss Voigt Hill
#
# Bulk Modulus (GPa) = 33.69618 38.76820 36.23219
# Shear Modulus (GPa) = 15.95303 20.24159 18.09731
#
# Velocity S-wave (km/s) = 2.84233 3.20165 3.02733
# Velocity P-wave (km/s) = 5.27597 5.77063 5.52884
#
# Compressibility (1/GPa) = 0.02967696
#
# Stress axis : x y z
#
# Youngs Moduli (GPa) = 44.19341 82.65890 50.89596
#
# Poissons Ratio (x) = 0.13467 0.23178
# Poissons Ratio (y) = 0.07200 0.31378
# Poissons Ratio (z) = 0.20126 0.50960
#
# Static dielectric constant tensor:
#      x y z
#    x 1.680830 0.000000 0.000000 
#    y 0.000000 1.706790 0.000000 
#    z 0.000000 0.000000 1.814400 
# 
# From -- ./inp_files/8848.got.cif
#   From: 2010.05.17/outbox.cif.g08.bks.cpg/sg35_5_cif.got.tgz:8848.got - 2010.06.03 17:29:28.
