data_PCOD9349802
_publ_section_title
;
Structure prediction by ZEFSAII (Michael W. Deem and Ramdas Pophale) SiO2 
 PCOD9349802
Probable space group: C M M 2
;
_chemical_formula_sum "Si O2"
_cell_formula_units_Z 34
_cell_length_a 17.903596
_cell_length_b 9.720393
_cell_length_c 9.783075
_cell_angle_alpha 90.000000
_cell_angle_beta 90.000000
_cell_angle_gamma 90.000000
_cell_volume 1702.548437
_symmetry_space_group_name_H-M "C M M 2"
_symmetry_group_IT_number 35
_symmetry_cell_setting 'orthorhombic'
loop_
_space_group_symop_operation_xyz
x,y,z
-x,-y,z
-x,y,z
x,-y,z
1/2+x,1/2+y,z
1/2-x,1/2-y,z
1/2-x,1/2+y,z
1/2+x,1/2-y,z
loop_
_atom_site_type_symbol
_atom_site_label
_atom_site_fract_x
_atom_site_fract_y
_atom_site_fract_z
Si Si1 0.322666 0.655440 0.248340
Si Si2 0.674624 0.161637 0.744407
Si Si3 0.917535 0.762524 0.004175
Si Si4 0.588789 0.158083 0.456551
Si Si5 0.000000 0.500000 0.100199
O O1 0.304111 0.500000 0.291094
O O2 0.250000 0.750000 0.238149
O O3 0.376816 0.729354 0.356647
O O4 0.364331 0.653537 0.103073
O O5 0.750000 0.250000 0.735636
O O6 0.622809 0.221724 0.864348
O O7 0.629671 0.168456 0.602083
O O8 0.690415 0.000000 0.771724
O O9 0.000000 0.824945 0.978788
O O10 0.936546 0.621256 0.084573
O O11 0.500000 0.177383 0.470549
O O12 0.599031 0.000000 0.405342
#
# Coordination Sequence:
#
# PCOD9349802 Si02
#       5
#     8   8   8   8   2
#     4  12  27  42  62  90 125 162 205 255 305 363
#     4  11  22  39  61  93 125 160 204 250 302 361
#     4  10  21  38  66  89 123 159 205 249 300 359
#     4  10  23  41  67  91 121 162 206 249 305 367
#     4   8  20  36  66  90 124 160 200 254 300 360
#
# _framework density 19.970061999999999
#
# number of rings (size 3 to 8) (size 9 to 14) (size 15 to 20)
#    0.706    0.706    1.176    3.529    3.294    8.471 
#    0.000    0.000    0.000    4.235    0.000    0.000 
#    0.000    0.000    0.000    0.000    0.000    0.000 
#
# Total GULP energy -94686.779953 kJ/mol
# GULP energy per Si atom -5569.810585 kJ/mol
# Density = 1.992461 g / cm^3
# Si number density = 19.970062 Si / 1000 Ang^3
#
#
#
# Elastic Constant Matrix: (Units=GPa)
#
#
# Indices 1 2 3 4 5 6 
#
# 1 154.3048 73.4565 49.2866 0.0000 0.0000 0.0000
# 2 73.4565 131.8540 51.2871 0.0000 0.0000 0.0000
# 3 49.2866 51.2871 95.6892 0.0000 0.0000 0.0000
# 4 0.0000 0.0000 0.0000 15.2108 0.0000 0.0000
# 5 0.0000 0.0000 0.0000 0.0000 24.4254 0.0000
# 6 0.0000 0.0000 0.0000 0.0000 0.0000 25.2280
#
#
#
# Elastic Compliance Matrix: (Units=1/GPa)
#
#
# Indices 1 2 3 4 5 6 
#
# 1 0.009284 -0.004184 -0.002539 0.000000 0.000000 0.000000
# 2 -0.004184 0.011468 -0.003991 0.000000 0.000000 0.000000
# 3 -0.002539 -0.003991 0.013897 0.000000 0.000000 0.000000
# 4 0.000000 0.000000 0.000000 0.065743 0.000000 0.000000
# 5 0.000000 0.000000 0.000000 0.000000 0.040941 0.000000
# 6 0.000000 0.000000 0.000000 0.000000 0.000000 0.039638
#
#
# Mechanical properties :
#
#
# Convention : Reuss Voigt Hill
#
# Bulk Modulus (GPa) = 75.64469 81.10094 78.37281
# Shear Modulus (GPa) = 24.17719 26.82737 25.50228
#
# Velocity S-wave (km/s) = 3.48325 3.66919 3.57743
# Velocity P-wave (km/s) = 7.35789 7.65833 7.50962
#
# Compressibility (1/GPa) = 0.01321970
#
# Stress axis : x y z
#
# Youngs Moduli (GPa) = 107.71660 87.20137 71.95570
#
# Poissons Ratio (x) = 0.36488 0.18270
# Poissons Ratio (y) = 0.45072 0.28719
# Poissons Ratio (z) = 0.27349 0.34804
#
# Static dielectric constant tensor:
#      x y z
#    x 1.681920 0.000000 0.000000 
#    y 0.000000 1.680590 0.000000 
#    z 0.000000 0.000000 1.707400 
# 
# From -- ./inp_files/8989.got.cif
#   From: 2010.05.17/outbox.cif.g08.bks.cpg/sg35_5_cif.got.tgz:8989.got - 2010.06.03 17:29:28.
