data_PCOD9349800
_publ_section_title
;
Structure prediction by ZEFSAII (Michael W. Deem and Ramdas Pophale) SiO2 
 PCOD9349800
Probable space group: C M M 2
;
_chemical_formula_sum "Si O2"
_cell_formula_units_Z 56
_cell_length_a 16.999671
_cell_length_b 26.334722
_cell_length_c 5.383848
_cell_angle_alpha 90.000000
_cell_angle_beta 90.000000
_cell_angle_gamma 90.000000
_cell_volume 2410.249740
_symmetry_space_group_name_H-M "C M M 2"
_symmetry_group_IT_number 35
_symmetry_cell_setting 'orthorhombic'
loop_
_space_group_symop_operation_xyz
x,y,z
-x,-y,z
-x,y,z
x,-y,z
1/2+x,1/2+y,z
1/2-x,1/2-y,z
1/2-x,1/2+y,z
1/2+x,1/2-y,z
loop_
_atom_site_type_symbol
_atom_site_label
_atom_site_fract_x
_atom_site_fract_y
_atom_site_fract_z
Si Si1 0.210190 0.383729 0.832270
Si Si2 0.085253 0.343716 0.205658
Si Si3 0.181416 0.285060 0.566546
Si Si4 0.092388 0.855005 0.381072
Si Si5 0.407354 0.291674 0.889633
Si Si6 0.869045 0.555894 0.457901
Si Si7 0.802495 0.057933 0.195795
O O1 0.219400 0.340260 0.625290
O O2 0.153462 0.428695 0.737251
O O3 0.159639 0.353118 0.032495
O O4 0.285649 0.411058 0.942876
O O5 0.108152 0.298151 0.389730
O O6 0.082899 0.396874 0.355222
O O7 0.000000 0.335942 0.085839
O O8 0.250000 0.250000 0.458548
O O9 0.147053 0.255239 0.805225
O O10 0.099788 0.828762 0.649661
O O11 0.140295 0.907051 0.355346
O O12 0.000000 0.865379 0.341246
O O13 0.116158 0.818097 0.149541
O O14 0.500000 0.278014 0.908572
O O15 0.903442 0.500000 0.435320
O O16 0.783652 0.555814 0.323454
O O17 0.828928 0.000000 0.158692
#
# Coordination Sequence:
#
# PCOD9349800 Si02
#       7
#     8   8   8   8   8   8   8
#     4  10  22  38  60  89 121 158 206 264 309 382
#     4  10  23  40  59  88 123 157 201 258 315 375
#     4  11  24  38  62  89 118 163 211 262 312 383
#     4  10  23  41  63  93 130 170 216 269 321 386
#     4  10  23  42  63  90 130 173 216 265 324 382
#     4   9  20  39  61  88 119 158 204 253 315 377
#     4  10  21  38  65  91 124 165 206 263 325 384
#
# _framework density 23.234105
#
# number of rings (size 3 to 8) (size 9 to 14) (size 15 to 20)
#    0.000    2.000    0.000    1.714   10.000    4.571 
#    0.000    0.000    0.000    2.571    0.000    0.000 
#    0.000    0.000    0.000    0.000    0.000    0.000 
#
# Total GULP energy -156461.944081 kJ/mol
# GULP energy per Si atom -5587.926574 kJ/mol
# Density = 2.318122 g / cm^3
# Si number density = 23.234105 Si / 1000 Ang^3
#
#
#
# Elastic Constant Matrix: (Units=GPa)
#
#
# Indices 1 2 3 4 5 6 
#
# 1 64.6315 47.1599 3.2279 0.0000 0.0000 0.0000
# 2 47.1599 167.6075 32.1417 0.0000 0.0000 0.0000
# 3 3.2279 32.1417 72.4398 0.0000 0.0000 0.0000
# 4 0.0000 0.0000 0.0000 23.1480 0.0000 0.0000
# 5 0.0000 0.0000 0.0000 0.0000 17.0886 0.0000
# 6 0.0000 0.0000 0.0000 0.0000 0.0000 12.0062
#
#
#
# Elastic Compliance Matrix: (Units=1/GPa)
#
#
# Indices 1 2 3 4 5 6 
#
# 1 0.019665 -0.005864 0.001726 0.000000 0.000000 0.000000
# 2 -0.005864 0.008270 -0.003408 0.000000 0.000000 0.000000
# 3 0.001726 -0.003408 0.015240 0.000000 0.000000 0.000000
# 4 0.000000 0.000000 0.000000 0.043200 0.000000 0.000000
# 5 0.000000 0.000000 0.000000 0.000000 0.058518 0.000000
# 6 0.000000 0.000000 0.000000 0.000000 0.000000 0.083290
#
#
# Mechanical properties :
#
#
# Convention : Reuss Voigt Hill
#
# Bulk Modulus (GPa) = 35.61035 52.19309 43.90172
# Shear Modulus (GPa) = 19.79122 25.25852 22.52487
#
# Velocity S-wave (km/s) = 2.92176 3.30074 3.11702
# Velocity P-wave (km/s) = 5.17129 6.08599 5.64719
#
# Compressibility (1/GPa) = 0.02808172
#
# Stress axis : x y z
#
# Youngs Moduli (GPa) = 50.85171 120.92105 65.61750
#
# Poissons Ratio (x) = 0.70909 -0.11323
# Poissons Ratio (y) = 0.29820 0.22363
# Poissons Ratio (z) = -0.08775 0.41211
#
# Static dielectric constant tensor:
#      x y z
#    x 1.879770 0.000000 0.000000 
#    y 0.000000 1.866760 0.000000 
#    z 0.000000 0.000000 1.977840 
# 
# From -- ./inp_files/3092.got.cif
#   From: 2010.05.17/outbox.cif.g08.bks.cpg/sg35_2_cif.got.tgz:3092.got - 2010.06.03 17:29:28.
