data_PCOD9349070
_publ_section_title
;
Structure prediction by ZEFSAII (Michael W. Deem and Ramdas Pophale) SiO2 
 PCOD9349070
Probable space group: C M M 2
;
_chemical_formula_sum "Si O2"
_cell_formula_units_Z 32
_cell_length_a 15.440459
_cell_length_b 14.155611
_cell_length_c 7.586919
_cell_angle_alpha 90.000000
_cell_angle_beta 90.000000
_cell_angle_gamma 90.000000
_cell_volume 1658.266295
_symmetry_space_group_name_H-M "C M M 2"
_symmetry_group_IT_number 35
_symmetry_cell_setting 'orthorhombic'
loop_
_space_group_symop_operation_xyz
x,y,z
-x,-y,z
-x,y,z
x,-y,z
1/2+x,1/2+y,z
1/2-x,1/2-y,z
1/2-x,1/2+y,z
1/2+x,1/2-y,z
loop_
_atom_site_type_symbol
_atom_site_label
_atom_site_fract_x
_atom_site_fract_y
_atom_site_fract_z
Si Si1 0.595719 0.611106 0.277010
Si Si2 0.785214 0.612673 0.393212
Si Si3 0.902825 0.611884 0.715400
Si Si4 0.845515 0.275512 0.047403
O O1 0.500000 0.627346 0.356474
O O2 0.600359 0.500000 0.228355
O O3 0.681722 0.630528 0.392500
O O4 0.607082 0.680694 0.111457
O O5 0.797610 0.500000 0.375507
O O6 0.833362 0.643069 0.570185
O O7 0.826914 0.662891 0.223353
O O8 0.889822 0.500000 0.748629
O O9 0.000000 0.624252 0.643432
O O10 0.893423 0.667025 0.897409
O O11 0.750000 0.250000 0.978375
#
# Coordination Sequence:
#
# PCOD9349070 Si02
#       4
#     8   8   8   8
#     4   9  18  34  57  82 108 144 187 226 268 319
#     4   9  19  36  56  80 112 145 179 224 274 324
#     4  10  21  36  56  84 114 143 179 223 272 328
#     4  10  20  34  56  81 110 146 182 222 272 324
#
# _framework density 19.297263000000001
#
# number of rings (size 3 to 8) (size 9 to 14) (size 15 to 20)
#    0.000    2.500    0.000    1.500    0.000    6.000 
#    0.000    2.500    0.000    7.500    0.000   24.500 
#    0.000    0.000    0.000    0.000    0.000    0.000 
#
# Total GULP energy -89230.003668 kJ/mol
# GULP energy per Si atom -5576.875229 kJ/mol
# Density = 1.925334 g / cm^3
# Si number density = 19.297263 Si / 1000 Ang^3
#
#
#
# Elastic Constant Matrix: (Units=GPa)
#
#
# Indices 1 2 3 4 5 6 
#
# 1 136.6480 49.2086 70.3192 0.0000 0.0000 0.0000
# 2 49.2086 69.7504 40.5981 0.0000 0.0000 0.0000
# 3 70.3192 40.5981 87.3186 0.0000 0.0000 0.0000
# 4 0.0000 0.0000 0.0000 22.3661 0.0000 0.0000
# 5 0.0000 0.0000 0.0000 0.0000 13.1933 0.0000
# 6 0.0000 0.0000 0.0000 0.0000 0.0000 6.7104
#
#
#
# Elastic Compliance Matrix: (Units=1/GPa)
#
#
# Indices 1 2 3 4 5 6 
#
# 1 0.013394 -0.004348 -0.008765 0.000000 0.000000 0.000000
# 2 -0.004348 0.021068 -0.006294 0.000000 0.000000 0.000000
# 3 -0.008765 -0.006294 0.021437 0.000000 0.000000 0.000000
# 4 0.000000 0.000000 0.000000 0.044711 0.000000 0.000000
# 5 0.000000 0.000000 0.000000 0.000000 0.075796 0.000000
# 6 0.000000 0.000000 0.000000 0.000000 0.000000 0.149023
#
#
# Mechanical properties :
#
#
# Convention : Reuss Voigt Hill
#
# Bulk Modulus (GPa) = 58.52907 68.21875 63.37391
# Shear Modulus (GPa) = 13.51578 17.36002 15.43790
#
# Velocity S-wave (km/s) = 2.64938 3.00260 2.83150
# Velocity P-wave (km/s) = 6.30516 6.88833 6.60319
#
# Compressibility (1/GPa) = 0.01708553
#
# Stress axis : x y z
#
# Youngs Moduli (GPa) = 74.65800 47.46645 46.64759
#
# Poissons Ratio (x) = 0.20638 0.40888
# Poissons Ratio (y) = 0.32461 0.29359
# Poissons Ratio (z) = 0.65439 0.29874
#
# Static dielectric constant tensor:
#      x y z
#    x 1.704180 0.000000 0.000000 
#    y 0.000000 1.690600 0.000000 
#    z 0.000000 0.000000 1.616500 
# 
# From -- ./inp_files/1536.got.cif
#   From: 2010.05.17/outbox.cif.g08.bks.cpg/sg35_1_cif.got.tgz:1536.got - 2010.06.03 17:29:28.
