data_PCOD9349239
_publ_section_title
;
Structure prediction by ZEFSAII (Michael W. Deem and Ramdas Pophale) SiO2 
 PCOD9349239
Probable space group: C M M 2
;
_chemical_formula_sum "Si O2"
_cell_formula_units_Z 64
_cell_length_a 29.557643
_cell_length_b 8.844206
_cell_length_c 12.593527
_cell_angle_alpha 90.000000
_cell_angle_beta 90.000000
_cell_angle_gamma 90.000000
_cell_volume 3292.122801
_symmetry_space_group_name_H-M "C M M 2"
_symmetry_group_IT_number 35
_symmetry_cell_setting 'orthorhombic'
loop_
_space_group_symop_operation_xyz
x,y,z
-x,-y,z
-x,y,z
x,-y,z
1/2+x,1/2+y,z
1/2-x,1/2-y,z
1/2-x,1/2+y,z
1/2+x,1/2-y,z
loop_
_atom_site_type_symbol
_atom_site_label
_atom_site_fract_x
_atom_site_fract_y
_atom_site_fract_z
Si Si1 0.112828 0.821095 0.823780
Si Si2 0.702628 0.178731 0.906263
Si Si3 0.948978 0.673537 0.995502
Si Si4 0.553177 0.682586 0.618161
Si Si5 0.078822 0.826575 0.200222
Si Si6 0.817030 0.827456 0.130910
Si Si7 0.106447 0.681056 0.420258
Si Si8 0.796939 0.182522 0.371954
O O1 0.160668 0.739439 0.837571
O O2 0.082733 0.778137 0.721998
O O3 0.120628 0.000000 0.821497
O O4 0.083222 0.777366 0.925942
O O5 0.750000 0.250000 0.871267
O O6 0.704605 0.000000 0.900587
O O7 0.694836 0.228854 0.029129
O O8 0.933054 0.500000 0.990936
O O9 0.949005 0.730906 0.115960
O O10 0.000000 0.681084 0.953252
O O11 0.500000 0.722329 0.629249
O O12 0.555482 0.500000 0.604674
O O13 0.576771 0.762846 0.518882
O O14 0.129243 0.830058 0.150161
O O15 0.083715 0.748072 0.313718
O O16 0.063185 0.000000 0.210629
O O17 0.798923 0.777397 0.245877
O O18 0.801631 0.000000 0.110198
O O19 0.108715 0.500000 0.415408
O O20 0.157502 0.749085 0.422814
O O21 0.750000 0.250000 0.414969
O O22 0.798158 0.000000 0.379617
#
# Coordination Sequence:
#
# PCOD9349239 Si02
#       8
#     8   8   8   8   8   8   8   8
#     4  11  23  42  66  91 122 158 203 255 308 368
#     4  12  24  37  58  87 124 165 206 252 303 362
#     4  11  23  37  57  89 126 162 201 248 306 370
#     4  10  23  45  71  94 117 154 205 258 312 371
#     4  10  20  36  59  85 121 165 206 250 302 363
#     4   9  18  33  54  83 119 161 206 250 296 355
#     4  11  23  39  62  91 125 161 203 256 311 366
#     4  10  20  35  57  87 125 166 210 254 301 361
#
# _framework density 19.440342000000001
#
# number of rings (size 3 to 8) (size 9 to 14) (size 15 to 20)
#    0.000    1.500    1.250    5.250    0.000    6.750 
#    0.000    0.625    0.000    3.000    0.000    0.000 
#    0.000    0.000    0.000    0.000    0.000    0.000 
#
# Total GULP energy -178810.506141 kJ/mol
# GULP energy per Si atom -5587.828317 kJ/mol
# Density = 1.939610 g / cm^3
# Si number density = 19.440342 Si / 1000 Ang^3
#
#
#
# Elastic Constant Matrix: (Units=GPa)
#
#
# Indices 1 2 3 4 5 6 
#
# 1 126.1706 52.4848 58.8969 0.0000 0.0000 0.0000
# 2 52.4848 85.3113 49.2293 0.0000 0.0000 0.0000
# 3 58.8969 49.2293 102.0539 0.0000 0.0000 0.0000
# 4 0.0000 0.0000 0.0000 -55.3504 0.0000 0.0000
# 5 0.0000 0.0000 0.0000 0.0000 10.5549 0.0000
# 6 0.0000 0.0000 0.0000 0.0000 0.0000 25.7167
#
#
#
# Elastic Compliance Matrix: (Units=1/GPa)
#
#
# Indices 1 2 3 4 5 6 
#
# 1 0.012082 -0.004725 -0.004694 0.000000 0.000000 0.000000
# 2 -0.004725 0.018091 -0.006000 0.000000 0.000000 0.000000
# 3 -0.004694 -0.006000 0.015402 0.000000 0.000000 0.000000
# 4 0.000000 0.000000 0.000000 -0.018067 0.000000 0.000000
# 5 0.000000 0.000000 0.000000 0.000000 0.094743 0.000000
# 6 0.000000 0.000000 0.000000 0.000000 0.000000 0.038885
#
#
# Mechanical properties :
#
#
# Convention : Reuss Voigt Hill
#
# Bulk Modulus (GPa) = 67.85159 70.52865 69.19012
# Shear Modulus (GPa) = 25.39538 6.37921 15.88730
#
# Velocity S-wave (km/s) = 3.61823 1.81344 2.86183
# Velocity P-wave (km/s) = 7.24111 6.38303 6.82557
#
# Compressibility (1/GPa) = 0.01473805
#
# Stress axis : x y z
#
# Youngs Moduli (GPa) = 82.76650 55.27661 64.92691
#
# Poissons Ratio (x) = 0.26116 0.30475
# Poissons Ratio (y) = 0.39104 0.38957
# Poissons Ratio (z) = 0.38848 0.33167
#
# Static dielectric constant tensor:
#      x y z
#    x 1.709260 0.000000 0.000000 
#    y 0.000000 1.674120 0.000000 
#    z 0.000000 0.000000 1.661140 
# 
# From -- ./inp_files/12031.got.cif
#   From: 2010.05.17/outbox.cif.g08.bks.cpg/sg35_7_cif.got.tgz:12031.got - 2010.06.03 17:29:28.
