data_PCOD9349074
_publ_section_title
;
Structure prediction by ZEFSAII (Michael W. Deem and Ramdas Pophale) SiO2 
 PCOD9349074
Probable space group: C M M 2
;
_chemical_formula_sum "Si O2"
_cell_formula_units_Z 56
_cell_length_a 22.312425
_cell_length_b 8.828701
_cell_length_c 14.747372
_cell_angle_alpha 90.000000
_cell_angle_beta 90.000000
_cell_angle_gamma 90.000000
_cell_volume 2905.080812
_symmetry_space_group_name_H-M "C M M 2"
_symmetry_group_IT_number 35
_symmetry_cell_setting 'orthorhombic'
loop_
_space_group_symop_operation_xyz
x,y,z
-x,-y,z
-x,y,z
x,-y,z
1/2+x,1/2+y,z
1/2-x,1/2-y,z
1/2-x,1/2+y,z
1/2+x,1/2-y,z
loop_
_atom_site_type_symbol
_atom_site_label
_atom_site_fract_x
_atom_site_fract_y
_atom_site_fract_z
Si Si1 0.500000 0.676433 0.158260
Si Si2 0.123794 0.819116 0.366528
Si Si3 0.119144 0.821230 0.038039
Si Si4 0.429729 0.178750 0.859816
Si Si5 0.568069 0.316837 0.660418
Si Si6 0.186089 0.182088 0.548349
Si Si7 0.000000 0.679376 0.354906
Si Si8 0.313659 0.179788 0.197195
O O1 0.500000 0.500000 0.189037
O O2 0.442219 0.699900 0.095348
O O3 0.500000 0.779403 0.247332
O O4 0.172229 0.780445 0.443303
O O5 0.059392 0.755298 0.394932
O O6 0.140582 0.745923 0.270964
O O7 0.120710 0.000000 0.357385
O O8 0.168271 0.735566 0.097482
O O9 0.131819 0.000000 0.034252
O O10 0.109059 0.754498 0.938623
O O11 0.500000 0.196662 0.885095
O O12 0.422634 0.257483 0.762581
O O13 0.417238 0.000000 0.852907
O O14 0.500000 0.267993 0.632014
O O15 0.567706 0.500000 0.659401
O O16 0.626090 0.267808 0.602379
O O17 0.250000 0.250000 0.576981
O O18 0.189549 0.000000 0.556203
O O19 0.000000 0.500000 0.367003
O O20 0.250000 0.250000 0.221383
O O21 0.312838 0.000000 0.201902
#
# Coordination Sequence:
#
# PCOD9349074 Si02
#       8
#     4   8   8   8   8   8   4   8
#     4  10  20  34  56  83 116 153 192 233 286 346
#     4  11  23  40  62  87 120 160 202 247 302 362
#     4  11  21  36  59  86 117 156 198 240 290 348
#     4  10  20  34  56  88 123 154 190 241 303 359
#     4   9  19  38  63  89 118 154 201 249 304 369
#     4  10  23  41  65  91 118 158 202 252 306 365
#     4  12  24  36  56  89 124 159 198 249 306 354
#     4  12  25  41  59  82 116 158 205 251 299 354
#
# _framework density 19.276572999999999
#
# number of rings (size 3 to 8) (size 9 to 14) (size 15 to 20)
#    0.000    1.429    2.143    3.643    1.000    4.000 
#    0.000    0.714    0.000    1.714    0.000    0.000 
#    0.000    0.000    0.000    0.000    0.000    0.000 
#
# Total GULP energy -156435.333159 kJ/mol
# GULP energy per Si atom -5586.976184 kJ/mol
# Density = 1.923270 g / cm^3
# Si number density = 19.276573 Si / 1000 Ang^3
#
#
#
# Elastic Constant Matrix: (Units=GPa)
#
#
# Indices 1 2 3 4 5 6 
#
# 1 117.5396 35.8044 40.9776 0.0000 0.0000 0.0000
# 2 35.8044 68.8678 24.6876 0.0000 0.0000 0.0000
# 3 40.9776 24.6876 79.9624 0.0000 0.0000 0.0000
# 4 0.0000 0.0000 0.0000 17.4308 0.0000 0.0000
# 5 0.0000 0.0000 0.0000 0.0000 19.5666 0.0000
# 6 0.0000 0.0000 0.0000 0.0000 0.0000 29.8637
#
#
#
# Elastic Compliance Matrix: (Units=1/GPa)
#
#
# Indices 1 2 3 4 5 6 
#
# 1 0.011391 -0.004306 -0.004508 0.000000 0.000000 0.000000
# 2 -0.004306 0.017956 -0.003337 0.000000 0.000000 0.000000
# 3 -0.004508 -0.003337 0.015846 0.000000 0.000000 0.000000
# 4 0.000000 0.000000 0.000000 0.057370 0.000000 0.000000
# 5 0.000000 0.000000 0.000000 0.000000 0.051107 0.000000
# 6 0.000000 0.000000 0.000000 0.000000 0.000000 0.033485
#
#
# Mechanical properties :
#
#
# Convention : Reuss Voigt Hill
#
# Bulk Modulus (GPa) = 47.86787 52.14544 50.00665
# Shear Modulus (GPa) = 22.89154 24.36558 23.62856
#
# Velocity S-wave (km/s) = 3.44980 3.55913 3.50489
# Velocity P-wave (km/s) = 6.38390 6.63324 6.50976
#
# Compressibility (1/GPa) = 0.02089084
#
# Stress axis : x y z
#
# Youngs Moduli (GPa) = 87.78752 55.69306 63.10636
#
# Poissons Ratio (x) = 0.23983 0.28448
# Poissons Ratio (y) = 0.37803 0.21057
# Poissons Ratio (z) = 0.39575 0.18584
#
# Static dielectric constant tensor:
#      x y z
#    x 1.671560 0.000000 0.000000 
#    y 0.000000 1.641650 0.000000 
#    z 0.000000 0.000000 1.649490 
# 
# From -- ./inp_files/17464.got.cif
#   From: 2010.05.17/outbox.cif.g08.bks.cpg/sg35_9_cif.got.tgz:17464.got - 2010.06.03 17:29:28.
