data_PCOD9349890
_publ_section_title
;
Structure prediction by ZEFSAII (Michael W. Deem and Ramdas Pophale) SiO2 
 PCOD9349890
Probable space group: C M M 2
;
_chemical_formula_sum "Si O2"
_cell_formula_units_Z 48
_cell_length_a 14.379967
_cell_length_b 24.285379
_cell_length_c 6.755593
_cell_angle_alpha 90.000000
_cell_angle_beta 90.000000
_cell_angle_gamma 90.000000
_cell_volume 2359.208107
_symmetry_space_group_name_H-M "C M M 2"
_symmetry_group_IT_number 35
_symmetry_cell_setting 'orthorhombic'
loop_
_space_group_symop_operation_xyz
x,y,z
-x,-y,z
-x,y,z
x,-y,z
1/2+x,1/2+y,z
1/2-x,1/2-y,z
1/2-x,1/2+y,z
1/2+x,1/2-y,z
loop_
_atom_site_type_symbol
_atom_site_label
_atom_site_fract_x
_atom_site_fract_y
_atom_site_fract_z
Si Si1 0.390734 0.332551 0.843580
Si Si2 0.097902 0.564480 0.102653
Si Si3 0.262589 0.437665 0.794821
Si Si4 0.890965 0.291629 0.813704
Si Si5 0.160655 0.379663 0.479579
Si Si6 0.756951 0.810591 0.173171
O O1 0.500000 0.341743 0.828281
O O2 0.335173 0.387318 0.780105
O O3 0.369111 0.271922 0.750798
O O4 0.353900 0.322389 0.066283
O O5 0.098671 0.500000 0.151596
O O6 0.097175 0.599289 0.302215
O O7 0.000000 0.575851 0.990991
O O8 0.191173 0.573022 0.976050
O O9 0.299823 0.500000 0.811745
O O10 0.198321 0.430964 0.602759
O O11 0.876990 0.334758 0.635269
O O12 0.000000 0.291988 0.874837
O O13 0.822086 0.308007 0.995849
O O14 0.241342 0.351768 0.350813
O O15 0.750000 0.750000 0.260223
#
# Coordination Sequence:
#
# PCOD9349890 Si02
#       6
#     8   8   8   8   8   8
#     4  10  21  44  65  85 121 164 206 252 304 359
#     4  10  22  40  61  90 128 165 203 247 301 369
#     4  11  24  41  62  89 124 165 210 258 303 354
#     4  10  22  38  63  96 129 157 192 245 310 379
#     4  12  21  36  64  93 126 156 201 248 308 369
#     4  10  22  38  61  89 125 159 195 246 306 371
#
# _framework density 20.345808999999999
#
# number of rings (size 3 to 8) (size 9 to 14) (size 15 to 20)
#    0.000    1.500    3.333    1.000    2.333    4.333 
#    0.000    2.500    0.000    0.000    0.000    0.000 
#    0.000    0.000    0.000    0.000    0.000    0.000 
#
# Total GULP energy -133759.196463 kJ/mol
# GULP energy per Si atom -5573.299853 kJ/mol
# Density = 2.029950 g / cm^3
# Si number density = 20.345809 Si / 1000 Ang^3
#
#
#
# Elastic Constant Matrix: (Units=GPa)
#
#
# Indices 1 2 3 4 5 6 
#
# 1 82.2978 33.7869 21.6708 0.0000 0.0000 0.0000
# 2 33.7869 149.2175 27.7281 0.0000 0.0000 0.0000
# 3 21.6708 27.7281 72.2135 0.0000 0.0000 0.0000
# 4 0.0000 0.0000 0.0000 30.4090 0.0000 0.0000
# 5 0.0000 0.0000 0.0000 0.0000 7.2586 0.0000
# 6 0.0000 0.0000 0.0000 0.0000 0.0000 13.6807
#
#
#
# Elastic Compliance Matrix: (Units=1/GPa)
#
#
# Indices 1 2 3 4 5 6 
#
# 1 0.014062 -0.002584 -0.003228 0.000000 0.000000 0.000000
# 2 -0.002584 0.007691 -0.002178 0.000000 0.000000 0.000000
# 3 -0.003228 -0.002178 0.015653 0.000000 0.000000 0.000000
# 4 0.000000 0.000000 0.000000 0.032885 0.000000 0.000000
# 5 0.000000 0.000000 0.000000 0.000000 0.137768 0.000000
# 6 0.000000 0.000000 0.000000 0.000000 0.000000 0.073096
#
#
# Mechanical properties :
#
#
# Convention : Reuss Voigt Hill
#
# Bulk Modulus (GPa) = 46.67084 52.23340 49.45212
# Shear Modulus (GPa) = 16.43245 24.97252 20.70249
#
# Velocity S-wave (km/s) = 2.84502 3.50723 3.19334
# Velocity P-wave (km/s) = 5.81212 6.49072 6.16077
#
# Compressibility (1/GPa) = 0.02142666
#
# Stress axis : x y z
#
# Youngs Moduli (GPa) = 71.11455 130.01440 63.88702
#
# Poissons Ratio (x) = 0.33599 0.20620
# Poissons Ratio (y) = 0.18378 0.13913
# Poissons Ratio (z) = 0.22953 0.28315
#
# Static dielectric constant tensor:
#      x y z
#    x 1.763490 0.000000 0.000000 
#    y 0.000000 1.777070 0.000000 
#    z 0.000000 0.000000 1.701410 
# 
# From -- ./inp_files/1915.got.cif
#   From: 2010.05.17/outbox.cif.g08.bks.cpg/sg35_1_cif.got.tgz:1915.got - 2010.06.03 17:29:28.
