data_PCOD9349201
_publ_section_title
;
Structure prediction by ZEFSAII (Michael W. Deem and Ramdas Pophale) SiO2 
 PCOD9349201
Probable space group: C M M 2
;
_chemical_formula_sum "Si O2"
_cell_formula_units_Z 48
_cell_length_a 7.744304
_cell_length_b 15.975350
_cell_length_c 17.923125
_cell_angle_alpha 90.000000
_cell_angle_beta 90.000000
_cell_angle_gamma 90.000000
_cell_volume 2217.412586
_symmetry_space_group_name_H-M "C M M 2"
_symmetry_group_IT_number 35
_symmetry_cell_setting 'orthorhombic'
loop_
_space_group_symop_operation_xyz
x,y,z
-x,-y,z
-x,y,z
x,-y,z
1/2+x,1/2+y,z
1/2-x,1/2-y,z
1/2-x,1/2+y,z
1/2+x,1/2-y,z
loop_
_atom_site_type_symbol
_atom_site_label
_atom_site_fract_x
_atom_site_fract_y
_atom_site_fract_z
Si Si1 0.792683 0.342068 0.714170
Si Si2 0.210860 0.401496 0.555510
Si Si3 0.208421 0.000000 0.982536
Si Si4 0.707234 0.904208 0.233933
Si Si5 0.202243 0.397662 0.394273
Si Si6 0.204108 0.158296 0.073983
Si Si7 0.708070 0.000000 0.808792
O O1 0.750000 0.250000 0.742291
O O2 0.728012 0.354178 0.629174
O O3 0.727922 0.417085 0.766223
O O4 0.000000 0.349501 0.710960
O O5 0.253717 0.500000 0.564032
O O6 0.276214 0.371341 0.474461
O O7 0.000000 0.397678 0.553236
O O8 0.249156 0.000000 0.895555
O O9 0.276866 0.917640 0.024849
O O10 0.000000 0.000000 0.988911
O O11 0.500000 0.908635 0.241651
O O12 0.776074 0.871665 0.313874
O O13 0.744082 0.852497 0.160217
O O14 0.770328 0.000000 0.222187
O O15 0.208197 0.500000 0.393825
O O16 0.000000 0.373829 0.395161
O O17 0.250000 0.250000 0.045825
O O18 0.000000 0.150953 0.072043
O O19 0.500000 0.000000 0.802528
#
# Coordination Sequence:
#
# PCOD9349201 Si02
#       7
#     8   8   4   8   8   8   4
#     4  10  20  35  56  84 113 145 184 226 270 323
#     4   8  12  24  48  74 105 145 187 227 265 312
#     4  10  24  44  64  85 112 142 176 223 282 338
#     4   9  16  29  52  82 114 148 189 232 276 326
#     4   7  11  20  41  75 107 140 185 230 267 310
#     4  11  23  40  60  85 114 147 186 228 277 334
#     4  10  22  40  62  85 110 142 182 221 268 334
#
# _framework density 21.646851000000002
#
# number of rings (size 3 to 8) (size 9 to 14) (size 15 to 20)
#    0.000    2.833    1.667    2.500    0.000    2.667 
#    0.000    4.167    0.000    3.000    0.000    2.333 
#    0.000    0.000    0.000    0.000    0.000    0.000 
#
# Total GULP energy -133884.154365 kJ/mol
# GULP energy per Si atom -5578.506432 kJ/mol
# Density = 2.159758 g / cm^3
# Si number density = 21.646851 Si / 1000 Ang^3
#
#
#
# Elastic Constant Matrix: (Units=GPa)
#
#
# Indices 1 2 3 4 5 6 
#
# 1 34.1562 4.2640 7.7817 0.0000 0.0000 0.0000
# 2 4.2640 131.4637 86.7461 0.0000 0.0000 0.0000
# 3 7.7817 86.7461 173.1497 0.0000 0.0000 0.0000
# 4 0.0000 0.0000 0.0000 -1.3505 0.0000 0.0000
# 5 0.0000 0.0000 0.0000 0.0000 -155.3106 0.0000
# 6 0.0000 0.0000 0.0000 0.0000 0.0000 9.2775
#
#
#
# Elastic Compliance Matrix: (Units=1/GPa)
#
#
# Indices 1 2 3 4 5 6 
#
# 1 0.029581 -0.000123 -0.001268 0.000000 0.000000 0.000000
# 2 -0.000123 0.011364 -0.005687 0.000000 0.000000 0.000000
# 3 -0.001268 -0.005687 0.008682 0.000000 0.000000 0.000000
# 4 0.000000 0.000000 0.000000 -0.740477 0.000000 0.000000
# 5 0.000000 0.000000 0.000000 0.000000 -0.006439 0.000000
# 6 0.000000 0.000000 0.000000 0.000000 0.000000 0.107788
#
#
# Mechanical properties :
#
#
# Convention : Reuss Voigt Hill
#
# Bulk Modulus (GPa) = 28.19265 59.59480 43.89373
# Shear Modulus (GPa) = -8.87278 -13.47821 -11.17549
#
# Velocity S-wave (km/s) = -2.02676 -2.49798 -2.27461
# Velocity P-wave (km/s) = 2.75230 4.38980 3.66371
#
# Compressibility (1/GPa) = 0.03547023
#
# Stress axis : x y z
#
# Youngs Moduli (GPa) = 33.80495 88.00083 115.18480
#
# Poissons Ratio (x) = 0.01081 0.14605
# Poissons Ratio (y) = 0.00415 0.65511
# Poissons Ratio (z) = 0.04286 0.50050
#
# Static dielectric constant tensor:
#      x y z
#    x 1.799590 0.000000 0.000000 
#    y 0.000000 1.787100 0.000000 
#    z 0.000000 0.000000 1.805860 
# 
# From -- ./inp_files/17841.got.cif
#   From: 2010.05.17/outbox.cif.g08.bks.cpg/sg35_9_cif.got.tgz:17841.got - 2010.06.03 17:29:28.
