data_PCOD9349496
_publ_section_title
;
Structure prediction by ZEFSAII (Michael W. Deem and Ramdas Pophale) SiO2 
 PCOD9349496
Probable space group: C M M 2
;
_chemical_formula_sum "Si O2"
_cell_formula_units_Z 58
_cell_length_a 29.732520
_cell_length_b 7.797094
_cell_length_c 12.162896
_cell_angle_alpha 90.000000
_cell_angle_beta 90.000000
_cell_angle_gamma 90.000000
_cell_volume 2819.690772
_symmetry_space_group_name_H-M "C M M 2"
_symmetry_group_IT_number 35
_symmetry_cell_setting 'orthorhombic'
loop_
_space_group_symop_operation_xyz
x,y,z
-x,-y,z
-x,y,z
x,-y,z
1/2+x,1/2+y,z
1/2-x,1/2-y,z
1/2-x,1/2+y,z
1/2+x,1/2-y,z
loop_
_atom_site_type_symbol
_atom_site_label
_atom_site_fract_x
_atom_site_fract_y
_atom_site_fract_z
Si Si1 0.632693 0.306044 0.208290
Si Si2 0.302230 0.704674 0.773761
Si Si3 0.949516 0.195184 0.838153
Si Si4 0.113471 0.300684 0.646321
Si Si5 0.000000 0.000000 0.371509
Si Si6 0.423134 0.200942 0.405915
Si Si7 0.697623 0.706670 0.020081
Si Si8 0.051303 0.304863 0.075079
O O1 0.646524 0.500000 0.236499
O O2 0.617488 0.211040 0.317934
O O3 0.668891 0.227902 0.123357
O O4 0.587100 0.307745 0.136809
O O5 0.306476 0.500000 0.774528
O O6 0.250000 0.750000 0.758309
O O7 0.334792 0.773592 0.679445
O O8 0.315893 0.767812 0.897117
O O9 0.915340 0.207384 0.739335
O O10 0.000000 0.239344 0.799550
O O11 0.949932 0.000000 0.879018
O O12 0.938930 0.304528 0.945318
O O13 0.102846 0.500000 0.658818
O O14 0.097372 0.251986 0.525191
O O15 0.960471 0.155107 0.376246
O O16 0.439133 0.000000 0.408611
O O17 0.692046 0.500000 0.019423
O O18 0.750000 0.750000 0.033005
O O19 0.054384 0.500000 0.116793
O O20 0.000000 0.244818 0.089869
#
# Coordination Sequence:
#
# PCOD9349496 Si02
#       8
#     8   8   8   8   2   8   8   8
#     4  11  22  39  61  88 124 164 209 264 321 383
#     4  10  20  37  64  95 129 164 206 256 316 388
#     4  10  21  35  55  82 114 154 200 247 310 384
#     4  11  24  40  60  87 123 160 207 266 316 381
#     4  12  26  48  72  90 126 180 218 284 320 376
#     4  11  27  45  66  97 127 169 227 270 323 384
#     4   9  20  37  61  94 126 162 208 258 320 391
#     4  10  21  35  53  81 117 155 198 250 310 377
#
# _framework density 20.569631999999999
#
# number of rings (size 3 to 8) (size 9 to 14) (size 15 to 20)
#    0.000    1.655    0.690    3.103    3.862    4.414 
#    0.000    0.690    0.000    1.655    0.000    0.000 
#    0.000    0.000    0.000    0.000    0.000    0.000 
#
# Total GULP energy -161645.691849 kJ/mol
# GULP energy per Si atom -5573.989374 kJ/mol
# Density = 2.052281 g / cm^3
# Si number density = 20.569632 Si / 1000 Ang^3
#
#
#
# Elastic Constant Matrix: (Units=GPa)
#
#
# Indices 1 2 3 4 5 6 
#
# 1 59.9250 6.6747 40.8681 0.0000 0.0000 0.0000
# 2 6.6747 68.8561 2.9090 0.0000 0.0000 0.0000
# 3 40.8681 2.9090 65.9193 0.0000 0.0000 0.0000
# 4 0.0000 0.0000 0.0000 21.8225 0.0000 0.0000
# 5 0.0000 0.0000 0.0000 0.0000 26.9544 0.0000
# 6 0.0000 0.0000 0.0000 0.0000 0.0000 27.3304
#
#
#
# Elastic Compliance Matrix: (Units=1/GPa)
#
#
# Indices 1 2 3 4 5 6 
#
# 1 0.029203 -0.002070 -0.018014 0.000000 0.000000 0.000000
# 2 -0.002070 0.014697 0.000635 0.000000 0.000000 0.000000
# 3 -0.018014 0.000635 0.026310 0.000000 0.000000 0.000000
# 4 0.000000 0.000000 0.000000 0.045824 0.000000 0.000000
# 5 0.000000 0.000000 0.000000 0.000000 0.037100 0.000000
# 6 0.000000 0.000000 0.000000 0.000000 0.000000 0.036589
#
#
# Mechanical properties :
#
#
# Convention : Reuss Voigt Hill
#
# Bulk Modulus (GPa) = 31.93641 32.84490 32.39065
# Shear Modulus (GPa) = 20.91532 24.83802 22.87667
#
# Velocity S-wave (km/s) = 3.19220 3.47869 3.33852
# Velocity P-wave (km/s) = 5.39875 5.66899 5.53552
#
# Compressibility (1/GPa) = 0.03131223
#
# Stress axis : x y z
#
# Youngs Moduli (GPa) = 34.24266 68.04169 38.00813
#
# Poissons Ratio (x) = 0.14084 0.68467
# Poissons Ratio (y) = 0.07088 -0.02412
# Poissons Ratio (z) = 0.61684 -0.04318
#
# Static dielectric constant tensor:
#      x y z
#    x 1.723930 0.000000 0.000000 
#    y 0.000000 1.756490 0.000000 
#    z 0.000000 0.000000 1.747000 
# 
# From -- ./inp_files/14337.got.cif
#   From: 2010.05.17/outbox.cif.g08.bks.cpg/sg35_8_cif.got.tgz:14337.got - 2010.06.03 17:29:28.
