data_PCOD9349316
_publ_section_title
;
Structure prediction by ZEFSAII (Michael W. Deem and Ramdas Pophale) SiO2 
 PCOD9349316
Probable space group: C M M 2
;
_chemical_formula_sum "Si O2"
_cell_formula_units_Z 58
_cell_length_a 30.874177
_cell_length_b 7.979003
_cell_length_c 12.870031
_cell_angle_alpha 90.000000
_cell_angle_beta 90.000000
_cell_angle_gamma 90.000000
_cell_volume 3170.469729
_symmetry_space_group_name_H-M "C M M 2"
_symmetry_group_IT_number 35
_symmetry_cell_setting 'orthorhombic'
loop_
_space_group_symop_operation_xyz
x,y,z
-x,-y,z
-x,y,z
x,-y,z
1/2+x,1/2+y,z
1/2-x,1/2-y,z
1/2-x,1/2+y,z
1/2+x,1/2-y,z
loop_
_atom_site_type_symbol
_atom_site_label
_atom_site_fract_x
_atom_site_fract_y
_atom_site_fract_z
Si Si1 0.702070 0.699937 0.583650
Si Si2 0.862068 0.203024 0.401891
Si Si3 0.200783 0.202020 0.219276
Si Si4 0.153769 0.307739 0.779520
Si Si5 0.938126 0.187457 0.719427
Si Si6 0.548537 0.198508 0.486308
Si Si7 0.700681 0.299277 0.983049
Si Si8 0.000000 0.500000 0.772349
O O1 0.699870 0.500000 0.587674
O O2 0.750000 0.750000 0.548474
O O3 0.665306 0.759102 0.503009
O O4 0.691733 0.769260 0.697458
O O5 0.834895 0.260751 0.301631
O O6 0.911354 0.262888 0.411604
O O7 0.862579 0.000000 0.401720
O O8 0.250000 0.250000 0.248410
O O9 0.199284 0.000000 0.218474
O O10 0.192443 0.260628 0.101208
O O11 0.141636 0.500000 0.767506
O O12 0.112272 0.200871 0.747680
O O13 0.169624 0.273146 0.895593
O O14 0.943983 0.207301 0.595074
O O15 0.962954 0.347881 0.766597
O O16 0.952675 0.000000 0.749793
O O17 0.500000 0.239867 0.447479
O O18 0.548798 0.000000 0.510484
O O19 0.697073 0.500000 0.981250
O O20 0.750000 0.250000 0.958055
#
# Coordination Sequence:
#
# PCOD9349316 Si02
#       8
#     8   8   8   8   8   8   8   2
#     4  11  22  34  50  76 112 155 191 225 283 352
#     4  10  21  35  54  81 112 148 190 235 291 352
#     4   9  19  36  57  82 112 145 194 242 289 351
#     4  12  23  37  54  81 116 150 195 242 289 350
#     4  12  22  37  59  84 119 156 193 245 294 350
#     4  11  21  36  54  82 114 149 194 241 288 348
#     4  10  20  36  57  81 110 149 194 246 296 345
#     4  12  22  40  56  90 116 154 206 236 300 350
#
# _framework density 18.293818999999999
#
# number of rings (size 3 to 8) (size 9 to 14) (size 15 to 20)
#    0.000    1.241    3.448    3.517    0.000    2.483 
#    0.000    0.000    0.000    0.000    1.793    0.000 
#    0.000    0.000    0.000    0.000    0.000    0.000 
#
# Total GULP energy -161683.028168 kJ/mol
# GULP energy per Si atom -5575.276833 kJ/mol
# Density = 1.825218 g / cm^3
# Si number density = 18.293819 Si / 1000 Ang^3
#
#
#
# Elastic Constant Matrix: (Units=GPa)
#
#
# Indices 1 2 3 4 5 6 
#
# 1 140.8103 19.2583 56.6744 0.0000 0.0000 0.0000
# 2 19.2583 86.3560 13.2678 0.0000 0.0000 0.0000
# 3 56.6744 13.2678 73.8010 0.0000 0.0000 0.0000
# 4 0.0000 0.0000 0.0000 5.6536 0.0000 0.0000
# 5 0.0000 0.0000 0.0000 0.0000 45.3049 0.0000
# 6 0.0000 0.0000 0.0000 0.0000 0.0000 26.1283
#
#
#
# Elastic Compliance Matrix: (Units=1/GPa)
#
#
# Indices 1 2 3 4 5 6 
#
# 1 0.010383 -0.001121 -0.007772 0.000000 0.000000 0.000000
# 2 -0.001121 0.012030 -0.001302 0.000000 0.000000 0.000000
# 3 -0.007772 -0.001302 0.019752 0.000000 0.000000 0.000000
# 4 0.000000 0.000000 0.000000 0.176879 0.000000 0.000000
# 5 0.000000 0.000000 0.000000 0.000000 0.022073 0.000000
# 6 0.000000 0.000000 0.000000 0.000000 0.000000 0.038273
#
#
# Mechanical properties :
#
#
# Convention : Reuss Voigt Hill
#
# Bulk Modulus (GPa) = 45.92302 53.26316 49.59309
# Shear Modulus (GPa) = 16.28458 29.53514 22.90986
#
# Velocity S-wave (km/s) = 2.98681 4.02243 3.54266
# Velocity P-wave (km/s) = 6.08705 7.12403 6.62586
#
# Compressibility (1/GPa) = 0.02177557
#
# Stress axis : x y z
#
# Youngs Moduli (GPa) = 96.30841 83.12528 50.62673
#
# Poissons Ratio (x) = 0.09322 0.39348
# Poissons Ratio (y) = 0.10801 0.06589
# Poissons Ratio (z) = 0.74852 0.10819
#
# Static dielectric constant tensor:
#      x y z
#    x 1.623490 0.000000 0.000000 
#    y 0.000000 1.651280 0.000000 
#    z 0.000000 0.000000 1.618610 
# 
# From -- ./inp_files/14490.got.cif
#   From: 2010.05.17/outbox.cif.g08.bks.cpg/sg35_8_cif.got.tgz:14490.got - 2010.06.03 17:29:28.
