data_PCOD9349926
_publ_section_title
;
Structure prediction by ZEFSAII (Michael W. Deem and Ramdas Pophale) SiO2 
 PCOD9349926
Probable space group: C M M 2
;
_chemical_formula_sum "Si O2"
_cell_formula_units_Z 58
_cell_length_a 16.551503
_cell_length_b 26.473839
_cell_length_c 6.876652
_cell_angle_alpha 90.000000
_cell_angle_beta 90.000000
_cell_angle_gamma 90.000000
_cell_volume 3013.223928
_symmetry_space_group_name_H-M "C M M 2"
_symmetry_group_IT_number 35
_symmetry_cell_setting 'orthorhombic'
loop_
_space_group_symop_operation_xyz
x,y,z
-x,-y,z
-x,y,z
x,-y,z
1/2+x,1/2+y,z
1/2-x,1/2-y,z
1/2-x,1/2+y,z
1/2+x,1/2-y,z
loop_
_atom_site_type_symbol
_atom_site_label
_atom_site_fract_x
_atom_site_fract_y
_atom_site_fract_z
Si Si1 0.593941 0.852894 0.795120
Si Si2 0.000000 0.000000 0.730677
Si Si3 0.301947 0.942407 0.946655
Si Si4 0.094399 0.266748 0.113988
Si Si5 0.701428 0.388349 0.273807
Si Si6 0.797689 0.297650 0.474160
Si Si7 0.648823 0.422492 0.677422
Si Si8 0.096379 0.839532 0.945331
O O1 0.500000 0.855390 0.737443
O O2 0.629504 0.906742 0.857087
O O3 0.648185 0.827822 0.627950
O O4 0.600781 0.816063 0.980778
O O5 0.928595 0.043859 0.726377
O O6 0.226786 0.940811 0.796280
O O7 0.327233 0.000000 0.976873
O O8 0.267605 0.917686 0.144959
O O9 0.146619 0.273805 0.305510
O O10 0.120451 0.218049 0.988347
O O11 0.000000 0.259241 0.165359
O O12 0.740190 0.338539 0.369735
O O13 0.666881 0.421733 0.449002
O O14 0.631269 0.371831 0.125126
O O15 0.750000 0.250000 0.562740
O O16 0.632350 0.365426 0.753651
O O17 0.000000 0.841972 0.936138
#
# Coordination Sequence:
#
# PCOD9349926 Si02
#       8
#     8   2   8   8   8   8   8   8
#     4  11  25  44  68  97 132 176 222 281 341 403
#     4  12  24  44  70  92 138 182 232 280 336 404
#     4  11  24  44  69  93 127 170 229 285 342 404
#     4  10  22  40  62  92 131 170 214 267 330 400
#     4  11  24  40  63  94 131 171 221 274 332 406
#     4  12  23  39  66 100 134 174 219 267 338 414
#     4  11  24  43  62  97 132 178 223 278 335 398
#     4  10  22  39  60  92 135 177 219 266 320 398
#
# _framework density 19.248484999999999
#
# number of rings (size 3 to 8) (size 9 to 14) (size 15 to 20)
#    0.000    1.103    5.517    0.414    3.862    0.828 
#    0.000    2.759    0.000    0.000    0.000    0.000 
#    0.000    0.000    0.000    0.000    0.000    0.000 
#
# Total GULP energy -161804.633162 kJ/mol
# GULP energy per Si atom -5579.470109 kJ/mol
# Density = 1.920467 g / cm^3
# Si number density = 19.248485 Si / 1000 Ang^3
#
#
#
# Elastic Constant Matrix: (Units=GPa)
#
#
# Indices 1 2 3 4 5 6 
#
# 1 47.0690 24.3676 27.9623 0.0000 0.0000 0.0000
# 2 24.3676 126.6542 19.0801 0.0000 0.0000 0.0000
# 3 27.9623 19.0801 68.3382 0.0000 0.0000 0.0000
# 4 0.0000 0.0000 0.0000 4.7728 0.0000 0.0000
# 5 0.0000 0.0000 0.0000 0.0000 20.9265 0.0000
# 6 0.0000 0.0000 0.0000 0.0000 0.0000 26.1532
#
#
#
# Elastic Compliance Matrix: (Units=1/GPa)
#
#
# Indices 1 2 3 4 5 6 
#
# 1 0.029970 -0.004091 -0.011121 0.000000 0.000000 0.000000
# 2 -0.004091 0.008801 -0.000783 0.000000 0.000000 0.000000
# 3 -0.011121 -0.000783 0.019402 0.000000 0.000000 0.000000
# 4 0.000000 0.000000 0.000000 0.209520 0.000000 0.000000
# 5 0.000000 0.000000 0.000000 0.000000 0.047786 0.000000
# 6 0.000000 0.000000 0.000000 0.000000 0.000000 0.038236
#
#
# Mechanical properties :
#
#
# Convention : Reuss Voigt Hill
#
# Bulk Modulus (GPa) = 38.19289 42.76461 40.47875
# Shear Modulus (GPa) = 12.67645 21.74726 17.21185
#
# Velocity S-wave (km/s) = 2.56904 3.36492 2.99355
# Velocity P-wave (km/s) = 5.35585 6.11247 5.74662
#
# Compressibility (1/GPa) = 0.02618288
#
# Stress axis : x y z
#
# Youngs Moduli (GPa) = 33.36705 113.62933 51.54072
#
# Poissons Ratio (x) = 0.46482 0.57317
# Poissons Ratio (y) = 0.13649 0.04037
# Poissons Ratio (z) = 0.37107 0.08901
#
# Static dielectric constant tensor:
#      x y z
#    x 1.659650 0.000000 0.000000 
#    y 0.000000 1.680720 0.000000 
#    z 0.000000 0.000000 1.651810 
# 
# From -- ./inp_files/2659.got.cif
#   From: 2010.05.17/outbox.cif.g08.bks.cpg/sg35_2_cif.got.tgz:2659.got - 2010.06.03 17:29:28.
