data_PCOD9349119
_publ_section_title
;
Structure prediction by ZEFSAII (Michael W. Deem and Ramdas Pophale) SiO2 
 PCOD9349119
Probable space group: C M M 2
;
_chemical_formula_sum "Si O2"
_cell_formula_units_Z 58
_cell_length_a 31.119823
_cell_length_b 7.828643
_cell_length_c 12.872562
_cell_angle_alpha 90.000000
_cell_angle_beta 90.000000
_cell_angle_gamma 90.000000
_cell_volume 3136.090590
_symmetry_space_group_name_H-M "C M M 2"
_symmetry_group_IT_number 35
_symmetry_cell_setting 'orthorhombic'
loop_
_space_group_symop_operation_xyz
x,y,z
-x,-y,z
-x,y,z
x,-y,z
1/2+x,1/2+y,z
1/2-x,1/2-y,z
1/2-x,1/2+y,z
1/2+x,1/2-y,z
loop_
_atom_site_type_symbol
_atom_site_label
_atom_site_fract_x
_atom_site_fract_y
_atom_site_fract_z
Si Si1 0.047578 0.206071 0.186920
Si Si2 0.798956 0.205706 0.442415
Si Si3 0.000000 0.500000 0.875683
Si Si4 0.938434 0.195847 0.941807
Si Si5 0.798975 0.203990 0.678151
Si Si6 0.201986 0.796718 0.076265
Si Si7 0.360993 0.290383 0.259510
Si Si8 0.652859 0.193979 0.880885
O O1 0.089730 0.267818 0.248043
O O2 0.000000 0.271864 0.215613
O O3 0.046572 0.000000 0.199149
O O4 0.054880 0.236682 0.064239
O O5 0.750000 0.250000 0.411515
O O6 0.806193 0.268385 0.560329
O O7 0.834469 0.266239 0.360586
O O8 0.801308 0.000000 0.444487
O O9 0.963084 0.346028 0.882095
O O10 0.888241 0.197809 0.913977
O O11 0.953346 0.000000 0.925048
O O12 0.750000 0.250000 0.705782
O O13 0.830624 0.273141 0.765243
O O14 0.802920 0.000000 0.677373
O O15 0.250000 0.750000 0.109297
O O16 0.166548 0.735897 0.158996
O O17 0.198870 0.000000 0.071682
O O18 0.190906 0.727289 0.962735
O O19 0.361427 0.500000 0.259675
O O20 0.639332 0.000000 0.891945
#
# Coordination Sequence:
#
# PCOD9349119 Si02
#       8
#     8   8   2   8   8   8   8   8
#     4   9  16  29  52  78 105 143 182 224 279 332
#     4   9  18  33  54  76 104 138 182 230 277 335
#     4  12  22  36  56  86 112 154 198 232 292 330
#     4  11  21  36  56  82 116 151 189 236 283 341
#     4  10  20  35  54  77 104 142 186 238 287 332
#     4  11  21  33  49  73 110 151 182 221 277 342
#     4   9  17  30  50  77 107 139 179 225 278 339
#     4  12  23  36  53  79 109 145 190 232 283 342
#
# _framework density 18.494364000000001
#
# number of rings (size 3 to 8) (size 9 to 14) (size 15 to 20)
#    0.000    1.793    2.759    3.103    0.000    0.552 
#    0.000    0.690    1.517    0.000    1.793    0.000 
#    0.000    0.000    0.000    0.000    0.000    0.000 
#
# Total GULP energy -161578.039550 kJ/mol
# GULP energy per Si atom -5571.656536 kJ/mol
# Density = 1.845227 g / cm^3
# Si number density = 18.494364 Si / 1000 Ang^3
#
#
#
# Elastic Constant Matrix: (Units=GPa)
#
#
# Indices 1 2 3 4 5 6 
#
# 1 153.1865 6.6345 59.4457 0.0000 0.0000 0.0000
# 2 6.6345 60.9962 6.6039 0.0000 0.0000 0.0000
# 3 59.4457 6.6039 73.6145 0.0000 0.0000 0.0000
# 4 0.0000 0.0000 0.0000 -3.0034 0.0000 0.0000
# 5 0.0000 0.0000 0.0000 0.0000 15.7628 0.0000
# 6 0.0000 0.0000 0.0000 0.0000 0.0000 2.3440
#
#
#
# Elastic Compliance Matrix: (Units=1/GPa)
#
#
# Indices 1 2 3 4 5 6 
#
# 1 0.009510 -0.000205 -0.007661 0.000000 0.000000 0.000000
# 2 -0.000205 0.016560 -0.001320 0.000000 0.000000 0.000000
# 3 -0.007661 -0.001320 0.019889 0.000000 0.000000 0.000000
# 4 0.000000 0.000000 0.000000 -0.332961 0.000000 0.000000
# 5 0.000000 0.000000 0.000000 0.000000 0.063440 0.000000
# 6 0.000000 0.000000 0.000000 0.000000 0.000000 0.426614
#
#
# Mechanical properties :
#
#
# Convention : Reuss Voigt Hill
#
# Bulk Modulus (GPa) = 36.24947 48.12950 42.18948
# Shear Modulus (GPa) = 21.68066 17.36157 19.52112
#
# Velocity S-wave (km/s) = 3.42758 3.06723 3.25240
# Velocity P-wave (km/s) = 5.94199 6.21484 6.07994
#
# Compressibility (1/GPa) = 0.02758661
#
# Stress axis : x y z
#
# Youngs Moduli (GPa) = 105.15443 60.38762 50.27855
#
# Poissons Ratio (x) = 0.01238 0.38519
# Poissons Ratio (y) = 0.02155 0.06637
# Poissons Ratio (z) = 0.80559 0.07971
#
# Static dielectric constant tensor:
#      x y z
#    x 1.611850 0.000000 0.000000 
#    y 0.000000 1.674230 0.000000 
#    z 0.000000 0.000000 1.624970 
# 
# From -- ./inp_files/14498.got.cif
#   From: 2010.05.17/outbox.cif.g08.bks.cpg/sg35_8_cif.got.tgz:14498.got - 2010.06.03 17:29:28.
