data_PCOD9349864
_publ_section_title
;
Structure prediction by ZEFSAII (Michael W. Deem and Ramdas Pophale) SiO2 
 PCOD9349864
Probable space group: C M M 2
;
_chemical_formula_sum "Si O2"
_cell_formula_units_Z 64
_cell_length_a 8.736190
_cell_length_b 31.683756
_cell_length_c 12.151323
_cell_angle_alpha 90.000000
_cell_angle_beta 90.000000
_cell_angle_gamma 90.000000
_cell_volume 3363.429245
_symmetry_space_group_name_H-M "C M M 2"
_symmetry_group_IT_number 35
_symmetry_cell_setting 'orthorhombic'
loop_
_space_group_symop_operation_xyz
x,y,z
-x,-y,z
-x,y,z
x,-y,z
1/2+x,1/2+y,z
1/2-x,1/2-y,z
1/2-x,1/2+y,z
1/2+x,1/2-y,z
loop_
_atom_site_type_symbol
_atom_site_label
_atom_site_fract_x
_atom_site_fract_y
_atom_site_fract_z
Si Si1 0.683379 0.205827 0.598960
Si Si2 0.815000 0.875182 0.214612
Si Si3 0.815854 0.205168 0.068117
Si Si4 0.815797 0.825802 0.826685
Si Si5 0.683382 0.123253 0.458656
Si Si6 0.816459 0.952063 0.055926
Si Si7 0.683017 0.547654 0.602514
Si Si8 0.682501 0.079684 0.828628
O O1 0.500000 0.208028 0.603182
O O2 0.750000 0.250000 0.557086
O O3 0.747553 0.197473 0.721089
O O4 0.728056 0.165943 0.523771
O O5 0.768621 0.833853 0.145030
O O6 0.742018 0.875174 0.334375
O O7 0.772540 0.916833 0.145043
O O8 0.000000 0.874875 0.224725
O O9 0.750000 0.250000 0.103677
O O10 0.000000 0.206930 0.070098
O O11 0.769239 0.195296 0.942244
O O12 0.755169 0.873632 0.826607
O O13 0.000000 0.825963 0.820301
O O14 0.500000 0.120368 0.461580
O O15 0.752878 0.083191 0.521661
O O16 0.000000 0.948061 0.037957
O O17 0.785006 0.000000 0.091800
O O18 0.734248 0.942456 0.941050
O O19 0.500000 0.551954 0.610569
O O20 0.718390 0.500000 0.565146
O O21 0.754752 0.555309 0.722472
O O22 0.500000 0.082862 0.822557
#
# Coordination Sequence:
#
# PCOD9349864 Si02
#       8
#     8   8   8   8   8   8   8   8
#     4  11  24  41  62  92 126 162 205 253 309 369
#     4  10  22  42  63  87 120 161 209 256 303 358
#     4  10  22  39  61  90 123 158 200 250 301 358
#     4  11  21  38  64  91 124 163 203 250 305 367
#     4  11  25  43  63  91 124 160 206 260 313 362
#     4  10  21  40  65  90 120 160 206 252 300 364
#     4  11  24  42  66  93 122 163 209 250 302 369
#     4  12  23  36  60  94 130 163 197 247 309 370
#
# _framework density 19.028199999999998
#
# number of rings (size 3 to 8) (size 9 to 14) (size 15 to 20)
#    0.000    1.250    2.500    3.375    0.000    8.250 
#    0.000    3.750    0.000    0.000    0.000    0.000 
#    0.000    0.000    0.000    0.000    0.000    0.000 
#
# Total GULP energy -178957.371866 kJ/mol
# GULP energy per Si atom -5592.417871 kJ/mol
# Density = 1.898489 g / cm^3
# Si number density = 19.028200 Si / 1000 Ang^3
#
#
#
# Elastic Constant Matrix: (Units=GPa)
#
#
# Indices 1 2 3 4 5 6 
#
# 1 48.1299 53.5570 45.0443 0.0000 0.0000 0.0000
# 2 53.5570 180.2497 79.2958 0.0000 0.0000 0.0000
# 3 45.0443 79.2958 147.0069 0.0000 0.0000 0.0000
# 4 0.0000 0.0000 0.0000 -1.2841 0.0000 0.0000
# 5 0.0000 0.0000 0.0000 0.0000 22.0186 0.0000
# 6 0.0000 0.0000 0.0000 0.0000 0.0000 30.9031
#
#
#
# Elastic Compliance Matrix: (Units=1/GPa)
#
#
# Indices 1 2 3 4 5 6 
#
# 1 0.035587 -0.007574 -0.006819 0.000000 0.000000 0.000000
# 2 -0.007574 0.008886 -0.002472 0.000000 0.000000 0.000000
# 3 -0.006819 -0.002472 0.010225 0.000000 0.000000 0.000000
# 4 0.000000 0.000000 0.000000 -0.778751 0.000000 0.000000
# 5 0.000000 0.000000 0.000000 0.000000 0.045416 0.000000
# 6 0.000000 0.000000 0.000000 0.000000 0.000000 0.032359
#
#
# Mechanical properties :
#
#
# Convention : Reuss Voigt Hill
#
# Bulk Modulus (GPa) = 47.69207 81.24231 64.46719
# Shear Modulus (GPa) = -8.25685 23.49349 7.61832
#
# Velocity S-wave (km/s) = -2.08535 3.51760 2.00310
# Velocity P-wave (km/s) = 4.39546 7.69977 6.26923
#
# Compressibility (1/GPa) = 0.02096785
#
# Stress axis : x y z
#
# Youngs Moduli (GPa) = 28.10038 112.53717 97.79695
#
# Poissons Ratio (x) = 0.85237 0.66684
# Poissons Ratio (y) = 0.21283 0.24179
# Poissons Ratio (z) = 0.19161 0.27823
#
# Static dielectric constant tensor:
#      x y z
#    x 1.639430 0.000000 0.000000 
#    y 0.000000 1.665660 0.000000 
#    z 0.000000 0.000000 1.626050 
# 
# From -- ./inp_files/12015.got.cif
#   From: 2010.05.17/outbox.cif.g08.bks.cpg/sg35_7_cif.got.tgz:12015.got - 2010.06.03 17:29:28.
