data_PCOD9349399
_publ_section_title
;
Structure prediction by ZEFSAII (Michael W. Deem and Ramdas Pophale) SiO2 
 PCOD9349399
Probable space group: C M M 2
;
_chemical_formula_sum "Si O2"
_cell_formula_units_Z 44
_cell_length_a 9.850749
_cell_length_b 15.213546
_cell_length_c 16.038609
_cell_angle_alpha 90.000000
_cell_angle_beta 90.000000
_cell_angle_gamma 90.000000
_cell_volume 2403.623300
_symmetry_space_group_name_H-M "C M M 2"
_symmetry_group_IT_number 35
_symmetry_cell_setting 'orthorhombic'
loop_
_space_group_symop_operation_xyz
x,y,z
-x,-y,z
-x,y,z
x,-y,z
1/2+x,1/2+y,z
1/2-x,1/2-y,z
1/2-x,1/2+y,z
1/2+x,1/2-y,z
loop_
_atom_site_type_symbol
_atom_site_label
_atom_site_fract_x
_atom_site_fract_y
_atom_site_fract_z
Si Si1 0.161469 0.830239 0.164740
Si Si2 0.341364 0.500000 0.050777
Si Si3 0.000000 0.704806 0.636805
Si Si4 0.848814 0.604982 0.304495
Si Si5 0.648051 0.000000 0.894363
Si Si6 0.274264 0.153498 0.771467
Si Si7 0.000000 0.605204 0.463657
Si Si8 0.500000 0.599574 0.682982
O O1 0.250000 0.750000 0.130313
O O2 0.185637 0.914948 0.107372
O O3 0.227951 0.850307 0.255135
O O4 0.000000 0.814590 0.169322
O O5 0.500000 0.500000 0.029673
O O6 0.257814 0.500000 0.966492
O O7 0.871728 0.673816 0.692540
O O8 0.000000 0.811056 0.627615
O O9 0.000000 0.657891 0.548278
O O10 0.832383 0.500000 0.298167
O O11 0.000000 0.626212 0.267577
O O12 0.872267 0.625458 0.402344
O O13 0.662788 0.914999 0.835405
O O14 0.500000 0.000000 0.934044
O O15 0.250000 0.250000 0.810247
O O16 0.134128 0.112146 0.738875
O O17 0.000000 0.500000 0.478968
O O18 0.500000 0.500000 0.647077
#
# Coordination Sequence:
#
# PCOD9349399 Si02
#       8
#     8   4   4   8   4   8   4   4
#     4  11  22  40  66  95 124 166 208 250 310 382
#     4  10  26  44  62  92 128 161 201 253 317 366
#     4  10  20  38  62  88 128 156 220 260 291 373
#     4   8  16  34  60  92 120 156 212 241 312 369
#     4  12  24  40  62  94 120 157 207 263 305 368
#     4  10  22  38  60  89 119 166 208 251 309 364
#     4   8  18  32  62  96 121 166 199 258 314 356
#     4  10  20  36  60  88 113 170 209 250 311 359
#
# _framework density 18.305696000000001
#
# number of rings (size 3 to 8) (size 9 to 14) (size 15 to 20)
#    0.545    1.636    2.727    0.545    2.545    2.182 
#    0.000    4.545    2.000    0.000    2.364    0.000 
#    0.000    0.000    0.000    0.000    0.000    0.000 
#
# Total GULP energy -122565.832564 kJ/mol
# GULP energy per Si atom -5571.174207 kJ/mol
# Density = 1.826403 g / cm^3
# Si number density = 18.305696 Si / 1000 Ang^3
#
#
#
# Elastic Constant Matrix: (Units=GPa)
#
#
# Indices 1 2 3 4 5 6 
#
# 1 105.0229 55.7771 41.8742 0.0000 0.0000 0.0000
# 2 55.7771 150.0311 67.5247 0.0000 0.0000 0.0000
# 3 41.8742 67.5247 92.7453 0.0000 0.0000 0.0000
# 4 0.0000 0.0000 0.0000 -14.0802 0.0000 0.0000
# 5 0.0000 0.0000 0.0000 0.0000 23.4241 0.0000
# 6 0.0000 0.0000 0.0000 0.0000 0.0000 20.1523
#
#
#
# Elastic Compliance Matrix: (Units=1/GPa)
#
#
# Indices 1 2 3 4 5 6 
#
# 1 0.012535 -0.003143 -0.003371 0.000000 0.000000 0.000000
# 2 -0.003143 0.010702 -0.006373 0.000000 0.000000 0.000000
# 3 -0.003371 -0.006373 0.016944 0.000000 0.000000 0.000000
# 4 0.000000 0.000000 0.000000 -0.071022 0.000000 0.000000
# 5 0.000000 0.000000 0.000000 0.000000 0.042691 0.000000
# 6 0.000000 0.000000 0.000000 0.000000 0.000000 0.049622
#
#
# Mechanical properties :
#
#
# Convention : Reuss Voigt Hill
#
# Bulk Modulus (GPa) = 69.40923 75.35015 72.37969
# Shear Modulus (GPa) = 54.31913 18.07413 36.19663
#
# Velocity S-wave (km/s) = 5.45323 3.14562 4.45156
# Velocity P-wave (km/s) = 8.81189 7.37867 8.12693
#
# Compressibility (1/GPa) = 0.01440731
#
# Stress axis : x y z
#
# Youngs Moduli (GPa) = 79.77606 93.44177 59.01758
#
# Poissons Ratio (x) = 0.29367 0.19897
# Poissons Ratio (y) = 0.25072 0.37610
# Poissons Ratio (z) = 0.26895 0.59547
#
# Static dielectric constant tensor:
#      x y z
#    x 1.642290 0.000000 0.000000 
#    y 0.000000 1.659780 0.000000 
#    z 0.000000 0.000000 1.589360 
# 
# From -- ./inp_files/17812.got.cif
#   From: 2010.05.17/outbox.cif.g08.bks.cpg/sg35_9_cif.got.tgz:17812.got - 2010.06.03 17:29:28.
