data_PCOD9349940
_publ_section_title
;
Structure prediction by ZEFSAII (Michael W. Deem and Ramdas Pophale) SiO2 
 PCOD9349940
Probable space group: C M M 2
;
_chemical_formula_sum "Si O2"
_cell_formula_units_Z 48
_cell_length_a 8.780881
_cell_length_b 18.848174
_cell_length_c 15.739219
_cell_angle_alpha 90.000000
_cell_angle_beta 90.000000
_cell_angle_gamma 90.000000
_cell_volume 2604.896980
_symmetry_space_group_name_H-M "C M M 2"
_symmetry_group_IT_number 35
_symmetry_cell_setting 'orthorhombic'
loop_
_space_group_symop_operation_xyz
x,y,z
-x,-y,z
-x,y,z
x,-y,z
1/2+x,1/2+y,z
1/2-x,1/2-y,z
1/2-x,1/2+y,z
1/2+x,1/2-y,z
loop_
_atom_site_type_symbol
_atom_site_label
_atom_site_fract_x
_atom_site_fract_y
_atom_site_fract_z
Si Si1 0.181865 0.671101 0.481410
Si Si2 0.182360 0.171496 0.158969
Si Si3 0.183799 0.417342 0.004952
Si Si4 0.819348 0.827933 0.660907
Si Si5 0.678720 0.914967 0.811546
Si Si6 0.816574 0.917023 0.327001
O O1 0.250000 0.750000 0.467272
O O2 0.245086 0.646062 0.572692
O O3 0.237408 0.620047 0.406759
O O4 0.000000 0.675539 0.483839
O O5 0.250000 0.250000 0.165968
O O6 0.242754 0.132368 0.075106
O O7 0.225668 0.124794 0.241230
O O8 0.000000 0.175698 0.155928
O O9 0.227375 0.500000 0.018271
O O10 0.000000 0.413787 0.010573
O O11 0.224966 0.396772 0.908207
O O12 0.750000 0.750000 0.676173
O O13 0.775338 0.876927 0.739739
O O14 0.000000 0.822852 0.650284
O O15 0.500000 0.896070 0.800854
O O16 0.690141 0.000000 0.804162
O O17 0.000000 0.911688 0.337039
O O18 0.777202 0.000000 0.320436
#
# Coordination Sequence:
#
# PCOD9349940 Si02
#       6
#     8   8   8   8   8   8
#     4  11  22  38  60  84 112 147 187 230 278 331
#     4  11  23  38  58  84 114 149 187 230 278 329
#     4   9  19  37  60  84 112 147 186 231 281 331
#     4  11  22  37  58  83 113 149 188 231 279 330
#     4   9  19  37  59  83 113 148 186 230 280 332
#     4  10  22  40  60  84 114 146 183 229 279 330
#
# _framework density 18.426831
#
# number of rings (size 3 to 8) (size 9 to 14) (size 15 to 20)
#    0.000    1.833    0.000    6.500    0.000    6.333 
#    0.000    1.667    0.000    0.000    0.000    0.000 
#    0.000    0.000    0.000    0.000    0.000    0.000 
#
# Total GULP energy -134110.403247 kJ/mol
# GULP energy per Si atom -5587.933469 kJ/mol
# Density = 1.838489 g / cm^3
# Si number density = 18.426831 Si / 1000 Ang^3
#
#
#
# Elastic Constant Matrix: (Units=GPa)
#
#
# Indices 1 2 3 4 5 6 
#
# 1 89.9128 59.2206 77.4685 0.0000 0.0000 0.0000
# 2 59.2206 106.2190 101.8978 0.0000 0.0000 0.0000
# 3 77.4685 101.8978 174.4158 0.0000 0.0000 0.0000
# 4 0.0000 0.0000 0.0000 40.0181 0.0000 0.0000
# 5 0.0000 0.0000 0.0000 0.0000 18.0677 0.0000
# 6 0.0000 0.0000 0.0000 0.0000 0.0000 17.6403
#
#
#
# Elastic Compliance Matrix: (Units=1/GPa)
#
#
# Indices 1 2 3 4 5 6 
#
# 1 0.019482 -0.005826 -0.005249 0.000000 0.000000 0.000000
# 2 -0.005826 0.023161 -0.010944 0.000000 0.000000 0.000000
# 3 -0.005249 -0.010944 0.014459 0.000000 0.000000 0.000000
# 4 0.000000 0.000000 0.000000 0.024989 0.000000 0.000000
# 5 0.000000 0.000000 0.000000 0.000000 0.055348 0.000000
# 6 0.000000 0.000000 0.000000 0.000000 0.000000 0.056688
#
#
# Mechanical properties :
#
#
# Convention : Reuss Voigt Hill
#
# Bulk Modulus (GPa) = 76.54861 94.19126 85.36993
# Shear Modulus (GPa) = 20.61698 23.94260 22.27979
#
# Velocity S-wave (km/s) = 3.34856 3.60854 3.48098
# Velocity P-wave (km/s) = 7.52214 8.28187 7.91113
#
# Compressibility (1/GPa) = 0.01306360
#
# Stress axis : x y z
#
# Youngs Moduli (GPa) = 51.32929 43.17603 69.16339
#
# Poissons Ratio (x) = 0.25154 0.36307
# Poissons Ratio (y) = 0.29904 0.75689
# Poissons Ratio (z) = 0.26945 0.47250
#
# Static dielectric constant tensor:
#      x y z
#    x 1.619070 0.000000 0.000000 
#    y 0.000000 1.607930 0.000000 
#    z 0.000000 0.000000 1.618100 
# 
# From -- ./inp_files/15089.got.cif
#   From: 2010.05.17/outbox.cif.g08.bks.cpg/sg35_8_cif.got.tgz:15089.got - 2010.06.03 17:29:28.
