data_PCOD9349402
_publ_section_title
;
Structure prediction by ZEFSAII (Michael W. Deem and Ramdas Pophale) SiO2 
 PCOD9349402
Probable space group: C M M 2
;
_chemical_formula_sum "Si O2"
_cell_formula_units_Z 58
_cell_length_a 28.933949
_cell_length_b 8.827945
_cell_length_c 12.359870
_cell_angle_alpha 90.000000
_cell_angle_beta 90.000000
_cell_angle_gamma 90.000000
_cell_volume 3157.048351
_symmetry_space_group_name_H-M "C M M 2"
_symmetry_group_IT_number 35
_symmetry_cell_setting 'orthorhombic'
loop_
_space_group_symop_operation_xyz
x,y,z
-x,-y,z
-x,y,z
x,-y,z
1/2+x,1/2+y,z
1/2-x,1/2-y,z
1/2-x,1/2+y,z
1/2+x,1/2-y,z
loop_
_atom_site_type_symbol
_atom_site_label
_atom_site_fract_x
_atom_site_fract_y
_atom_site_fract_z
Si Si1 0.800895 0.817890 0.469960
Si Si2 0.882002 0.818953 0.307907
Si Si3 0.628731 0.324445 0.866485
Si Si4 0.698802 0.818923 0.698906
Si Si5 0.000000 0.500000 0.061084
Si Si6 0.097022 0.666322 0.080123
Si Si7 0.055139 0.826292 0.508676
Si Si8 0.944873 0.672045 0.729817
O O1 0.750000 0.750000 0.453402
O O2 0.834472 0.780333 0.370200
O O3 0.818549 0.749733 0.584134
O O4 0.798822 0.000000 0.480433
O O5 0.892859 0.734478 0.197492
O O6 0.921072 0.783997 0.397063
O O7 0.882259 0.000000 0.288884
O O8 0.640866 0.500000 0.863112
O O9 0.666418 0.231838 0.797452
O O10 0.580879 0.289890 0.804808
O O11 0.619396 0.268222 0.987374
O O12 0.750000 0.750000 0.713786
O O13 0.700991 0.000000 0.690769
O O14 0.957839 0.369750 0.062997
O O15 0.119334 0.500000 0.072417
O O16 0.066359 0.714526 0.606539
O O17 0.000000 0.826122 0.496493
O O18 0.069632 0.000000 0.535765
O O19 0.930358 0.500000 0.756521
O O20 0.000000 0.680023 0.743285
#
# Coordination Sequence:
#
# PCOD9349402 Si02
#       8
#     8   8   8   8   2   8   8   8
#     4  10  20  36  60  91 127 162 202 247 298 361
#     4  10  21  37  58  84 115 152 198 250 297 354
#     4  12  24  39  60  85 116 154 200 250 299 358
#     4  11  22  39  64  94 126 160 199 245 302 365
#     4   8  24  44  62  84 118 160 198 260 304 366
#     4  10  23  41  61  84 115 153 199 247 302 358
#     4   9  18  32  51  78 111 146 185 233 293 357
#     4  10  21  35  53  80 114 150 190 239 297 359
#
# _framework density 18.371590000000001
#
# number of rings (size 3 to 8) (size 9 to 14) (size 15 to 20)
#    0.414    1.379    0.000    5.379    1.931    3.586 
#    0.000    1.379    0.000    1.655    0.000    0.000 
#    0.000    0.000    0.000    0.000    0.000    0.000 
#
# Total GULP energy -161591.434596 kJ/mol
# GULP energy per Si atom -5572.118434 kJ/mol
# Density = 1.832978 g / cm^3
# Si number density = 18.371590 Si / 1000 Ang^3
#
#
#
# Elastic Constant Matrix: (Units=GPa)
#
#
# Indices 1 2 3 4 5 6 
#
# 1 50.5458 19.6638 15.6148 0.0000 0.0000 0.0000
# 2 19.6638 83.0070 21.7564 0.0000 0.0000 0.0000
# 3 15.6148 21.7564 67.5947 0.0000 0.0000 0.0000
# 4 0.0000 0.0000 0.0000 26.3616 0.0000 0.0000
# 5 0.0000 0.0000 0.0000 0.0000 36.7410 0.0000
# 6 0.0000 0.0000 0.0000 0.0000 0.0000 29.9295
#
#
#
# Elastic Compliance Matrix: (Units=1/GPa)
#
#
# Indices 1 2 3 4 5 6 
#
# 1 0.022666 -0.004365 -0.003831 0.000000 0.000000 0.000000
# 2 -0.004365 0.013998 -0.003497 0.000000 0.000000 0.000000
# 3 -0.003831 -0.003497 0.016805 0.000000 0.000000 0.000000
# 4 0.000000 0.000000 0.000000 0.037934 0.000000 0.000000
# 5 0.000000 0.000000 0.000000 0.000000 0.027218 0.000000
# 6 0.000000 0.000000 0.000000 0.000000 0.000000 0.033412
#
#
# Mechanical properties :
#
#
# Convention : Reuss Voigt Hill
#
# Bulk Modulus (GPa) = 33.24270 35.02416 34.13343
# Shear Modulus (GPa) = 26.96216 28.21392 27.58804
#
# Velocity S-wave (km/s) = 3.83508 3.92310 3.87934
# Velocity P-wave (km/s) = 6.14365 6.29497 6.21977
#
# Compressibility (1/GPa) = 0.03008179
#
# Stress axis : x y z
#
# Youngs Moduli (GPa) = 44.11955 71.43956 59.50758
#
# Poissons Ratio (x) = 0.31185 0.22797
# Poissons Ratio (y) = 0.19259 0.20810
# Poissons Ratio (z) = 0.16902 0.24983
#
# Static dielectric constant tensor:
#      x y z
#    x 1.643420 0.000000 0.000000 
#    y 0.000000 1.631040 0.000000 
#    z 0.000000 0.000000 1.626820 
# 
# From -- ./inp_files/14473.got.cif
#   From: 2010.05.17/outbox.cif.g08.bks.cpg/sg35_8_cif.got.tgz:14473.got - 2010.06.03 17:29:28.
