data_PCOD9349428
_publ_section_title
;
Structure prediction by ZEFSAII (Michael W. Deem and Ramdas Pophale) SiO2 
 PCOD9349428
Probable space group: C M M 2
;
_chemical_formula_sum "Si O2"
_cell_formula_units_Z 48
_cell_length_a 8.565526
_cell_length_b 15.757910
_cell_length_c 19.252655
_cell_angle_alpha 90.000000
_cell_angle_beta 90.000000
_cell_angle_gamma 90.000000
_cell_volume 2598.623023
_symmetry_space_group_name_H-M "C M M 2"
_symmetry_group_IT_number 35
_symmetry_cell_setting 'orthorhombic'
loop_
_space_group_symop_operation_xyz
x,y,z
-x,-y,z
-x,y,z
x,-y,z
1/2+x,1/2+y,z
1/2-x,1/2-y,z
1/2-x,1/2+y,z
1/2+x,1/2-y,z
loop_
_atom_site_type_symbol
_atom_site_label
_atom_site_fract_x
_atom_site_fract_y
_atom_site_fract_z
Si Si1 0.813380 0.343151 0.389560
Si Si2 0.186160 0.000000 0.477855
Si Si3 0.687872 0.657561 0.234178
Si Si4 0.811503 0.342743 0.888887
Si Si5 0.311817 0.157345 0.729133
Si Si6 0.189684 0.500000 0.633834
Si Si7 0.811141 0.500000 0.982633
Si Si8 0.688332 0.500000 0.138445
O O1 0.750000 0.250000 0.409627
O O2 0.751975 0.416795 0.439360
O O3 0.753373 0.359768 0.311204
O O4 0.000000 0.341589 0.389672
O O5 0.240224 0.000000 0.557440
O O6 0.000000 0.000000 0.472974
O O7 0.500000 0.659870 0.238221
O O8 0.750000 0.750000 0.212653
O O9 0.735963 0.583566 0.181509
O O10 0.750000 0.250000 0.908536
O O11 0.762445 0.359894 0.808979
O O12 0.758685 0.416639 0.940424
O O13 0.000000 0.341190 0.889631
O O14 0.500000 0.159353 0.728800
O O15 0.250000 0.250000 0.709301
O O16 0.262190 0.083084 0.677427
O O17 0.000000 0.500000 0.629076
O O18 0.000000 0.500000 0.982451
O O19 0.753480 0.500000 0.061123
O O20 0.500000 0.500000 0.135342
#
# Coordination Sequence:
#
# PCOD9349428 Si02
#       8
#     8   4   8   8   8   4   4   4
#     4  11  22  39  63  89 114 145 186 232 279 332
#     4  12  25  40  57  82 117 154 189 230 276 330
#     4  10  20  37  59  83 110 143 182 227 274 325
#     4   9  18  34  55  80 105 137 178 223 271 322
#     4   9  18  34  57  80 106 138 178 224 272 324
#     4  10  21  37  55  78 109 147 183 222 274 332
#     4  10  21  35  53  76 107 143 181 220 266 324
#     4  10  23  38  53  76 111 148 181 220 272 324
#
# _framework density 18.471321
#
# number of rings (size 3 to 8) (size 9 to 14) (size 15 to 20)
#    0.000    2.000    0.000    4.750    0.000    6.667 
#    0.000    5.000    0.000    5.000    0.000    0.000 
#    0.000    0.000    0.000    0.000    0.000    0.000 
#
# Total GULP energy -134062.481606 kJ/mol
# GULP energy per Si atom -5585.936734 kJ/mol
# Density = 1.842928 g / cm^3
# Si number density = 18.471321 Si / 1000 Ang^3
#
#
#
# Elastic Constant Matrix: (Units=GPa)
#
#
# Indices 1 2 3 4 5 6 
#
# 1 64.7115 53.4118 45.2446 0.0000 0.0000 0.0000
# 2 53.4118 202.4315 148.6834 0.0000 0.0000 0.0000
# 3 45.2446 148.6834 144.8387 0.0000 0.0000 0.0000
# 4 0.0000 0.0000 0.0000 -60.1323 0.0000 0.0000
# 5 0.0000 0.0000 0.0000 0.0000 30.5162 0.0000
# 6 0.0000 0.0000 0.0000 0.0000 0.0000 32.6208
#
#
#
# Elastic Compliance Matrix: (Units=1/GPa)
#
#
# Indices 1 2 3 4 5 6 
#
# 1 0.020160 -0.002820 -0.003403 0.000000 0.000000 0.000000
# 2 -0.002820 0.020474 -0.020137 0.000000 0.000000 0.000000
# 3 -0.003403 -0.020137 0.028638 0.000000 0.000000 0.000000
# 4 0.000000 0.000000 0.000000 -0.016630 0.000000 0.000000
# 5 0.000000 0.000000 0.000000 0.000000 0.032769 0.000000
# 6 0.000000 0.000000 0.000000 0.000000 0.000000 0.030655
#
#
# Mechanical properties :
#
#
# Convention : Reuss Voigt Hill
#
# Bulk Modulus (GPa) = 60.40977 100.74015 80.57496
# Shear Modulus (GPa) = 28.68551 11.57708 20.13130
#
# Velocity S-wave (km/s) = 3.94506 2.50623 3.30490
# Velocity P-wave (km/s) = 7.31621 7.93927 7.63410
#
# Compressibility (1/GPa) = 0.01655361
#
# Stress axis : x y z
#
# Youngs Moduli (GPa) = 49.60360 48.84196 34.91805
#
# Poissons Ratio (x) = 0.13773 0.11882
# Poissons Ratio (y) = 0.13988 0.70314
# Poissons Ratio (z) = 0.16879 0.98352
#
# Static dielectric constant tensor:
#      x y z
#    x 1.629100 0.000000 0.000000 
#    y 0.000000 1.621570 0.000000 
#    z 0.000000 0.000000 1.605950 
# 
# From -- ./inp_files/17970.got.cif
#   From: 2010.05.17/outbox.cif.g08.bks.cpg/sg35_9_cif.got.tgz:17970.got - 2010.06.03 17:29:28.
