data_PCOD9349209
_publ_section_title
;
Structure prediction by ZEFSAII (Michael W. Deem and Ramdas Pophale) SiO2 
 PCOD9349209
Probable space group: C M M 2
;
_chemical_formula_sum "Si O2"
_cell_formula_units_Z 64
_cell_length_a 8.820243
_cell_length_b 19.252897
_cell_length_c 21.341200
_cell_angle_alpha 90.000000
_cell_angle_beta 90.000000
_cell_angle_gamma 90.000000
_cell_volume 3624.060786
_symmetry_space_group_name_H-M "C M M 2"
_symmetry_group_IT_number 35
_symmetry_cell_setting 'orthorhombic'
loop_
_space_group_symop_operation_xyz
x,y,z
-x,-y,z
-x,y,z
x,-y,z
1/2+x,1/2+y,z
1/2-x,1/2-y,z
1/2-x,1/2+y,z
1/2+x,1/2-y,z
loop_
_atom_site_type_symbol
_atom_site_label
_atom_site_fract_x
_atom_site_fract_y
_atom_site_fract_z
Si Si1 0.817326 0.919277 0.008960
Si Si2 0.319000 0.418226 0.372305
Si Si3 0.816931 0.173301 0.892148
Si Si4 0.182288 0.672871 0.261143
Si Si5 0.682547 0.581330 0.634534
Si Si6 0.317017 0.326749 0.752074
Si Si7 0.682580 0.080560 0.142051
Si Si8 0.674323 0.084351 0.503966
O O1 0.748638 0.896432 0.075262
O O2 0.000000 0.915143 0.012832
O O3 0.775782 0.000000 0.000240
O O4 0.766359 0.874967 0.949272
O O5 0.500000 0.412838 0.367313
O O6 0.277442 0.500000 0.363772
O O7 0.240270 0.371012 0.320409
O O8 0.266235 0.396248 0.441825
O O9 0.750000 0.250000 0.899470
O O10 0.774749 0.147947 0.822123
O O11 0.000000 0.176941 0.894173
O O12 0.250000 0.750000 0.261178
O O13 0.229115 0.630282 0.198803
O O14 0.000000 0.676550 0.262511
O O15 0.500000 0.585686 0.629305
O O16 0.721489 0.500000 0.642266
O O17 0.732283 0.624129 0.695344
O O18 0.754399 0.607674 0.569676
O O19 0.500000 0.322799 0.750130
O O20 0.250000 0.250000 0.744419
O O21 0.500000 0.081182 0.138722
O O22 0.730019 0.000000 0.153128
O O23 0.500000 0.106333 0.498493
O O24 0.677998 0.000000 0.505857
#
# Coordination Sequence:
#
# PCOD9349209 Si02
#       8
#     8   8   8   8   8   8   8   8
#     4   9  18  32  51  75 101 128 162 207 252 294
#     4  10  20  35  57  82 106 135 172 212 254 304
#     4   9  18  32  49  70  97 130 167 204 246 297
#     4  11  23  38  55  77 107 139 172 212 257 304
#     4   9  17  30  49  73  99 127 163 208 254 298
#     4   9  18  32  49  69  96 131 167 204 247 297
#     4   9  19  36  56  76 100 133 170 206 248 301
#     4   9  17  30  50  76 104 133 166 206 252 301
#
# _framework density 17.659745999999998
#
# number of rings (size 3 to 8) (size 9 to 14) (size 15 to 20)
#    0.000    2.625    0.000    1.500    0.000    5.750 
#    0.000    6.875    0.000    1.500    0.000    7.000 
#    0.000    0.000    0.000    0.000    0.000    0.000 
#
# Total GULP energy -178445.757062 kJ/mol
# GULP energy per Si atom -5576.429908 kJ/mol
# Density = 1.761955 g / cm^3
# Si number density = 17.659746 Si / 1000 Ang^3
#
#
#
# Elastic Constant Matrix: (Units=GPa)
#
#
# Indices 1 2 3 4 5 6 
#
# 1 28.3411 31.1335 47.0721 0.0000 0.0000 0.0000
# 2 31.1335 74.4838 93.6744 0.0000 0.0000 0.0000
# 3 47.0721 93.6744 202.4374 0.0000 0.0000 0.0000
# 4 0.0000 0.0000 0.0000 -16.9084 0.0000 0.0000
# 5 0.0000 0.0000 0.0000 0.0000 28.8843 0.0000
# 6 0.0000 0.0000 0.0000 0.0000 0.0000 22.1448
#
#
#
# Elastic Compliance Matrix: (Units=1/GPa)
#
#
# Indices 1 2 3 4 5 6 
#
# 1 0.068554 -0.020589 -0.006413 0.000000 0.000000 0.000000
# 2 -0.020589 0.038299 -0.012935 0.000000 0.000000 0.000000
# 3 -0.006413 -0.012935 0.012416 0.000000 0.000000 0.000000
# 4 0.000000 0.000000 0.000000 -0.059142 0.000000 0.000000
# 5 0.000000 0.000000 0.000000 0.000000 0.034621 0.000000
# 6 0.000000 0.000000 0.000000 0.000000 0.000000 0.045157
#
#
# Mechanical properties :
#
#
# Convention : Reuss Voigt Hill
#
# Bulk Modulus (GPa) = 25.38376 72.11358 48.74867
# Shear Modulus (GPa) = 21.46730 15.71629 18.59179
#
# Velocity S-wave (km/s) = 3.49034 2.98644 3.24817
# Velocity P-wave (km/s) = 5.53609 7.26742 6.46002
#
# Compressibility (1/GPa) = 0.03939526
#
# Stress axis : x y z
#
# Youngs Moduli (GPa) = 14.58696 26.11026 80.53856
#
# Poissons Ratio (x) = 0.53759 0.51653
# Poissons Ratio (y) = 0.30033 1.04174
# Poissons Ratio (z) = 0.09355 0.33773
#
# Static dielectric constant tensor:
#      x y z
#    x 1.596360 0.000000 0.000000 
#    y 0.000000 1.579170 0.000000 
#    z 0.000000 0.000000 1.599130 
# 
# From -- ./inp_files/18424.got.cif
#   From: 2010.05.17/outbox.cif.g08.bks.cpg/sg35_10_cif.got.tgz:18424.got - 2010.06.03 17:29:28.
