data_PCOD9349158
_publ_section_title
;
Structure prediction by ZEFSAII (Michael W. Deem and Ramdas Pophale) SiO2 
 PCOD9349158
Probable space group: C M M 2
;
_chemical_formula_sum "Si O2"
_cell_formula_units_Z 40
_cell_length_a 8.589031
_cell_length_b 15.985645
_cell_length_c 14.919058
_cell_angle_alpha 90.000000
_cell_angle_beta 90.000000
_cell_angle_gamma 90.000000
_cell_volume 2048.404573
_symmetry_space_group_name_H-M "C M M 2"
_symmetry_group_IT_number 35
_symmetry_cell_setting 'orthorhombic'
loop_
_space_group_symop_operation_xyz
x,y,z
-x,-y,z
-x,y,z
x,-y,z
1/2+x,1/2+y,z
1/2-x,1/2-y,z
1/2-x,1/2+y,z
1/2+x,1/2-y,z
loop_
_atom_site_type_symbol
_atom_site_label
_atom_site_fract_x
_atom_site_fract_y
_atom_site_fract_z
Si Si1 0.320044 0.903254 0.398220
Si Si2 0.190029 0.500000 0.698529
Si Si3 0.683807 0.342813 0.218148
Si Si4 0.690072 0.000000 0.904823
Si Si5 0.813599 0.655665 0.026312
Si Si6 0.688300 0.838224 0.586216
O O1 0.500000 0.878784 0.380101
O O2 0.226661 0.893282 0.306871
O O3 0.259253 0.851885 0.483215
O O4 0.320762 0.000000 0.426724
O O5 0.240492 0.500000 0.801669
O O6 0.239624 0.416622 0.646107
O O7 0.000000 0.500000 0.697827
O O8 0.500000 0.339546 0.204955
O O9 0.750000 0.250000 0.233874
O O10 0.761539 0.372440 0.125811
O O11 0.500000 0.000000 0.906071
O O12 0.739122 0.084607 0.956383
O O13 0.750000 0.750000 0.011095
O O14 0.000000 0.660568 0.023850
O O15 0.500000 0.838119 0.584870
O O16 0.750000 0.750000 0.620268
#
# Coordination Sequence:
#
# PCOD9349158 Si02
#       6
#     8   4   8   4   8   8
#     4  10  20  35  55  81 114 153 191 228 275 336
#     4   9  18  38  60  83 112 146 189 231 276 343
#     4  11  22  36  54  80 112 150 189 232 279 330
#     4   9  20  36  60  85 110 146 189 231 282 341
#     4  10  20  37  58  84 113 149 189 233 281 335
#     4  10  20  36  60  85 113 150 188 229 278 331
#
# _framework density 19.527393
#
# number of rings (size 3 to 8) (size 9 to 14) (size 15 to 20)
#    0.000    2.000    1.000    4.200    1.400    3.600 
#    0.000    2.000    0.000    3.600    0.000    0.000 
#    0.000    0.000    0.000    0.000    0.000    0.000 
#
# Total GULP energy -111664.155373 kJ/mol
# GULP energy per Si atom -5583.207769 kJ/mol
# Density = 1.948295 g / cm^3
# Si number density = 19.527393 Si / 1000 Ang^3
#
#
#
# Elastic Constant Matrix: (Units=GPa)
#
#
# Indices 1 2 3 4 5 6 
#
# 1 44.6349 20.3014 22.3822 0.0000 0.0000 0.0000
# 2 20.3014 127.3056 84.4015 0.0000 0.0000 0.0000
# 3 22.3822 84.4015 137.6258 0.0000 0.0000 0.0000
# 4 0.0000 0.0000 0.0000 13.4074 0.0000 0.0000
# 5 0.0000 0.0000 0.0000 0.0000 2.5160 0.0000
# 6 0.0000 0.0000 0.0000 0.0000 0.0000 26.5069
#
#
#
# Elastic Compliance Matrix: (Units=1/GPa)
#
#
# Indices 1 2 3 4 5 6 
#
# 1 0.024739 -0.002153 -0.002703 0.000000 0.000000 0.000000
# 2 -0.002153 0.013425 -0.007883 0.000000 0.000000 0.000000
# 3 -0.002703 -0.007883 0.012540 0.000000 0.000000 0.000000
# 4 0.000000 0.000000 0.000000 0.074586 0.000000 0.000000
# 5 0.000000 0.000000 0.000000 0.000000 0.397451 0.000000
# 6 0.000000 0.000000 0.000000 0.000000 0.000000 0.037726
#
#
# Mechanical properties :
#
#
# Convention : Reuss Voigt Hill
#
# Bulk Modulus (GPa) = 39.64204 62.63739 51.13971
# Shear Modulus (GPa) = 8.41252 20.65147 14.53200
#
# Velocity S-wave (km/s) = 2.07784 3.25555 2.73094
# Velocity P-wave (km/s) = 5.10895 6.80278 6.01578
#
# Compressibility (1/GPa) = 0.02522575
#
# Stress axis : x y z
#
# Youngs Moduli (GPa) = 40.42260 74.49028 79.74580
#
# Poissons Ratio (x) = 0.16039 0.21554
# Poissons Ratio (y) = 0.08704 0.62861
# Poissons Ratio (z) = 0.10926 0.58718
#
# Static dielectric constant tensor:
#      x y z
#    x 1.672650 0.000000 0.000000 
#    y 0.000000 1.680090 0.000000 
#    z 0.000000 0.000000 1.678670 
# 
# From -- ./inp_files/14748.got.cif
#   From: 2010.05.17/outbox.cif.g08.bks.cpg/sg35_8_cif.got.tgz:14748.got - 2010.06.03 17:29:28.
