data_PCOD9349746
_publ_section_title
;
Structure prediction by ZEFSAII (Michael W. Deem and Ramdas Pophale) SiO2 
 PCOD9349746
Probable space group: C M M 2
;
_chemical_formula_sum "Si O2"
_cell_formula_units_Z 40
_cell_length_a 15.003015
_cell_length_b 8.610239
_cell_length_c 15.667538
_cell_angle_alpha 90.000000
_cell_angle_beta 90.000000
_cell_angle_gamma 90.000000
_cell_volume 2023.925428
_symmetry_space_group_name_H-M "C M M 2"
_symmetry_group_IT_number 35
_symmetry_cell_setting 'orthorhombic'
loop_
_space_group_symop_operation_xyz
x,y,z
-x,-y,z
-x,y,z
x,-y,z
1/2+x,1/2+y,z
1/2-x,1/2-y,z
1/2-x,1/2+y,z
1/2+x,1/2-y,z
loop_
_atom_site_type_symbol
_atom_site_label
_atom_site_fract_x
_atom_site_fract_y
_atom_site_fract_z
Si Si1 0.349959 0.812550 0.349520
Si Si2 0.851386 0.314155 0.161598
Si Si3 0.350529 0.686517 0.798710
Si Si4 0.000000 0.686308 0.675643
Si Si5 0.351223 0.314357 0.987560
Si Si6 0.500000 0.189738 0.479560
O O1 0.250000 0.750000 0.358291
O O2 0.387143 0.769724 0.255163
O O3 0.413912 0.759904 0.425447
O O4 0.346347 0.000000 0.351032
O O5 0.850040 0.500000 0.155752
O O6 0.750000 0.250000 0.163092
O O7 0.893390 0.250053 0.074500
O O8 0.348605 0.500000 0.793901
O O9 0.250000 0.750000 0.790929
O O10 0.414065 0.753326 0.726438
O O11 0.386794 0.728581 0.893829
O O12 0.000000 0.740422 0.577405
O O13 0.000000 0.500000 0.676274
O O14 0.349441 0.500000 0.993440
O O15 0.250000 0.250000 0.986314
O O16 0.500000 0.000000 0.479615
#
# Coordination Sequence:
#
# PCOD9349746 Si02
#       6
#     8   8   8   4   8   4
#     4   9  18  34  55  78 107 141 176 215 262 316
#     4   9  15  24  44  73 104 138 174 212 255 307
#     4  10  21  38  59  83 113 148 185 227 276 330
#     4  11  23  39  60  83 108 142 185 235 286 333
#     4   9  16  27  47  74 106 142 176 213 259 312
#     4   9  20  39  58  77 104 138 177 223 274 325
#
# _framework density 19.763574999999999
#
# number of rings (size 3 to 8) (size 9 to 14) (size 15 to 20)
#    0.000    2.600    0.000    3.300    0.000    4.000 
#    0.000    5.500    0.000    1.200    0.000    0.000 
#    0.000    0.000    0.000    0.000    0.000    0.000 
#
# Total GULP energy -111533.337355 kJ/mol
# GULP energy per Si atom -5576.666868 kJ/mol
# Density = 1.971859 g / cm^3
# Si number density = 19.763575 Si / 1000 Ang^3
#
#
#
# Elastic Constant Matrix: (Units=GPa)
#
#
# Indices 1 2 3 4 5 6 
#
# 1 97.7956 19.9741 86.0152 0.0000 0.0000 0.0000
# 2 19.9741 44.8416 55.4629 0.0000 0.0000 0.0000
# 3 86.0152 55.4629 248.7488 0.0000 0.0000 0.0000
# 4 0.0000 0.0000 0.0000 26.7033 0.0000 0.0000
# 5 0.0000 0.0000 0.0000 0.0000 36.9614 0.0000
# 6 0.0000 0.0000 0.0000 0.0000 0.0000 16.5445
#
#
#
# Elastic Compliance Matrix: (Units=1/GPa)
#
#
# Indices 1 2 3 4 5 6 
#
# 1 0.014699 -0.000360 -0.005002 0.000000 0.000000 0.000000
# 2 -0.000360 0.030802 -0.006743 0.000000 0.000000 0.000000
# 3 -0.005002 -0.006743 0.007253 0.000000 0.000000 0.000000
# 4 0.000000 0.000000 0.000000 0.037449 0.000000 0.000000
# 5 0.000000 0.000000 0.000000 0.000000 0.027055 0.000000
# 6 0.000000 0.000000 0.000000 0.000000 0.000000 0.060443
#
#
# Mechanical properties :
#
#
# Convention : Reuss Voigt Hill
#
# Bulk Modulus (GPa) = 35.03567 79.36561 57.20064
# Shear Modulus (GPa) = 23.64890 31.37075 27.50982
#
# Velocity S-wave (km/s) = 3.46293 3.98842 3.73493
# Velocity P-wave (km/s) = 5.80991 7.83930 6.89963
#
# Compressibility (1/GPa) = 0.02854234
#
# Stress axis : x y z
#
# Youngs Moduli (GPa) = 68.03278 32.46589 137.86553
#
# Poissons Ratio (x) = 0.01169 0.68966
# Poissons Ratio (y) = 0.02449 0.92966
# Poissons Ratio (z) = 0.34033 0.21893
#
# Static dielectric constant tensor:
#      x y z
#    x 1.707740 0.000000 0.000000 
#    y 0.000000 1.666480 0.000000 
#    z 0.000000 0.000000 1.739900 
# 
# From -- ./inp_files/14807.got.cif
#   From: 2010.05.17/outbox.cif.g08.bks.cpg/sg35_8_cif.got.tgz:14807.got - 2010.06.03 17:29:28.
