data_PCOD9349092
_publ_section_title
;
Structure prediction by ZEFSAII (Michael W. Deem and Ramdas Pophale) SiO2 
 PCOD9349092
Probable space group: C M M 2
;
_chemical_formula_sum "Si O2"
_cell_formula_units_Z 56
_cell_length_a 8.721789
_cell_length_b 22.288792
_cell_length_c 14.712962
_cell_angle_alpha 90.000000
_cell_angle_beta 90.000000
_cell_angle_gamma 90.000000
_cell_volume 2860.172460
_symmetry_space_group_name_H-M "C M M 2"
_symmetry_group_IT_number 35
_symmetry_cell_setting 'orthorhombic'
loop_
_space_group_symop_operation_xyz
x,y,z
-x,-y,z
-x,y,z
x,-y,z
1/2+x,1/2+y,z
1/2-x,1/2-y,z
1/2-x,1/2+y,z
1/2+x,1/2-y,z
loop_
_atom_site_type_symbol
_atom_site_label
_atom_site_fract_x
_atom_site_fract_y
_atom_site_fract_z
Si Si1 0.680686 0.500000 0.129360
Si Si2 0.319601 0.106931 0.013018
Si Si3 0.181816 0.125523 0.349300
Si Si4 0.314957 0.931884 0.630541
Si Si5 0.183972 0.313767 0.517714
Si Si6 0.681891 0.000000 0.330607
Si Si7 0.680370 0.814778 0.179462
Si Si8 0.181383 0.070258 0.831672
O O1 0.500000 0.500000 0.150226
O O2 0.727162 0.556603 0.068362
O O3 0.773331 0.500000 0.223786
O O4 0.500000 0.091022 0.011843
O O5 0.301604 0.165656 0.074927
O O6 0.257057 0.109018 0.911198
O O7 0.256172 0.174071 0.416035
O O8 0.233161 0.140296 0.246970
O O9 0.000000 0.126272 0.357035
O O10 0.248109 0.060149 0.372411
O O11 0.500000 0.932503 0.628393
O O12 0.265392 0.873707 0.572705
O O13 0.257621 0.922363 0.733457
O O14 0.264325 0.000000 0.602634
O O15 0.250000 0.250000 0.550923
O O16 0.000000 0.311035 0.519023
O O17 0.500000 0.000000 0.341395
O O18 0.500000 0.816804 0.201403
O O19 0.750000 0.750000 0.194848
O O20 0.000000 0.081429 0.825917
O O21 0.203332 0.000000 0.857333
#
# Coordination Sequence:
#
# PCOD9349092 Si02
#       8
#     4   8   8   8   8   4   8   8
#     4  12  22  34  56  87 120 155 196 242 294 348
#     4  11  22  36  58  85 119 161 201 245 296 357
#     4  12  25  41  63  91 124 161 204 254 308 368
#     4   9  20  40  65  92 121 159 204 253 314 378
#     4  11  24  43  67  93 124 164 210 259 314 379
#     4  12  24  40  60  89 126 163 204 250 308 368
#     4  11  24  41  60  83 116 161 210 256 304 359
#     4  10  20  34  57  90 124 155 193 247 306 366
#
# _framework density 19.579239000000001
#
# number of rings (size 3 to 8) (size 9 to 14) (size 15 to 20)
#    0.000    1.143    2.143    4.714    1.000    3.429 
#    0.000    0.714    0.000    0.000    0.000    0.000 
#    0.000    0.000    0.000    0.000    0.000    0.000 
#
# Total GULP energy -156491.403871 kJ/mol
# GULP energy per Si atom -5588.978710 kJ/mol
# Density = 1.953468 g / cm^3
# Si number density = 19.579239 Si / 1000 Ang^3
#
#
#
# Elastic Constant Matrix: (Units=GPa)
#
#
# Indices 1 2 3 4 5 6 
#
# 1 71.5512 38.7510 15.9084 0.0000 0.0000 0.0000
# 2 38.7510 116.8644 35.3449 0.0000 0.0000 0.0000
# 3 15.9084 35.3449 77.0872 0.0000 0.0000 0.0000
# 4 0.0000 0.0000 0.0000 24.3206 0.0000 0.0000
# 5 0.0000 0.0000 0.0000 0.0000 18.2915 0.0000
# 6 0.0000 0.0000 0.0000 0.0000 0.0000 27.4502
#
#
#
# Elastic Compliance Matrix: (Units=1/GPa)
#
#
# Indices 1 2 3 4 5 6 
#
# 1 0.017112 -0.005348 -0.001079 0.000000 0.000000 0.000000
# 2 -0.005348 0.011606 -0.004218 0.000000 0.000000 0.000000
# 3 -0.001079 -0.004218 0.015129 0.000000 0.000000 0.000000
# 4 0.000000 0.000000 0.000000 0.041117 0.000000 0.000000
# 5 0.000000 0.000000 0.000000 0.000000 0.054670 0.000000
# 6 0.000000 0.000000 0.000000 0.000000 0.000000 0.036430
#
#
# Mechanical properties :
#
#
# Convention : Reuss Voigt Hill
#
# Bulk Modulus (GPa) = 44.33185 49.50125 46.91655
# Shear Modulus (GPa) = 24.40535 25.71236 25.05885
#
# Velocity S-wave (km/s) = 3.53440 3.62781 3.58141
# Velocity P-wave (km/s) = 6.27275 6.54869 6.41221
#
# Compressibility (1/GPa) = 0.02255715
#
# Stress axis : x y z
#
# Youngs Moduli (GPa) = 58.43750 86.16366 66.09853
#
# Poissons Ratio (x) = 0.46079 0.07135
# Poissons Ratio (y) = 0.31251 0.27878
# Poissons Ratio (z) = 0.06308 0.36341
#
# Static dielectric constant tensor:
#      x y z
#    x 1.655340 0.000000 0.000000 
#    y 0.000000 1.687280 0.000000 
#    z 0.000000 0.000000 1.675830 
# 
# From -- ./inp_files/15695.got.cif
#   From: 2010.05.17/outbox.cif.g08.bks.cpg/sg35_8_cif.got.tgz:15695.got - 2010.06.03 17:29:28.
