data_PCOD9349922
_publ_section_title
;
Structure prediction by ZEFSAII (Michael W. Deem and Ramdas Pophale) SiO2 
 PCOD9349922
Probable space group: C M M 2
;
_chemical_formula_sum "Si O2"
_cell_formula_units_Z 56
_cell_length_a 13.783932
_cell_length_b 13.498969
_cell_length_c 14.037042
_cell_angle_alpha 90.000000
_cell_angle_beta 90.000000
_cell_angle_gamma 90.000000
_cell_volume 2611.856554
_symmetry_space_group_name_H-M "C M M 2"
_symmetry_group_IT_number 35
_symmetry_cell_setting 'orthorhombic'
loop_
_space_group_symop_operation_xyz
x,y,z
-x,-y,z
-x,y,z
x,-y,z
1/2+x,1/2+y,z
1/2-x,1/2-y,z
1/2-x,1/2+y,z
1/2+x,1/2-y,z
loop_
_atom_site_type_symbol
_atom_site_label
_atom_site_fract_x
_atom_site_fract_y
_atom_site_fract_z
Si Si1 0.610327 0.620133 0.304480
Si Si2 0.200576 0.120995 0.502782
Si Si3 0.385369 0.810309 0.016008
Si Si4 0.304270 0.384902 0.100448
Si Si5 0.391483 0.117963 0.597267
Si Si6 0.617966 0.195736 0.802194
Si Si7 0.883631 0.110402 0.707272
O O1 0.500000 0.656388 0.295347
O O2 0.606722 0.500000 0.309293
O O3 0.656769 0.655017 0.403263
O O4 0.668913 0.642791 0.208905
O O5 0.310228 0.154082 0.524455
O O6 0.141611 0.142590 0.599634
O O7 0.200836 0.000000 0.498386
O O8 0.500000 0.828541 0.030561
O O9 0.361728 0.694017 0.034904
O O10 0.309914 0.868360 0.082269
O O11 0.356104 0.837564 0.907554
O O12 0.330413 0.500000 0.083939
O O13 0.500000 0.159161 0.584666
O O14 0.357431 0.137236 0.705851
O O15 0.397315 0.000000 0.585875
O O16 0.500000 0.195633 0.803596
O O17 0.651498 0.307822 0.781331
O O18 0.000000 0.106772 0.714138
O O19 0.845339 0.000000 0.723695
#
# Coordination Sequence:
#
# PCOD9349922 Si02
#       7
#     8   8   8   8   8   8   8
#     4   9  17  33  58  84 110 142 181 228 285 347
#     4   9  17  29  50  79 106 138 180 221 270 332
#     4  10  22  40  60  84 117 154 195 246 296 344
#     4  10  22  39  60  86 114 148 194 245 298 352
#     4   9  18  33  51  73 106 146 185 223 264 321
#     4   9  19  35  53  75 107 147 186 225 275 333
#     4   9  17  30  49  76 108 136 168 218 275 330
#
# _framework density 21.440685999999999
#
# number of rings (size 3 to 8) (size 9 to 14) (size 15 to 20)
#    0.000    2.714    0.000    0.857    0.000    6.857 
#    0.000    7.857    0.000    4.286    0.000    0.000 
#    0.000    0.000    0.000    0.000    0.000    0.000 
#
# Total GULP energy -156341.189282 kJ/mol
# GULP energy per Si atom -5583.613903 kJ/mol
# Density = 2.139189 g / cm^3
# Si number density = 21.440686 Si / 1000 Ang^3
#
#
#
# Elastic Constant Matrix: (Units=GPa)
#
#
# Indices 1 2 3 4 5 6 
#
# 1 130.3245 3.2475 68.6823 0.0000 0.0000 0.0000
# 2 3.2475 42.3122 3.0766 0.0000 0.0000 0.0000
# 3 68.6823 3.0766 129.4377 0.0000 0.0000 0.0000
# 4 0.0000 0.0000 0.0000 28.8781 0.0000 0.0000
# 5 0.0000 0.0000 0.0000 0.0000 40.5136 0.0000
# 6 0.0000 0.0000 0.0000 0.0000 0.0000 24.5192
#
#
#
# Elastic Compliance Matrix: (Units=1/GPa)
#
#
# Indices 1 2 3 4 5 6 
#
# 1 0.010659 -0.000408 -0.005646 0.000000 0.000000 0.000000
# 2 -0.000408 0.023690 -0.000347 0.000000 0.000000 0.000000
# 3 -0.005646 -0.000347 0.010730 0.000000 0.000000 0.000000
# 4 0.000000 0.000000 0.000000 0.034628 0.000000 0.000000
# 5 0.000000 0.000000 0.000000 0.000000 0.024683 0.000000
# 6 0.000000 0.000000 0.000000 0.000000 0.000000 0.040784
#
#
# Mechanical properties :
#
#
# Convention : Reuss Voigt Hill
#
# Bulk Modulus (GPa) = 30.98072 50.23189 40.60630
# Shear Modulus (GPa) = 29.63223 33.92007 31.77615
#
# Velocity S-wave (km/s) = 3.72163 3.98180 3.85392
# Velocity P-wave (km/s) = 5.74006 6.67973 6.22765
#
# Compressibility (1/GPa) = 0.03227814
#
# Stress axis : x y z
#
# Youngs Moduli (GPa) = 93.81854 42.21126 93.19734
#
# Poissons Ratio (x) = 0.01720 0.52620
# Poissons Ratio (y) = 0.03824 0.03232
# Poissons Ratio (z) = 0.52971 0.01464
#
# Static dielectric constant tensor:
#      x y z
#    x 1.814490 0.000000 0.000000 
#    y 0.000000 1.839370 0.000000 
#    z 0.000000 0.000000 1.730310 
# 
# From -- ./inp_files/13010.got.cif
#   From: 2010.05.17/outbox.cif.g08.bks.cpg/sg35_7_cif.got.tgz:13010.got - 2010.06.03 17:29:28.
