data_PCOD9349292
_publ_section_title
;
Structure prediction by ZEFSAII (Michael W. Deem and Ramdas Pophale) SiO2 
 PCOD9349292
Probable space group: C M M 2
;
_chemical_formula_sum "Si O2"
_cell_formula_units_Z 40
_cell_length_a 14.964109
_cell_length_b 8.587511
_cell_length_c 17.255355
_cell_angle_alpha 90.000000
_cell_angle_beta 90.000000
_cell_angle_gamma 90.000000
_cell_volume 2217.389915
_symmetry_space_group_name_H-M "C M M 2"
_symmetry_group_IT_number 35
_symmetry_cell_setting 'orthorhombic'
loop_
_space_group_symop_operation_xyz
x,y,z
-x,-y,z
-x,y,z
x,-y,z
1/2+x,1/2+y,z
1/2-x,1/2-y,z
1/2-x,1/2+y,z
1/2+x,1/2-y,z
loop_
_atom_site_type_symbol
_atom_site_label
_atom_site_fract_x
_atom_site_fract_y
_atom_site_fract_z
Si Si1 0.000000 0.309469 0.108060
Si Si2 0.000000 0.184849 0.703484
Si Si3 0.850809 0.687961 0.407137
Si Si4 0.000000 0.688028 0.530143
Si Si5 0.500000 0.189853 0.285310
Si Si6 0.150667 0.687612 0.990084
Si Si7 0.149909 0.686925 0.815577
O O1 0.000000 0.256466 0.196720
O O2 0.000000 0.500000 0.109374
O O3 0.085380 0.259149 0.057968
O O4 0.000000 0.246361 0.616023
O O5 0.914743 0.246118 0.750870
O O6 0.000000 0.000000 0.702940
O O7 0.846753 0.500000 0.406672
O O8 0.750000 0.750000 0.407494
O O9 0.911400 0.736918 0.333184
O O10 0.911741 0.734706 0.481119
O O11 0.000000 0.500000 0.533178
O O12 0.500000 0.000000 0.285372
O O13 0.152476 0.500000 0.991429
O O14 0.250000 0.750000 0.000937
O O15 0.120140 0.732301 0.903089
O O16 0.149633 0.500000 0.811203
O O17 0.250000 0.750000 0.805864
#
# Coordination Sequence:
#
# PCOD9349292 Si02
#       7
#     4   4   8   4   4   8   8
#     4   9  16  29  50  74 103 138 172 205 247 301
#     4  12  24  36  54  81 108 136 172 215 266 316
#     4   9  18  34  56  77  99 132 169 205 251 304
#     4   9  20  38  54  72 102 136 169 206 253 312
#     4   8  16  31  50  75 105 136 169 202 244 305
#     4   9  18  32  51  74 100 135 176 214 253 299
#     4  10  20  36  55  76 105 141 181 221 262 309
#
# _framework density 18.039225999999999
#
# number of rings (size 3 to 8) (size 9 to 14) (size 15 to 20)
#    0.000    2.600    0.000    3.300    0.000    4.800 
#    0.000    4.000    0.000    1.200    0.000    0.000 
#    0.000    0.000    0.000    0.000    0.000    0.000 
#
# Total GULP energy -111553.709807 kJ/mol
# GULP energy per Si atom -5577.685490 kJ/mol
# Density = 1.799817 g / cm^3
# Si number density = 18.039226 Si / 1000 Ang^3
#
#
#
# Elastic Constant Matrix: (Units=GPa)
#
#
# Indices 1 2 3 4 5 6 
#
# 1 158.0032 32.0064 118.8438 0.0000 0.0000 0.0000
# 2 32.0064 26.2216 42.9678 0.0000 0.0000 0.0000
# 3 118.8438 42.9678 211.2941 0.0000 0.0000 0.0000
# 4 0.0000 0.0000 0.0000 14.9585 0.0000 0.0000
# 5 0.0000 0.0000 0.0000 0.0000 31.8691 0.0000
# 6 0.0000 0.0000 0.0000 0.0000 0.0000 33.2619
#
#
#
# Elastic Compliance Matrix: (Units=1/GPa)
#
#
# Indices 1 2 3 4 5 6 
#
# 1 0.011410 -0.005116 -0.005377 0.000000 0.000000 0.000000
# 2 -0.005116 0.059489 -0.009220 0.000000 0.000000 0.000000
# 3 -0.005377 -0.009220 0.009632 0.000000 0.000000 0.000000
# 4 0.000000 0.000000 0.000000 0.066852 0.000000 0.000000
# 5 0.000000 0.000000 0.000000 0.000000 0.031378 0.000000
# 6 0.000000 0.000000 0.000000 0.000000 0.000000 0.030064
#
#
# Mechanical properties :
#
#
# Convention : Reuss Voigt Hill
#
# Bulk Modulus (GPa) = 24.32789 87.01719 55.67254
# Shear Modulus (GPa) = 19.08741 29.46464 24.27603
#
# Velocity S-wave (km/s) = 3.25638 4.04588 3.67241
# Velocity P-wave (km/s) = 5.25872 8.37663 6.99364
#
# Compressibility (1/GPa) = 0.04110509
#
# Stress axis : x y z
#
# Youngs Moduli (GPa) = 87.64413 16.80984 103.81891
#
# Poissons Ratio (x) = 0.08599 0.55826
# Poissons Ratio (y) = 0.44835 0.95722
# Poissons Ratio (z) = 0.47128 0.15499
#
# Static dielectric constant tensor:
#      x y z
#    x 1.595330 0.000000 0.000000 
#    y 0.000000 1.608650 0.000000 
#    z 0.000000 0.000000 1.615490 
# 
# From -- ./inp_files/14859.got.cif
#   From: 2010.05.17/outbox.cif.g08.bks.cpg/sg35_8_cif.got.tgz:14859.got - 2010.06.03 17:29:28.
