data_PCOD9349850
_publ_section_title
;
Structure prediction by ZEFSAII (Michael W. Deem and Ramdas Pophale) SiO2 
 PCOD9349850
Probable space group: C M M 2
;
_chemical_formula_sum "Si O2"
_cell_formula_units_Z 38
_cell_length_a 19.376138
_cell_length_b 13.750721
_cell_length_c 7.539074
_cell_angle_alpha 90.000000
_cell_angle_beta 90.000000
_cell_angle_gamma 90.000000
_cell_volume 2008.679723
_symmetry_space_group_name_H-M "C M M 2"
_symmetry_group_IT_number 35
_symmetry_cell_setting 'orthorhombic'
loop_
_space_group_symop_operation_xyz
x,y,z
-x,-y,z
-x,y,z
x,-y,z
1/2+x,1/2+y,z
1/2-x,1/2-y,z
1/2-x,1/2+y,z
1/2+x,1/2-y,z
loop_
_atom_site_type_symbol
_atom_site_label
_atom_site_fract_x
_atom_site_fract_y
_atom_site_fract_z
Si Si1 0.794088 0.500000 0.482810
Si Si2 0.341991 0.000000 0.099436
Si Si3 0.276117 0.500000 0.830788
Si Si4 0.170261 0.282115 0.502553
Si Si5 0.419045 0.797705 0.163264
Si Si6 0.117706 0.838568 0.835536
Si Si7 0.000000 0.000000 0.766991
O O1 0.788958 0.500000 0.268690
O O2 0.729017 0.500000 0.615750
O O3 0.831670 0.601172 0.525848
O O4 0.387983 0.096441 0.116692
O O5 0.298537 0.000000 0.919728
O O6 0.316409 0.596123 0.889516
O O7 0.250000 0.250000 0.476460
O O8 0.124526 0.259019 0.330657
O O9 0.140642 0.229283 0.673929
O O10 0.500000 0.804799 0.205788
O O11 0.408093 0.726095 0.998254
O O12 0.060054 0.914989 0.775783
#
# Coordination Sequence:
#
# PCOD9349850 Si02
#       7
#     4   4   4   8   8   8   2
#     4  10  21  40  56  99 129 156 218 265 327 378
#     4  10  24  39  67  92 131 162 219 270 323 380
#     4  11  22  38  65  97 124 169 207 281 326 373
#     4  11  24  41  69  97 131 172 219 274 329 382
#     4  11  25  43  65  95 131 176 215 262 328 396
#     4  11  24  42  68  92 136 166 222 264 328 392
#     4  10  24  48  62  98 132 176 214 272 316 404
#
# _framework density 18.917898999999998
#
# number of rings (size 3 to 8) (size 9 to 14) (size 15 to 20)
#    0.000    1.263    3.158    1.579    7.368    0.000 
#    0.000    4.211    0.000    1.263    0.000    0.000 
#    0.000    0.000    0.000    0.000    0.000    0.000 
#
# Total GULP energy -105826.268351 kJ/mol
# GULP energy per Si atom -5569.803597 kJ/mol
# Density = 1.887484 g / cm^3
# Si number density = 18.917899 Si / 1000 Ang^3
#
#
#
# Elastic Constant Matrix: (Units=GPa)
#
#
# Indices 1 2 3 4 5 6 
#
# 1 126.1538 33.8974 56.3640 0.0000 0.0000 0.0000
# 2 33.8974 118.3463 45.0748 0.0000 0.0000 0.0000
# 3 56.3640 45.0748 78.3680 0.0000 0.0000 0.0000
# 4 0.0000 0.0000 0.0000 6.7891 0.0000 0.0000
# 5 0.0000 0.0000 0.0000 0.0000 10.6494 0.0000
# 6 0.0000 0.0000 0.0000 0.0000 0.0000 5.5541
#
#
#
# Elastic Compliance Matrix: (Units=1/GPa)
#
#
# Indices 1 2 3 4 5 6 
#
# 1 0.011683 -0.000187 -0.008295 0.000000 0.000000 0.000000
# 2 -0.000187 0.010823 -0.006091 0.000000 0.000000 0.000000
# 3 -0.008295 -0.006091 0.022230 0.000000 0.000000 0.000000
# 4 0.000000 0.000000 0.000000 0.147294 0.000000 0.000000
# 5 0.000000 0.000000 0.000000 0.000000 0.093902 0.000000
# 6 0.000000 0.000000 0.000000 0.000000 0.000000 0.180048
#
#
# Mechanical properties :
#
#
# Convention : Reuss Voigt Hill
#
# Bulk Modulus (GPa) = 64.14303 65.94895 65.04599
# Shear Modulus (GPa) = 9.99354 17.10065 13.54710
#
# Velocity S-wave (km/s) = 2.30088 3.00982 2.67891
# Velocity P-wave (km/s) = 6.40612 6.85675 6.63526
#
# Compressibility (1/GPa) = 0.01559016
#
# Stress axis : x y z
#
# Youngs Moduli (GPa) = 85.59199 92.39514 44.98489
#
# Poissons Ratio (x) = 0.01727 0.37317
# Poissons Ratio (y) = 0.01600 0.27399
# Poissons Ratio (z) = 0.71002 0.56275
#
# Static dielectric constant tensor:
#      x y z
#    x 1.644150 0.000000 0.000000 
#    y 0.000000 1.645260 0.000000 
#    z 0.000000 0.000000 1.654170 
# 
# From -- ./inp_files/5935.got.cif
#   From: 2010.05.17/outbox.cif.g08.bks.cpg/sg35_3_cif.got.tgz:5935.got - 2010.06.03 17:29:28.
