data_PCOD9349946
_publ_section_title
;
Structure prediction by ZEFSAII (Michael W. Deem and Ramdas Pophale) SiO2 
 PCOD9349946
Probable space group: C M M 2
;
_chemical_formula_sum "Si O2"
_cell_formula_units_Z 56
_cell_length_a 18.055245
_cell_length_b 9.410516
_cell_length_c 18.404630
_cell_angle_alpha 90.000000
_cell_angle_beta 90.000000
_cell_angle_gamma 90.000000
_cell_volume 3127.115443
_symmetry_space_group_name_H-M "C M M 2"
_symmetry_group_IT_number 35
_symmetry_cell_setting 'orthorhombic'
loop_
_space_group_symop_operation_xyz
x,y,z
-x,-y,z
-x,y,z
x,-y,z
1/2+x,1/2+y,z
1/2-x,1/2-y,z
1/2-x,1/2+y,z
1/2+x,1/2-y,z
loop_
_atom_site_type_symbol
_atom_site_label
_atom_site_fract_x
_atom_site_fract_y
_atom_site_fract_z
Si Si1 0.327841 0.830245 0.885380
Si Si2 0.172759 0.831341 0.609513
Si Si3 0.412859 0.168270 0.035026
Si Si4 0.911246 0.331027 0.482526
Si Si5 0.412119 0.665234 0.761029
Si Si6 0.409581 0.663074 0.178187
Si Si7 0.409822 0.163516 0.318170
O O1 0.250000 0.750000 0.882530
O O2 0.377756 0.768823 0.820617
O O3 0.318677 0.000000 0.878213
O O4 0.367452 0.800657 0.962382
O O5 0.250000 0.750000 0.618022
O O6 0.129902 0.762419 0.541833
O O7 0.125349 0.811634 0.682893
O O8 0.183923 0.000000 0.598843
O O9 0.500000 0.200424 0.022446
O O10 0.386935 0.254375 0.105487
O O11 0.407465 0.000000 0.050296
O O12 0.896918 0.500000 0.492819
O O13 0.888056 0.293721 0.399849
O O14 0.000000 0.311151 0.488352
O O15 0.500000 0.685148 0.755527
O O16 0.398032 0.500000 0.781877
O O17 0.500000 0.666799 0.179049
O O18 0.386298 0.500000 0.175889
O O19 0.384214 0.739087 0.252056
O O20 0.500000 0.165380 0.317969
O O21 0.387643 0.000000 0.306038
#
# Coordination Sequence:
#
# PCOD9349946 Si02
#       7
#     8   8   8   8   8   8   8
#     4  11  23  38  57  81 109 143 181 219 264 317
#     4  11  23  38  56  79 109 144 180 218 264 317
#     4   9  18  33  52  74 102 137 177 219 264 316
#     4   9  18  33  54  80 108 140 180 224 270 319
#     4  10  22  40  61  85 111 138 172 217 267 316
#     4   9  16  25  42  72 105 135 171 216 264 311
#     4   8  14  26  45  70 102 138 173 212 261 314
#
# _framework density 17.907876999999999
#
# number of rings (size 3 to 8) (size 9 to 14) (size 15 to 20)
#    0.000    2.429    0.000    3.429    0.000    7.429 
#    0.000    2.857    0.000    0.857    0.000    4.000 
#    0.000    0.000    0.000    0.000    0.000    0.000 
#
# Total GULP energy -156250.440697 kJ/mol
# GULP energy per Si atom -5580.372882 kJ/mol
# Density = 1.786712 g / cm^3
# Si number density = 17.907877 Si / 1000 Ang^3
#
#
#
# Elastic Constant Matrix: (Units=GPa)
#
#
# Indices 1 2 3 4 5 6 
#
# 1 64.1703 59.4737 59.8940 0.0000 0.0000 0.0000
# 2 59.4737 108.7719 110.5402 0.0000 0.0000 0.0000
# 3 59.8940 110.5402 162.9739 0.0000 0.0000 0.0000
# 4 0.0000 0.0000 0.0000 110.3220 0.0000 0.0000
# 5 0.0000 0.0000 0.0000 0.0000 -15.0015 0.0000
# 6 0.0000 0.0000 0.0000 0.0000 0.0000 19.5340
#
#
#
# Elastic Compliance Matrix: (Units=1/GPa)
#
#
# Indices 1 2 3 4 5 6 
#
# 1 0.031600 -0.017625 0.000341 0.000000 0.000000 0.000000
# 2 -0.017625 0.039419 -0.020260 0.000000 0.000000 0.000000
# 3 0.000341 -0.020260 0.019752 0.000000 0.000000 0.000000
# 4 0.000000 0.000000 0.000000 0.009064 0.000000 0.000000
# 5 0.000000 0.000000 0.000000 0.000000 -0.066660 0.000000
# 6 0.000000 0.000000 0.000000 0.000000 0.000000 0.051193
#
#
# Mechanical properties :
#
#
# Convention : Reuss Voigt Hill
#
# Bulk Modulus (GPa) = 63.75607 88.41465 76.08536
# Shear Modulus (GPa) = 30.36122 30.03810 30.19966
#
# Velocity S-wave (km/s) = 4.12200 4.10001 4.11102
# Velocity P-wave (km/s) = 7.63768 8.47895 8.06928
#
# Compressibility (1/GPa) = 0.01568478
#
# Stress axis : x y z
#
# Youngs Moduli (GPa) = 31.64572 25.36824 50.62727
#
# Poissons Ratio (x) = 0.44711 -0.01727
# Poissons Ratio (y) = 0.55774 1.02570
# Poissons Ratio (z) = -0.01079 0.51396
#
# Static dielectric constant tensor:
#      x y z
#    x 1.595660 0.000000 0.000000 
#    y 0.000000 1.595120 0.000000 
#    z 0.000000 0.000000 1.593290 
# 
# From -- ./inp_files/17414.got.cif
#   From: 2010.05.17/outbox.cif.g08.bks.cpg/sg35_9_cif.got.tgz:17414.got - 2010.06.03 17:29:28.
