data_PCOD9349450
_publ_section_title
;
Structure prediction by ZEFSAII (Michael W. Deem and Ramdas Pophale) SiO2 
 PCOD9349450
Probable space group: C M M 2
;
_chemical_formula_sum "Si O2"
_cell_formula_units_Z 56
_cell_length_a 8.376181
_cell_length_b 23.116760
_cell_length_c 15.126576
_cell_angle_alpha 90.000000
_cell_angle_beta 90.000000
_cell_angle_gamma 90.000000
_cell_volume 2928.961420
_symmetry_space_group_name_H-M "C M M 2"
_symmetry_group_IT_number 35
_symmetry_cell_setting 'orthorhombic'
loop_
_space_group_symop_operation_xyz
x,y,z
-x,-y,z
-x,y,z
x,-y,z
1/2+x,1/2+y,z
1/2-x,1/2-y,z
1/2-x,1/2+y,z
1/2+x,1/2-y,z
loop_
_atom_site_type_symbol
_atom_site_label
_atom_site_fract_x
_atom_site_fract_y
_atom_site_fract_z
Si Si1 0.805756 0.375461 0.324750
Si Si2 0.686398 0.395188 0.653085
Si Si3 0.190200 0.567847 0.843217
Si Si4 0.190393 0.184941 0.147830
Si Si5 0.191358 0.314762 0.507425
Si Si6 0.190882 0.317890 0.954590
Si Si7 0.317432 0.000000 0.337017
Si Si8 0.316910 0.000000 0.547599
O O1 0.751956 0.342362 0.238201
O O2 0.754497 0.349679 0.419493
O O3 0.740615 0.440034 0.312133
O O4 0.000000 0.376947 0.328172
O O5 0.500000 0.391028 0.672630
O O6 0.774695 0.415045 0.741789
O O7 0.744781 0.338847 0.600599
O O8 0.724864 0.444864 0.582513
O O9 0.248610 0.500000 0.858954
O O10 0.248111 0.626025 0.896528
O O11 0.000000 0.565291 0.858046
O O12 0.250000 0.250000 0.152683
O O13 0.000000 0.181393 0.142911
O O14 0.263008 0.164478 0.054706
O O15 0.250000 0.250000 0.495173
O O16 0.000000 0.318296 0.510094
O O17 0.250000 0.250000 0.938309
O O18 0.000000 0.314384 0.945163
O O19 0.500000 0.000000 0.302121
O O20 0.326803 0.000000 0.442874
O O21 0.500000 0.000000 0.581516
#
# Coordination Sequence:
#
# PCOD9349450 Si02
#       8
#     8   8   8   8   8   8   4   4
#     4  10  20  37  60  86 116 154 199 242 290 347
#     4  12  24  37  58  89 120 156 198 242 296 353
#     4  10  22  41  65  90 119 159 204 250 303 365
#     4  11  22  38  61  87 117 154 194 241 296 353
#     4  11  23  39  59  84 119 159 201 251 299 349
#     4  10  21  40  66  92 118 153 199 248 304 365
#     4   9  18  35  59  84 111 154 199 239 286 344
#     4  11  19  37  61  82 111 154 201 241 286 342
#
# _framework density 19.119406000000001
#
# number of rings (size 3 to 8) (size 9 to 14) (size 15 to 20)
#    0.000    1.429    2.143    4.929    0.000    4.000 
#    1.286    1.786    0.000    0.000    0.000    0.000 
#    0.000    0.000    0.000    0.000    0.000    0.000 
#
# Total GULP energy -156002.580765 kJ/mol
# GULP energy per Si atom -5571.520742 kJ/mol
# Density = 1.907589 g / cm^3
# Si number density = 19.119406 Si / 1000 Ang^3
#
#
#
# Elastic Constant Matrix: (Units=GPa)
#
#
# Indices 1 2 3 4 5 6 
#
# 1 24.9837 11.5563 -1.5115 0.0000 0.0000 0.0000
# 2 11.5563 90.7729 40.3665 0.0000 0.0000 0.0000
# 3 -1.5115 40.3665 79.7563 0.0000 0.0000 0.0000
# 4 0.0000 0.0000 0.0000 31.6505 0.0000 0.0000
# 5 0.0000 0.0000 0.0000 0.0000 20.4634 0.0000
# 6 0.0000 0.0000 0.0000 0.0000 0.0000 18.8286
#
#
#
# Elastic Compliance Matrix: (Units=1/GPa)
#
#
# Indices 1 2 3 4 5 6 
#
# 1 0.043866 -0.007684 0.004720 0.000000 0.000000 0.000000
# 2 -0.007684 0.015562 -0.008022 0.000000 0.000000 0.000000
# 3 0.004720 -0.008022 0.016688 0.000000 0.000000 0.000000
# 4 0.000000 0.000000 0.000000 0.031595 0.000000 0.000000
# 5 0.000000 0.000000 0.000000 0.000000 0.048868 0.000000
# 6 0.000000 0.000000 0.000000 0.000000 0.000000 0.053111
#
#
# Mechanical properties :
#
#
# Convention : Reuss Voigt Hill
#
# Bulk Modulus (GPa) = 18.46902 32.92615 25.69759
# Shear Modulus (GPa) = 20.02342 23.86196 21.94269
#
# Velocity S-wave (km/s) = 3.23969 3.53661 3.39140
# Velocity P-wave (km/s) = 4.86568 5.82542 5.36705
#
# Compressibility (1/GPa) = 0.05414473
#
# Stress axis : x y z
#
# Youngs Moduli (GPa) = 22.79689 64.25907 59.92435
#
# Poissons Ratio (x) = 0.49374 -0.28285
# Poissons Ratio (y) = 0.17516 0.48071
# Poissons Ratio (z) = -0.10760 0.51548
#
# Static dielectric constant tensor:
#      x y z
#    x 1.666570 0.000000 0.000000 
#    y 0.000000 1.726590 0.000000 
#    z 0.000000 0.000000 1.644340 
# 
# From -- ./inp_files/15720.got.cif
#   From: 2010.05.17/outbox.cif.g08.bks.cpg/sg35_8_cif.got.tgz:15720.got - 2010.06.03 17:29:28.
