data_PCOD9349588
_publ_section_title
;
Structure prediction by ZEFSAII (Michael W. Deem and Ramdas Pophale) SiO2 
 PCOD9349588
Probable space group: C M M 2
;
_chemical_formula_sum "Si O2"
_cell_formula_units_Z 48
_cell_length_a 8.646517
_cell_length_b 15.845107
_cell_length_c 17.994720
_cell_angle_alpha 90.000000
_cell_angle_beta 90.000000
_cell_angle_gamma 90.000000
_cell_volume 2465.366380
_symmetry_space_group_name_H-M "C M M 2"
_symmetry_group_IT_number 35
_symmetry_cell_setting 'orthorhombic'
loop_
_space_group_symop_operation_xyz
x,y,z
-x,-y,z
-x,y,z
x,-y,z
1/2+x,1/2+y,z
1/2-x,1/2-y,z
1/2-x,1/2+y,z
1/2+x,1/2-y,z
loop_
_atom_site_type_symbol
_atom_site_label
_atom_site_fract_x
_atom_site_fract_y
_atom_site_fract_z
Si Si1 0.314930 0.345661 0.473930
Si Si2 0.182579 0.656330 0.628464
Si Si3 0.313398 0.346329 0.104779
Si Si4 0.173265 0.900952 0.780053
Si Si5 0.812728 0.000000 0.367148
Si Si6 0.686588 0.656127 0.939975
Si Si7 0.815497 0.500000 0.201188
O O1 0.500000 0.338981 0.475069
O O2 0.250000 0.250000 0.462841
O O3 0.259074 0.380649 0.554067
O O4 0.269599 0.414896 0.412399
O O5 0.250000 0.750000 0.630492
O O6 0.227707 0.619401 0.707935
O O7 0.000000 0.656243 0.618714
O O8 0.500000 0.342432 0.109358
O O9 0.250000 0.250000 0.114660
O O10 0.250000 0.415388 0.161850
O O11 0.270224 0.378797 0.021177
O O12 0.241442 0.878573 0.860709
O O13 0.000000 0.861416 0.772001
O O14 0.154588 0.000000 0.781298
O O15 0.737573 0.000000 0.286503
O O16 0.000000 0.000000 0.360398
O O17 0.500000 0.652381 0.936934
O O18 0.750000 0.750000 0.942449
O O19 0.000000 0.500000 0.195393
#
# Coordination Sequence:
#
# PCOD9349588 Si02
#       7
#     8   8   8   8   4   8   4
#     4  10  21  40  65  92 120 157 200 246 301 360
#     4  11  22  37  57  82 114 153 198 243 293 347
#     4  10  21  40  66  93 126 163 207 256 309 368
#     4  10  21  35  53  80 116 155 197 242 293 348
#     4  10  24  44  66  91 122 159 198 243 304 369
#     4   9  19  35  58  83 111 152 197 244 296 350
#     4  12  26  42  64  95 128 163 204 249 306 369
#
# _framework density 19.469722999999998
#
# number of rings (size 3 to 8) (size 9 to 14) (size 15 to 20)
#    0.000    1.833    0.000    4.750    2.333    5.000 
#    0.000    1.667    0.000    0.000    0.000    0.000 
#    0.000    0.000    0.000    0.000    0.000    0.000 
#
# Total GULP energy -133838.164052 kJ/mol
# GULP energy per Si atom -5576.590169 kJ/mol
# Density = 1.942541 g / cm^3
# Si number density = 19.469723 Si / 1000 Ang^3
#
#
#
# Elastic Constant Matrix: (Units=GPa)
#
#
# Indices 1 2 3 4 5 6 
#
# 1 64.7792 36.1737 60.8339 0.0000 0.0000 0.0000
# 2 36.1737 86.7991 84.8362 0.0000 0.0000 0.0000
# 3 60.8339 84.8362 203.5755 0.0000 0.0000 0.0000
# 4 0.0000 0.0000 0.0000 43.9039 0.0000 0.0000
# 5 0.0000 0.0000 0.0000 0.0000 32.8546 0.0000
# 6 0.0000 0.0000 0.0000 0.0000 0.0000 23.5820
#
#
#
# Elastic Compliance Matrix: (Units=1/GPa)
#
#
# Indices 1 2 3 4 5 6 
#
# 1 0.022561 -0.004746 -0.004764 0.000000 0.000000 0.000000
# 2 -0.004746 0.020437 -0.007098 0.000000 0.000000 0.000000
# 3 -0.004764 -0.007098 0.009294 0.000000 0.000000 0.000000
# 4 0.000000 0.000000 0.000000 0.022777 0.000000 0.000000
# 5 0.000000 0.000000 0.000000 0.000000 0.030437 0.000000
# 6 0.000000 0.000000 0.000000 0.000000 0.000000 0.042405
#
#
# Mechanical properties :
#
#
# Convention : Reuss Voigt Hill
#
# Bulk Modulus (GPa) = 52.42518 79.87127 66.14822
# Shear Modulus (GPa) = 26.66860 31.62208 29.14534
#
# Velocity S-wave (km/s) = 3.70502 4.03447 3.87325
# Velocity P-wave (km/s) = 6.72963 7.92559 7.35197
#
# Compressibility (1/GPa) = 0.01907480
#
# Stress axis : x y z
#
# Youngs Moduli (GPa) = 44.32371 48.93189 107.59751
#
# Poissons Ratio (x) = 0.23224 0.51260
# Poissons Ratio (y) = 0.21037 0.76376
# Poissons Ratio (z) = 0.21116 0.34733
#
# Static dielectric constant tensor:
#      x y z
#    x 1.692940 0.000000 0.000000 
#    y 0.000000 1.655950 0.000000 
#    z 0.000000 0.000000 1.775690 
# 
# From -- ./inp_files/15254.got.cif
#   From: 2010.05.17/outbox.cif.g08.bks.cpg/sg35_8_cif.got.tgz:15254.got - 2010.06.03 17:29:28.
