data_PCOD9349992
_publ_section_title
;
Structure prediction by ZEFSAII (Michael W. Deem and Ramdas Pophale) SiO2 
 PCOD9349992
Probable space group: C M M 2
;
_chemical_formula_sum "Si O2"
_cell_formula_units_Z 64
_cell_length_a 15.135515
_cell_length_b 23.591524
_cell_length_c 9.143723
_cell_angle_alpha 90.000000
_cell_angle_beta 90.000000
_cell_angle_gamma 90.000000
_cell_volume 3264.947941
_symmetry_space_group_name_H-M "C M M 2"
_symmetry_group_IT_number 35
_symmetry_cell_setting 'orthorhombic'
loop_
_space_group_symop_operation_xyz
x,y,z
-x,-y,z
-x,y,z
x,-y,z
1/2+x,1/2+y,z
1/2-x,1/2-y,z
1/2-x,1/2+y,z
1/2+x,1/2-y,z
loop_
_atom_site_type_symbol
_atom_site_label
_atom_site_fract_x
_atom_site_fract_y
_atom_site_fract_z
Si Si1 0.099708 0.140680 0.102580
Si Si2 0.758420 0.933250 0.278731
Si Si3 0.898815 0.437000 0.819736
Si Si4 0.102350 0.622042 0.114268
Si Si5 0.399584 0.663068 0.760392
Si Si6 0.228801 0.388114 0.604294
Si Si7 0.356265 0.757010 0.255225
Si Si8 0.648174 0.769469 0.586206
O O1 0.168646 0.099295 0.181279
O O2 0.105365 0.201360 0.181213
O O3 0.000000 0.118086 0.114595
O O4 0.117997 0.153207 0.931870
O O5 0.665502 0.919486 0.202873
O O6 0.750724 0.906214 0.439881
O O7 0.775945 0.000000 0.286724
O O8 0.895891 0.500000 0.888542
O O9 0.823657 0.434191 0.697613
O O10 0.000000 0.429486 0.764959
O O11 0.880838 0.389952 0.943224
O O12 0.121815 0.685925 0.167060
O O13 0.000000 0.609715 0.140996
O O14 0.500000 0.643338 0.728890
O O15 0.321495 0.631055 0.675211
O O16 0.394685 0.728802 0.707150
O O17 0.158807 0.335972 0.611550
O O18 0.250000 0.750000 0.256983
O O19 0.388353 0.760526 0.423025
O O20 0.750000 0.750000 0.581343
#
# Coordination Sequence:
#
# PCOD9349992 Si02
#       8
#     8   8   8   8   8   8   8   8
#     4  11  24  42  65  97 131 167 216 274 329 386
#     4  12  25  44  68  93 127 173 222 273 328 385
#     4  10  23  42  62  87 124 169 217 269 324 387
#     4  11  23  40  64  95 127 167 213 263 325 388
#     4  10  23  39  62  94 129 168 208 260 327 391
#     4  11  22  41  63  91 125 169 216 270 320 389
#     4  11  20  38  65  94 130 166 206 262 326 389
#     4   9  19  36  57  88 126 165 203 250 317 382
#
# _framework density 19.602150000000002
#
# number of rings (size 3 to 8) (size 9 to 14) (size 15 to 20)
#    0.000    1.375    2.500    3.375    1.750    5.000 
#    0.000    0.625    0.000    2.625    0.000    0.000 
#    0.000    0.000    0.000    0.000    0.000    0.000 
#
# Total GULP energy -178648.328486 kJ/mol
# GULP energy per Si atom -5582.760265 kJ/mol
# Density = 1.955753 g / cm^3
# Si number density = 19.602150 Si / 1000 Ang^3
#
#
#
# Elastic Constant Matrix: (Units=GPa)
#
#
# Indices 1 2 3 4 5 6 
#
# 1 110.8794 34.1780 78.3713 0.0000 0.0000 0.0000
# 2 34.1780 96.3572 51.4186 0.0000 0.0000 0.0000
# 3 78.3713 51.4186 133.2738 0.0000 0.0000 0.0000
# 4 0.0000 0.0000 0.0000 25.5694 0.0000 0.0000
# 5 0.0000 0.0000 0.0000 0.0000 -297.7828 0.0000
# 6 0.0000 0.0000 0.0000 0.0000 0.0000 15.9316
#
#
#
# Elastic Compliance Matrix: (Units=1/GPa)
#
#
# Indices 1 2 3 4 5 6 
#
# 1 0.015482 -0.000797 -0.008797 0.000000 0.000000 0.000000
# 2 -0.000797 0.013110 -0.004589 0.000000 0.000000 0.000000
# 3 -0.008797 -0.004589 0.014447 0.000000 0.000000 0.000000
# 4 0.000000 0.000000 0.000000 0.039109 0.000000 0.000000
# 5 0.000000 0.000000 0.000000 0.000000 -0.003358 0.000000
# 6 0.000000 0.000000 0.000000 0.000000 0.000000 0.062768
#
#
# Mechanical properties :
#
#
# Convention : Reuss Voigt Hill
#
# Bulk Modulus (GPa) = 68.15456 74.27181 71.21318
# Shear Modulus (GPa) = 28.60172 -39.48685 -5.44257
#
# Velocity S-wave (km/s) = 3.82398 -4.49309 -1.66810
# Velocity P-wave (km/s) = 7.37167 3.32486 5.71822
#
# Compressibility (1/GPa) = 0.01467253
#
# Stress axis : x y z
#
# Youngs Moduli (GPa) = 64.59028 76.27956 69.22028
#
# Poissons Ratio (x) = 0.06083 0.60890
# Poissons Ratio (y) = 0.05151 0.31765
# Poissons Ratio (z) = 0.56818 0.35004
#
# Static dielectric constant tensor:
#      x y z
#    x 1.714440 0.000000 0.000000 
#    y 0.000000 1.713040 0.000000 
#    z 0.000000 0.000000 1.690490 
# 
# From -- ./inp_files/7854.got.cif
#   From: 2010.05.17/outbox.cif.g08.bks.cpg/sg35_4_cif.got.tgz:7854.got - 2010.06.03 17:29:28.
