data_PCOD9349254
_publ_section_title
;
Structure prediction by ZEFSAII (Michael W. Deem and Ramdas Pophale) SiO2 
 PCOD9349254
Probable space group: C M M 2
;
_chemical_formula_sum "Si O2"
_cell_formula_units_Z 64
_cell_length_a 15.240906
_cell_length_b 17.763880
_cell_length_c 10.072572
_cell_angle_alpha 90.000000
_cell_angle_beta 90.000000
_cell_angle_gamma 90.000000
_cell_volume 2727.024224
_symmetry_space_group_name_H-M "C M M 2"
_symmetry_group_IT_number 35
_symmetry_cell_setting 'orthorhombic'
loop_
_space_group_symop_operation_xyz
x,y,z
-x,-y,z
-x,y,z
x,-y,z
1/2+x,1/2+y,z
1/2-x,1/2-y,z
1/2-x,1/2+y,z
1/2+x,1/2-y,z
loop_
_atom_site_type_symbol
_atom_site_label
_atom_site_fract_x
_atom_site_fract_y
_atom_site_fract_z
Si Si1 0.600764 0.674821 0.444740
Si Si2 0.398556 0.084976 0.289981
Si Si3 0.903482 0.185676 0.856000
Si Si4 0.263964 0.415755 0.943124
Si Si5 0.160504 0.292615 0.080780
Si Si6 0.098847 0.691687 0.626635
Si Si7 0.734026 0.914702 0.540451
Si Si8 0.899535 0.917067 0.188204
O O1 0.500000 0.655310 0.481719
O O2 0.612196 0.760981 0.489772
O O3 0.675760 0.627831 0.516002
O O4 0.610244 0.651067 0.291264
O O5 0.500000 0.088275 0.337781
O O6 0.383209 0.156439 0.194055
O O7 0.325730 0.086360 0.405502
O O8 0.388776 0.000000 0.226664
O O9 0.892408 0.230723 0.995833
O O10 0.830850 0.122135 0.841609
O O11 0.893588 0.246547 0.740877
O O12 0.000000 0.152749 0.847744
O O13 0.236075 0.500000 0.913438
O O14 0.325227 0.417460 0.076948
O O15 0.189150 0.356181 0.974270
O O16 0.250000 0.250000 0.125117
O O17 0.171850 0.629368 0.641065
O O18 0.000000 0.661339 0.629025
O O19 0.749345 0.000000 0.577897
O O20 0.000000 0.914275 0.136347
O O21 0.891903 0.000000 0.257640
#
# Coordination Sequence:
#
# PCOD9349254 Si02
#       8
#     8   8   8   8   8   8   8   8
#     4  10  21  37  60  90 122 156 191 234 294 356
#     4  10  21  38  60  87 120 156 198 248 297 347
#     4  10  22  41  61  82 112 151 197 244 288 340
#     4  10  20  35  58  87 118 151 189 233 286 349
#     4  10  21  35  56  86 119 157 194 236 292 351
#     4  10  23  43  63  83 113 154 202 253 295 340
#     4  11  23  39  62  88 117 155 196 242 297 356
#     4   9  17  31  53  83 119 153 185 225 276 340
#
# _framework density 23.468805
#
# number of rings (size 3 to 8) (size 9 to 14) (size 15 to 20)
#    0.000    2.000    0.000    3.000    0.000   10.250 
#    0.000    7.500    0.000    6.000    0.000    0.000 
#    0.000    0.000    0.000    0.000    0.000    0.000 
#
# Total GULP energy -178964.287961 kJ/mol
# GULP energy per Si atom -5592.633999 kJ/mol
# Density = 2.341539 g / cm^3
# Si number density = 23.468805 Si / 1000 Ang^3
#
#
#
# Elastic Constant Matrix: (Units=GPa)
#
#
# Indices 1 2 3 4 5 6 
#
# 1 105.1634 45.5810 -2.3572 0.0000 0.0000 0.0000
# 2 45.5810 103.3289 -1.7869 0.0000 0.0000 0.0000
# 3 -2.3572 -1.7869 50.9663 0.0000 0.0000 0.0000
# 4 0.0000 0.0000 0.0000 21.0683 0.0000 0.0000
# 5 0.0000 0.0000 0.0000 0.0000 22.2411 0.0000
# 6 0.0000 0.0000 0.0000 0.0000 0.0000 22.8472
#
#
#
# Elastic Compliance Matrix: (Units=1/GPa)
#
#
# Indices 1 2 3 4 5 6 
#
# 1 0.011764 -0.005183 0.000362 0.000000 0.000000 0.000000
# 2 -0.005183 0.011967 0.000180 0.000000 0.000000 0.000000
# 3 0.000362 0.000180 0.019644 0.000000 0.000000 0.000000
# 4 0.000000 0.000000 0.000000 0.047465 0.000000 0.000000
# 5 0.000000 0.000000 0.000000 0.000000 0.044962 0.000000
# 6 0.000000 0.000000 0.000000 0.000000 0.000000 0.043769
#
#
# Mechanical properties :
#
#
# Convention : Reuss Voigt Hill
#
# Bulk Modulus (GPa) = 29.33130 38.03693 33.68411
# Shear Modulus (GPa) = 24.97301 27.76609 26.36955
#
# Velocity S-wave (km/s) = 3.26558 3.44336 3.35565
# Velocity P-wave (km/s) = 5.17144 5.66142 5.42197
#
# Compressibility (1/GPa) = 0.03409327
#
# Stress axis : x y z
#
# Youngs Moduli (GPa) = 85.00820 83.56124 50.90643
#
# Poissons Ratio (x) = 0.43309 -0.01845
# Poissons Ratio (y) = 0.44059 -0.00916
# Poissons Ratio (z) = -0.03080 -0.01503
#
# Static dielectric constant tensor:
#      x y z
#    x 1.842270 0.000000 0.000000 
#    y 0.000000 1.869310 0.000000 
#    z 0.000000 0.000000 1.975130 
# 
# From -- ./inp_files/13182.got.cif
#   From: 2010.05.17/outbox.cif.g08.bks.cpg/sg35_7_cif.got.tgz:13182.got - 2010.06.03 17:29:28.
