data_PCOD9349340
_publ_section_title
;
Structure prediction by ZEFSAII (Michael W. Deem and Ramdas Pophale) SiO2 
 PCOD9349340
Probable space group: C M M 2
;
_chemical_formula_sum "Si O2"
_cell_formula_units_Z 64
_cell_length_a 8.488582
_cell_length_b 30.040699
_cell_length_c 12.819970
_cell_angle_alpha 90.000000
_cell_angle_beta 90.000000
_cell_angle_gamma 90.000000
_cell_volume 3269.130000
_symmetry_space_group_name_H-M "C M M 2"
_symmetry_group_IT_number 35
_symmetry_cell_setting 'orthorhombic'
loop_
_space_group_symop_operation_xyz
x,y,z
-x,-y,z
-x,y,z
x,-y,z
1/2+x,1/2+y,z
1/2-x,1/2-y,z
1/2-x,1/2+y,z
1/2+x,1/2-y,z
loop_
_atom_site_type_symbol
_atom_site_label
_atom_site_fract_x
_atom_site_fract_y
_atom_site_fract_z
Si Si1 0.181270 0.554182 0.160290
Si Si2 0.690020 0.300862 0.147958
Si Si3 0.807385 0.448714 0.931647
Si Si4 0.812580 0.373605 0.530862
Si Si5 0.686564 0.448389 0.381553
Si Si6 0.188722 0.800440 0.375218
Si Si7 0.690324 0.874939 0.768780
Si Si8 0.310585 0.300565 0.920326
O O1 0.180190 0.500000 0.156243
O O2 0.275055 0.566834 0.263494
O O3 0.000000 0.568898 0.171551
O O4 0.244961 0.567557 0.046663
O O5 0.500000 0.301295 0.147529
O O6 0.750000 0.250000 0.148395
O O7 0.742028 0.318899 0.260793
O O8 0.741627 0.318851 0.035124
O O9 0.758841 0.500000 0.916141
O O10 0.755618 0.416669 0.838996
O O11 0.000000 0.448581 0.935491
O O12 0.768412 0.417306 0.465555
O O13 0.745866 0.331863 0.467232
O O14 0.753093 0.376113 0.649700
O O15 0.000000 0.369290 0.534335
O O16 0.500000 0.446154 0.396862
O O17 0.737575 0.500000 0.390787
O O18 0.250000 0.750000 0.386074
O O19 0.000000 0.799439 0.375356
O O20 0.500000 0.876179 0.767278
O O21 0.743941 0.831002 0.829233
O O22 0.500000 0.300478 0.916724
O O23 0.250000 0.250000 0.911486
#
# Coordination Sequence:
#
# PCOD9349340 Si02
#       8
#     8   8   8   8   8   8   8   8
#     4   8  14  28  53  83 111 138 172 214 263 324
#     4   8  16  31  53  82 110 137 170 212 265 324
#     4   8  15  31  56  83 109 138 174 219 269 319
#     4  11  24  39  55  78 108 145 191 233 269 317
#     4  10  21  37  57  81 111 145 179 221 274 326
#     4  10  20  37  60  84 113 145 179 223 274 326
#     4  10  22  38  55  78 107 141 185 229 267 313
#     4  10  20  36  58  82 110 141 174 216 267 322
#
# _framework density 19.577074
#
# number of rings (size 3 to 8) (size 9 to 14) (size 15 to 20)
#    0.000    2.625    0.000    2.250    0.000    4.750 
#    0.000    4.375    0.000    1.125    0.000    0.000 
#    0.000    0.000    0.000    0.000    0.000    0.000 
#
# Total GULP energy -178503.378832 kJ/mol
# GULP energy per Si atom -5578.230589 kJ/mol
# Density = 1.953252 g / cm^3
# Si number density = 19.577074 Si / 1000 Ang^3
#
#
#
# Elastic Constant Matrix: (Units=GPa)
#
#
# Indices 1 2 3 4 5 6 
#
# 1 16.7827 10.3411 25.6242 0.0000 0.0000 0.0000
# 2 10.3411 89.2607 72.5124 0.0000 0.0000 0.0000
# 3 25.6242 72.5124 203.7707 0.0000 0.0000 0.0000
# 4 0.0000 0.0000 0.0000 32.2116 0.0000 0.0000
# 5 0.0000 0.0000 0.0000 0.0000 18.0346 0.0000
# 6 0.0000 0.0000 0.0000 0.0000 0.0000 22.8660
#
#
#
# Elastic Compliance Matrix: (Units=1/GPa)
#
#
# Indices 1 2 3 4 5 6 
#
# 1 0.073872 -0.001423 -0.008783 0.000000 0.000000 0.000000
# 2 -0.001423 0.015786 -0.005439 0.000000 0.000000 0.000000
# 3 -0.008783 -0.005439 0.007947 0.000000 0.000000 0.000000
# 4 0.000000 0.000000 0.000000 0.031045 0.000000 0.000000
# 5 0.000000 0.000000 0.000000 0.000000 0.055449 0.000000
# 6 0.000000 0.000000 0.000000 0.000000 0.000000 0.043733
#
#
# Mechanical properties :
#
#
# Convention : Reuss Voigt Hill
#
# Bulk Modulus (GPa) = 15.07930 58.52994 36.80462
# Shear Modulus (GPa) = 17.77918 28.04485 22.91202
#
# Velocity S-wave (km/s) = 3.01684 3.78899 3.42475
# Velocity P-wave (km/s) = 4.45583 7.00743 5.87190
#
# Compressibility (1/GPa) = 0.06631607
#
# Stress axis : x y z
#
# Youngs Moduli (GPa) = 13.53685 63.34664 125.82946
#
# Poissons Ratio (x) = 0.09017 1.10515
# Poissons Ratio (y) = 0.01927 0.68433
# Poissons Ratio (z) = 0.11889 0.34451
#
# Static dielectric constant tensor:
#      x y z
#    x 1.676680 0.000000 0.000000 
#    y 0.000000 1.673930 0.000000 
#    z 0.000000 0.000000 1.709720 
# 
# From -- ./inp_files/11854.got.cif
#   From: 2010.05.17/outbox.cif.g08.bks.cpg/sg35_6_cif.got.tgz:11854.got - 2010.06.03 17:29:28.
