data_PCOD9349848
_publ_section_title
;
Structure prediction by ZEFSAII (Michael W. Deem and Ramdas Pophale) SiO2 
 PCOD9349848
Probable space group: C M M 2
;
_chemical_formula_sum "Si O2"
_cell_formula_units_Z 56
_cell_length_a 30.929610
_cell_length_b 15.677874
_cell_length_c 5.091754
_cell_angle_alpha 90.000000
_cell_angle_beta 90.000000
_cell_angle_gamma 90.000000
_cell_volume 2469.045123
_symmetry_space_group_name_H-M "C M M 2"
_symmetry_group_IT_number 35
_symmetry_cell_setting 'orthorhombic'
loop_
_space_group_symop_operation_xyz
x,y,z
-x,-y,z
-x,y,z
x,-y,z
1/2+x,1/2+y,z
1/2-x,1/2-y,z
1/2-x,1/2+y,z
1/2+x,1/2-y,z
loop_
_atom_site_type_symbol
_atom_site_label
_atom_site_fract_x
_atom_site_fract_y
_atom_site_fract_z
Si Si1 0.548214 0.260992 0.762380
Si Si2 0.758444 0.650059 0.216200
Si Si3 0.951020 0.595892 0.390582
Si Si4 0.839009 0.147113 0.145449
Si Si5 0.389361 0.404645 0.633939
Si Si6 0.686233 0.098275 0.720808
Si Si7 0.618909 0.816976 0.070747
O O1 0.500000 0.280815 0.838002
O O2 0.549120 0.173732 0.594905
O O3 0.570911 0.339865 0.624850
O O4 0.578241 0.242609 0.008709
O O5 0.750000 0.750000 0.164337
O O6 0.709343 0.617560 0.208208
O O7 0.784844 0.634613 0.483962
O O8 0.785003 0.606910 0.982828
O O9 0.949584 0.500000 0.504621
O O10 0.906437 0.608955 0.225637
O O11 0.000000 0.601433 0.259007
O O12 0.868820 0.098227 0.348204
O O13 0.847423 0.249308 0.196355
O O14 0.854075 0.129156 0.847449
O O15 0.401768 0.500000 0.709805
O O16 0.676155 0.000000 0.663275
O O17 0.642882 0.148039 0.810352
#
# Coordination Sequence:
#
# PCOD9349848 Si02
#       7
#     8   8   8   8   8   8   8
#     4  10  23  42  66  97 137 179 225 281 344 410
#     4  12  26  46  70  98 135 185 228 283 344 419
#     4  10  21  39  66  99 135 178 228 281 341 410
#     4  11  24  43  72  98 133 179 229 282 338 408
#     4  11  24  43  70 104 136 179 231 281 341 406
#     4  12  28  44  69 104 139 177 229 284 349 412
#     4  11  23  42  66  98 133 181 224 282 342 413
#
# _framework density 22.680833
#
# number of rings (size 3 to 8) (size 9 to 14) (size 15 to 20)
#    0.000    1.000    2.857    3.000    6.000    4.857 
#    0.000    1.429    0.000    1.714    0.000    0.000 
#    0.000    0.000    0.000    0.000    0.000    0.000 
#
# Total GULP energy -156370.790574 kJ/mol
# GULP energy per Si atom -5584.671092 kJ/mol
# Density = 2.262921 g / cm^3
# Si number density = 22.680833 Si / 1000 Ang^3
#
#
#
# Elastic Constant Matrix: (Units=GPa)
#
#
# Indices 1 2 3 4 5 6 
#
# 1 150.1917 19.4626 29.4169 0.0000 0.0000 0.0000
# 2 19.4626 117.4450 -0.0634 0.0000 0.0000 0.0000
# 3 29.4169 -0.0634 64.5627 0.0000 0.0000 0.0000
# 4 0.0000 0.0000 0.0000 13.3029 0.0000 0.0000
# 5 0.0000 0.0000 0.0000 0.0000 30.3750 0.0000
# 6 0.0000 0.0000 0.0000 0.0000 0.0000 14.5597
#
#
#
# Elastic Compliance Matrix: (Units=1/GPa)
#
#
# Indices 1 2 3 4 5 6 
#
# 1 0.007488 -0.001243 -0.003413 0.000000 0.000000 0.000000
# 2 -0.001243 0.008721 0.000575 0.000000 0.000000 0.000000
# 3 -0.003413 0.000575 0.017044 0.000000 0.000000 0.000000
# 4 0.000000 0.000000 0.000000 0.075171 0.000000 0.000000
# 5 0.000000 0.000000 0.000000 0.000000 0.032922 0.000000
# 6 0.000000 0.000000 0.000000 0.000000 0.000000 0.068683
#
#
# Mechanical properties :
#
#
# Convention : Reuss Voigt Hill
#
# Bulk Modulus (GPa) = 39.85430 47.75909 43.80669
# Shear Modulus (GPa) = 22.06976 30.53973 26.30475
#
# Velocity S-wave (km/s) = 3.12277 3.67345 3.40925
# Velocity P-wave (km/s) = 5.53283 6.25260 5.90370
#
# Compressibility (1/GPa) = 0.02509140
#
# Stress axis : x y z
#
# Youngs Moduli (GPa) = 133.55351 114.66754 58.67034
#
# Poissons Ratio (x) = 0.14249 0.20023
# Poissons Ratio (y) = 0.16596 -0.03372
# Poissons Ratio (z) = 0.45580 -0.06591
#
# Static dielectric constant tensor:
#      x y z
#    x 1.890690 0.000000 0.000000 
#    y 0.000000 1.865690 0.000000 
#    z 0.000000 0.000000 1.846240 
# 
# From -- ./inp_files/2068.got.cif
#   From: 2010.05.17/outbox.cif.g08.bks.cpg/sg35_2_cif.got.tgz:2068.got - 2010.06.03 17:29:28.
