data_PCOD9349448
_publ_section_title
;
Structure prediction by ZEFSAII (Michael W. Deem and Ramdas Pophale) SiO2 
 PCOD9349448
Probable space group: C M M 2
;
_chemical_formula_sum "Si O2"
_cell_formula_units_Z 48
_cell_length_a 7.762214
_cell_length_b 14.859416
_cell_length_c 18.759646
_cell_angle_alpha 90.000000
_cell_angle_beta 90.000000
_cell_angle_gamma 90.000000
_cell_volume 2163.774468
_symmetry_space_group_name_H-M "C M M 2"
_symmetry_group_IT_number 35
_symmetry_cell_setting 'orthorhombic'
loop_
_space_group_symop_operation_xyz
x,y,z
-x,-y,z
-x,y,z
x,-y,z
1/2+x,1/2+y,z
1/2-x,1/2-y,z
1/2-x,1/2+y,z
1/2+x,1/2-y,z
loop_
_atom_site_type_symbol
_atom_site_label
_atom_site_fract_x
_atom_site_fract_y
_atom_site_fract_z
Si Si1 0.707563 0.356562 0.814950
Si Si2 0.207380 0.856614 0.508341
Si Si3 0.207960 0.143109 0.661645
Si Si4 0.803944 0.500000 0.085307
Si Si5 0.707635 0.354576 0.353216
Si Si6 0.297603 0.500000 0.245661
Si Si7 0.294475 0.355109 0.970130
O O1 0.500000 0.367853 0.814892
O O2 0.750000 0.250000 0.815068
O O3 0.771538 0.392211 0.738433
O O4 0.771599 0.388279 0.892301
O O5 0.250000 0.750000 0.508239
O O6 0.271779 0.892076 0.585001
O O7 0.270429 0.888765 0.431099
O O8 0.000000 0.868046 0.509344
O O9 0.250000 0.250000 0.661824
O O10 0.000000 0.132902 0.661944
O O11 0.712159 0.500000 0.160992
O O12 0.000000 0.500000 0.106267
O O13 0.768377 0.585599 0.035406
O O14 0.500000 0.359663 0.356007
O O15 0.750000 0.250000 0.345291
O O16 0.773585 0.413076 0.287221
O O17 0.500000 0.500000 0.261373
O O18 0.500000 0.363526 0.968545
O O19 0.250000 0.250000 0.978022
#
# Coordination Sequence:
#
# PCOD9349448 Si02
#       7
#     8   8   8   4   8   4   8
#     4   8  14  24  42  69 101 137 174 211 253 302
#     4   8  13  22  39  65  97 132 169 207 247 294
#     4   8  12  19  34  61  97 132 168 208 246 289
#     4  12  26  42  60  83 108 138 180 227 280 338
#     4   9  18  33  54  78 105 138 174 212 258 312
#     4  10  22  40  58  77 104 136 170 215 274 332
#     4  10  20  37  60  85 114 147 183 224 272 325
#
# _framework density 22.183458000000002
#
# number of rings (size 3 to 8) (size 9 to 14) (size 15 to 20)
#    0.000    3.000    0.000    1.250    0.000    2.000 
#    0.000    1.667    0.000    1.000    0.000    5.833 
#    0.000    1.333    0.000    0.000    0.000    0.000 
#
# Total GULP energy -133724.141726 kJ/mol
# GULP energy per Si atom -5571.839239 kJ/mol
# Density = 2.213297 g / cm^3
# Si number density = 22.183458 Si / 1000 Ang^3
#
#
#
# Elastic Constant Matrix: (Units=GPa)
#
#
# Indices 1 2 3 4 5 6 
#
# 1 34.6867 -5.6807 -8.5356 0.0000 0.0000 0.0000
# 2 -5.6807 88.1798 64.0323 0.0000 0.0000 0.0000
# 3 -8.5356 64.0323 213.9384 0.0000 0.0000 0.0000
# 4 0.0000 0.0000 0.0000 50.1619 0.0000 0.0000
# 5 0.0000 0.0000 0.0000 0.0000 10.5811 0.0000
# 6 0.0000 0.0000 0.0000 0.0000 0.0000 5.6758
#
#
#
# Elastic Compliance Matrix: (Units=1/GPa)
#
#
# Indices 1 2 3 4 5 6 
#
# 1 0.029236 0.001324 0.000770 0.000000 0.000000 0.000000
# 2 0.001324 0.014550 -0.004302 0.000000 0.000000 0.000000
# 3 0.000770 -0.004302 0.005993 0.000000 0.000000 0.000000
# 4 0.000000 0.000000 0.000000 0.019935 0.000000 0.000000
# 5 0.000000 0.000000 0.000000 0.000000 0.094508 0.000000
# 6 0.000000 0.000000 0.000000 0.000000 0.000000 0.176187
#
#
# Mechanical properties :
#
#
# Convention : Reuss Voigt Hill
#
# Bulk Modulus (GPa) = 22.04448 48.49297 35.26873
# Shear Modulus (GPa) = 13.89103 32.41636 23.15370
#
# Velocity S-wave (km/s) = 2.50509 3.82682 3.23420
# Velocity P-wave (km/s) = 4.28091 6.43689 5.46625
#
# Compressibility (1/GPa) = 0.04536282
#
# Stress axis : x y z
#
# Youngs Moduli (GPa) = 34.20461 68.73026 166.87417
#
# Poissons Ratio (x) = -0.09101 -0.12851
# Poissons Ratio (y) = -0.04529 0.71788
# Poissons Ratio (z) = -0.02634 0.29567
#
# Static dielectric constant tensor:
#      x y z
#    x 1.806040 0.000000 0.000000 
#    y 0.000000 1.862500 0.000000 
#    z 0.000000 0.000000 1.886990 
# 
# From -- ./inp_files/17864.got.cif
#   From: 2010.05.17/outbox.cif.g08.bks.cpg/sg35_9_cif.got.tgz:17864.got - 2010.06.03 17:29:28.
