data_PCOD9349134
_publ_section_title
;
Structure prediction by ZEFSAII (Michael W. Deem and Ramdas Pophale) SiO2 
 PCOD9349134
Probable space group: C M M 2
;
_chemical_formula_sum "Si O2"
_cell_formula_units_Z 48
_cell_length_a 15.458222
_cell_length_b 8.109136
_cell_length_c 19.676874
_cell_angle_alpha 90.000000
_cell_angle_beta 90.000000
_cell_angle_gamma 90.000000
_cell_volume 2466.551734
_symmetry_space_group_name_H-M "C M M 2"
_symmetry_group_IT_number 35
_symmetry_cell_setting 'orthorhombic'
loop_
_space_group_symop_operation_xyz
x,y,z
-x,-y,z
-x,y,z
x,-y,z
1/2+x,1/2+y,z
1/2-x,1/2-y,z
1/2-x,1/2+y,z
1/2+x,1/2-y,z
loop_
_atom_site_type_symbol
_atom_site_label
_atom_site_fract_x
_atom_site_fract_y
_atom_site_fract_z
Si Si1 0.148736 0.198837 0.297700
Si Si2 0.656237 0.198600 0.945186
Si Si3 0.843306 0.303791 0.650296
Si Si4 0.500000 0.301746 0.195235
Si Si5 0.601521 0.200462 0.797374
Si Si6 0.500000 0.800441 0.039401
Si Si7 0.500000 0.304157 0.556120
Si Si8 0.500000 0.701506 0.401913
O O1 0.250000 0.250000 0.297916
O O2 0.087946 0.254590 0.234076
O O3 0.087740 0.250847 0.361639
O O4 0.149913 0.000000 0.297227
O O5 0.750000 0.250000 0.969214
O O6 0.641571 0.261044 0.868042
O O7 0.650373 0.000000 0.942321
O O8 0.582916 0.257251 0.996639
O O9 0.847569 0.500000 0.654710
O O10 0.750000 0.250000 0.625473
O O11 0.857922 0.237120 0.727107
O O12 0.917296 0.247665 0.599576
O O13 0.500000 0.500000 0.200640
O O14 0.500000 0.253826 0.116934
O O15 0.500000 0.239906 0.797081
O O16 0.608394 0.000000 0.797468
O O17 0.500000 0.000000 0.038615
O O18 0.500000 0.500000 0.550765
O O19 0.500000 0.238008 0.479245
O O20 0.500000 0.500000 0.401327
#
# Coordination Sequence:
#
# PCOD9349134 Si02
#       8
#     8   8   8   4   8   4   4   4
#     4   9  18  36  60  84 108 139 176 215 260 310
#     4  10  20  35  55  77 103 138 180 224 272 321
#     4  11  22  37  57  81 110 147 188 233 282 332
#     4   9  20  37  56  78 110 144 172 211 262 312
#     4   9  16  32  57  77 100 138 182 229 278 323
#     4  10  21  36  54  76 107 144 178 214 260 318
#     4  11  22  38  58  82 114 149 184 226 274 331
#     4   8  18  37  58  80 111 145 176 215 266 317
#
# _framework density 19.460366
#
# number of rings (size 3 to 8) (size 9 to 14) (size 15 to 20)
#    0.000    2.333    1.667    2.250    0.000    2.667 
#    0.000    8.750    0.000    0.000    0.000    0.000 
#    0.000    0.000    0.000    0.000    0.000    0.000 
#
# Total GULP energy -133881.320696 kJ/mol
# GULP energy per Si atom -5578.388362 kJ/mol
# Density = 1.941607 g / cm^3
# Si number density = 19.460366 Si / 1000 Ang^3
#
#
#
# Elastic Constant Matrix: (Units=GPa)
#
#
# Indices 1 2 3 4 5 6 
#
# 1 212.1419 14.0871 109.8463 0.0000 0.0000 0.0000
# 2 14.0871 16.7105 18.9317 0.0000 0.0000 0.0000
# 3 109.8463 18.9317 180.7502 0.0000 0.0000 0.0000
# 4 0.0000 0.0000 0.0000 32.4161 0.0000 0.0000
# 5 0.0000 0.0000 0.0000 0.0000 -67.0757 0.0000
# 6 0.0000 0.0000 0.0000 0.0000 0.0000 27.3818
#
#
#
# Elastic Compliance Matrix: (Units=1/GPa)
#
#
# Indices 1 2 3 4 5 6 
#
# 1 0.006900 -0.001210 -0.004066 0.000000 0.000000 0.000000
# 2 -0.001210 0.068112 -0.006399 0.000000 0.000000 0.000000
# 3 -0.004066 -0.006399 0.008674 0.000000 0.000000 0.000000
# 4 0.000000 0.000000 0.000000 0.030849 0.000000 0.000000
# 5 0.000000 0.000000 0.000000 0.000000 -0.014909 0.000000
# 6 0.000000 0.000000 0.000000 0.000000 0.000000 0.036521
#
#
# Mechanical properties :
#
#
# Convention : Reuss Voigt Hill
#
# Bulk Modulus (GPa) = 16.57400 77.25921 46.91660
# Shear Modulus (GPa) = 27.83842 16.32695 22.08268
#
# Velocity S-wave (km/s) = 3.78632 2.89967 3.37226
# Velocity P-wave (km/s) = 5.25835 7.14127 6.27089
#
# Compressibility (1/GPa) = 0.06033548
#
# Stress axis : x y z
#
# Youngs Moduli (GPa) = 144.93303 14.68179 115.28714
#
# Poissons Ratio (x) = 0.01776 0.46881
# Poissons Ratio (y) = 0.17531 0.73771
# Poissons Ratio (z) = 0.58936 0.09395
#
# Static dielectric constant tensor:
#      x y z
#    x 1.657560 0.000000 0.000000 
#    y 0.000000 1.683810 0.000000 
#    z 0.000000 0.000000 1.689370 
# 
# From -- ./inp_files/18829.got.cif
#   From: 2010.05.17/outbox.cif.g08.bks.cpg/sg35_10_cif.got.tgz:18829.got - 2010.06.03 17:29:28.
