data_PCOD9349266
_publ_section_title
;
Structure prediction by ZEFSAII (Michael W. Deem and Ramdas Pophale) SiO2 
 PCOD9349266
Probable space group: C M M 2
;
_chemical_formula_sum "Si O2"
_cell_formula_units_Z 64
_cell_length_a 27.557425
_cell_length_b 17.740278
_cell_length_c 6.936558
_cell_angle_alpha 90.000000
_cell_angle_beta 90.000000
_cell_angle_gamma 90.000000
_cell_volume 3391.119368
_symmetry_space_group_name_H-M "C M M 2"
_symmetry_group_IT_number 35
_symmetry_cell_setting 'orthorhombic'
loop_
_space_group_symop_operation_xyz
x,y,z
-x,-y,z
-x,y,z
x,-y,z
1/2+x,1/2+y,z
1/2-x,1/2-y,z
1/2-x,1/2+y,z
1/2+x,1/2-y,z
loop_
_atom_site_type_symbol
_atom_site_label
_atom_site_fract_x
_atom_site_fract_y
_atom_site_fract_z
Si Si1 0.693204 0.819969 0.960470
Si Si2 0.634818 0.587715 0.653141
Si Si3 0.880525 0.812524 0.993130
Si Si4 0.122196 0.411602 0.677661
Si Si5 0.557618 0.662337 0.380242
Si Si6 0.765116 0.831990 0.612082
Si Si7 0.554246 0.216280 0.701530
Si Si8 0.804630 0.586385 0.342671
O O1 0.654903 0.868941 0.835625
O O2 0.740787 0.827225 0.824815
O O3 0.668726 0.738100 0.003220
O O4 0.700668 0.859472 0.163079
O O5 0.648349 0.500000 0.631565
O O6 0.587719 0.606090 0.521793
O O7 0.678503 0.646354 0.602391
O O8 0.626144 0.609569 0.876663
O O9 0.910113 0.827148 0.188589
O O10 0.913052 0.761863 0.850760
O O11 0.120404 0.500000 0.715813
O O12 0.071667 0.368784 0.681582
O O13 0.147256 0.399503 0.469539
O O14 0.500000 0.642725 0.349664
O O15 0.558017 0.740824 0.498142
O O16 0.750000 0.750000 0.528085
O O17 0.737993 0.896162 0.492737
O O18 0.500000 0.221142 0.772577
O O19 0.804085 0.500000 0.279510
#
# Coordination Sequence:
#
# PCOD9349266 Si02
#       8
#     8   8   8   8   8   8   8   8
#     4  10  20  35  59  86 115 157 201 244 292 359
#     4  11  25  43  61  88 126 157 197 256 313 368
#     4  10  20  37  62  87 114 153 200 251 307 365
#     4   9  18  32  50  79 117 153 192 239 288 348
#     4  10  22  40  64  89 116 155 206 260 314 368
#     4  11  23  40  61  87 122 159 199 243 294 369
#     4   9  18  33  54  82 113 148 193 245 298 356
#     4  10  21  35  57  84 115 154 194 237 289 346
#
# _framework density 18.872824000000001
#
# number of rings (size 3 to 8) (size 9 to 14) (size 15 to 20)
#    0.000    2.000    1.250    1.875    3.500    4.500 
#    0.000    0.000    0.000    0.000    0.000    3.500 
#    0.000    0.000    0.000    0.000    0.000    0.000 
#
# Total GULP energy -178312.880130 kJ/mol
# GULP energy per Si atom -5572.277504 kJ/mol
# Density = 1.882987 g / cm^3
# Si number density = 18.872824 Si / 1000 Ang^3
#
#
#
# Elastic Constant Matrix: (Units=GPa)
#
#
# Indices 1 2 3 4 5 6 
#
# 1 88.7749 23.7540 19.9373 0.0000 0.0000 0.0000
# 2 23.7540 71.3763 20.3174 0.0000 0.0000 0.0000
# 3 19.9373 20.3174 87.2219 0.0000 0.0000 0.0000
# 4 0.0000 0.0000 0.0000 19.5572 0.0000 0.0000
# 5 0.0000 0.0000 0.0000 0.0000 15.5364 0.0000
# 6 0.0000 0.0000 0.0000 0.0000 0.0000 19.2350
#
#
#
# Elastic Compliance Matrix: (Units=1/GPa)
#
#
# Indices 1 2 3 4 5 6 
#
# 1 0.012700 -0.003642 -0.002055 0.000000 0.000000 0.000000
# 2 -0.003642 0.016049 -0.002906 0.000000 0.000000 0.000000
# 3 -0.002055 -0.002906 0.012612 0.000000 0.000000 0.000000
# 4 0.000000 0.000000 0.000000 0.051132 0.000000 0.000000
# 5 0.000000 0.000000 0.000000 0.000000 0.064365 0.000000
# 6 0.000000 0.000000 0.000000 0.000000 0.000000 0.051989
#
#
# Mechanical properties :
#
#
# Convention : Reuss Voigt Hill
#
# Bulk Modulus (GPa) = 41.39729 41.71006 41.55367
# Shear Modulus (GPa) = 21.35800 23.09002 22.22401
#
# Velocity S-wave (km/s) = 3.36770 3.50158 3.43529
# Velocity P-wave (km/s) = 6.09133 6.20457 6.14821
#
# Compressibility (1/GPa) = 0.02415617
#
# Stress axis : x y z
#
# Youngs Moduli (GPa) = 78.73797 62.30742 79.29188
#
# Poissons Ratio (x) = 0.22691 0.16293
# Poissons Ratio (y) = 0.28675 0.23043
# Poissons Ratio (z) = 0.16179 0.18107
#
# Static dielectric constant tensor:
#      x y z
#    x 1.704410 0.000000 0.000000 
#    y 0.000000 1.655800 0.000000 
#    z 0.000000 0.000000 1.645550 
# 
# From -- ./inp_files/4080.got.cif
#   From: 2010.05.17/outbox.cif.g08.bks.cpg/sg35_3_cif.got.tgz:4080.got - 2010.06.03 17:29:28.
