data_PCOD9349038
_publ_section_title
;
Structure prediction by ZEFSAII (Michael W. Deem and Ramdas Pophale) SiO2 
 PCOD9349038
Probable space group: C M M 2
;
_chemical_formula_sum "Si O2"
_cell_formula_units_Z 40
_cell_length_a 18.802565
_cell_length_b 8.818683
_cell_length_c 13.408615
_cell_angle_alpha 90.000000
_cell_angle_beta 90.000000
_cell_angle_gamma 90.000000
_cell_volume 2223.334215
_symmetry_space_group_name_H-M "C M M 2"
_symmetry_group_IT_number 35
_symmetry_cell_setting 'orthorhombic'
loop_
_space_group_symop_operation_xyz
x,y,z
-x,-y,z
-x,y,z
x,-y,z
1/2+x,1/2+y,z
1/2-x,1/2-y,z
1/2-x,1/2+y,z
1/2+x,1/2-y,z
loop_
_atom_site_type_symbol
_atom_site_label
_atom_site_fract_x
_atom_site_fract_y
_atom_site_fract_z
Si Si1 0.670723 0.318423 0.166210
Si Si2 0.584876 0.820886 0.348627
Si Si3 0.085074 0.820857 0.560699
Si Si4 0.829594 0.181598 0.945180
Si Si5 0.829403 0.680727 0.742547
O O1 0.675097 0.500000 0.175055
O O2 0.750000 0.250000 0.172072
O O3 0.624239 0.250410 0.254491
O O4 0.640175 0.284219 0.055126
O O5 0.500000 0.799733 0.337884
O O6 0.606639 0.741835 0.452221
O O7 0.599470 0.000000 0.354576
O O8 0.125132 0.734304 0.648522
O O9 0.000000 0.798625 0.570002
O O10 0.099909 0.000000 0.567115
O O11 0.750000 0.250000 0.948490
O O12 0.862079 0.255002 0.846108
O O13 0.826448 0.000000 0.933267
O O14 0.824575 0.500000 0.747666
O O15 0.750000 0.750000 0.733227
#
# Coordination Sequence:
#
# PCOD9349038 Si02
#       5
#     8   8   8   8   8
#     4  10  20  34  55  81 108 139 176 217 260 309
#     4  10  21  37  56  78 106 139 175 216 263 314
#     4  10  21  38  58  78 104 138 175 216 264 316
#     4   9  17  31  51  76 106 139 174 213 260 310
#     4  11  21  34  55  81 109 139 175 217 260 310
#
# _framework density 17.990998000000001
#
# number of rings (size 3 to 8) (size 9 to 14) (size 15 to 20)
#    0.000    2.000    0.000    5.400    0.000    5.600 
#    0.000    5.000    0.000    1.200    0.000    0.000 
#    0.000    0.000    0.000    0.000    0.000    0.000 
#
# Total GULP energy -111611.166274 kJ/mol
# GULP energy per Si atom -5580.558314 kJ/mol
# Density = 1.795005 g / cm^3
# Si number density = 17.990998 Si / 1000 Ang^3
#
#
#
# Elastic Constant Matrix: (Units=GPa)
#
#
# Indices 1 2 3 4 5 6 
#
# 1 21.1726 42.7466 50.1636 0.0000 0.0000 0.0000
# 2 42.7466 130.4917 96.4514 0.0000 0.0000 0.0000
# 3 50.1636 96.4514 202.1582 0.0000 0.0000 0.0000
# 4 0.0000 0.0000 0.0000 36.4356 0.0000 0.0000
# 5 0.0000 0.0000 0.0000 0.0000 43.8401 0.0000
# 6 0.0000 0.0000 0.0000 0.0000 0.0000 24.9846
#
#
#
# Elastic Compliance Matrix: (Units=1/GPa)
#
#
# Indices 1 2 3 4 5 6 
#
# 1 0.220501 -0.049108 -0.031286 0.000000 0.000000 0.000000
# 2 -0.049108 0.022775 0.001320 0.000000 0.000000 0.000000
# 3 -0.031286 0.001320 0.012080 0.000000 0.000000 0.000000
# 4 0.000000 0.000000 0.000000 0.027446 0.000000 0.000000
# 5 0.000000 0.000000 0.000000 0.000000 0.022810 0.000000
# 6 0.000000 0.000000 0.000000 0.000000 0.000000 0.040025
#
#
# Mechanical properties :
#
#
# Convention : Reuss Voigt Hill
#
# Bulk Modulus (GPa) = 10.28710 81.39395 45.84053
# Shear Modulus (GPa) = 9.32510 32.01613 20.67061
#
# Velocity S-wave (km/s) = 2.27913 4.22306 3.39328
# Velocity P-wave (km/s) = 3.55757 8.31377 6.39433
#
# Compressibility (1/GPa) = 0.09720908
#
# Stress axis : x y z
#
# Youngs Moduli (GPa) = 4.53512 43.90843 82.77964
#
# Poissons Ratio (x) = 2.15624 2.58981
# Poissons Ratio (y) = 0.22271 -0.10923
# Poissons Ratio (z) = 0.14188 -0.05794
#
# Static dielectric constant tensor:
#      x y z
#    x 1.589020 0.000000 0.000000 
#    y 0.000000 1.597510 0.000000 
#    z 0.000000 0.000000 1.635460 
# 
# From -- ./inp_files/11011.got.cif
#   From: 2010.05.17/outbox.cif.g08.bks.cpg/sg35_6_cif.got.tgz:11011.got - 2010.06.03 17:29:28.
