data_PCOD9349146
_publ_section_title
;
Structure prediction by ZEFSAII (Michael W. Deem and Ramdas Pophale) SiO2 
 PCOD9349146
Probable space group: C M M 2
;
_chemical_formula_sum "Si O2"
_cell_formula_units_Z 64
_cell_length_a 26.117722
_cell_length_b 8.068908
_cell_length_c 13.014894
_cell_angle_alpha 90.000000
_cell_angle_beta 90.000000
_cell_angle_gamma 90.000000
_cell_volume 2742.778232
_symmetry_space_group_name_H-M "C M M 2"
_symmetry_group_IT_number 35
_symmetry_cell_setting 'orthorhombic'
loop_
_space_group_symop_operation_xyz
x,y,z
-x,-y,z
-x,y,z
x,-y,z
1/2+x,1/2+y,z
1/2-x,1/2-y,z
1/2-x,1/2+y,z
1/2+x,1/2-y,z
loop_
_atom_site_type_symbol
_atom_site_label
_atom_site_fract_x
_atom_site_fract_y
_atom_site_fract_z
Si Si1 0.194724 0.192322 0.957820
Si Si2 0.084954 0.200023 0.018783
Si Si3 0.555737 0.305947 0.457656
Si Si4 0.667408 0.195007 0.734486
Si Si5 0.916587 0.303552 0.236893
Si Si6 0.667542 0.803957 0.513339
Si Si7 0.695920 0.801107 0.291282
Si Si8 0.944050 0.799812 0.788866
O O1 0.250000 0.250000 0.992945
O O2 0.189855 0.218628 0.834978
O O3 0.191606 0.000000 0.979830
O O4 0.143168 0.268567 0.005237
O O5 0.062449 0.267021 0.124313
O O6 0.085131 0.000000 0.026077
O O7 0.058411 0.239378 0.910744
O O8 0.500000 0.243010 0.491643
O O9 0.559230 0.500000 0.484414
O O10 0.558563 0.285502 0.334077
O O11 0.606386 0.218994 0.500046
O O12 0.684281 0.264162 0.623745
O O13 0.605876 0.218700 0.739991
O O14 0.679289 0.000000 0.741986
O O15 0.919166 0.500000 0.257427
O O16 0.856680 0.248267 0.237628
O O17 0.691837 0.734487 0.408838
O O18 0.678006 0.000000 0.515585
O O19 0.750000 0.750000 0.245311
O O20 0.694722 0.000000 0.294527
O O21 0.000000 0.752268 0.748649
O O22 0.938727 0.000000 0.778852
#
# Coordination Sequence:
#
# PCOD9349146 Si02
#       8
#     8   8   8   8   8   8   8   8
#     4  10  21  37  56  79 108 142 179 220 266 314
#     4   9  19  35  54  77 105 138 176 216 260 310
#     4  10  21  36  55  79 105 136 176 218 260 311
#     4  10  20  35  55  79 108 140 176 219 265 315
#     4  10  21  36  54  77 106 138 172 213 261 312
#     4   9  20  37  54  76 107 139 172 214 263 311
#     4   9  19  35  52  73 101 132 167 206 251 302
#     4   9  19  36  55  76 106 141 175 216 265 314
#
# _framework density 23.334004
#
# number of rings (size 3 to 8) (size 9 to 14) (size 15 to 20)
#    0.000    2.500    0.000    3.000    0.000    9.250 
#    0.000    7.500    0.000    0.000    0.000    0.000 
#    0.000    0.000    0.000    0.000    0.000    0.000 
#
# Total GULP energy -178765.190196 kJ/mol
# GULP energy per Si atom -5586.412194 kJ/mol
# Density = 2.328089 g / cm^3
# Si number density = 23.334004 Si / 1000 Ang^3
#
#
#
# Elastic Constant Matrix: (Units=GPa)
#
#
# Indices 1 2 3 4 5 6 
#
# 1 106.1291 -3.9829 -7.1793 0.0000 0.0000 0.0000
# 2 -3.9829 14.4613 -10.7897 0.0000 0.0000 0.0000
# 3 -7.1793 -10.7897 103.9983 0.0000 0.0000 0.0000
# 4 0.0000 0.0000 0.0000 15.8882 0.0000 0.0000
# 5 0.0000 0.0000 0.0000 0.0000 -15.7707 0.0000
# 6 0.0000 0.0000 0.0000 0.0000 0.0000 16.0826
#
#
#
# Elastic Compliance Matrix: (Units=1/GPa)
#
#
# Indices 1 2 3 4 5 6 
#
# 1 0.009619 0.003409 0.001018 0.000000 0.000000 0.000000
# 2 0.003409 0.076160 0.008137 0.000000 0.000000 0.000000
# 3 0.001018 0.008137 0.010530 0.000000 0.000000 0.000000
# 4 0.000000 0.000000 0.000000 0.062940 0.000000 0.000000
# 5 0.000000 0.000000 0.000000 0.000000 -0.063409 0.000000
# 6 0.000000 0.000000 0.000000 0.000000 0.000000 0.062179
#
#
# Mechanical properties :
#
#
# Convention : Reuss Voigt Hill
#
# Bulk Modulus (GPa) = 8.23483 20.07609 14.15546
# Shear Modulus (GPa) = 28.83988 19.67607 24.25798
#
# Velocity S-wave (km/s) = 3.51944 2.90700 3.22778
# Velocity P-wave (km/s) = 4.47795 4.45982 4.46889
#
# Compressibility (1/GPa) = 0.12143536
#
# Stress axis : x y z
#
# Youngs Moduli (GPa) = 103.95817 13.13029 94.96686
#
# Poissons Ratio (x) = -0.04476 -0.09665
# Poissons Ratio (y) = -0.35436 -0.77273
# Poissons Ratio (z) = -0.10580 -0.10684
#
# Static dielectric constant tensor:
#      x y z
#    x 1.904100 0.000000 0.000000 
#    y 0.000000 1.815370 0.000000 
#    z 0.000000 0.000000 1.897480 
# 
# From -- ./inp_files/17750.got.cif
#   From: 2010.05.17/outbox.cif.g08.bks.cpg/sg35_9_cif.got.tgz:17750.got - 2010.06.03 17:29:28.
