data_PCOD9349175
_publ_section_title
;
Structure prediction by ZEFSAII (Michael W. Deem and Ramdas Pophale) SiO2 
 PCOD9349175
Probable space group: C M M 2
;
_chemical_formula_sum "Si O2"
_cell_formula_units_Z 40
_cell_length_a 16.548508
_cell_length_b 9.220615
_cell_length_c 13.313259
_cell_angle_alpha 90.000000
_cell_angle_beta 90.000000
_cell_angle_gamma 90.000000
_cell_volume 2031.435857
_symmetry_space_group_name_H-M "C M M 2"
_symmetry_group_IT_number 35
_symmetry_cell_setting 'orthorhombic'
loop_
_space_group_symop_operation_xyz
x,y,z
-x,-y,z
-x,y,z
x,-y,z
1/2+x,1/2+y,z
1/2-x,1/2-y,z
1/2-x,1/2+y,z
1/2+x,1/2-y,z
loop_
_atom_site_type_symbol
_atom_site_label
_atom_site_fract_x
_atom_site_fract_y
_atom_site_fract_z
Si Si1 0.599030 0.333607 0.366460
Si Si2 0.097451 0.667772 0.943094
Si Si3 0.903399 0.663806 0.562898
Si Si4 0.335867 0.672799 0.751467
Si Si5 0.598430 0.167852 0.168865
O O1 0.500000 0.330929 0.366446
O O2 0.623832 0.500000 0.378268
O O3 0.626999 0.236932 0.460241
O O4 0.626068 0.267659 0.260128
O O5 0.122652 0.500000 0.923595
O O6 0.127774 0.772811 0.856779
O O7 0.000000 0.668604 0.942311
O O8 0.124422 0.708573 0.056004
O O9 0.871510 0.500000 0.577159
O O10 0.885918 0.764077 0.658079
O O11 0.000000 0.653386 0.553129
O O12 0.330901 0.500000 0.747746
O O13 0.250000 0.750000 0.742351
O O14 0.500000 0.172529 0.168471
O O15 0.620713 0.000000 0.186657
#
# Coordination Sequence:
#
# PCOD9349175 Si02
#       5
#     8   8   8   8   8
#     4   9  16  26  44  74 109 139 170 211 256 302
#     4   9  18  34  56  81 109 140 175 215 259 309
#     4  10  20  35  56  80 107 139 175 215 260 311
#     4  12  25  39  55  75 103 138 177 220 266 316
#     4   8  14  26  46  73 105 139 171 205 251 306
#
# _framework density 19.690505999999999
#
# number of rings (size 3 to 8) (size 9 to 14) (size 15 to 20)
#    0.000    2.400    0.000    4.800    0.000    7.200 
#    0.000    2.000    0.000    1.200    0.000    2.800 
#    0.000    0.000    0.000    0.000    0.000    0.000 
#
# Total GULP energy -111616.596365 kJ/mol
# GULP energy per Si atom -5580.829818 kJ/mol
# Density = 1.964569 g / cm^3
# Si number density = 19.690506 Si / 1000 Ang^3
#
#
#
# Elastic Constant Matrix: (Units=GPa)
#
#
# Indices 1 2 3 4 5 6 
#
# 1 5.3523 15.2575 9.0175 0.0000 0.0000 0.0000
# 2 15.2575 175.2661 106.5389 0.0000 0.0000 0.0000
# 3 9.0175 106.5389 152.4196 0.0000 0.0000 0.0000
# 4 0.0000 0.0000 0.0000 -9.3244 0.0000 0.0000
# 5 0.0000 0.0000 0.0000 0.0000 -23.4873 0.0000
# 6 0.0000 0.0000 0.0000 0.0000 0.0000 16.7857
#
#
#
# Elastic Compliance Matrix: (Units=1/GPa)
#
#
# Indices 1 2 3 4 5 6 
#
# 1 0.248553 -0.022081 0.000729 0.000000 0.000000 0.000000
# 2 -0.022081 0.011882 -0.006999 0.000000 0.000000 0.000000
# 3 0.000729 -0.006999 0.011410 0.000000 0.000000 0.000000
# 4 0.000000 0.000000 0.000000 -0.107245 0.000000 0.000000
# 5 0.000000 0.000000 0.000000 0.000000 -0.042576 0.000000
# 6 0.000000 0.000000 0.000000 0.000000 0.000000 0.059575
#
#
# Mechanical properties :
#
#
# Convention : Reuss Voigt Hill
#
# Bulk Modulus (GPa) = 4.64805 66.07397 35.36101
# Shear Modulus (GPa) = 16.12821 10.27639 13.20230
#
# Velocity S-wave (km/s) = 2.86507 2.28698 2.59219
# Velocity P-wave (km/s) = 3.64836 6.37203 5.19198
#
# Compressibility (1/GPa) = 0.21514420
#
# Stress axis : x y z
#
# Youngs Moduli (GPa) = 4.02328 84.15759 87.64141
#
# Poissons Ratio (x) = 1.85824 -0.06389
# Poissons Ratio (y) = 0.08884 0.61343
# Poissons Ratio (z) = -0.00293 0.58905
#
# Static dielectric constant tensor:
#      x y z
#    x 1.727020 0.000000 0.000000 
#    y 0.000000 1.669520 0.000000 
#    z 0.000000 0.000000 1.698450 
# 
# From -- ./inp_files/11018.got.cif
#   From: 2010.05.17/outbox.cif.g08.bks.cpg/sg35_6_cif.got.tgz:11018.got - 2010.06.03 17:29:28.
