data_PCOD9349614
_publ_section_title
;
Structure prediction by ZEFSAII (Michael W. Deem and Ramdas Pophale) SiO2 
 PCOD9349614
Probable space group: C M M 2
;
_chemical_formula_sum "Si O2"
_cell_formula_units_Z 64
_cell_length_a 7.921437
_cell_length_b 19.156146
_cell_length_c 21.144649
_cell_angle_alpha 90.000000
_cell_angle_beta 90.000000
_cell_angle_gamma 90.000000
_cell_volume 3208.577925
_symmetry_space_group_name_H-M "C M M 2"
_symmetry_group_IT_number 35
_symmetry_cell_setting 'orthorhombic'
loop_
_space_group_symop_operation_xyz
x,y,z
-x,-y,z
-x,y,z
x,-y,z
1/2+x,1/2+y,z
1/2-x,1/2-y,z
1/2-x,1/2+y,z
1/2+x,1/2-y,z
loop_
_atom_site_type_symbol
_atom_site_label
_atom_site_fract_x
_atom_site_fract_y
_atom_site_fract_z
Si Si1 0.298635 0.169298 0.001350
Si Si2 0.202972 0.079068 0.879669
Si Si3 0.703390 0.670238 0.620045
Si Si4 0.293986 0.080404 0.119557
Si Si5 0.296220 0.329823 0.762816
Si Si6 0.299957 0.669440 0.381858
Si Si7 0.292845 0.419625 0.501278
Si Si8 0.296832 0.079166 0.262251
O O1 0.500000 0.165573 0.003258
O O2 0.250000 0.250000 0.997029
O O3 0.232728 0.132422 0.065366
O O4 0.241452 0.125543 0.940666
O O5 0.267026 0.117852 0.816584
O O6 0.000000 0.075374 0.874225
O O7 0.267792 0.000000 0.886072
O O8 0.500000 0.666002 0.621554
O O9 0.750000 0.750000 0.604283
O O10 0.765472 0.655448 0.691395
O O11 0.763066 0.617878 0.565868
O O12 0.500000 0.082090 0.119569
O O13 0.238603 0.097489 0.191121
O O14 0.245783 0.000000 0.105882
O O15 0.500000 0.334119 0.761696
O O16 0.250000 0.250000 0.778506
O O17 0.500000 0.666646 0.386879
O O18 0.250000 0.750000 0.384521
O O19 0.231897 0.624753 0.441044
O O20 0.252062 0.632948 0.316178
O O21 0.500000 0.419118 0.501192
O O22 0.239960 0.500000 0.497499
O O23 0.500000 0.076880 0.260187
O O24 0.237286 0.000000 0.276925
#
# Coordination Sequence:
#
# PCOD9349614 Si02
#       8
#     8   8   8   8   8   8   8   8
#     4  11  22  36  55  78 105 137 174 213 255 305
#     4  10  21  36  53  76 106 136 170 215 262 307
#     4   9  17  31  52  75 100 132 169 207 249 300
#     4   8  16  33  56  79 103 133 169 209 253 303
#     4   9  18  32  51  75 102 134 169 207 252 301
#     4  11  22  35  52  75 105 138 174 216 259 305
#     4   9  18  32  51  75 101 130 167 212 258 304
#     4   9  18  35  58  81 106 136 169 207 254 307
#
# _framework density 19.946531
#
# number of rings (size 3 to 8) (size 9 to 14) (size 15 to 20)
#    0.000    2.500    0.000    3.000    0.000    4.000 
#    0.000    5.625    0.000    3.375    0.000    3.500 
#    0.000    0.000    0.000    0.000    0.000    0.000 
#
# Total GULP energy -178631.991891 kJ/mol
# GULP energy per Si atom -5582.249747 kJ/mol
# Density = 1.990113 g / cm^3
# Si number density = 19.946531 Si / 1000 Ang^3
#
#
#
# Elastic Constant Matrix: (Units=GPa)
#
#
# Indices 1 2 3 4 5 6 
#
# 1 19.3968 7.6889 10.2242 0.0000 0.0000 0.0000
# 2 7.6889 198.4391 150.7699 0.0000 0.0000 0.0000
# 3 10.2242 150.7699 177.7570 0.0000 0.0000 0.0000
# 4 0.0000 0.0000 0.0000 45.3992 0.0000 0.0000
# 5 0.0000 0.0000 0.0000 0.0000 13.9458 0.0000
# 6 0.0000 0.0000 0.0000 0.0000 0.0000 7.6894
#
#
#
# Elastic Compliance Matrix: (Units=1/GPa)
#
#
# Indices 1 2 3 4 5 6 
#
# 1 0.053205 0.000741 -0.003689 0.000000 0.000000 0.000000
# 2 0.000741 0.014183 -0.012072 0.000000 0.000000 0.000000
# 3 -0.003689 -0.012072 0.016077 0.000000 0.000000 0.000000
# 4 0.000000 0.000000 0.000000 0.022027 0.000000 0.000000
# 5 0.000000 0.000000 0.000000 0.000000 0.071706 0.000000
# 6 0.000000 0.000000 0.000000 0.000000 0.000000 0.130050
#
#
# Mechanical properties :
#
#
# Convention : Reuss Voigt Hill
#
# Bulk Modulus (GPa) = 18.71760 81.43987 50.07873
# Shear Modulus (GPa) = 14.08066 28.53419 21.30743
#
# Velocity S-wave (km/s) = 2.65980 3.78634 3.27192
# Velocity P-wave (km/s) = 4.34016 7.74809 6.27972
#
# Compressibility (1/GPa) = 0.05342566
#
# Stress axis : x y z
#
# Youngs Moduli (GPa) = 18.79506 70.50771 62.19959
#
# Poissons Ratio (x) = -0.05227 0.22945
# Poissons Ratio (y) = -0.01393 0.75089
# Poissons Ratio (z) = 0.06934 0.85119
#
# Static dielectric constant tensor:
#      x y z
#    x 1.731700 0.000000 0.000000 
#    y 0.000000 1.672430 0.000000 
#    z 0.000000 0.000000 1.709100 
# 
# From -- ./inp_files/18338.got.cif
#   From: 2010.05.17/outbox.cif.g08.bks.cpg/sg35_10_cif.got.tgz:18338.got - 2010.06.03 17:29:28.
