data_PCOD9349318
_publ_section_title
;
Structure prediction by ZEFSAII (Michael W. Deem and Ramdas Pophale) SiO2 
 PCOD9349318
Probable space group: C M M 2
;
_chemical_formula_sum "Si O2"
_cell_formula_units_Z 48
_cell_length_a 8.796528
_cell_length_b 18.794325
_cell_length_c 15.798015
_cell_angle_alpha 90.000000
_cell_angle_beta 90.000000
_cell_angle_gamma 90.000000
_cell_volume 2611.803767
_symmetry_space_group_name_H-M "C M M 2"
_symmetry_group_IT_number 35
_symmetry_cell_setting 'orthorhombic'
loop_
_space_group_symop_operation_xyz
x,y,z
-x,-y,z
-x,y,z
x,-y,z
1/2+x,1/2+y,z
1/2-x,1/2-y,z
1/2-x,1/2+y,z
1/2+x,1/2-y,z
loop_
_atom_site_type_symbol
_atom_site_label
_atom_site_fract_x
_atom_site_fract_y
_atom_site_fract_z
Si Si1 0.321892 0.585242 0.448100
Si Si2 0.317597 0.171147 0.101387
Si Si3 0.317474 0.328836 0.778913
Si Si4 0.819067 0.671379 0.600712
Si Si5 0.817311 0.416850 0.267769
Si Si6 0.816839 0.917272 0.946019
O O1 0.500000 0.602714 0.455463
O O2 0.304388 0.500000 0.455017
O O3 0.230827 0.623109 0.522548
O O4 0.260580 0.605565 0.355335
O O5 0.500000 0.174763 0.098629
O O6 0.250000 0.250000 0.098204
O O7 0.272627 0.131238 0.188239
O O8 0.258607 0.125436 0.022437
O O9 0.500000 0.323845 0.772102
O O10 0.250000 0.250000 0.793869
O O11 0.249855 0.355096 0.689827
O O12 0.278515 0.379668 0.857129
O O13 0.750000 0.750000 0.588015
O O14 0.000000 0.675887 0.607202
O O15 0.778897 0.500000 0.251504
O O16 0.000000 0.412772 0.277834
O O17 0.000000 0.913608 0.955269
O O18 0.771976 0.000000 0.946729
#
# Coordination Sequence:
#
# PCOD9349318 Si02
#       6
#     8   8   8   8   8   8
#     4  10  21  37  58  84 114 149 187 228 277 332
#     4  11  23  38  58  84 114 149 187 230 278 329
#     4  10  20  36  57  81 111 147 187 231 279 330
#     4  11  22  37  58  83 113 149 188 231 279 330
#     4   9  19  37  58  80 109 146 188 233 280 329
#     4  10  22  39  59  84 114 148 185 228 278 331
#
# _framework density 18.378101999999998
#
# number of rings (size 3 to 8) (size 9 to 14) (size 15 to 20)
#    0.000    1.833    0.000    5.000    0.000    7.333 
#    0.000    5.000    0.000    0.000    0.000    0.000 
#    0.000    0.000    0.000    0.000    0.000    0.000 
#
# Total GULP energy -134106.545992 kJ/mol
# GULP energy per Si atom -5587.772750 kJ/mol
# Density = 1.833627 g / cm^3
# Si number density = 18.378102 Si / 1000 Ang^3
#
#
#
# Elastic Constant Matrix: (Units=GPa)
#
#
# Indices 1 2 3 4 5 6 
#
# 1 81.4475 51.2296 77.9970 0.0000 0.0000 0.0000
# 2 51.2296 100.3606 97.7915 0.0000 0.0000 0.0000
# 3 77.9970 97.7915 187.0992 0.0000 0.0000 0.0000
# 4 0.0000 0.0000 0.0000 40.5160 0.0000 0.0000
# 5 0.0000 0.0000 0.0000 0.0000 24.3805 0.0000
# 6 0.0000 0.0000 0.0000 0.0000 0.0000 20.3104
#
#
#
# Elastic Compliance Matrix: (Units=1/GPa)
#
#
# Indices 1 2 3 4 5 6 
#
# 1 0.021409 -0.004548 -0.006548 0.000000 0.000000 0.000000
# 2 -0.004548 0.021272 -0.009222 0.000000 0.000000 0.000000
# 3 -0.006548 -0.009222 0.012894 0.000000 0.000000 0.000000
# 4 0.000000 0.000000 0.000000 0.024682 0.000000 0.000000
# 5 0.000000 0.000000 0.000000 0.000000 0.041016 0.000000
# 6 0.000000 0.000000 0.000000 0.000000 0.000000 0.049236
#
#
# Mechanical properties :
#
#
# Convention : Reuss Voigt Hill
#
# Bulk Modulus (GPa) = 66.93829 91.43819 79.18824
# Shear Modulus (GPa) = 23.13481 26.50066 24.81773
#
# Velocity S-wave (km/s) = 3.55184 3.80145 3.67876
# Velocity P-wave (km/s) = 7.30224 8.31444 7.82472
#
# Compressibility (1/GPa) = 0.01493913
#
# Stress axis : x y z
#
# Youngs Moduli (GPa) = 46.70967 47.01057 77.55308
#
# Poissons Ratio (x) = 0.21382 0.50778
# Poissons Ratio (y) = 0.21245 0.71520
# Poissons Ratio (z) = 0.30583 0.43354
#
# Static dielectric constant tensor:
#      x y z
#    x 1.616270 0.000000 0.000000 
#    y 0.000000 1.607700 0.000000 
#    z 0.000000 0.000000 1.609720 
# 
# From -- ./inp_files/15140.got.cif
#   From: 2010.05.17/outbox.cif.g08.bks.cpg/sg35_8_cif.got.tgz:15140.got - 2010.06.03 17:29:28.
