data_PCOD9349330
_publ_section_title
;
Structure prediction by ZEFSAII (Michael W. Deem and Ramdas Pophale) SiO2 
 PCOD9349330
Probable space group: C M M 2
;
_chemical_formula_sum "Si O2"
_cell_formula_units_Z 56
_cell_length_a 22.253382
_cell_length_b 8.031279
_cell_length_c 14.141935
_cell_angle_alpha 90.000000
_cell_angle_beta 90.000000
_cell_angle_gamma 90.000000
_cell_volume 2527.490739
_symmetry_space_group_name_H-M "C M M 2"
_symmetry_group_IT_number 35
_symmetry_cell_setting 'orthorhombic'
loop_
_space_group_symop_operation_xyz
x,y,z
-x,-y,z
-x,y,z
x,-y,z
1/2+x,1/2+y,z
1/2-x,1/2-y,z
1/2-x,1/2+y,z
1/2+x,1/2-y,z
loop_
_atom_site_type_symbol
_atom_site_label
_atom_site_fract_x
_atom_site_fract_y
_atom_site_fract_z
Si Si1 0.684836 0.309110 0.721090
Si Si2 0.367081 0.804151 0.903882
Si Si3 0.565043 0.299429 0.628919
Si Si4 0.814611 0.698451 0.303912
Si Si5 0.500000 0.201754 0.924742
Si Si6 0.065949 0.298252 0.409367
Si Si7 0.500000 0.692099 0.139966
Si Si8 0.870675 0.801429 0.119317
O O1 0.682375 0.500000 0.694457
O O2 0.750000 0.250000 0.690661
O O3 0.676995 0.289497 0.833745
O O4 0.625127 0.227668 0.676568
O O5 0.436237 0.755377 0.879077
O O6 0.359836 0.000000 0.887713
O O7 0.359166 0.769187 0.015096
O O8 0.500000 0.233996 0.663590
O O9 0.563912 0.500000 0.641992
O O10 0.567961 0.260874 0.517589
O O11 0.817324 0.500000 0.303962
O O12 0.750000 0.750000 0.344030
O O13 0.873799 0.763719 0.358186
O O14 0.821121 0.760974 0.196484
O O15 0.500000 0.000000 0.941316
O O16 0.500000 0.295228 0.025241
O O17 0.066820 0.500000 0.407755
O O18 0.000000 0.245746 0.369631
O O19 0.500000 0.500000 0.171238
O O20 0.565400 0.768144 0.160728
O O21 0.877121 0.000000 0.109527
#
# Coordination Sequence:
#
# PCOD9349330 Si02
#       8
#     8   8   8   8   4   8   4   8
#     4  11  24  40  59  86 121 159 200 245 295 351
#     4  10  20  36  57  84 118 157 201 245 295 349
#     4   9  20  40  65  92 119 151 192 240 295 353
#     4  11  24  40  59  86 121 159 200 245 295 351
#     4   8  16  30  50  78 109 142 185 236 287 340
#     4   9  20  40  65  92 119 151 192 240 295 353
#     4   8  16  30  50  78 109 142 185 236 287 340
#     4  10  20  36  57  84 118 157 201 245 295 349
#
# _framework density 22.156362000000001
#
# number of rings (size 3 to 8) (size 9 to 14) (size 15 to 20)
#    0.000    2.286    0.000    1.714    2.000    4.571 
#    0.000    5.714    0.000    0.000    0.000    0.000 
#    0.000    0.000    0.000    0.000    0.000    0.000 
#
# Total GULP energy -156281.982369 kJ/mol
# GULP energy per Si atom -5581.499370 kJ/mol
# Density = 2.210593 g / cm^3
# Si number density = 22.156362 Si / 1000 Ang^3
#
#
#
# Elastic Constant Matrix: (Units=GPa)
#
#
# Indices 1 2 3 4 5 6 
#
# 1 187.0945 16.9456 55.7775 0.0000 0.0000 0.0000
# 2 16.9456 29.0423 -12.5691 0.0000 0.0000 0.0000
# 3 55.7775 -12.5691 54.6531 0.0000 0.0000 0.0000
# 4 0.0000 0.0000 0.0000 21.6375 0.0000 0.0000
# 5 0.0000 0.0000 0.0000 0.0000 20.4431 0.0000
# 6 0.0000 0.0000 0.0000 0.0000 0.0000 24.8446
#
#
#
# Elastic Compliance Matrix: (Units=1/GPa)
#
#
# Indices 1 2 3 4 5 6 
#
# 1 0.010387 -0.011826 -0.013320 0.000000 0.000000 0.000000
# 2 -0.011826 0.051702 0.023959 0.000000 0.000000 0.000000
# 3 -0.013320 0.023959 0.037402 0.000000 0.000000 0.000000
# 4 0.000000 0.000000 0.000000 0.046216 0.000000 0.000000
# 5 0.000000 0.000000 0.000000 0.000000 0.048916 0.000000
# 6 0.000000 0.000000 0.000000 0.000000 0.000000 0.040250
#
#
# Mechanical properties :
#
#
# Convention : Reuss Voigt Hill
#
# Bulk Modulus (GPa) = 10.29687 43.45533 26.87610
# Shear Modulus (GPa) = 18.54467 27.42742 22.98605
#
# Velocity S-wave (km/s) = 2.89622 3.52220 3.22444
# Velocity P-wave (km/s) = 3.98015 6.01638 5.10090
#
# Compressibility (1/GPa) = 0.09711694
#
# Stress axis : x y z
#
# Youngs Moduli (GPa) = 96.27312 19.34173 26.73665
#
# Poissons Ratio (x) = 0.22873 0.35614
# Poissons Ratio (y) = 1.13848 -0.64059
# Poissons Ratio (z) = 1.28240 -0.46341
#
# Static dielectric constant tensor:
#      x y z
#    x 1.902400 0.000000 0.000000 
#    y 0.000000 1.784830 0.000000 
#    z 0.000000 0.000000 1.790140 
# 
# From -- ./inp_files/17495.got.cif
#   From: 2010.05.17/outbox.cif.g08.bks.cpg/sg35_9_cif.got.tgz:17495.got - 2010.06.03 17:29:28.
