data_PCOD9349636
_publ_section_title
;
Structure prediction by ZEFSAII (Michael W. Deem and Ramdas Pophale) SiO2 
 PCOD9349636
Probable space group: C M M 2
;
_chemical_formula_sum "Si O2"
_cell_formula_units_Z 48
_cell_length_a 8.907531
_cell_length_b 15.707933
_cell_length_c 17.528575
_cell_angle_alpha 90.000000
_cell_angle_beta 90.000000
_cell_angle_gamma 90.000000
_cell_volume 2452.578935
_symmetry_space_group_name_H-M "C M M 2"
_symmetry_group_IT_number 35
_symmetry_cell_setting 'orthorhombic'
loop_
_space_group_symop_operation_xyz
x,y,z
-x,-y,z
-x,y,z
x,-y,z
1/2+x,1/2+y,z
1/2-x,1/2-y,z
1/2-x,1/2+y,z
1/2+x,1/2-y,z
loop_
_atom_site_type_symbol
_atom_site_label
_atom_site_fract_x
_atom_site_fract_y
_atom_site_fract_z
Si Si1 0.180753 0.898175 0.880300
Si Si2 0.821941 0.657327 0.561968
Si Si3 0.820915 0.661691 0.035117
Si Si4 0.180777 0.345129 0.390854
Si Si5 0.676739 0.500000 0.117453
Si Si6 0.667964 0.600787 0.713347
Si Si7 0.823318 0.000000 0.299855
O O1 0.226904 0.867792 0.795300
O O2 0.000000 0.886036 0.886687
O O3 0.208504 0.000000 0.888045
O O4 0.266816 0.852548 0.948117
O O5 0.750000 0.750000 0.564386
O O6 0.783198 0.623364 0.477547
O O7 0.762627 0.612612 0.637534
O O8 0.000000 0.662207 0.565575
O O9 0.750000 0.750000 0.063044
O O10 0.754747 0.582987 0.082428
O O11 0.000000 0.663877 0.039387
O O12 0.250000 0.250000 0.381176
O O13 0.246993 0.415260 0.334109
O O14 0.000000 0.339550 0.383627
O O15 0.500000 0.500000 0.096423
O O16 0.690144 0.500000 0.208565
O O17 0.500000 0.636478 0.700793
O O18 0.653616 0.500000 0.725217
O O19 0.000000 0.000000 0.319598
#
# Coordination Sequence:
#
# PCOD9349636 Si02
#       7
#     8   8   8   8   4   8   4
#     4   9  18  36  60  84 120 163 204 256 310 359
#     4  10  21  36  55  80 114 157 200 250 303 352
#     4  12  25  41  66  97 126 165 209 250 306 368
#     4  10  22  41  64  92 128 165 207 257 308 364
#     4  11  25  47  69  94 129 160 197 253 308 369
#     4   9  19  34  54  83 116 158 203 247 300 353
#     4  11  25  43  69  98 123 162 203 243 310 377
#
# _framework density 19.571237
#
# number of rings (size 3 to 8) (size 9 to 14) (size 15 to 20)
#    0.000    1.833    0.833    4.000    1.167    5.667 
#    0.000    1.667    0.000    0.000    0.000    0.000 
#    0.000    0.000    0.000    0.000    0.000    0.000 
#
# Total GULP energy -133998.036563 kJ/mol
# GULP energy per Si atom -5583.251523 kJ/mol
# Density = 1.952669 g / cm^3
# Si number density = 19.571237 Si / 1000 Ang^3
#
#
#
# Elastic Constant Matrix: (Units=GPa)
#
#
# Indices 1 2 3 4 5 6 
#
# 1 107.6947 58.0065 65.6891 0.0000 0.0000 0.0000
# 2 58.0065 108.6787 57.4869 0.0000 0.0000 0.0000
# 3 65.6891 57.4869 107.7554 0.0000 0.0000 0.0000
# 4 0.0000 0.0000 0.0000 -51.0058 0.0000 0.0000
# 5 0.0000 0.0000 0.0000 0.0000 54.0327 0.0000
# 6 0.0000 0.0000 0.0000 0.0000 0.0000 30.3993
#
#
#
# Elastic Compliance Matrix: (Units=1/GPa)
#
#
# Indices 1 2 3 4 5 6 
#
# 1 0.016423 -0.004834 -0.007433 0.000000 0.000000 0.000000
# 2 -0.004834 0.014242 -0.004651 0.000000 0.000000 0.000000
# 3 -0.007433 -0.004651 0.016293 0.000000 0.000000 0.000000
# 4 0.000000 0.000000 0.000000 -0.019606 0.000000 0.000000
# 5 0.000000 0.000000 0.000000 0.000000 0.018507 0.000000
# 6 0.000000 0.000000 0.000000 0.000000 0.000000 0.032895
#
#
# Mechanical properties :
#
#
# Convention : Reuss Voigt Hill
#
# Bulk Modulus (GPa) = 76.20881 76.27708 76.24295
# Shear Modulus (GPa) = 42.74836 16.21500 29.48168
#
# Velocity S-wave (km/s) = 4.67866 2.88151 3.88542
# Velocity P-wave (km/s) = 8.25895 7.08022 7.69219
#
# Compressibility (1/GPa) = 0.01312184
#
# Stress axis : x y z
#
# Youngs Moduli (GPa) = 60.89107 70.21608 61.37750
#
# Poissons Ratio (x) = 0.33942 0.45620
# Poissons Ratio (y) = 0.29434 0.28547
# Poissons Ratio (z) = 0.45258 0.32658
#
# Static dielectric constant tensor:
#      x y z
#    x 1.649920 0.000000 0.000000 
#    y 0.000000 1.682500 0.000000 
#    z 0.000000 0.000000 1.717050 
# 
# From -- ./inp_files/17928.got.cif
#   From: 2010.05.17/outbox.cif.g08.bks.cpg/sg35_9_cif.got.tgz:17928.got - 2010.06.03 17:29:28.
