data_PCOD9349144
_publ_section_title
;
Structure prediction by ZEFSAII (Michael W. Deem and Ramdas Pophale) SiO2 
 PCOD9349144
Probable space group: C M M 2
;
_chemical_formula_sum "Si O2"
_cell_formula_units_Z 56
_cell_length_a 8.718019
_cell_length_b 19.466431
_cell_length_c 18.438043
_cell_angle_alpha 90.000000
_cell_angle_beta 90.000000
_cell_angle_gamma 90.000000
_cell_volume 3129.096591
_symmetry_space_group_name_H-M "C M M 2"
_symmetry_group_IT_number 35
_symmetry_cell_setting 'orthorhombic'
loop_
_space_group_symop_operation_xyz
x,y,z
-x,-y,z
-x,y,z
x,-y,z
1/2+x,1/2+y,z
1/2-x,1/2-y,z
1/2-x,1/2+y,z
1/2+x,1/2-y,z
loop_
_atom_site_type_symbol
_atom_site_label
_atom_site_fract_x
_atom_site_fract_y
_atom_site_fract_z
Si Si1 0.315576 0.673156 0.554780
Si Si2 0.815021 0.673862 0.130698
Si Si3 0.317784 0.419163 0.840130
Si Si4 0.683753 0.080059 0.682479
Si Si5 0.684132 0.826613 0.967311
Si Si6 0.184865 0.079495 0.419184
Si Si7 0.185044 0.420449 0.263419
O O1 0.500000 0.676106 0.555910
O O2 0.250000 0.750000 0.554219
O O3 0.257484 0.630311 0.623887
O O4 0.266572 0.630086 0.483458
O O5 0.750000 0.750000 0.140646
O O6 0.762506 0.624917 0.195614
O O7 0.000000 0.676862 0.133065
O O8 0.773027 0.650242 0.049239
O O9 0.500000 0.408530 0.834208
O O10 0.289292 0.500000 0.853339
O O11 0.240000 0.401888 0.763287
O O12 0.250905 0.375122 0.905581
O O13 0.500000 0.084477 0.678929
O O14 0.728267 0.000000 0.668794
O O15 0.500000 0.824776 0.962337
O O16 0.750000 0.750000 0.958302
O O17 0.248542 0.101413 0.341011
O O18 0.000000 0.079717 0.416564
O O19 0.233942 0.000000 0.432532
O O20 0.228907 0.500000 0.252520
O O21 0.000000 0.417115 0.266961
#
# Coordination Sequence:
#
# PCOD9349144 Si02
#       7
#     8   8   8   8   8   8   8
#     4  11  23  38  56  80 111 143 178 221 267 315
#     4   9  19  34  52  75 104 139 176 216 263 314
#     4  10  21  37  57  82 111 141 176 219 266 316
#     4  10  21  38  60  84 109 139 177 218 263 318
#     4  10  20  35  55  78 107 143 182 223 268 319
#     4   9  19  36  56  77 103 138 177 216 263 317
#     4   9  18  33  53  77 104 135 174 218 262 310
#
# _framework density 17.896538
#
# number of rings (size 3 to 8) (size 9 to 14) (size 15 to 20)
#    0.000    2.286    0.000    2.143    0.000    6.286 
#    0.000    8.571    0.000    1.714    0.000    0.000 
#    0.000    0.000    0.000    0.000    0.000    0.000 
#
# Total GULP energy -156290.345501 kJ/mol
# GULP energy per Si atom -5581.798054 kJ/mol
# Density = 1.785580 g / cm^3
# Si number density = 17.896538 Si / 1000 Ang^3
#
#
#
# Elastic Constant Matrix: (Units=GPa)
#
#
# Indices 1 2 3 4 5 6 
#
# 1 37.3060 41.2718 52.5784 0.0000 0.0000 0.0000
# 2 41.2718 102.9067 119.1255 0.0000 0.0000 0.0000
# 3 52.5784 119.1255 195.5306 0.0000 0.0000 0.0000
# 4 0.0000 0.0000 0.0000 193.2734 0.0000 0.0000
# 5 0.0000 0.0000 0.0000 0.0000 31.5555 0.0000
# 6 0.0000 0.0000 0.0000 0.0000 0.0000 26.5856
#
#
#
# Elastic Compliance Matrix: (Units=1/GPa)
#
#
# Indices 1 2 3 4 5 6 
#
# 1 0.049132 -0.014966 -0.004094 0.000000 0.000000 0.000000
# 2 -0.014966 0.037529 -0.018840 0.000000 0.000000 0.000000
# 3 -0.004094 -0.018840 0.017693 0.000000 0.000000 0.000000
# 4 0.000000 0.000000 0.000000 0.005174 0.000000 0.000000
# 5 0.000000 0.000000 0.000000 0.000000 0.031690 0.000000
# 6 0.000000 0.000000 0.000000 0.000000 0.000000 0.037614
#
#
# Mechanical properties :
#
#
# Convention : Reuss Voigt Hill
#
# Bulk Modulus (GPa) = 35.02025 84.63275 59.82650
# Shear Modulus (GPa) = 18.92867 58.46741 38.69804
#
# Velocity S-wave (km/s) = 3.25572 5.72194 4.65512
# Velocity P-wave (km/s) = 5.80892 9.54184 7.89906
#
# Compressibility (1/GPa) = 0.02855491
#
# Stress axis : x y z
#
# Youngs Moduli (GPa) = 20.35344 26.64615 56.51901
#
# Poissons Ratio (x) = 0.39878 0.23138
# Poissons Ratio (y) = 0.30460 1.06481
# Poissons Ratio (z) = 0.08332 0.50201
#
# Static dielectric constant tensor:
#      x y z
#    x 1.604370 0.000000 0.000000 
#    y 0.000000 1.588260 0.000000 
#    z 0.000000 0.000000 1.595770 
# 
# From -- ./inp_files/15601.got.cif
#   From: 2010.05.17/outbox.cif.g08.bks.cpg/sg35_8_cif.got.tgz:15601.got - 2010.06.03 17:29:28.
