data_PCOD9349903
_publ_section_title
;
Structure prediction by ZEFSAII (Michael W. Deem and Ramdas Pophale) SiO2 
 PCOD9349903
Probable space group: C M M 2
;
_chemical_formula_sum "Si O2"
_cell_formula_units_Z 36
_cell_length_a 10.385460
_cell_length_b 13.901145
_cell_length_c 12.534368
_cell_angle_alpha 90.000000
_cell_angle_beta 90.000000
_cell_angle_gamma 90.000000
_cell_volume 1809.584018
_symmetry_space_group_name_H-M "C M M 2"
_symmetry_group_IT_number 35
_symmetry_cell_setting 'orthorhombic'
loop_
_space_group_symop_operation_xyz
x,y,z
-x,-y,z
-x,y,z
x,-y,z
1/2+x,1/2+y,z
1/2-x,1/2-y,z
1/2-x,1/2+y,z
1/2+x,1/2-y,z
loop_
_atom_site_type_symbol
_atom_site_label
_atom_site_fract_x
_atom_site_fract_y
_atom_site_fract_z
Si Si1 0.346405 0.891412 0.145180
Si Si2 0.851493 0.616664 0.681289
Si Si3 0.851111 0.616732 0.915246
Si Si4 0.145789 0.113565 0.500178
Si Si5 0.250000 0.250000 0.322940
O O1 0.500000 0.897460 0.130382
O O2 0.321718 0.822275 0.243412
O O3 0.298557 0.000000 0.166701
O O4 0.292688 0.856713 0.029954
O O5 0.858271 0.500000 0.682086
O O6 0.799710 0.644664 0.798920
O O7 0.752759 0.640575 0.587822
O O8 0.000000 0.650104 0.665060
O O9 0.851710 0.500000 0.918284
O O10 0.000000 0.648941 0.912195
O O11 0.164364 0.183010 0.399456
O O12 0.000000 0.122687 0.541783
O O13 0.164831 0.000000 0.472373
#
# Coordination Sequence:
#
# PCOD9349903 Si02
#       5
#     8   8   8   8   4
#     4   9  18  33  54  79 104 132 171 219 265 310
#     4   8  14  28  54  83 106 133 173 218 264 319
#     4   7  11  24  49  79 105 127 160 213 269 312
#     4  10  22  38  54  76 110 147 179 219 271 316
#     4  12  22  34  52  74 104 144 188 220 252 308
#
# _framework density 19.894075999999998
#
# number of rings (size 3 to 8) (size 9 to 14) (size 15 to 20)
#    0.000    3.111    0.000    4.000    0.000    1.778 
#    0.000    3.333    0.000    5.333    0.000    9.333 
#    0.000    0.000    0.000    0.000    0.000    1.111 
#
# Total GULP energy -100213.160975 kJ/mol
# GULP energy per Si atom -5567.397832 kJ/mol
# Density = 1.984880 g / cm^3
# Si number density = 19.894076 Si / 1000 Ang^3
#
#
#
# Elastic Constant Matrix: (Units=GPa)
#
#
# Indices 1 2 3 4 5 6 
#
# 1 61.5306 27.4972 53.5804 0.0000 0.0000 0.0000
# 2 27.4972 103.6165 53.6157 0.0000 0.0000 0.0000
# 3 53.5804 53.6157 175.4869 0.0000 0.0000 0.0000
# 4 0.0000 0.0000 0.0000 -66.2263 0.0000 0.0000
# 5 0.0000 0.0000 0.0000 0.0000 20.3606 0.0000
# 6 0.0000 0.0000 0.0000 0.0000 0.0000 -16.2002
#
#
#
# Elastic Compliance Matrix: (Units=1/GPa)
#
#
# Indices 1 2 3 4 5 6 
#
# 1 0.022856 -0.002915 -0.006088 0.000000 0.000000 0.000000
# 2 -0.002915 0.011835 -0.002726 0.000000 0.000000 0.000000
# 3 -0.006088 -0.002726 0.008390 0.000000 0.000000 0.000000
# 4 0.000000 0.000000 0.000000 -0.015100 0.000000 0.000000
# 5 0.000000 0.000000 0.000000 0.000000 0.049114 0.000000
# 6 0.000000 0.000000 0.000000 0.000000 0.000000 -0.061728
#
#
# Mechanical properties :
#
#
# Convention : Reuss Voigt Hill
#
# Bulk Modulus (GPa) = 50.95981 67.78006 59.36994
# Shear Modulus (GPa) = 110.21203 1.31621 55.76412
#
# Velocity S-wave (km/s) = 7.45115 0.81428 5.30013
# Velocity P-wave (km/s) = 9.98486 5.91849 8.20749
#
# Compressibility (1/GPa) = 0.01962331
#
# Stress axis : x y z
#
# Youngs Moduli (GPa) = 43.75188 84.49464 119.18960
#
# Poissons Ratio (x) = 0.24633 0.72561
# Poissons Ratio (y) = 0.12755 0.32489
# Poissons Ratio (z) = 0.26635 0.23031
#
# Static dielectric constant tensor:
#      x y z
#    x 1.698660 0.000000 0.000000 
#    y 0.000000 1.761590 0.000000 
#    z 0.000000 0.000000 1.739260 
# 
# From -- ./inp_files/12150.got.cif
#   From: 2010.05.17/outbox.cif.g08.bks.cpg/sg35_7_cif.got.tgz:12150.got - 2010.06.03 17:29:28.
