data_PCOD9349077
_publ_section_title
;
Structure prediction by ZEFSAII (Michael W. Deem and Ramdas Pophale) SiO2 
 PCOD9349077
Probable space group: C M M 2
;
_chemical_formula_sum "Si O2"
_cell_formula_units_Z 44
_cell_length_a 13.983311
_cell_length_b 18.272191
_cell_length_c 9.441606
_cell_angle_alpha 90.000000
_cell_angle_beta 90.000000
_cell_angle_gamma 90.000000
_cell_volume 2412.384428
_symmetry_space_group_name_H-M "C M M 2"
_symmetry_group_IT_number 35
_symmetry_cell_setting 'orthorhombic'
loop_
_space_group_symop_operation_xyz
x,y,z
-x,-y,z
-x,y,z
x,-y,z
1/2+x,1/2+y,z
1/2-x,1/2-y,z
1/2-x,1/2+y,z
1/2+x,1/2-y,z
loop_
_atom_site_type_symbol
_atom_site_label
_atom_site_fract_x
_atom_site_fract_y
_atom_site_fract_z
Si Si1 0.389213 0.328470 0.070020
Si Si2 0.268615 0.581403 0.876774
Si Si3 0.888313 0.243548 0.512344
Si Si4 0.750000 0.250000 0.287073
Si Si5 0.609933 0.202498 0.830710
Si Si6 0.887383 0.081218 0.586482
O O1 0.500000 0.335335 0.116273
O O2 0.316142 0.300394 0.188851
O O3 0.345300 0.400198 0.998263
O O4 0.386067 0.268348 0.943304
O O5 0.229536 0.500000 0.894180
O O6 0.185162 0.641224 0.874874
O O7 0.324287 0.584982 0.727569
O O8 0.825386 0.285274 0.397037
O O9 0.867334 0.267750 0.673254
O O10 0.869448 0.155933 0.501051
O O11 0.000000 0.255683 0.486943
O O12 0.500000 0.175759 0.828306
O O13 0.000000 0.085091 0.626092
O O14 0.871864 0.000000 0.520840
#
# Coordination Sequence:
#
# PCOD9349077 Si02
#       6
#     8   8   8   4   8   8
#     4  11  22  38  58  83 112 148 191 238 286 333
#     4  11  20  33  56  87 116 146 187 234 290 341
#     4  10  20  34  56  85 113 149 192 236 280 334
#     4  12  22  34  56  78 118 148 194 234 276 344
#     4  10  20  37  60  83 112 146 193 242 279 328
#     4   9  17  30  52  84 117 145 179 231 289 339
#
# _framework density 18.239215999999999
#
# number of rings (size 3 to 8) (size 9 to 14) (size 15 to 20)
#    0.000    1.636    3.636    2.182    0.000    1.455 
#    0.000    0.909    0.000    3.273    0.000    0.000 
#    0.000    0.000    0.000    0.000    0.000    0.000 
#
# Total GULP energy -122695.365077 kJ/mol
# GULP energy per Si atom -5577.062049 kJ/mol
# Density = 1.819770 g / cm^3
# Si number density = 18.239216 Si / 1000 Ang^3
#
#
#
# Elastic Constant Matrix: (Units=GPa)
#
#
# Indices 1 2 3 4 5 6 
#
# 1 102.0638 33.8165 32.9947 0.0000 0.0000 0.0000
# 2 33.8165 59.9215 0.4271 0.0000 0.0000 0.0000
# 3 32.9947 0.4271 73.4001 0.0000 0.0000 0.0000
# 4 0.0000 0.0000 0.0000 12.5411 0.0000 0.0000
# 5 0.0000 0.0000 0.0000 0.0000 35.7720 0.0000
# 6 0.0000 0.0000 0.0000 0.0000 0.0000 11.0828
#
#
#
# Elastic Compliance Matrix: (Units=1/GPa)
#
#
# Indices 1 2 3 4 5 6 
#
# 1 0.014628 -0.008209 -0.006528 0.000000 0.000000 0.000000
# 2 -0.008209 0.021296 0.003566 0.000000 0.000000 0.000000
# 3 -0.006528 0.003566 0.016538 0.000000 0.000000 0.000000
# 4 0.000000 0.000000 0.000000 0.079738 0.000000 0.000000
# 5 0.000000 0.000000 0.000000 0.000000 0.027955 0.000000
# 6 0.000000 0.000000 0.000000 0.000000 0.000000 0.090230
#
#
# Mechanical properties :
#
#
# Convention : Reuss Voigt Hill
#
# Bulk Modulus (GPa) = 33.20019 41.09577 37.14798
# Shear Modulus (GPa) = 17.68258 23.08899 20.38578
#
# Velocity S-wave (km/s) = 3.11703 3.56181 3.34681
# Velocity P-wave (km/s) = 5.58539 6.28456 5.94527
#
# Compressibility (1/GPa) = 0.03012031
#
# Stress axis : x y z
#
# Youngs Moduli (GPa) = 68.36310 46.95808 60.46856
#
# Poissons Ratio (x) = 0.38546 0.39472
# Poissons Ratio (y) = 0.56117 -0.21563
# Poissons Ratio (z) = 0.44625 -0.16745
#
# Static dielectric constant tensor:
#      x y z
#    x 1.661830 0.000000 0.000000 
#    y 0.000000 1.628390 0.000000 
#    z 0.000000 0.000000 1.645470 
# 
# From -- ./inp_files/7209.got.cif
#   From: 2010.05.17/outbox.cif.g08.bks.cpg/sg35_4_cif.got.tgz:7209.got - 2010.06.03 17:29:28.
