data_PCOD9349513
_publ_section_title
;
Structure prediction by ZEFSAII (Michael W. Deem and Ramdas Pophale) SiO2 
 PCOD9349513
Probable space group: C M M 2
;
_chemical_formula_sum "Si O2"
_cell_formula_units_Z 48
_cell_length_a 7.637314
_cell_length_b 34.391054
_cell_length_c 8.255782
_cell_angle_alpha 90.000000
_cell_angle_beta 90.000000
_cell_angle_gamma 90.000000
_cell_volume 2168.424718
_symmetry_space_group_name_H-M "C M M 2"
_symmetry_group_IT_number 35
_symmetry_cell_setting 'orthorhombic'
loop_
_space_group_symop_operation_xyz
x,y,z
-x,-y,z
-x,y,z
x,-y,z
1/2+x,1/2+y,z
1/2-x,1/2-y,z
1/2-x,1/2+y,z
1/2+x,1/2-y,z
loop_
_atom_site_type_symbol
_atom_site_label
_atom_site_fract_x
_atom_site_fract_y
_atom_site_fract_z
Si Si1 0.295714 0.582913 0.202930
Si Si2 0.714264 0.659138 0.374902
Si Si3 0.210306 0.204580 0.055174
Si Si4 0.786680 0.500000 0.723646
Si Si5 0.798720 0.834194 0.728382
Si Si6 0.209766 0.500000 0.347734
Si Si7 0.200256 0.583287 0.839238
O O1 0.500000 0.590659 0.170878
O O2 0.236541 0.614561 0.334701
O O3 0.273571 0.539247 0.263989
O O4 0.202903 0.588663 0.032002
O O5 0.500000 0.660551 0.382426
O O6 0.779479 0.672782 0.550462
O O7 0.773157 0.684141 0.220227
O O8 0.250000 0.250000 0.057153
O O9 0.280586 0.185403 0.888984
O O10 0.000000 0.198726 0.054891
O O11 0.738811 0.500000 0.535502
O O12 0.725956 0.459585 0.801990
O O13 0.000000 0.500000 0.739240
O O14 0.795915 0.880536 0.758128
O O15 0.000000 0.820650 0.721654
O O16 0.000000 0.500000 0.338760
O O17 0.000000 0.584473 0.780036
#
# Coordination Sequence:
#
# PCOD9349513 Si02
#       7
#     8   8   8   4   8   4   8
#     4  11  21  37  58  83 114 153 200 242 287 345
#     4   9  19  37  61  86 114 152 196 241 288 343
#     4  10  21  39  60  86 118 151 189 236 292 351
#     4   9  21  37  52  76 116 155 190 240 293 341
#     4  10  20  38  62  85 116 155 193 240 293 344
#     4  11  22  37  54  80 116 153 194 244 297 339
#     4  11  21  36  58  84 116 155 198 242 291 343
#
# _framework density 22.135885999999999
#
# number of rings (size 3 to 8) (size 9 to 14) (size 15 to 20)
#    0.000    1.833    1.667    2.750    0.000    2.000 
#    0.000    5.417    0.000    0.000    0.000    0.000 
#    0.000    0.000    0.000    0.000    0.000    0.000 
#
# Total GULP energy -134113.255180 kJ/mol
# GULP energy per Si atom -5588.052299 kJ/mol
# Density = 2.208550 g / cm^3
# Si number density = 22.135886 Si / 1000 Ang^3
#
#
#
# Elastic Constant Matrix: (Units=GPa)
#
#
# Indices 1 2 3 4 5 6 
#
# 1 47.6976 -8.5117 1.1196 0.0000 0.0000 0.0000
# 2 -8.5117 123.8298 69.8872 0.0000 0.0000 0.0000
# 3 1.1196 69.8872 190.1661 0.0000 0.0000 0.0000
# 4 0.0000 0.0000 0.0000 -13.8111 0.0000 0.0000
# 5 0.0000 0.0000 0.0000 0.0000 8.5676 0.0000
# 6 0.0000 0.0000 0.0000 0.0000 0.0000 17.5524
#
#
#
# Elastic Compliance Matrix: (Units=1/GPa)
#
#
# Indices 1 2 3 4 5 6 
#
# 1 0.021331 0.001939 -0.000838 0.000000 0.000000 0.000000
# 2 0.001939 0.010365 -0.003821 0.000000 0.000000 0.000000
# 3 -0.000838 -0.003821 0.006668 0.000000 0.000000 0.000000
# 4 0.000000 0.000000 0.000000 -0.072405 0.000000 0.000000
# 5 0.000000 0.000000 0.000000 0.000000 0.116718 0.000000
# 6 0.000000 0.000000 0.000000 0.000000 0.000000 0.056972
#
#
# Mechanical properties :
#
#
# Convention : Reuss Voigt Hill
#
# Bulk Modulus (GPa) = 30.37229 54.07596 42.22412
# Shear Modulus (GPa) = 32.03829 22.40835 27.22332
#
# Velocity S-wave (km/s) = 3.80853 3.18513 3.51069
# Velocity P-wave (km/s) = 5.75243 6.16513 5.96235
#
# Compressibility (1/GPa) = 0.03292475
#
# Stress axis : x y z
#
# Youngs Moduli (GPa) = 46.87972 96.47628 149.97827
#
# Poissons Ratio (x) = -0.18710 0.12573
# Poissons Ratio (y) = -0.09092 0.57302
# Poissons Ratio (z) = 0.03930 0.36861
#
# Static dielectric constant tensor:
#      x y z
#    x 1.822210 0.000000 0.000000 
#    y 0.000000 1.785890 0.000000 
#    z 0.000000 0.000000 1.805990 
# 
# From -- ./inp_files/5405.got.cif
#   From: 2010.05.17/outbox.cif.g08.bks.cpg/sg35_3_cif.got.tgz:5405.got - 2010.06.03 17:29:28.
