data_PCOD9349760
_publ_section_title
;
Structure prediction by ZEFSAII (Michael W. Deem and Ramdas Pophale) SiO2 
 PCOD9349760
Probable space group: C M M 2
;
_chemical_formula_sum "Si O2"
_cell_formula_units_Z 56
_cell_length_a 22.371961
_cell_length_b 15.738442
_cell_length_c 7.539241
_cell_angle_alpha 90.000000
_cell_angle_beta 90.000000
_cell_angle_gamma 90.000000
_cell_volume 2654.565328
_symmetry_space_group_name_H-M "C M M 2"
_symmetry_group_IT_number 35
_symmetry_cell_setting 'orthorhombic'
loop_
_space_group_symop_operation_xyz
x,y,z
-x,-y,z
-x,y,z
x,-y,z
1/2+x,1/2+y,z
1/2-x,1/2-y,z
1/2-x,1/2+y,z
1/2+x,1/2-y,z
loop_
_atom_site_type_symbol
_atom_site_label
_atom_site_fract_x
_atom_site_fract_y
_atom_site_fract_z
Si Si1 0.885780 0.594155 0.330720
Si Si2 0.068175 0.408776 0.954058
Si Si3 0.933269 0.234986 0.473049
Si Si4 0.325521 0.599961 0.880455
Si Si5 0.242730 0.648924 0.188719
Si Si6 0.340266 0.403616 0.464306
Si Si7 0.931724 0.778811 0.888909
O O1 0.882257 0.500000 0.412681
O O2 0.931571 0.590284 0.167024
O O3 0.905746 0.671178 0.454378
O O4 0.823506 0.618103 0.235308
O O5 0.095458 0.500000 0.898040
O O6 0.000000 0.406941 0.885302
O O7 0.093763 0.316665 0.910202
O O8 0.888567 0.164784 0.397836
O O9 0.937502 0.210075 0.678492
O O10 0.000000 0.234121 0.396648
O O11 0.336403 0.500000 0.904675
O O12 0.320672 0.615837 0.668178
O O13 0.382342 0.654017 0.950202
O O14 0.267484 0.625025 0.994324
O O15 0.250000 0.750000 0.210553
O O16 0.285010 0.604083 0.332674
O O17 0.364032 0.500000 0.463779
O O18 0.000000 0.784742 0.962303
#
# Coordination Sequence:
#
# PCOD9349760 Si02
#       7
#     8   8   8   8   8   8   8
#     4  11  22  37  57  85 119 159 204 250 306 367
#     4   9  18  34  55  80 114 153 194 246 302 355
#     4  10  21  38  60  88 120 158 203 251 311 374
#     4  10  22  40  62  90 125 162 202 252 309 368
#     4  12  23  41  65  88 123 166 205 259 308 364
#     4  10  22  42  64  90 126 162 202 256 310 367
#     4   9  19  36  59  87 118 156 203 252 310 375
#
# _framework density 21.095734
#
# number of rings (size 3 to 8) (size 9 to 14) (size 15 to 20)
#    0.000    1.857    1.429    2.571    0.000    2.571 
#    2.571    4.286    0.000    1.714    0.000    0.000 
#    0.000    0.000    0.000    0.000    0.000    0.000 
#
# Total GULP energy -156189.054372 kJ/mol
# GULP energy per Si atom -5578.180513 kJ/mol
# Density = 2.104772 g / cm^3
# Si number density = 21.095734 Si / 1000 Ang^3
#
#
#
# Elastic Constant Matrix: (Units=GPa)
#
#
# Indices 1 2 3 4 5 6 
#
# 1 102.1781 27.5429 14.4347 0.0000 0.0000 0.0000
# 2 27.5429 97.7834 6.5702 0.0000 0.0000 0.0000
# 3 14.4347 6.5702 49.0342 0.0000 0.0000 0.0000
# 4 0.0000 0.0000 0.0000 25.1406 0.0000 0.0000
# 5 0.0000 0.0000 0.0000 0.0000 22.9281 0.0000
# 6 0.0000 0.0000 0.0000 0.0000 0.0000 -10.1956
#
#
#
# Elastic Compliance Matrix: (Units=1/GPa)
#
#
# Indices 1 2 3 4 5 6 
#
# 1 0.010970 -0.002899 -0.002841 0.000000 0.000000 0.000000
# 2 -0.002899 0.011086 -0.000632 0.000000 0.000000 0.000000
# 3 -0.002841 -0.000632 0.021315 0.000000 0.000000 0.000000
# 4 0.000000 0.000000 0.000000 0.039776 0.000000 0.000000
# 5 0.000000 0.000000 0.000000 0.000000 0.043615 0.000000
# 6 0.000000 0.000000 0.000000 0.000000 0.000000 -0.098081
#
#
# Mechanical properties :
#
#
# Convention : Reuss Voigt Hill
#
# Bulk Modulus (GPa) = 32.65129 38.45460 35.55294
# Shear Modulus (GPa) = 96.83847 20.93780 58.88814
#
# Velocity S-wave (km/s) = 6.78262 3.15384 5.28917
# Velocity P-wave (km/s) = 8.76641 5.61520 7.36140
#
# Compressibility (1/GPa) = 0.03062666
#
# Stress axis : x y z
#
# Youngs Moduli (GPa) = 91.16116 90.20621 46.91561
#
# Poissons Ratio (x) = 0.26150 0.13328
# Poissons Ratio (y) = 0.26427 0.02965
# Poissons Ratio (z) = 0.25897 0.05701
#
# Static dielectric constant tensor:
#      x y z
#    x 1.795640 0.000000 0.000000 
#    y 0.000000 1.774460 0.000000 
#    z 0.000000 0.000000 1.775250 
# 
# From -- ./inp_files/7624.got.cif
#   From: 2010.05.17/outbox.cif.g08.bks.cpg/sg35_4_cif.got.tgz:7624.got - 2010.06.03 17:29:28.
