data_PCOD9349693
_publ_section_title
;
Structure prediction by ZEFSAII (Michael W. Deem and Ramdas Pophale) SiO2 
 PCOD9349693
Probable space group: C M M 2
;
_chemical_formula_sum "Si O2"
_cell_formula_units_Z 58
_cell_length_a 7.861793
_cell_length_b 19.115846
_cell_length_c 18.208883
_cell_angle_alpha 90.000000
_cell_angle_beta 90.000000
_cell_angle_gamma 90.000000
_cell_volume 2736.518782
_symmetry_space_group_name_H-M "C M M 2"
_symmetry_group_IT_number 35
_symmetry_cell_setting 'orthorhombic'
loop_
_space_group_symop_operation_xyz
x,y,z
-x,-y,z
-x,y,z
x,-y,z
1/2+x,1/2+y,z
1/2-x,1/2-y,z
1/2-x,1/2+y,z
1/2+x,1/2-y,z
loop_
_atom_site_type_symbol
_atom_site_label
_atom_site_fract_x
_atom_site_fract_y
_atom_site_fract_z
Si Si1 0.799414 0.675508 0.506790
Si Si2 0.203689 0.611739 0.653489
Si Si3 0.701119 0.331607 0.241605
Si Si4 0.296873 0.919899 0.098804
Si Si5 0.294341 0.168035 0.958573
Si Si6 0.704430 0.078406 0.382574
Si Si7 0.500000 0.500000 0.623487
Si Si8 0.704872 0.081130 0.817765
O O1 0.750000 0.750000 0.475220
O O2 0.768095 0.671810 0.593615
O O3 0.726433 0.612558 0.457853
O O4 0.000000 0.669486 0.498980
O O5 0.500000 0.909207 0.647415
O O6 0.347395 0.558446 0.628094
O O7 0.236105 0.619399 0.740289
O O8 0.500000 0.335119 0.239054
O O9 0.750000 0.250000 0.237796
O O10 0.767800 0.376813 0.173079
O O11 0.759885 0.369154 0.316079
O O12 0.500000 0.925452 0.088934
O O13 0.230404 0.000000 0.101423
O O14 0.231364 0.874021 0.030276
O O15 0.500000 0.164745 0.958382
O O16 0.250000 0.250000 0.959246
O O17 0.232042 0.126329 0.886382
O O18 0.500000 0.072466 0.387614
O O19 0.771896 0.000000 0.370127
O O20 0.500000 0.076156 0.825237
O O21 0.767950 0.000000 0.814805
#
# Coordination Sequence:
#
# PCOD9349693 Si02
#       8
#     8   8   8   8   8   8   2   8
#     4  10  23  41  62  88 123 163 204 252 310 369
#     4  10  22  40  62  91 128 165 208 264 318 371
#     4  12  25  41  62  89 123 160 199 245 303 364
#     4  10  21  39  64  90 119 156 203 250 298 365
#     4  10  21  37  57  86 118 157 201 244 303 366
#     4  10  22  41  65  92 122 159 202 249 304 363
#     4  12  22  36  64  98 120 160 214 268 308 390
#     4   9  17  35  61  82 112 155 198 247 303 360
#
# _framework density 21.194813
#
# number of rings (size 3 to 8) (size 9 to 14) (size 15 to 20)
#    0.000    1.793    0.690    3.103    1.931    7.724 
#    1.241    0.000    0.000    0.828    0.000    0.000 
#    0.000    0.000    0.000    0.000    0.000    0.000 
#
# Total GULP energy -161475.031968 kJ/mol
# GULP energy per Si atom -5568.104551 kJ/mol
# Density = 2.114657 g / cm^3
# Si number density = 21.194813 Si / 1000 Ang^3
#
#
#
# Elastic Constant Matrix: (Units=GPa)
#
#
# Indices 1 2 3 4 5 6 
#
# 1 38.7539 10.1954 3.5724 0.0000 0.0000 0.0000
# 2 10.1954 169.5061 97.1913 0.0000 0.0000 0.0000
# 3 3.5724 97.1913 167.9676 0.0000 0.0000 0.0000
# 4 0.0000 0.0000 0.0000 87.1322 0.0000 0.0000
# 5 0.0000 0.0000 0.0000 0.0000 -4.3109 0.0000
# 6 0.0000 0.0000 0.0000 0.0000 0.0000 31.4132
#
#
#
# Elastic Compliance Matrix: (Units=1/GPa)
#
#
# Indices 1 2 3 4 5 6 
#
# 1 0.026250 -0.001884 0.000532 0.000000 0.000000 0.000000
# 2 -0.001884 0.008964 -0.005147 0.000000 0.000000 0.000000
# 3 0.000532 -0.005147 0.008920 0.000000 0.000000 0.000000
# 4 0.000000 0.000000 0.000000 0.011477 0.000000 0.000000
# 5 0.000000 0.000000 0.000000 0.000000 -0.231971 0.000000
# 6 0.000000 0.000000 0.000000 0.000000 0.000000 0.031834
#
#
# Mechanical properties :
#
#
# Convention : Reuss Voigt Hill
#
# Bulk Modulus (GPa) = 32.11613 66.46067 49.28840
# Shear Modulus (GPa) = -41.27140 40.53147 -0.36997
#
# Velocity S-wave (km/s) = -4.41754 4.37776 -0.41825
# Velocity P-wave (km/s) = 3.29148 7.54839 4.80335
#
# Compressibility (1/GPa) = 0.03113701
#
# Stress axis : x y z
#
# Youngs Moduli (GPa) = 38.09458 111.55999 112.10459
#
# Poissons Ratio (x) = 0.21015 -0.05961
# Poissons Ratio (y) = 0.07176 0.57696
# Poissons Ratio (z) = -0.02025 0.57416
#
# Static dielectric constant tensor:
#      x y z
#    x 1.764480 0.000000 0.000000 
#    y 0.000000 1.679550 0.000000 
#    z 0.000000 0.000000 1.798860 
# 
# From -- ./inp_files/18129.got.cif
#   From: 2010.05.17/outbox.cif.g08.bks.cpg/sg35_10_cif.got.tgz:18129.got - 2010.06.03 17:29:28.
