data_PCOD9349322
_publ_section_title
;
Structure prediction by ZEFSAII (Michael W. Deem and Ramdas Pophale) SiO2 
 PCOD9349322
Probable space group: C M M 2
;
_chemical_formula_sum "Si O2"
_cell_formula_units_Z 64
_cell_length_a 18.983364
_cell_length_b 18.234494
_cell_length_c 10.348292
_cell_angle_alpha 90.000000
_cell_angle_beta 90.000000
_cell_angle_gamma 90.000000
_cell_volume 3582.082355
_symmetry_space_group_name_H-M "C M M 2"
_symmetry_group_IT_number 35
_symmetry_cell_setting 'orthorhombic'
loop_
_space_group_symop_operation_xyz
x,y,z
-x,-y,z
-x,y,z
x,-y,z
1/2+x,1/2+y,z
1/2-x,1/2-y,z
1/2-x,1/2+y,z
1/2+x,1/2-y,z
loop_
_atom_site_type_symbol
_atom_site_label
_atom_site_fract_x
_atom_site_fract_y
_atom_site_fract_z
Si Si1 0.835621 0.328237 0.401780
Si Si2 0.668930 0.658896 0.415931
Si Si3 0.666052 0.412805 0.137582
Si Si4 0.917499 0.322034 0.883098
Si Si5 0.918810 0.851263 0.899070
Si Si6 0.915507 0.414339 0.623467
Si Si7 0.699162 0.175056 0.107052
Si Si8 0.579890 0.586264 0.636059
O O1 0.753283 0.343561 0.430218
O O2 0.852226 0.243550 0.429914
O O3 0.880529 0.379954 0.495163
O O4 0.839484 0.331273 0.245737
O O5 0.651796 0.624665 0.276146
O O6 0.628830 0.615415 0.524725
O O7 0.654474 0.500000 0.141258
O O8 0.746155 0.391876 0.102576
O O9 0.620216 0.372852 0.028970
O O10 0.916124 0.234329 0.863744
O O11 0.898805 0.366848 0.752732
O O12 0.000000 0.340742 0.917097
O O13 0.858896 0.331349 0.995014
O O14 0.889759 0.893906 0.775852
O O15 0.000000 0.873017 0.915673
O O16 0.895338 0.500000 0.639364
O O17 0.000000 0.411088 0.609153
O O18 0.750000 0.250000 0.104117
O O19 0.500000 0.617595 0.627339
O O20 0.574651 0.500000 0.625108
#
# Coordination Sequence:
#
# PCOD9349322 Si02
#       8
#     8   8   8   8   8   8   8   8
#     4  10  20  38  63  84 116 154 195 243 308 355
#     4  10  20  37  56  82 112 148 194 240 289 357
#     4  11  22  36  58  86 118 156 194 243 303 356
#     4  10  21  39  65  89 116 158 202 248 304 362
#     4  10  20  36  57  82 112 152 199 240 291 360
#     4  10  23  42  62  90 125 158 203 262 312 356
#     4  11  20  41  61  88 122 156 197 252 298 355
#     4  10  21  35  51  75 111 149 187 234 282 339
#
# _framework density 17.866703000000001
#
# number of rings (size 3 to 8) (size 9 to 14) (size 15 to 20)
#    0.000    1.750    3.750    1.500    0.000    7.250 
#    2.250    0.000    0.000    1.500    0.000    0.000 
#    0.000    0.000    0.000    0.000    0.000    0.000 
#
# Total GULP energy -178390.246533 kJ/mol
# GULP energy per Si atom -5574.695204 kJ/mol
# Density = 1.782604 g / cm^3
# Si number density = 17.866703 Si / 1000 Ang^3
#
#
#
# Elastic Constant Matrix: (Units=GPa)
#
#
# Indices 1 2 3 4 5 6 
#
# 1 35.1499 37.2881 66.4519 0.0000 0.0000 0.0000
# 2 37.2881 105.4052 73.0421 0.0000 0.0000 0.0000
# 3 66.4519 73.0421 139.5406 0.0000 0.0000 0.0000
# 4 0.0000 0.0000 0.0000 37.5081 0.0000 0.0000
# 5 0.0000 0.0000 0.0000 0.0000 -84.2113 0.0000
# 6 0.0000 0.0000 0.0000 0.0000 0.0000 39.6939
#
#
#
# Elastic Compliance Matrix: (Units=1/GPa)
#
#
# Indices 1 2 3 4 5 6 
#
# 1 0.293182 -0.010929 -0.133898 0.000000 0.000000 0.000000
# 2 -0.010929 0.015295 -0.002801 0.000000 0.000000 0.000000
# 3 -0.133898 -0.002801 0.072397 0.000000 0.000000 0.000000
# 4 0.000000 0.000000 0.000000 0.026661 0.000000 0.000000
# 5 0.000000 0.000000 0.000000 0.000000 -0.011875 0.000000
# 6 0.000000 0.000000 0.000000 0.000000 0.000000 0.025193
#
#
# Mechanical properties :
#
#
# Convention : Reuss Voigt Hill
#
# Bulk Modulus (GPa) = 11.67993 70.40667 41.04330
# Shear Modulus (GPa) = 6.71458 5.48571 6.10015
#
# Velocity S-wave (km/s) = 1.94070 1.75414 1.84977
# Velocity P-wave (km/s) = 3.40194 6.60264 5.25205
#
# Compressibility (1/GPa) = 0.08561698
#
# Stress axis : x y z
#
# Youngs Moduli (GPa) = 3.41085 65.38214 13.81267
#
# Poissons Ratio (x) = 0.71459 1.84949
# Poissons Ratio (y) = 0.03728 0.03869
# Poissons Ratio (z) = 0.45671 0.18315
#
# Static dielectric constant tensor:
#      x y z
#    x 1.622660 0.000000 0.000000 
#    y 0.000000 1.618350 0.000000 
#    z 0.000000 0.000000 1.611940 
# 
# From -- ./inp_files/9440.got.cif
#   From: 2010.05.17/outbox.cif.g08.bks.cpg/sg35_5_cif.got.tgz:9440.got - 2010.06.03 17:29:28.
