data_PCOD9349703
_publ_section_title
;
Structure prediction by ZEFSAII (Michael W. Deem and Ramdas Pophale) SiO2 
 PCOD9349703
Probable space group: C M M 2
;
_chemical_formula_sum "Si O2"
_cell_formula_units_Z 64
_cell_length_a 8.616014
_cell_length_b 28.564789
_cell_length_c 13.420881
_cell_angle_alpha 90.000000
_cell_angle_beta 90.000000
_cell_angle_gamma 90.000000
_cell_volume 3303.075053
_symmetry_space_group_name_H-M "C M M 2"
_symmetry_group_IT_number 35
_symmetry_cell_setting 'orthorhombic'
loop_
_space_group_symop_operation_xyz
x,y,z
-x,-y,z
-x,y,z
x,-y,z
1/2+x,1/2+y,z
1/2-x,1/2-y,z
1/2-x,1/2+y,z
1/2+x,1/2-y,z
loop_
_atom_site_type_symbol
_atom_site_label
_atom_site_fract_x
_atom_site_fract_y
_atom_site_fract_z
Si Si1 0.815742 0.197518 0.828030
Si Si2 0.686830 0.945382 0.722600
Si Si3 0.312228 0.890329 0.920291
Si Si4 0.686307 0.196959 0.619001
Si Si5 0.686082 0.392579 0.311331
Si Si6 0.313372 0.445133 0.511905
Si Si7 0.687686 0.054233 0.118998
Si Si8 0.313984 0.197466 0.396981
O O1 0.750000 0.250000 0.840677
O O2 0.756095 0.161540 0.910722
O O3 0.755378 0.177677 0.721281
O O4 0.000000 0.199960 0.825660
O O5 0.500000 0.943388 0.720026
O O6 0.738561 0.918763 0.821710
O O7 0.747010 0.926861 0.616578
O O8 0.733617 0.000000 0.729772
O O9 0.500000 0.887549 0.918725
O O10 0.265379 0.918155 0.019146
O O11 0.500000 0.196136 0.626888
O O12 0.750000 0.250000 0.618371
O O13 0.731126 0.179709 0.508934
O O14 0.500000 0.392491 0.310062
O O15 0.739326 0.418949 0.412375
O O16 0.748064 0.419862 0.215827
O O17 0.747689 0.339708 0.319568
O O18 0.500000 0.442399 0.516524
O O19 0.269425 0.500000 0.503930
O O20 0.500000 0.054702 0.122656
O O21 0.737683 0.000000 0.115813
O O22 0.500000 0.198980 0.392782
O O23 0.250000 0.250000 0.384281
#
# Coordination Sequence:
#
# PCOD9349703 Si02
#       8
#     8   8   8   8   8   8   8   8
#     4  11  22  36  56  83 118 157 199 242 290 347
#     4   9  18  33  55  83 114 148 186 231 286 348
#     4  10  21  38  60  86 117 151 193 243 298 351
#     4   9  17  31  52  79 113 153 194 237 285 338
#     4  11  23  38  59  86 119 157 199 245 298 354
#     4   9  19  35  53  78 115 154 189 231 287 347
#     4  10  22  42  67  91 116 151 198 250 300 355
#     4  10  21  37  58  85 119 157 200 246 295 351
#
# _framework density 19.375883999999999
#
# number of rings (size 3 to 8) (size 9 to 14) (size 15 to 20)
#    0.000    2.125    0.000    3.750    1.750    5.750 
#    0.000    1.875    0.000    5.250    0.000    0.000 
#    0.000    0.000    0.000    0.000    0.000    0.000 
#
# Total GULP energy -178688.049479 kJ/mol
# GULP energy per Si atom -5584.001546 kJ/mol
# Density = 1.933178 g / cm^3
# Si number density = 19.375884 Si / 1000 Ang^3
#
#
#
# Elastic Constant Matrix: (Units=GPa)
#
#
# Indices 1 2 3 4 5 6 
#
# 1 38.5357 34.7274 39.9303 0.0000 0.0000 0.0000
# 2 34.7274 137.0006 95.5657 0.0000 0.0000 0.0000
# 3 39.9303 95.5657 155.4801 0.0000 0.0000 0.0000
# 4 0.0000 0.0000 0.0000 39.1080 0.0000 0.0000
# 5 0.0000 0.0000 0.0000 0.0000 40.6656 0.0000
# 6 0.0000 0.0000 0.0000 0.0000 0.0000 21.3938
#
#
#
# Elastic Compliance Matrix: (Units=1/GPa)
#
#
# Indices 1 2 3 4 5 6 
#
# 1 0.037098 -0.004828 -0.006560 0.000000 0.000000 0.000000
# 2 -0.004828 0.013406 -0.007000 0.000000 0.000000 0.000000
# 3 -0.006560 -0.007000 0.012419 0.000000 0.000000 0.000000
# 4 0.000000 0.000000 0.000000 0.025570 0.000000 0.000000
# 5 0.000000 0.000000 0.000000 0.000000 0.024591 0.000000
# 6 0.000000 0.000000 0.000000 0.000000 0.000000 0.046743
#
#
# Mechanical properties :
#
#
# Convention : Reuss Voigt Hill
#
# Bulk Modulus (GPa) = 38.24498 74.60703 56.42601
# Shear Modulus (GPa) = 24.35240 30.95301 27.65271
#
# Velocity S-wave (km/s) = 3.54904 4.00121 3.78189
# Velocity P-wave (km/s) = 6.04777 7.74177 6.94660
#
# Compressibility (1/GPa) = 0.02614722
#
# Stress axis : x y z
#
# Youngs Moduli (GPa) = 26.95553 74.59370 80.52105
#
# Poissons Ratio (x) = 0.36011 0.52824
# Poissons Ratio (y) = 0.13013 0.56366
# Poissons Ratio (z) = 0.17683 0.52217
#
# Static dielectric constant tensor:
#      x y z
#    x 1.647590 0.000000 0.000000 
#    y 0.000000 1.685070 0.000000 
#    z 0.000000 0.000000 1.673320 
# 
# From -- ./inp_files/11969.got.cif
#   From: 2010.05.17/outbox.cif.g08.bks.cpg/sg35_6_cif.got.tgz:11969.got - 2010.06.03 17:29:28.
