data_PCOD9349936
_publ_section_title
;
Structure prediction by ZEFSAII (Michael W. Deem and Ramdas Pophale) SiO2 
 PCOD9349936
Probable space group: C M M 2
;
_chemical_formula_sum "Si O2"
_cell_formula_units_Z 48
_cell_length_a 8.031540
_cell_length_b 18.715174
_cell_length_c 16.228063
_cell_angle_alpha 90.000000
_cell_angle_beta 90.000000
_cell_angle_gamma 90.000000
_cell_volume 2439.267227
_symmetry_space_group_name_H-M "C M M 2"
_symmetry_group_IT_number 35
_symmetry_cell_setting 'orthorhombic'
loop_
_space_group_symop_operation_xyz
x,y,z
-x,-y,z
-x,y,z
x,-y,z
1/2+x,1/2+y,z
1/2-x,1/2-y,z
1/2-x,1/2+y,z
1/2+x,1/2-y,z
loop_
_atom_site_type_symbol
_atom_site_label
_atom_site_fract_x
_atom_site_fract_y
_atom_site_fract_z
Si Si1 0.801434 0.167849 0.107080
Si Si2 0.198874 0.667797 0.427733
Si Si3 0.295864 0.083074 0.587964
Si Si4 0.200504 0.918686 0.265879
Si Si5 0.798957 0.581910 0.946371
Si Si6 0.193044 0.413006 0.767533
O O1 0.750000 0.250000 0.112193
O O2 0.735450 0.123222 0.185431
O O3 0.000000 0.164812 0.109972
O O4 0.746552 0.131755 0.021972
O O5 0.250000 0.750000 0.422075
O O6 0.261237 0.631198 0.512147
O O7 0.257843 0.623889 0.348513
O O8 0.000000 0.664069 0.429334
O O9 0.500000 0.084338 0.590511
O O10 0.234847 0.107503 0.678583
O O11 0.249148 0.000000 0.575166
O O12 0.000000 0.921711 0.259662
O O13 0.263673 0.000000 0.268809
O O14 0.741781 0.500000 0.960955
O O15 0.734095 0.607262 0.856476
O O16 0.000000 0.579542 0.940172
O O17 0.192167 0.500000 0.767621
O O18 0.000000 0.389386 0.767177
#
# Coordination Sequence:
#
# PCOD9349936 Si02
#       6
#     8   8   8   8   8   8
#     4  11  23  38  55  76 105 140 174 211 259 311
#     4  11  22  35  53  78 108 142 177 213 256 305
#     4   8  14  27  49  76 103 133 173 217 258 304
#     4  10  22  40  60  81 104 131 166 211 263 315
#     4   9  17  31  54  82 108 137 175 216 258 306
#     4   7  11  23  46  75 104 133 168 212 258 302
#
# _framework density 19.678042000000001
#
# number of rings (size 3 to 8) (size 9 to 14) (size 15 to 20)
#    0.000    2.667    0.000    4.500    0.000    4.667 
#    0.000    0.833    0.000    4.000    0.000    4.667 
#    0.000    0.000    0.000    0.000    0.000    0.000 
#
# Total GULP energy -133853.896213 kJ/mol
# GULP energy per Si atom -5577.245676 kJ/mol
# Density = 1.963325 g / cm^3
# Si number density = 19.678042 Si / 1000 Ang^3
#
#
#
# Elastic Constant Matrix: (Units=GPa)
#
#
# Indices 1 2 3 4 5 6 
#
# 1 18.5332 9.5470 12.7368 0.0000 0.0000 0.0000
# 2 9.5470 142.6670 118.1098 0.0000 0.0000 0.0000
# 3 12.7368 118.1098 236.2109 0.0000 0.0000 0.0000
# 4 0.0000 0.0000 0.0000 108.9635 0.0000 0.0000
# 5 0.0000 0.0000 0.0000 0.0000 -105.4624 0.0000
# 6 0.0000 0.0000 0.0000 0.0000 0.0000 -25.4725
#
#
#
# Elastic Compliance Matrix: (Units=1/GPa)
#
#
# Indices 1 2 3 4 5 6 
#
# 1 0.056416 -0.002145 -0.001970 0.000000 0.000000 0.000000
# 2 -0.002145 0.012042 -0.005905 0.000000 0.000000 0.000000
# 3 -0.001970 -0.005905 0.007293 0.000000 0.000000 0.000000
# 4 0.000000 0.000000 0.000000 0.009177 0.000000 0.000000
# 5 0.000000 0.000000 0.000000 0.000000 -0.009482 0.000000
# 6 0.000000 0.000000 0.000000 0.000000 0.000000 -0.039258
#
#
# Mechanical properties :
#
#
# Convention : Reuss Voigt Hill
#
# Bulk Modulus (GPa) = 17.94997 75.35537 46.65267
# Shear Modulus (GPa) = 66.84772 12.74022 39.79397
#
# Velocity S-wave (km/s) = 5.83476 2.54723 4.50182
# Velocity P-wave (km/s) = 7.38473 6.85773 7.12610
#
# Compressibility (1/GPa) = 0.05571039
#
# Stress axis : x y z
#
# Youngs Moduli (GPa) = 17.72562 83.04392 137.12591
#
# Poissons Ratio (x) = 0.17809 0.27009
# Poissons Ratio (y) = 0.03801 0.80980
# Poissons Ratio (z) = 0.03491 0.49042
#
# Static dielectric constant tensor:
#      x y z
#    x 1.701970 0.000000 0.000000 
#    y 0.000000 1.540210 0.000000 
#    z 0.000000 0.000000 1.721420 
# 
# From -- ./inp_files/15146.got.cif
#   From: 2010.05.17/outbox.cif.g08.bks.cpg/sg35_8_cif.got.tgz:15146.got - 2010.06.03 17:29:28.
