data_PCOD9349490
_publ_section_title
;
Structure prediction by ZEFSAII (Michael W. Deem and Ramdas Pophale) SiO2 
 PCOD9349490
Probable space group: C M M 2
;
_chemical_formula_sum "Si O2"
_cell_formula_units_Z 32
_cell_length_a 10.112043
_cell_length_b 14.539829
_cell_length_c 11.081923
_cell_angle_alpha 90.000000
_cell_angle_beta 90.000000
_cell_angle_gamma 90.000000
_cell_volume 1629.346060
_symmetry_space_group_name_H-M "C M M 2"
_symmetry_group_IT_number 35
_symmetry_cell_setting 'orthorhombic'
loop_
_space_group_symop_operation_xyz
x,y,z
-x,-y,z
-x,y,z
x,-y,z
1/2+x,1/2+y,z
1/2-x,1/2-y,z
1/2-x,1/2+y,z
1/2+x,1/2-y,z
loop_
_atom_site_type_symbol
_atom_site_label
_atom_site_fract_x
_atom_site_fract_y
_atom_site_fract_z
Si Si1 0.743065 0.138897 0.522070
Si Si2 0.163002 0.656240 0.256502
Si Si3 0.000000 0.500000 0.888349
Si Si4 0.500000 0.500000 0.900947
Si Si5 0.000000 0.866980 0.673365
Si Si6 0.500000 0.145735 0.686783
Si Si7 0.740268 0.000000 0.067951
O O1 0.750000 0.250000 0.517102
O O2 0.705899 0.113091 0.385856
O O3 0.625686 0.114983 0.610885
O O4 0.875617 0.108571 0.588765
O O5 0.250000 0.750000 0.245158
O O6 0.212737 0.588245 0.152344
O O7 0.000000 0.668713 0.254550
O O8 0.000000 0.592301 0.810380
O O9 0.872070 0.500000 0.968815
O O10 0.500000 0.415922 0.803692
O O11 0.375710 0.500000 0.992051
O O12 0.000000 0.756595 0.695348
#
# Coordination Sequence:
#
# PCOD9349490 Si02
#       7
#     8   8   2   2   4   4   4
#     4   9  19  37  66  97 128 157 207 271 335 404
#     4  11  24  44  72 101 133 174 219 278 343 398
#     4  12  24  40  64  88 124 182 226 264 318 388
#     4  12  28  44  62  94 134 184 234 272 316 390
#     4  10  22  41  63  95 133 164 211 272 334 394
#     4  10  20  37  63  93 123 166 209 268 332 388
#     4  12  28  46  63  93 139 175 238 280 309 393
#
# _framework density 19.639779999999998
#
# number of rings (size 3 to 8) (size 9 to 14) (size 15 to 20)
#    0.000    1.500    2.500    1.500    7.000    4.000 
#    0.000    0.000    0.000    0.000    0.000    0.000 
#    0.000    0.000    0.000    0.000    0.000    0.000 
#
# Total GULP energy -89270.428273 kJ/mol
# GULP energy per Si atom -5579.401767 kJ/mol
# Density = 1.959508 g / cm^3
# Si number density = 19.639780 Si / 1000 Ang^3
#
#
#
# Elastic Constant Matrix: (Units=GPa)
#
#
# Indices 1 2 3 4 5 6 
#
# 1 236.7911 56.6412 119.0261 0.0000 0.0000 0.0000
# 2 56.6412 120.3106 73.8539 0.0000 0.0000 0.0000
# 3 119.0261 73.8539 199.0945 0.0000 0.0000 0.0000
# 4 0.0000 0.0000 0.0000 53.1148 0.0000 0.0000
# 5 0.0000 0.0000 0.0000 0.0000 47.4605 0.0000
# 6 0.0000 0.0000 0.0000 0.0000 0.0000 -37.7751
#
#
#
# Elastic Compliance Matrix: (Units=1/GPa)
#
#
# Indices 1 2 3 4 5 6 
#
# 1 0.006099 -0.000820 -0.003342 0.000000 0.000000 0.000000
# 2 -0.000820 0.010873 -0.003543 0.000000 0.000000 0.000000
# 3 -0.003342 -0.003543 0.008335 0.000000 0.000000 0.000000
# 4 0.000000 0.000000 0.000000 0.018827 0.000000 0.000000
# 5 0.000000 0.000000 0.000000 0.000000 0.021070 0.000000
# 6 0.000000 0.000000 0.000000 0.000000 0.000000 -0.026472
#
#
# Mechanical properties :
#
#
# Convention : Reuss Voigt Hill
#
# Bulk Modulus (GPa) = 101.04246 117.24870 109.14558
# Shear Modulus (GPa) = 87.04523 33.00504 60.02513
#
# Velocity S-wave (km/s) = 6.66462 4.10386 5.53438
# Velocity P-wave (km/s) = 10.52532 9.07110 9.82515
#
# Compressibility (1/GPa) = 0.00989683
#
# Stress axis : x y z
#
# Youngs Moduli (GPa) = 163.95431 91.97292 119.97330
#
# Poissons Ratio (x) = 0.07540 0.40098
# Poissons Ratio (y) = 0.13441 0.42508
# Poissons Ratio (z) = 0.54798 0.32587
#
# Static dielectric constant tensor:
#      x y z
#    x 1.628040 0.000000 0.000000 
#    y 0.000000 1.735960 0.000000 
#    z 0.000000 0.000000 1.659060 
# 
# From -- ./inp_files/6768.got.cif
#   From: 2010.05.17/outbox.cif.g08.bks.cpg/sg35_4_cif.got.tgz:6768.got - 2010.06.03 17:29:28.
