data_PCOD9349523
_publ_section_title
;
Structure prediction by ZEFSAII (Michael W. Deem and Ramdas Pophale) SiO2 
 PCOD9349523
Probable space group: C M M 2
;
_chemical_formula_sum "Si O2"
_cell_formula_units_Z 50
_cell_length_a 8.117061
_cell_length_b 20.995412
_cell_length_c 15.206894
_cell_angle_alpha 90.000000
_cell_angle_beta 90.000000
_cell_angle_gamma 90.000000
_cell_volume 2591.574689
_symmetry_space_group_name_H-M "C M M 2"
_symmetry_group_IT_number 35
_symmetry_cell_setting 'orthorhombic'
loop_
_space_group_symop_operation_xyz
x,y,z
-x,-y,z
-x,y,z
x,-y,z
1/2+x,1/2+y,z
1/2-x,1/2-y,z
1/2-x,1/2+y,z
1/2+x,1/2-y,z
loop_
_atom_site_type_symbol
_atom_site_label
_atom_site_fract_x
_atom_site_fract_y
_atom_site_fract_z
Si Si1 0.694601 0.820510 0.765500
Si Si2 0.308662 0.678368 0.303487
Si Si3 0.194290 0.928675 0.632597
Si Si4 0.193153 0.899071 0.130571
Si Si5 0.000000 0.500000 0.149047
Si Si6 0.805647 0.428603 0.436115
Si Si7 0.699225 0.177617 0.965503
O O1 0.500000 0.818033 0.773167
O O2 0.750000 0.750000 0.737536
O O3 0.738827 0.874938 0.696760
O O4 0.756838 0.833603 0.864729
O O5 0.500000 0.675748 0.325695
O O6 0.250000 0.750000 0.317867
O O7 0.288292 0.656770 0.202801
O O8 0.226207 0.624992 0.364396
O O9 0.225493 0.913910 0.530131
O O10 0.000000 0.931357 0.646687
O O11 0.264047 0.000000 0.648783
O O12 0.000000 0.922311 0.139467
O O13 0.348977 0.945618 0.147394
O O14 0.218416 0.870329 0.033659
O O15 0.750132 0.500000 0.407333
O O16 0.000000 0.431722 0.451131
O O17 0.500000 0.171446 0.970714
O O18 0.750000 0.250000 0.987230
#
# Coordination Sequence:
#
# PCOD9349523 Si02
#       7
#     8   8   8   8   2   8   8
#     4  10  21  37  61  90 122 159 208 256 308 370
#     4  11  25  41  63  94 125 160 209 258 309 370
#     4  10  21  39  60  86 121 160 202 253 311 372
#     4  11  25  43  66  95 129 171 214 262 315 375
#     4  12  26  44  68  90 136 166 220 256 316 378
#     4  10  22  39  64  89 119 160 203 249 312 378
#     4  10  20  38  63  91 124 165 209 263 317 376
#
# _framework density 19.293288
#
# number of rings (size 3 to 8) (size 9 to 14) (size 15 to 20)
#    0.000    1.600    0.800    3.120    3.360    5.760 
#    1.440    3.200    0.000    0.000    0.000    0.000 
#    0.000    0.000    0.000    0.000    0.000    0.000 
#
# Total GULP energy -139247.077726 kJ/mol
# GULP energy per Si atom -5569.883109 kJ/mol
# Density = 1.924938 g / cm^3
# Si number density = 19.293288 Si / 1000 Ang^3
#
#
#
# Elastic Constant Matrix: (Units=GPa)
#
#
# Indices 1 2 3 4 5 6 
#
# 1 82.1658 24.6898 7.9451 0.0000 0.0000 0.0000
# 2 24.6898 108.5625 60.9482 0.0000 0.0000 0.0000
# 3 7.9451 60.9482 70.0873 0.0000 0.0000 0.0000
# 4 0.0000 0.0000 0.0000 -70.2223 0.0000 0.0000
# 5 0.0000 0.0000 0.0000 0.0000 28.5968 0.0000
# 6 0.0000 0.0000 0.0000 0.0000 0.0000 34.7691
#
#
#
# Elastic Compliance Matrix: (Units=1/GPa)
#
#
# Indices 1 2 3 4 5 6 
#
# 1 0.013232 -0.004234 0.002182 0.000000 0.000000 0.000000
# 2 -0.004234 0.019353 -0.016350 0.000000 0.000000 0.000000
# 3 0.002182 -0.016350 0.028238 0.000000 0.000000 0.000000
# 4 0.000000 0.000000 0.000000 -0.014240 0.000000 0.000000
# 5 0.000000 0.000000 0.000000 0.000000 0.034969 0.000000
# 6 0.000000 0.000000 0.000000 0.000000 0.000000 0.028761
#
#
# Mechanical properties :
#
#
# Convention : Reuss Voigt Hill
#
# Bulk Modulus (GPa) = 41.63223 49.77575 45.70399
# Shear Modulus (GPa) = 32.23256 9.77754 21.00505
#
# Velocity S-wave (km/s) = 4.09181 2.25363 3.30316
# Velocity P-wave (km/s) = 6.62943 5.71203 6.18776
#
# Compressibility (1/GPa) = 0.02401985
#
# Stress axis : x y z
#
# Youngs Moduli (GPa) = 75.57499 51.67130 35.41309
#
# Poissons Ratio (x) = 0.21880 -0.07728
# Poissons Ratio (y) = 0.32002 0.57899
# Poissons Ratio (z) = -0.16493 0.84480
#
# Static dielectric constant tensor:
#      x y z
#    x 1.675340 0.000000 0.000000 
#    y 0.000000 2.014990 0.000000 
#    z 0.000000 0.000000 1.668710 
# 
# From -- ./inp_files/15277.got.cif
#   From: 2010.05.17/outbox.cif.g08.bks.cpg/sg35_8_cif.got.tgz:15277.got - 2010.06.03 17:29:28.
