data_PCOD9349521
_publ_section_title
;
Structure prediction by ZEFSAII (Michael W. Deem and Ramdas Pophale) SiO2 
 PCOD9349521
Probable space group: C M M 2
;
_chemical_formula_sum "Si O2"
_cell_formula_units_Z 48
_cell_length_a 15.240133
_cell_length_b 8.732548
_cell_length_c 19.547825
_cell_angle_alpha 90.000000
_cell_angle_beta 90.000000
_cell_angle_gamma 90.000000
_cell_volume 2601.526062
_symmetry_space_group_name_H-M "C M M 2"
_symmetry_group_IT_number 35
_symmetry_cell_setting 'orthorhombic'
loop_
_space_group_symop_operation_xyz
x,y,z
-x,-y,z
-x,y,z
x,-y,z
1/2+x,1/2+y,z
1/2-x,1/2-y,z
1/2-x,1/2+y,z
1/2+x,1/2-y,z
loop_
_atom_site_type_symbol
_atom_site_label
_atom_site_fract_x
_atom_site_fract_y
_atom_site_fract_z
Si Si1 0.894532 0.823692 0.539680
Si Si2 0.842245 0.683180 0.394742
Si Si3 0.500000 0.316377 0.145264
Si Si4 0.842450 0.683263 0.684552
Si Si5 0.500000 0.815368 0.296691
Si Si6 0.649965 0.314786 0.037303
Si Si7 0.500000 0.185480 0.939749
Si Si8 0.000000 0.686129 0.781398
O O1 0.862407 0.744019 0.470664
O O2 0.862936 0.741725 0.608297
O O3 0.000000 0.820780 0.539409
O O4 0.864370 0.000000 0.540325
O O5 0.840387 0.500000 0.396974
O O6 0.750000 0.750000 0.372309
O O7 0.916415 0.733004 0.341434
O O8 0.500000 0.500000 0.148941
O O9 0.500000 0.248401 0.220639
O O10 0.588570 0.273156 0.103165
O O11 0.840869 0.500000 0.683468
O O12 0.750000 0.750000 0.706254
O O13 0.916182 0.736165 0.737736
O O14 0.500000 0.000000 0.293248
O O15 0.654315 0.500000 0.033041
O O16 0.750000 0.250000 0.038605
O O17 0.587924 0.250427 0.976257
O O18 0.500000 0.232161 0.860204
O O19 0.500000 0.000000 0.945211
O O20 0.000000 0.500000 0.781292
#
# Coordination Sequence:
#
# PCOD9349521 Si02
#       8
#     8   8   4   8   4   8   4   4
#     4  11  22  37  59  85 110 144 193 244 292 344
#     4  11  23  40  59  83 113 150 193 238 290 345
#     4   9  21  39  60  86 120 153 191 237 284 338
#     4  11  22  39  59  82 113 151 192 239 291 345
#     4  10  23  40  59  83 117 154 191 232 286 346
#     4  10  21  39  62  92 122 156 197 237 285 341
#     4  10  20  38  62  90 122 156 194 240 290 344
#     4   9  21  39  59  83 117 155 192 233 288 346
#
# _framework density 18.450709
#
# number of rings (size 3 to 8) (size 9 to 14) (size 15 to 20)
#    0.000    1.667    1.667    3.250    0.000    5.333 
#    0.000    8.333    0.000    0.000    0.000    0.000 
#    0.000    0.000    0.000    0.000    0.000    0.000 
#
# Total GULP energy -134032.058709 kJ/mol
# GULP energy per Si atom -5584.669113 kJ/mol
# Density = 1.840871 g / cm^3
# Si number density = 18.450709 Si / 1000 Ang^3
#
#
#
# Elastic Constant Matrix: (Units=GPa)
#
#
# Indices 1 2 3 4 5 6 
#
# 1 195.7538 57.0810 105.8856 0.0000 0.0000 0.0000
# 2 57.0810 73.1147 47.6113 0.0000 0.0000 0.0000
# 3 105.8856 47.6113 180.5437 0.0000 0.0000 0.0000
# 4 0.0000 0.0000 0.0000 -303.8328 0.0000 0.0000
# 5 0.0000 0.0000 0.0000 0.0000 -48.3017 0.0000
# 6 0.0000 0.0000 0.0000 0.0000 0.0000 31.0318
#
#
#
# Elastic Compliance Matrix: (Units=1/GPa)
#
#
# Indices 1 2 3 4 5 6 
#
# 1 0.008360 -0.004025 -0.003842 0.000000 0.000000 0.000000
# 2 -0.004025 0.018451 -0.002505 0.000000 0.000000 0.000000
# 3 -0.003842 -0.002505 0.008452 0.000000 0.000000 0.000000
# 4 0.000000 0.000000 0.000000 -0.003291 0.000000 0.000000
# 5 0.000000 0.000000 0.000000 0.000000 -0.020703 0.000000
# 6 0.000000 0.000000 0.000000 0.000000 0.000000 0.032225
#
#
# Mechanical properties :
#
#
# Convention : Reuss Voigt Hill
#
# Bulk Modulus (GPa) = 68.87106 96.72977 82.80042
# Shear Modulus (GPa) = 72.38254 -48.29824 12.04215
#
# Velocity S-wave (km/s) = 6.27020 -5.12189 2.55750
# Velocity P-wave (km/s) = 9.47780 4.19065 7.32769
#
# Compressibility (1/GPa) = 0.01451989
#
# Stress axis : x y z
#
# Youngs Moduli (GPa) = 119.61508 54.19806 118.30922
#
# Poissons Ratio (x) = 0.21816 0.45449
# Poissons Ratio (y) = 0.48148 0.29636
# Poissons Ratio (z) = 0.45951 0.13576
#
# Static dielectric constant tensor:
#      x y z
#    x 1.638260 0.000000 0.000000 
#    y 0.000000 1.708580 0.000000 
#    z 0.000000 0.000000 1.608450 
# 
# From -- ./inp_files/18827.got.cif
#   From: 2010.05.17/outbox.cif.g08.bks.cpg/sg35_10_cif.got.tgz:18827.got - 2010.06.03 17:29:28.
