data_PCOD9349833
_publ_section_title
;
Structure prediction by ZEFSAII (Michael W. Deem and Ramdas Pophale) SiO2 
 PCOD9349833
Probable space group: C M M 2
;
_chemical_formula_sum "Si O2"
_cell_formula_units_Z 48
_cell_length_a 8.454835
_cell_length_b 15.752376
_cell_length_c 17.937473
_cell_angle_alpha 90.000000
_cell_angle_beta 90.000000
_cell_angle_gamma 90.000000
_cell_volume 2388.979739
_symmetry_space_group_name_H-M "C M M 2"
_symmetry_group_IT_number 35
_symmetry_cell_setting 'orthorhombic'
loop_
_space_group_symop_operation_xyz
x,y,z
-x,-y,z
-x,y,z
x,-y,z
1/2+x,1/2+y,z
1/2-x,1/2-y,z
1/2-x,1/2+y,z
1/2+x,1/2-y,z
loop_
_atom_site_type_symbol
_atom_site_label
_atom_site_fract_x
_atom_site_fract_y
_atom_site_fract_z
Si Si1 0.686661 0.500000 0.998410
Si Si2 0.689786 0.153003 0.097398
Si Si3 0.687329 0.340953 0.739158
Si Si4 0.191525 0.346021 0.261841
Si Si5 0.308406 0.100872 0.582623
Si Si6 0.813282 0.500000 0.831842
Si Si7 0.681134 0.898632 0.421750
O O1 0.500000 0.500000 0.008025
O O2 0.729639 0.500000 0.911580
O O3 0.753872 0.415231 0.037481
O O4 0.500000 0.156487 0.096528
O O5 0.750000 0.250000 0.086512
O O6 0.741007 0.120659 0.180410
O O7 0.500000 0.345466 0.747219
O O8 0.750000 0.250000 0.765293
O O9 0.733801 0.352577 0.652542
O O10 0.764938 0.417451 0.784723
O O11 0.250000 0.250000 0.261081
O O12 0.253256 0.381543 0.340649
O O13 0.000000 0.353273 0.263299
O O14 0.500000 0.109600 0.584401
O O15 0.249305 0.130958 0.500848
O O16 0.274253 0.000000 0.590600
O O17 0.000000 0.500000 0.843535
O O18 0.500000 0.865584 0.419487
O O19 0.672234 0.000000 0.429050
#
# Coordination Sequence:
#
# PCOD9349833 Si02
#       7
#     4   8   8   8   8   4   8
#     4  12  26  44  68  97 126 161 202 247 306 373
#     4  10  21  39  63  93 127 166 209 257 309 366
#     4  12  25  42  66  96 128 166 208 251 305 367
#     4   9  18  32  53  78 113 155 201 251 303 356
#     4   9  17  33  57  84 120 164 209 257 309 361
#     4  12  26  48  72  97 128 157 196 251 308 371
#     4   8  15  28  50  80 112 154 205 251 297 352
#
# _framework density 20.092258999999999
#
# number of rings (size 3 to 8) (size 9 to 14) (size 15 to 20)
#    0.000    2.000    0.833    4.500    1.167    2.000 
#    0.000    5.833    0.000    1.000    0.000    0.000 
#    0.000    0.000    0.000    0.000    0.000    0.000 
#
# Total GULP energy -133885.322979 kJ/mol
# GULP energy per Si atom -5578.555124 kJ/mol
# Density = 2.004653 g / cm^3
# Si number density = 20.092259 Si / 1000 Ang^3
#
#
#
# Elastic Constant Matrix: (Units=GPa)
#
#
# Indices 1 2 3 4 5 6 
#
# 1 37.8340 5.9884 -7.7558 0.0000 0.0000 0.0000
# 2 5.9884 81.1364 34.8174 0.0000 0.0000 0.0000
# 3 -7.7558 34.8174 116.0263 0.0000 0.0000 0.0000
# 4 0.0000 0.0000 0.0000 -48.3151 0.0000 0.0000
# 5 0.0000 0.0000 0.0000 0.0000 9.8028 0.0000
# 6 0.0000 0.0000 0.0000 0.0000 0.0000 25.9884
#
#
#
# Elastic Compliance Matrix: (Units=1/GPa)
#
#
# Indices 1 2 3 4 5 6 
#
# 1 0.027520 -0.003237 0.002811 0.000000 0.000000 0.000000
# 2 -0.003237 0.014527 -0.004576 0.000000 0.000000 0.000000
# 3 0.002811 -0.004576 0.010180 0.000000 0.000000 0.000000
# 4 0.000000 0.000000 0.000000 -0.020697 0.000000 0.000000
# 5 0.000000 0.000000 0.000000 0.000000 0.102011 0.000000
# 6 0.000000 0.000000 0.000000 0.000000 0.000000 0.038479
#
#
# Mechanical properties :
#
#
# Convention : Reuss Voigt Hill
#
# Bulk Modulus (GPa) = 23.68391 33.45520 28.56955
# Shear Modulus (GPa) = 25.49742 10.95833 18.22788
#
# Velocity S-wave (km/s) = 3.56619 2.33792 3.01526
# Velocity P-wave (km/s) = 5.36378 4.89640 5.13541
#
# Compressibility (1/GPa) = 0.04222275
#
# Stress axis : x y z
#
# Youngs Moduli (GPa) = 36.33728 68.83519 98.23407
#
# Poissons Ratio (x) = 0.22285 -0.27614
# Poissons Ratio (y) = 0.11764 0.44950
# Poissons Ratio (z) = -0.10215 0.31498
#
# Static dielectric constant tensor:
#      x y z
#    x 1.690850 0.000000 0.000000 
#    y 0.000000 1.691880 0.000000 
#    z 0.000000 0.000000 1.753040 
# 
# From -- ./inp_files/17917.got.cif
#   From: 2010.05.17/outbox.cif.g08.bks.cpg/sg35_9_cif.got.tgz:17917.got - 2010.06.03 17:29:28.
