data_PCOD9349508
_publ_section_title
;
Structure prediction by ZEFSAII (Michael W. Deem and Ramdas Pophale) SiO2 
 PCOD9349508
Probable space group: C M M 2
;
_chemical_formula_sum "Si O2"
_cell_formula_units_Z 60
_cell_length_a 14.480951
_cell_length_b 15.307431
_cell_length_c 13.943226
_cell_angle_alpha 90.000000
_cell_angle_beta 90.000000
_cell_angle_gamma 90.000000
_cell_volume 3090.741341
_symmetry_space_group_name_H-M "C M M 2"
_symmetry_group_IT_number 35
_symmetry_cell_setting 'orthorhombic'
loop_
_space_group_symop_operation_xyz
x,y,z
-x,-y,z
-x,y,z
x,-y,z
1/2+x,1/2+y,z
1/2-x,1/2-y,z
1/2-x,1/2+y,z
1/2+x,1/2-y,z
loop_
_atom_site_type_symbol
_atom_site_label
_atom_site_fract_x
_atom_site_fract_y
_atom_site_fract_z
Si Si1 0.250000 0.750000 0.983680
Si Si2 0.784800 0.601301 0.136647
Si Si3 0.607661 0.404334 0.257810
Si Si4 0.802652 0.404667 0.695412
Si Si5 0.889329 0.704723 0.307558
Si Si6 0.390215 0.800712 0.520970
Si Si7 0.397819 0.357357 0.650323
Si Si8 0.395331 0.772927 0.831034
O O1 0.337728 0.729345 0.916184
O O2 0.217187 0.667818 0.047725
O O3 0.816690 0.500000 0.121675
O O4 0.678683 0.595380 0.170579
O O5 0.839618 0.650618 0.223260
O O6 0.500000 0.402189 0.230231
O O7 0.621966 0.500000 0.308288
O O8 0.625981 0.309925 0.305358
O O9 0.843689 0.500000 0.702084
O O10 0.841917 0.356460 0.602352
O O11 0.693270 0.408958 0.677883
O O12 0.833101 0.351470 0.789294
O O13 0.858060 0.677821 0.414069
O O14 0.000000 0.691367 0.299052
O O15 0.500000 0.816744 0.524725
O O16 0.378934 0.700085 0.554734
O O17 0.500000 0.397866 0.641140
O O18 0.403290 0.289898 0.739202
O O19 0.500000 0.798277 0.858338
#
# Coordination Sequence:
#
# PCOD9349508 Si02
#       8
#     4   8   8   8   8   8   8   8
#     4  12  22  42  62  88 118 158 202 252 318 374
#     4  11  24  39  59  88 119 156 203 255 306 366
#     4   9  18  35  59  84 111 149 200 252 301 355
#     4  11  21  35  58  91 127 157 195 249 307 372
#     4  10  20  38  61  87 123 167 207 253 313 368
#     4   9  19  35  59  85 115 161 208 244 293 366
#     4   9  18  37  59  84 116 153 197 241 293 359
#     4  10  21  39  64  86 110 150 198 247 304 372
#
# _framework density 19.412818000000001
#
# number of rings (size 3 to 8) (size 9 to 14) (size 15 to 20)
#    0.000    2.000    2.667    2.400    0.000    5.867 
#    0.000    3.333    0.000    2.400    0.000    0.000 
#    0.000    0.000    0.000    0.000    0.000    0.000 
#
# Total GULP energy -167025.456920 kJ/mol
# GULP energy per Si atom -5567.515231 kJ/mol
# Density = 1.936863 g / cm^3
# Si number density = 19.412818 Si / 1000 Ang^3
#
#
#
# Elastic Constant Matrix: (Units=GPa)
#
#
# Indices 1 2 3 4 5 6 
#
# 1 75.1103 26.8711 32.8148 0.0000 0.0000 0.0000
# 2 26.8711 105.8499 34.5082 0.0000 0.0000 0.0000
# 3 32.8148 34.5082 99.3937 0.0000 0.0000 0.0000
# 4 0.0000 0.0000 0.0000 -1.4810 0.0000 0.0000
# 5 0.0000 0.0000 0.0000 0.0000 17.4726 0.0000
# 6 0.0000 0.0000 0.0000 0.0000 0.0000 -27.1032
#
#
#
# Elastic Compliance Matrix: (Units=1/GPa)
#
#
# Indices 1 2 3 4 5 6 
#
# 1 0.016201 -0.002671 -0.004421 0.000000 0.000000 0.000000
# 2 -0.002671 0.011094 -0.002970 0.000000 0.000000 0.000000
# 3 -0.004421 -0.002970 0.012552 0.000000 0.000000 0.000000
# 4 0.000000 0.000000 0.000000 -0.675239 0.000000 0.000000
# 5 0.000000 0.000000 0.000000 0.000000 0.057233 0.000000
# 6 0.000000 0.000000 0.000000 0.000000 0.000000 -0.036896
#
#
# Mechanical properties :
#
#
# Convention : Reuss Voigt Hill
#
# Bulk Modulus (GPa) = 50.70538 52.08246 51.39392
# Shear Modulus (GPa) = -8.49823 10.18834 0.84505
#
# Velocity S-wave (km/s) = -2.09455 2.29339 0.66049
# Velocity P-wave (km/s) = 4.50852 5.82237 5.20705
#
# Compressibility (1/GPa) = 0.01972177
#
# Stress axis : x y z
#
# Youngs Moduli (GPa) = 61.72431 90.14183 79.67058
#
# Poissons Ratio (x) = 0.24081 0.35225
# Poissons Ratio (y) = 0.16489 0.23659
# Poissons Ratio (z) = 0.27290 0.26768
#
# Static dielectric constant tensor:
#      x y z
#    x 1.707680 0.000000 0.000000 
#    y 0.000000 1.707320 0.000000 
#    z 0.000000 0.000000 1.660960 
# 
# From -- ./inp_files/16840.got.cif
#   From: 2010.05.17/outbox.cif.g08.bks.cpg/sg35_9_cif.got.tgz:16840.got - 2010.06.03 17:29:28.
