data_PCOD9349705
_publ_section_title
;
Structure prediction by ZEFSAII (Michael W. Deem and Ramdas Pophale) SiO2 
 PCOD9349705
Probable space group: C M M 2
;
_chemical_formula_sum "Si O2"
_cell_formula_units_Z 64
_cell_length_a 8.127361
_cell_length_b 31.991945
_cell_length_c 12.271243
_cell_angle_alpha 90.000000
_cell_angle_beta 90.000000
_cell_angle_gamma 90.000000
_cell_volume 3190.646949
_symmetry_space_group_name_H-M "C M M 2"
_symmetry_group_IT_number 35
_symmetry_cell_setting 'orthorhombic'
loop_
_space_group_symop_operation_xyz
x,y,z
-x,-y,z
-x,y,z
x,-y,z
1/2+x,1/2+y,z
1/2-x,1/2-y,z
1/2-x,1/2+y,z
1/2+x,1/2-y,z
loop_
_atom_site_type_symbol
_atom_site_label
_atom_site_fract_x
_atom_site_fract_y
_atom_site_fract_z
Si Si1 0.200611 0.825443 0.029970
Si Si2 0.303543 0.295825 0.794845
Si Si3 0.197305 0.077144 0.029970
Si Si4 0.802012 0.453743 0.794950
Si Si5 0.802012 0.546257 0.264990
Si Si6 0.198542 0.375162 0.405563
Si Si7 0.803543 0.795825 0.265095
Si Si8 0.198542 0.624838 0.654378
O O1 0.249449 0.874156 0.029970
O O2 0.258704 0.804128 0.141521
O O3 0.000000 0.824268 0.029970
O O4 0.258704 0.804128 0.918419
O O5 0.500000 0.297350 0.797723
O O6 0.250000 0.250000 0.757819
O O7 0.244182 0.333157 0.718152
O O8 0.259727 0.055683 0.139711
O O9 0.000000 0.075961 0.029970
O O10 0.259726 0.055683 0.920229
O O11 0.740906 0.500000 0.764422
O O12 0.739284 0.415649 0.720749
O O13 0.000000 0.454117 0.785058
O O14 0.740906 0.500000 0.295518
O O15 0.739284 0.584352 0.339192
O O16 0.000000 0.545883 0.274882
O O17 0.244182 0.333157 0.341788
O O18 0.258229 0.374699 0.529970
O O19 0.000000 0.377579 0.408018
O O20 0.750000 0.750000 0.302121
O O21 0.000000 0.797350 0.262217
O O22 0.000000 0.622421 0.651922
#
# Coordination Sequence:
#
# PCOD9349705 Si02
#       8
#     8   8   8   8   8   8   8   8
#     4   9  19  35  57  85 116 147 181 227 281 337
#     4  11  22  39  61  87 117 149 187 232 285 341
#     4  11  20  35  58  86 118 152 188 230 283 341
#     4  10  21  37  58  86 118 151 189 235 286 338
#     4  10  21  37  58  86 118 151 189 235 286 338
#     4  10  22  40  60  83 112 150 196 240 283 333
#     4  11  22  39  61  87 117 149 187 232 285 341
#     4  10  22  40  60  83 112 150 196 240 283 333
#
# _framework density 20.058630000000001
#
# number of rings (size 3 to 8) (size 9 to 14) (size 15 to 20)
#    0.000    1.750    2.500    1.875    0.000    3.500 
#    0.000    4.375    0.000    0.000    0.000    3.500 
#    0.000    0.000    0.000    0.000    0.000    0.000 
#
# Total GULP energy -178809.912911 kJ/mol
# GULP energy per Si atom -5587.809778 kJ/mol
# Density = 2.001298 g / cm^3
# Si number density = 20.058630 Si / 1000 Ang^3
#
#
#
# Elastic Constant Matrix: (Units=GPa)
#
#
# Indices 1 2 3 4 5 6 
#
# 1 15.9661 12.4112 10.6902 0.0000 0.0000 0.0000
# 2 12.4112 210.5989 100.1848 0.0000 0.0000 0.0000
# 3 10.6902 100.1848 169.0821 0.0000 0.0000 0.0000
# 4 0.0000 0.0000 0.0000 -5.5258 0.0000 0.0000
# 5 0.0000 0.0000 0.0000 0.0000 10.6260 0.0000
# 6 0.0000 0.0000 0.0000 0.0000 0.0000 22.4272
#
#
#
# Elastic Compliance Matrix: (Units=1/GPa)
#
#
# Indices 1 2 3 4 5 6 
#
# 1 0.066463 -0.002671 -0.002620 0.000000 0.000000 0.000000
# 2 -0.002671 0.006719 -0.003813 0.000000 0.000000 0.000000
# 3 -0.002620 -0.003813 0.008339 0.000000 0.000000 0.000000
# 4 0.000000 0.000000 0.000000 -0.180969 0.000000 0.000000
# 5 0.000000 0.000000 0.000000 0.000000 0.094109 0.000000
# 6 0.000000 0.000000 0.000000 0.000000 0.000000 0.044589
#
#
# Mechanical properties :
#
#
# Convention : Reuss Voigt Hill
#
# Bulk Modulus (GPa) = 15.79400 71.35772 43.57586
# Shear Modulus (GPa) = 63.64567 23.66288 43.65427
#
# Velocity S-wave (km/s) = 5.63903 3.43838 4.67018
# Velocity P-wave (km/s) = 7.09149 7.17043 7.13107
#
# Compressibility (1/GPa) = 0.06331520
#
# Stress axis : x y z
#
# Youngs Moduli (GPa) = 15.04607 148.82207 119.91929
#
# Poissons Ratio (x) = 0.39744 0.31415
# Poissons Ratio (y) = 0.04018 0.45720
# Poissons Ratio (z) = 0.03942 0.56739
#
# Static dielectric constant tensor:
#      x y z
#    x 1.707300 0.000000 0.000000 
#    y 0.000000 1.707610 0.000000 
#    z 0.000000 0.000000 1.685570 
# 
# From -- ./inp_files/11885.got.cif
#   From: 2010.05.17/outbox.cif.g08.bks.cpg/sg35_6_cif.got.tgz:11885.got - 2010.06.03 17:29:28.
