data_PCOD9349656
_publ_section_title
;
Structure prediction by ZEFSAII (Michael W. Deem and Ramdas Pophale) SiO2 
 PCOD9349656
Probable space group: C M M 2
;
_chemical_formula_sum "Si O2"
_cell_formula_units_Z 32
_cell_length_a 18.517409
_cell_length_b 11.770396
_cell_length_c 6.937365
_cell_angle_alpha 90.000000
_cell_angle_beta 90.000000
_cell_angle_gamma 90.000000
_cell_volume 1512.048906
_symmetry_space_group_name_H-M "C M M 2"
_symmetry_group_IT_number 35
_symmetry_cell_setting 'orthorhombic'
loop_
_space_group_symop_operation_xyz
x,y,z
-x,-y,z
-x,y,z
x,-y,z
1/2+x,1/2+y,z
1/2-x,1/2-y,z
1/2-x,1/2+y,z
1/2+x,1/2-y,z
loop_
_atom_site_type_symbol
_atom_site_label
_atom_site_fract_x
_atom_site_fract_y
_atom_site_fract_z
Si Si1 0.328528 0.275384 0.858650
Si Si2 0.916800 0.192545 0.236539
Si Si3 0.420107 0.866330 0.570160
Si Si4 0.714487 0.377170 0.477693
O O1 0.250000 0.250000 0.949633
O O2 0.360607 0.176721 0.720738
O O3 0.310483 0.370759 0.700306
O O4 0.386843 0.298456 0.021240
O O5 0.913069 0.310082 0.359373
O O6 0.857799 0.120686 0.351220
O O7 0.000000 0.154247 0.241751
O O8 0.500000 0.829954 0.642007
O O9 0.418639 0.000000 0.556308
O O10 0.753091 0.500000 0.443961
O O11 0.750000 0.250000 0.440627
#
# Coordination Sequence:
#
# PCOD9349656 Si02
#       4
#     8   8   8   8
#     4  10  21  36  57  87 123 163 205 254 310 372
#     4  10  21  38  60  88 124 164 206 254 311 373
#     4   9  19  37  61  89 122 162 210 262 312 365
#     4  10  23  43  66  92 123 162 208 259 312 367
#
# _framework density 21.163336000000001
#
# number of rings (size 3 to 8) (size 9 to 14) (size 15 to 20)
#    0.000    2.250    0.000    1.500    0.000   13.500 
#    0.000    5.000    0.000    0.000    0.000    0.000 
#    0.000    0.000    0.000    0.000    0.000    0.000 
#
# Total GULP energy -89079.787871 kJ/mol
# GULP energy per Si atom -5567.486742 kJ/mol
# Density = 2.111517 g / cm^3
# Si number density = 21.163336 Si / 1000 Ang^3
#
#
#
# Elastic Constant Matrix: (Units=GPa)
#
#
# Indices 1 2 3 4 5 6 
#
# 1 148.4254 41.0370 46.3077 0.0000 0.0000 0.0000
# 2 41.0370 131.8207 13.9017 0.0000 0.0000 0.0000
# 3 46.3077 13.9017 86.8338 0.0000 0.0000 0.0000
# 4 0.0000 0.0000 0.0000 -219.9178 0.0000 0.0000
# 5 0.0000 0.0000 0.0000 0.0000 49.8190 0.0000
# 6 0.0000 0.0000 0.0000 0.0000 0.0000 11.9387
#
#
#
# Elastic Compliance Matrix: (Units=1/GPa)
#
#
# Indices 1 2 3 4 5 6 
#
# 1 0.008695 -0.002256 -0.004276 0.000000 0.000000 0.000000
# 2 -0.002256 0.008302 -0.000126 0.000000 0.000000 0.000000
# 3 -0.004276 -0.000126 0.013817 0.000000 0.000000 0.000000
# 4 0.000000 0.000000 0.000000 -0.004547 0.000000 0.000000
# 5 0.000000 0.000000 0.000000 0.000000 0.020073 0.000000
# 6 0.000000 0.000000 0.000000 0.000000 0.000000 0.083762
#
#
# Mechanical properties :
#
#
# Convention : Reuss Voigt Hill
#
# Bulk Modulus (GPa) = 57.14974 63.28586 60.21780
# Shear Modulus (GPa) = 33.50109 -13.90980 9.79565
#
# Velocity S-wave (km/s) = 3.98298 -2.56649 2.15375
# Velocity P-wave (km/s) = 6.94370 4.60282 5.89071
#
# Compressibility (1/GPa) = 0.01749789
#
# Stress axis : x y z
#
# Youngs Moduli (GPa) = 115.00629 120.45799 72.37611
#
# Poissons Ratio (x) = 0.27175 0.30947
# Poissons Ratio (y) = 0.25945 0.00912
# Poissons Ratio (z) = 0.49175 0.01517
#
# Static dielectric constant tensor:
#      x y z
#    x 1.842460 0.000000 0.000000 
#    y 0.000000 1.799610 0.000000 
#    z 0.000000 0.000000 1.750650 
# 
# From -- ./inp_files/2830.got.cif
#   From: 2010.05.17/outbox.cif.g08.bks.cpg/sg35_2_cif.got.tgz:2830.got - 2010.06.03 17:29:28.
