data_PCOD9349503
_publ_section_title
;
Structure prediction by ZEFSAII (Michael W. Deem and Ramdas Pophale) SiO2 
 PCOD9349503
Probable space group: C M M 2
;
_chemical_formula_sum "Si O2"
_cell_formula_units_Z 48
_cell_length_a 21.966939
_cell_length_b 17.933393
_cell_length_c 5.258722
_cell_angle_alpha 90.000000
_cell_angle_beta 90.000000
_cell_angle_gamma 90.000000
_cell_volume 2071.630148
_symmetry_space_group_name_H-M "C M M 2"
_symmetry_group_IT_number 35
_symmetry_cell_setting 'orthorhombic'
loop_
_space_group_symop_operation_xyz
x,y,z
-x,-y,z
-x,y,z
x,-y,z
1/2+x,1/2+y,z
1/2-x,1/2-y,z
1/2-x,1/2+y,z
1/2+x,1/2-y,z
loop_
_atom_site_type_symbol
_atom_site_label
_atom_site_fract_x
_atom_site_fract_y
_atom_site_fract_z
Si Si1 0.634965 0.083226 0.079380
Si Si2 0.670948 0.209319 0.699720
Si Si3 0.390050 0.584707 0.440718
Si Si4 0.565531 0.795160 0.311712
Si Si5 0.744084 0.083983 0.479361
Si Si6 0.899024 0.176567 0.937189
O O1 0.582292 0.119887 0.248913
O O2 0.698950 0.084392 0.235717
O O3 0.620827 0.000000 0.005035
O O4 0.642062 0.138574 0.845804
O O5 0.624335 0.229983 0.473469
O O6 0.729678 0.165938 0.597858
O O7 0.665955 0.280644 0.885238
O O8 0.411624 0.500000 0.465192
O O9 0.316212 0.583804 0.445581
O O10 0.414226 0.633413 0.677788
O O11 0.403724 0.618287 0.165583
O O12 0.500000 0.787300 0.438955
O O13 0.564530 0.746322 0.054063
O O14 0.731215 0.000000 0.600798
#
# Coordination Sequence:
#
# PCOD9349503 Si02
#       6
#     8   8   8   8   8   8
#     4   9  19  36  58  91 133 173 218 261 302 371
#     4  10  20  38  60  92 131 169 216 255 309 375
#     4  11  24  43  67  93 127 168 210 260 327 389
#     4  10  22  42  65  89 125 172 215 269 333 380
#     4   9  20  37  59  90 131 178 214 252 308 372
#     4  11  23  44  62  97 125 162 208 268 317 381
#
# _framework density 23.170159000000002
#
# number of rings (size 3 to 8) (size 9 to 14) (size 15 to 20)
#    0.000    2.000    1.667    1.000    2.333    4.333 
#    6.000    0.000    0.000    3.000    0.000    0.000 
#    0.000    0.000    0.000    0.000    0.000    0.000 
#
# Total GULP energy -133614.871178 kJ/mol
# GULP energy per Si atom -5567.286299 kJ/mol
# Density = 2.311742 g / cm^3
# Si number density = 23.170159 Si / 1000 Ang^3
#
#
#
# Elastic Constant Matrix: (Units=GPa)
#
#
# Indices 1 2 3 4 5 6 
#
# 1 59.5002 -27.4197 3.8032 0.0000 0.0000 0.0000
# 2 -27.4197 91.9857 34.1703 0.0000 0.0000 0.0000
# 3 3.8032 34.1703 97.6756 0.0000 0.0000 0.0000
# 4 0.0000 0.0000 0.0000 38.2692 0.0000 0.0000
# 5 0.0000 0.0000 0.0000 0.0000 10.9281 0.0000
# 6 0.0000 0.0000 0.0000 0.0000 0.0000 0.1399
#
#
#
# Elastic Compliance Matrix: (Units=1/GPa)
#
#
# Indices 1 2 3 4 5 6 
#
# 1 0.020398 0.007328 -0.003358 0.000000 0.000000 0.000000
# 2 0.007328 0.015127 -0.005577 0.000000 0.000000 0.000000
# 3 -0.003358 -0.005577 0.012320 0.000000 0.000000 0.000000
# 4 0.000000 0.000000 0.000000 0.026131 0.000000 0.000000
# 5 0.000000 0.000000 0.000000 0.000000 0.091507 0.000000
# 6 0.000000 0.000000 0.000000 0.000000 0.000000 7.146866
#
#
# Mechanical properties :
#
#
# Convention : Reuss Voigt Hill
#
# Bulk Modulus (GPa) = 22.40614 30.02990 26.21802
# Shear Modulus (GPa) = 0.68209 25.77463 13.22836
#
# Velocity S-wave (km/s) = 0.54316 3.33889 2.39199
# Velocity P-wave (km/s) = 3.17563 5.27760 4.35532
#
# Compressibility (1/GPa) = 0.04463062
#
# Stress axis : x y z
#
# Youngs Moduli (GPa) = 49.02404 66.10509 81.16960
#
# Poissons Ratio (x) = -0.48440 0.27255
# Poissons Ratio (y) = -0.35924 0.45272
# Poissons Ratio (z) = 0.16461 0.36870
#
# Static dielectric constant tensor:
#      x y z
#    x 1.961000 0.000000 0.000000 
#    y 0.000000 1.929420 0.000000 
#    z 0.000000 0.000000 1.933730 
# 
# From -- ./inp_files/2554.got.cif
#   From: 2010.05.17/outbox.cif.g08.bks.cpg/sg35_2_cif.got.tgz:2554.got - 2010.06.03 17:29:28.
