data_PCOD9349259
_publ_section_title
;
Structure prediction by ZEFSAII (Michael W. Deem and Ramdas Pophale) SiO2 
 PCOD9349259
Probable space group: C M M 2
;
_chemical_formula_sum "Si O2"
_cell_formula_units_Z 48
_cell_length_a 8.730800
_cell_length_b 28.549373
_cell_length_c 10.473996
_cell_angle_alpha 90.000000
_cell_angle_beta 90.000000
_cell_angle_gamma 90.000000
_cell_volume 2610.736363
_symmetry_space_group_name_H-M "C M M 2"
_symmetry_group_IT_number 35
_symmetry_cell_setting 'orthorhombic'
loop_
_space_group_symop_operation_xyz
x,y,z
-x,-y,z
-x,y,z
x,-y,z
1/2+x,1/2+y,z
1/2-x,1/2-y,z
1/2-x,1/2+y,z
1/2+x,1/2-y,z
loop_
_atom_site_type_symbol
_atom_site_label
_atom_site_fract_x
_atom_site_fract_y
_atom_site_fract_z
Si Si1 0.820225 0.556046 0.668630
Si Si2 0.316664 0.299722 0.530408
Si Si3 0.816991 0.300461 0.814165
Si Si4 0.317565 0.606434 0.914942
Si Si5 0.183280 0.898340 0.414725
Si Si6 0.683669 0.944982 0.161570
O O1 0.808986 0.500000 0.673606
O O2 0.735438 0.578470 0.789053
O O3 0.747465 0.574764 0.538225
O O4 0.000000 0.569066 0.673664
O O5 0.500000 0.296095 0.546241
O O6 0.250000 0.250000 0.486008
O O7 0.243862 0.309334 0.669771
O O8 0.283103 0.343395 0.438829
O O9 0.750000 0.250000 0.852200
O O10 0.755983 0.342177 0.901874
O O11 0.000000 0.299168 0.812782
O O12 0.500000 0.610205 0.917621
O O13 0.257229 0.579267 0.038431
O O14 0.258695 0.919176 0.288503
O O15 0.000000 0.903867 0.408445
O O16 0.500000 0.941882 0.152983
O O17 0.725310 0.000000 0.166773
#
# Coordination Sequence:
#
# PCOD9349259 Si02
#       6
#     8   8   8   8   8   8
#     4  11  23  38  59  88 120 156 202 254 307 363
#     4  10  20  35  58  90 124 159 200 248 301 361
#     4  11  21  36  61  91 125 161 200 249 305 363
#     4  12  24  40  62  90 122 159 205 253 307 367
#     4  11  23  39  61  90 123 159 204 252 305 366
#     4  11  25  44  64  87 120 163 208 254 311 374
#
# _framework density 18.385617
#
# number of rings (size 3 to 8) (size 9 to 14) (size 15 to 20)
#    0.000    1.000    1.667    7.000    0.000    8.667 
#    0.000    0.833    0.000    2.000    0.000    0.000 
#    0.000    0.000    0.000    0.000    0.000    0.000 
#
# Total GULP energy -134250.266562 kJ/mol
# GULP energy per Si atom -5593.761107 kJ/mol
# Density = 1.834377 g / cm^3
# Si number density = 18.385617 Si / 1000 Ang^3
#
#
#
# Elastic Constant Matrix: (Units=GPa)
#
#
# Indices 1 2 3 4 5 6 
#
# 1 135.6853 86.5377 59.0402 0.0000 0.0000 0.0000
# 2 86.5377 152.6612 76.4705 0.0000 0.0000 0.0000
# 3 59.0402 76.4705 133.6060 0.0000 0.0000 0.0000
# 4 0.0000 0.0000 0.0000 28.0480 0.0000 0.0000
# 5 0.0000 0.0000 0.0000 0.0000 35.6568 0.0000
# 6 0.0000 0.0000 0.0000 0.0000 0.0000 38.4811
#
#
#
# Elastic Compliance Matrix: (Units=1/GPa)
#
#
# Indices 1 2 3 4 5 6 
#
# 1 0.011898 -0.005763 -0.001959 0.000000 0.000000 0.000000
# 2 -0.005763 0.011975 -0.004307 0.000000 0.000000 0.000000
# 3 -0.001959 -0.004307 0.010816 0.000000 0.000000 0.000000
# 4 0.000000 0.000000 0.000000 0.035653 0.000000 0.000000
# 5 0.000000 0.000000 0.000000 0.000000 0.028045 0.000000
# 6 0.000000 0.000000 0.000000 0.000000 0.000000 0.025987
#
#
# Mechanical properties :
#
#
# Convention : Reuss Voigt Hill
#
# Bulk Modulus (GPa) = 94.07640 96.22770 95.15205
# Shear Modulus (GPa) = 32.89988 33.76412 33.33200
#
# Velocity S-wave (km/s) = 4.23476 4.29002 4.26248
# Velocity P-wave (km/s) = 8.67125 8.77447 8.72301
#
# Compressibility (1/GPa) = 0.01062966
#
# Stress axis : x y z
#
# Youngs Moduli (GPa) = 84.04664 83.50760 92.45817
#
# Poissons Ratio (x) = 0.48127 0.18114
# Poissons Ratio (y) = 0.48438 0.39824
# Poissons Ratio (z) = 0.16466 0.35968
#
# Static dielectric constant tensor:
#      x y z
#    x 1.614930 0.000000 0.000000 
#    y 0.000000 1.639290 0.000000 
#    z 0.000000 0.000000 1.587890 
# 
# From -- ./inp_files/5324.got.cif
#   From: 2010.05.17/outbox.cif.g08.bks.cpg/sg35_3_cif.got.tgz:5324.got - 2010.06.03 17:29:28.
