data_PCOD9349817
_publ_section_title
;
Structure prediction by ZEFSAII (Michael W. Deem and Ramdas Pophale) SiO2 
 PCOD9349817
Probable space group: C M M 2
;
_chemical_formula_sum "Si O2"
_cell_formula_units_Z 48
_cell_length_a 16.277723
_cell_length_b 24.615212
_cell_length_c 5.146808
_cell_angle_alpha 90.000000
_cell_angle_beta 90.000000
_cell_angle_gamma 90.000000
_cell_volume 2062.220984
_symmetry_space_group_name_H-M "C M M 2"
_symmetry_group_IT_number 35
_symmetry_cell_setting 'orthorhombic'
loop_
_space_group_symop_operation_xyz
x,y,z
-x,-y,z
-x,y,z
x,-y,z
1/2+x,1/2+y,z
1/2-x,1/2-y,z
1/2-x,1/2+y,z
1/2+x,1/2-y,z
loop_
_atom_site_type_symbol
_atom_site_label
_atom_site_fract_x
_atom_site_fract_y
_atom_site_fract_z
Si Si1 0.000000 0.693978 0.491951
Si Si2 0.756075 0.934646 0.330457
Si Si3 0.403351 0.668054 0.013098
Si Si4 0.000000 0.376827 0.992027
Si Si5 0.165479 0.434355 0.830773
Si Si6 0.843157 0.228323 0.499634
Si Si7 0.592806 0.561543 0.695364
O O1 0.000000 0.645464 0.283427
O O2 0.084180 0.727801 0.451572
O O3 0.000000 0.672607 0.786943
O O4 0.732019 0.915405 0.044879
O O5 0.843059 0.926958 0.468606
O O6 0.746663 0.000000 0.315779
O O7 0.691122 0.913989 0.546264
O O8 0.500000 0.682398 0.043417
O O9 0.364435 0.701745 0.775998
O O10 0.401842 0.605794 0.920082
O O11 0.356028 0.684325 0.272220
O O12 0.920392 0.412191 0.927996
O O13 0.164192 0.500000 0.820284
O O14 0.750000 0.250000 0.494993
O O15 0.500000 0.564050 0.590823
O O16 0.608380 0.500000 0.792636
#
# Coordination Sequence:
#
# PCOD9349817 Si02
#       7
#     4   8   8   4   8   8   8
#     4  12  26  46  65  96 137 160 224 290 346 404
#     4   9  19  36  58  87 133 179 216 270 317 381
#     4  11  22  44  72  99 139 184 224 287 360 420
#     4  12  25  40  68  96 130 168 211 288 346 392
#     4  10  21  39  61  90 130 178 224 263 336 415
#     4  12  26  47  73  99 131 183 235 290 351 418
#     4   9  20  39  67 104 141 181 230 278 336 418
#
# _framework density 23.275877000000001
#
# number of rings (size 3 to 8) (size 9 to 14) (size 15 to 20)
#    0.000    1.500    1.667    2.750    0.000    5.333 
#    0.000    8.333    0.000   13.000    0.000    1.167 
#    0.000    0.000    0.000    0.000    0.000    0.000 
#
# Total GULP energy -134404.162387 kJ/mol
# GULP energy per Si atom -5600.173433 kJ/mol
# Density = 2.322290 g / cm^3
# Si number density = 23.275877 Si / 1000 Ang^3
#
#
#
# Elastic Constant Matrix: (Units=GPa)
#
#
# Indices 1 2 3 4 5 6 
#
# 1 171.4059 42.7945 13.2764 0.0000 0.0000 0.0000
# 2 42.7945 58.6795 16.0152 0.0000 0.0000 0.0000
# 3 13.2764 16.0152 84.4922 0.0000 0.0000 0.0000
# 4 0.0000 0.0000 0.0000 27.6592 0.0000 0.0000
# 5 0.0000 0.0000 0.0000 0.0000 26.0544 0.0000
# 6 0.0000 0.0000 0.0000 0.0000 0.0000 20.2054
#
#
#
# Elastic Compliance Matrix: (Units=1/GPa)
#
#
# Indices 1 2 3 4 5 6 
#
# 1 0.007134 -0.005164 -0.000142 0.000000 0.000000 0.000000
# 2 -0.005164 0.021710 -0.003304 0.000000 0.000000 0.000000
# 3 -0.000142 -0.003304 0.012484 0.000000 0.000000 0.000000
# 4 0.000000 0.000000 0.000000 0.036154 0.000000 0.000000
# 5 0.000000 0.000000 0.000000 0.000000 0.038381 0.000000
# 6 0.000000 0.000000 0.000000 0.000000 0.000000 0.049492
#
#
# Mechanical properties :
#
#
# Convention : Reuss Voigt Hill
#
# Bulk Modulus (GPa) = 41.47995 50.97221 46.22608
# Shear Modulus (GPa) = 26.23139 30.94990 28.59064
#
# Velocity S-wave (km/s) = 3.36069 3.65046 3.50857
# Velocity P-wave (km/s) = 5.73748 6.30194 6.02632
#
# Compressibility (1/GPa) = 0.02410804
#
# Stress axis : x y z
#
# Youngs Moduli (GPa) = 140.16440 46.06248 80.10306
#
# Poissons Ratio (x) = 0.23788 0.01139
# Poissons Ratio (y) = 0.72385 0.26462
# Poissons Ratio (z) = 0.01993 0.15217
#
# Static dielectric constant tensor:
#      x y z
#    x 1.871890 0.000000 0.000000 
#    y 0.000000 1.903460 0.000000 
#    z 0.000000 0.000000 1.830090 
# 
# From -- ./inp_files/1958.got.cif
#   From: 2010.05.17/outbox.cif.g08.bks.cpg/sg35_1_cif.got.tgz:1958.got - 2010.06.03 17:29:28.
