data_PCOD9349685
_publ_section_title
;
Structure prediction by ZEFSAII (Michael W. Deem and Ramdas Pophale) SiO2 
 PCOD9349685
Probable space group: C M M 2
;
_chemical_formula_sum "Si O2"
_cell_formula_units_Z 48
_cell_length_a 8.917115
_cell_length_b 18.883741
_cell_length_c 15.665992
_cell_angle_alpha 90.000000
_cell_angle_beta 90.000000
_cell_angle_gamma 90.000000
_cell_volume 2637.972739
_symmetry_space_group_name_H-M "C M M 2"
_symmetry_group_IT_number 35
_symmetry_cell_setting 'orthorhombic'
loop_
_space_group_symop_operation_xyz
x,y,z
-x,-y,z
-x,y,z
x,-y,z
1/2+x,1/2+y,z
1/2-x,1/2-y,z
1/2-x,1/2+y,z
1/2+x,1/2-y,z
loop_
_atom_site_type_symbol
_atom_site_label
_atom_site_fract_x
_atom_site_fract_y
_atom_site_fract_z
Si Si1 0.680382 0.917856 0.103180
Si Si2 0.180183 0.671988 0.934569
Si Si3 0.320954 0.672524 0.252548
Si Si4 0.820852 0.916180 0.780399
Si Si5 0.320737 0.327337 0.448809
Si Si6 0.674912 0.084848 0.599302
O O1 0.500000 0.914810 0.112634
O O2 0.755523 0.882495 0.185233
O O3 0.723601 0.000000 0.093097
O O4 0.719966 0.872590 0.019355
O O5 0.250000 0.750000 0.939129
O O6 0.243718 0.630108 0.853227
O O7 0.000000 0.676612 0.929261
O O8 0.500000 0.677687 0.243662
O O9 0.250000 0.750000 0.237275
O O10 0.286604 0.651840 0.350671
O O11 0.757586 0.895915 0.687418
O O12 0.000000 0.907183 0.782536
O O13 0.787591 0.000000 0.793580
O O14 0.500000 0.323951 0.457885
O O15 0.250000 0.250000 0.461849
O O16 0.251606 0.379200 0.518386
O O17 0.500000 0.104843 0.604214
O O18 0.684298 0.000000 0.591018
#
# Coordination Sequence:
#
# PCOD9349685 Si02
#       6
#     8   8   8   8   8   8
#     4  10  22  39  59  84 114 148 185 228 278 331
#     4  11  23  39  59  84 114 147 186 230 277 330
#     4  10  21  37  58  83 112 148 188 232 280 330
#     4  10  21  38  60  85 113 146 185 230 279 330
#     4  10  21  37  57  82 113 148 188 233 280 330
#     4  10  21  37  58  84 114 149 187 228 277 332
#
# _framework density 18.195791
#
# number of rings (size 3 to 8) (size 9 to 14) (size 15 to 20)
#    0.000    1.833    0.000    3.500    0.000    9.000 
#    0.000    6.667    0.000    0.000    0.000    0.000 
#    0.000    0.000    0.000    0.000    0.000    0.000 
#
# Total GULP energy -134111.397935 kJ/mol
# GULP energy per Si atom -5587.974914 kJ/mol
# Density = 1.815438 g / cm^3
# Si number density = 18.195791 Si / 1000 Ang^3
#
#
#
# Elastic Constant Matrix: (Units=GPa)
#
#
# Indices 1 2 3 4 5 6 
#
# 1 79.9660 67.1145 78.4791 0.0000 0.0000 0.0000
# 2 67.1145 115.5797 105.5107 0.0000 0.0000 0.0000
# 3 78.4791 105.5107 163.1176 0.0000 0.0000 0.0000
# 4 0.0000 0.0000 0.0000 41.1924 0.0000 0.0000
# 5 0.0000 0.0000 0.0000 0.0000 36.2843 0.0000
# 6 0.0000 0.0000 0.0000 0.0000 0.0000 31.7434
#
#
#
# Elastic Compliance Matrix: (Units=1/GPa)
#
#
# Indices 1 2 3 4 5 6 
#
# 1 0.027353 -0.009449 -0.007048 0.000000 0.000000 0.000000
# 2 -0.009449 0.024392 -0.011231 0.000000 0.000000 0.000000
# 3 -0.007048 -0.011231 0.016786 0.000000 0.000000 0.000000
# 4 0.000000 0.000000 0.000000 0.024276 0.000000 0.000000
# 5 0.000000 0.000000 0.000000 0.000000 0.027560 0.000000
# 6 0.000000 0.000000 0.000000 0.000000 0.000000 0.031503
#
#
# Mechanical properties :
#
#
# Convention : Reuss Voigt Hill
#
# Bulk Modulus (GPa) = 76.48767 95.65244 86.07005
# Shear Modulus (GPa) = 23.61998 29.01460 26.31729
#
# Velocity S-wave (km/s) = 3.60683 3.99755 3.80720
# Velocity P-wave (km/s) = 7.71186 8.60173 8.16892
#
# Compressibility (1/GPa) = 0.01307400
#
# Stress axis : x y z
#
# Youngs Moduli (GPa) = 36.55943 40.99699 59.57242
#
# Poissons Ratio (x) = 0.38739 0.41985
# Poissons Ratio (y) = 0.34546 0.66908
# Poissons Ratio (z) = 0.25766 0.46046
#
# Static dielectric constant tensor:
#      x y z
#    x 1.607840 0.000000 0.000000 
#    y 0.000000 1.596020 0.000000 
#    z 0.000000 0.000000 1.598540 
# 
# From -- ./inp_files/15091.got.cif
#   From: 2010.05.17/outbox.cif.g08.bks.cpg/sg35_8_cif.got.tgz:15091.got - 2010.06.03 17:29:28.
