data_PCOD9349214
_publ_section_title
;
Structure prediction by ZEFSAII (Michael W. Deem and Ramdas Pophale) SiO2 
 PCOD9349214
Probable space group: C M M 2
;
_chemical_formula_sum "Si O2"
_cell_formula_units_Z 48
_cell_length_a 15.887038
_cell_length_b 8.578011
_cell_length_c 18.031804
_cell_angle_alpha 90.000000
_cell_angle_beta 90.000000
_cell_angle_gamma 90.000000
_cell_volume 2457.359584
_symmetry_space_group_name_H-M "C M M 2"
_symmetry_group_IT_number 35
_symmetry_cell_setting 'orthorhombic'
loop_
_space_group_symop_operation_xyz
x,y,z
-x,-y,z
-x,y,z
x,-y,z
1/2+x,1/2+y,z
1/2-x,1/2-y,z
1/2-x,1/2+y,z
1/2+x,1/2-y,z
loop_
_atom_site_type_symbol
_atom_site_label
_atom_site_fract_x
_atom_site_fract_y
_atom_site_fract_z
Si Si1 0.000000 0.810407 0.853890
Si Si2 0.654692 0.311627 0.749158
Si Si3 0.155819 0.311643 0.273568
Si Si4 0.156120 0.185388 0.584637
Si Si5 0.346693 0.686727 0.117461
Si Si6 0.000000 0.313720 0.020334
Si Si7 0.098555 0.327302 0.432665
O O1 0.915810 0.764484 0.808415
O O2 0.000000 0.000000 0.859602
O O3 0.000000 0.736205 0.934648
O O4 0.659373 0.500000 0.750204
O O5 0.750000 0.250000 0.761256
O O6 0.624502 0.263506 0.666068
O O7 0.149200 0.500000 0.271972
O O8 0.250000 0.250000 0.268893
O O9 0.118317 0.244872 0.197608
O O10 0.126250 0.255507 0.354440
O O11 0.250000 0.250000 0.580770
O O12 0.113517 0.241282 0.509485
O O13 0.155731 0.000000 0.584511
O O14 0.342067 0.500000 0.116973
O O15 0.250000 0.750000 0.106461
O O16 0.415016 0.746221 0.058243
O O17 0.000000 0.500000 0.028363
O O18 0.139128 0.500000 0.438723
O O19 0.000000 0.344712 0.424747
#
# Coordination Sequence:
#
# PCOD9349214 Si02
#       7
#     4   8   8   8   8   4   8
#     4  10  22  42  64  89 122 159 196 245 304 367
#     4   9  20  38  62  88 120 157 199 247 303 359
#     4  10  20  36  58  82 114 156 199 246 299 353
#     4  10  20  35  57  82 111 152 198 245 295 350
#     4  11  23  42  67  96 126 163 207 253 307 367
#     4  12  26  44  66  95 128 163 202 249 306 371
#     4  10  22  36  51  79 117 157 197 244 296 344
#
# _framework density 19.533162000000001
#
# number of rings (size 3 to 8) (size 9 to 14) (size 15 to 20)
#    0.000    1.833    0.000    4.750    2.333    5.000 
#    0.000    1.667    0.000    0.000    0.000    0.000 
#    0.000    0.000    0.000    0.000    0.000    0.000 
#
# Total GULP energy -133815.370915 kJ/mol
# GULP energy per Si atom -5575.640455 kJ/mol
# Density = 1.948870 g / cm^3
# Si number density = 19.533162 Si / 1000 Ang^3
#
#
#
# Elastic Constant Matrix: (Units=GPa)
#
#
# Indices 1 2 3 4 5 6 
#
# 1 83.2053 24.9959 80.1023 0.0000 0.0000 0.0000
# 2 24.9959 73.1795 45.3364 0.0000 0.0000 0.0000
# 3 80.1023 45.3364 189.9747 0.0000 0.0000 0.0000
# 4 0.0000 0.0000 0.0000 34.1598 0.0000 0.0000
# 5 0.0000 0.0000 0.0000 0.0000 44.9905 0.0000
# 6 0.0000 0.0000 0.0000 0.0000 0.0000 21.4833
#
#
#
# Elastic Compliance Matrix: (Units=1/GPa)
#
#
# Indices 1 2 3 4 5 6 
#
# 1 0.020460 -0.001929 -0.008167 0.000000 0.000000 0.000000
# 2 -0.001929 0.016218 -0.003057 0.000000 0.000000 0.000000
# 3 -0.008167 -0.003057 0.009437 0.000000 0.000000 0.000000
# 4 0.000000 0.000000 0.000000 0.029274 0.000000 0.000000
# 5 0.000000 0.000000 0.000000 0.000000 0.022227 0.000000
# 6 0.000000 0.000000 0.000000 0.000000 0.000000 0.046548
#
#
# Mechanical properties :
#
#
# Convention : Reuss Voigt Hill
#
# Bulk Modulus (GPa) = 50.48100 71.91429 61.19764
# Shear Modulus (GPa) = 28.23718 33.18838 30.71278
#
# Velocity S-wave (km/s) = 3.80623 4.12646 3.96958
# Velocity P-wave (km/s) = 6.72431 7.72010 7.23935
#
# Compressibility (1/GPa) = 0.01980943
#
# Stress axis : x y z
#
# Youngs Moduli (GPa) = 48.87596 61.66076 105.96874
#
# Poissons Ratio (x) = 0.11895 0.86539
# Poissons Ratio (y) = 0.09429 0.32393
# Poissons Ratio (z) = 0.39915 0.18849
#
# Static dielectric constant tensor:
#      x y z
#    x 1.651670 0.000000 0.000000 
#    y 0.000000 1.715750 0.000000 
#    z 0.000000 0.000000 1.756000 
# 
# From -- ./inp_files/15252.got.cif
#   From: 2010.05.17/outbox.cif.g08.bks.cpg/sg35_8_cif.got.tgz:15252.got - 2010.06.03 17:29:28.
