data_PCOD9349025
_publ_section_title
;
Structure prediction by ZEFSAII (Michael W. Deem and Ramdas Pophale) SiO2 
 PCOD9349025
Probable space group: C M M 2
;
_chemical_formula_sum "Si O2"
_cell_formula_units_Z 40
_cell_length_a 18.816259
_cell_length_b 8.537210
_cell_length_c 13.195792
_cell_angle_alpha 90.000000
_cell_angle_beta 90.000000
_cell_angle_gamma 90.000000
_cell_volume 2119.750313
_symmetry_space_group_name_H-M "C M M 2"
_symmetry_group_IT_number 35
_symmetry_cell_setting 'orthorhombic'
loop_
_space_group_symop_operation_xyz
x,y,z
-x,-y,z
-x,y,z
x,-y,z
1/2+x,1/2+y,z
1/2-x,1/2-y,z
1/2-x,1/2+y,z
1/2+x,1/2-y,z
loop_
_atom_site_type_symbol
_atom_site_label
_atom_site_fract_x
_atom_site_fract_y
_atom_site_fract_z
Si Si1 0.329730 0.310420 0.341000
Si Si2 0.670166 0.814194 0.952779
Si Si3 0.081885 0.189466 0.143234
Si Si4 0.581657 0.690810 0.534334
Si Si5 0.583287 0.311082 0.764132
O O1 0.328714 0.500000 0.341867
O O2 0.250000 0.250000 0.331344
O O3 0.377302 0.260801 0.245164
O O4 0.366283 0.256266 0.445627
O O5 0.750000 0.750000 0.958111
O O6 0.632893 0.763435 0.848292
O O7 0.672185 0.000000 0.959818
O O8 0.623767 0.747829 0.045279
O O9 0.000000 0.242204 0.142911
O O10 0.081659 0.000000 0.141615
O O11 0.500000 0.738592 0.514350
O O12 0.581795 0.500000 0.533839
O O13 0.601024 0.738158 0.648837
O O14 0.500000 0.272965 0.782025
O O15 0.589471 0.500000 0.769997
#
# Coordination Sequence:
#
# PCOD9349025 Si02
#       5
#     8   8   8   8   8
#     4  10  20  34  54  81 112 144 179 220 267 319
#     4  12  25  39  56  79 110 145 182 226 274 324
#     4  10  21  38  60  83 108 141 181 224 271 325
#     4   8  15  31  56  82 107 140 182 222 261 313
#     4   9  18  35  59  84 111 144 182 224 270 322
#
# _framework density 18.870146999999999
#
# number of rings (size 3 to 8) (size 9 to 14) (size 15 to 20)
#    0.000    2.200    0.000    4.800    0.000    8.800 
#    0.000    3.000    0.000    3.000    0.000    0.000 
#    0.000    0.000    0.000    0.000    0.000    0.000 
#
# Total GULP energy -111695.161361 kJ/mol
# GULP energy per Si atom -5584.758068 kJ/mol
# Density = 1.882720 g / cm^3
# Si number density = 18.870147 Si / 1000 Ang^3
#
#
#
# Elastic Constant Matrix: (Units=GPa)
#
#
# Indices 1 2 3 4 5 6 
#
# 1 182.8291 34.2912 132.4112 0.0000 0.0000 0.0000
# 2 34.2912 16.8229 30.4102 0.0000 0.0000 0.0000
# 3 132.4112 30.4102 176.2851 0.0000 0.0000 0.0000
# 4 0.0000 0.0000 0.0000 -8.3504 0.0000 0.0000
# 5 0.0000 0.0000 0.0000 0.0000 -34.5878 0.0000
# 6 0.0000 0.0000 0.0000 0.0000 0.0000 27.1951
#
#
#
# Elastic Compliance Matrix: (Units=1/GPa)
#
#
# Indices 1 2 3 4 5 6 
#
# 1 0.013879 -0.013727 -0.008057 0.000000 0.000000 0.000000
# 2 -0.013727 0.099954 -0.006932 0.000000 0.000000 0.000000
# 3 -0.008057 -0.006932 0.012920 0.000000 0.000000 0.000000
# 4 0.000000 0.000000 0.000000 -0.119754 0.000000 0.000000
# 5 0.000000 0.000000 0.000000 0.000000 -0.028912 0.000000
# 6 0.000000 0.000000 0.000000 0.000000 0.000000 0.036771
#
#
# Mechanical properties :
#
#
# Convention : Reuss Voigt Hill
#
# Bulk Modulus (GPa) = 14.42552 85.57357 49.99955
# Shear Modulus (GPa) = 52.41164 8.77299 30.59232
#
# Velocity S-wave (km/s) = 5.27591 2.15852 4.03078
# Velocity P-wave (km/s) = 6.69140 7.18745 6.94385
#
# Compressibility (1/GPa) = 0.06932157
#
# Stress axis : x y z
#
# Youngs Moduli (GPa) = 72.04912 10.00461 77.39689
#
# Poissons Ratio (x) = 0.13733 0.62360
# Poissons Ratio (y) = 0.98899 0.53654
# Poissons Ratio (z) = 0.58051 0.06936
#
# Static dielectric constant tensor:
#      x y z
#    x 1.623040 0.000000 0.000000 
#    y 0.000000 1.647150 0.000000 
#    z 0.000000 0.000000 1.644570 
# 
# From -- ./inp_files/11013.got.cif
#   From: 2010.05.17/outbox.cif.g08.bks.cpg/sg35_6_cif.got.tgz:11013.got - 2010.06.03 17:29:28.
