data_PCOD9349509
_publ_section_title
;
Structure prediction by ZEFSAII (Michael W. Deem and Ramdas Pophale) SiO2 
 PCOD9349509
Probable space group: C M M 2
;
_chemical_formula_sum "Si O2"
_cell_formula_units_Z 48
_cell_length_a 15.230188
_cell_length_b 8.667042
_cell_length_c 19.529603
_cell_angle_alpha 90.000000
_cell_angle_beta 90.000000
_cell_angle_gamma 90.000000
_cell_volume 2577.920858
_symmetry_space_group_name_H-M "C M M 2"
_symmetry_group_IT_number 35
_symmetry_cell_setting 'orthorhombic'
loop_
_space_group_symop_operation_xyz
x,y,z
-x,-y,z
-x,y,z
x,-y,z
1/2+x,1/2+y,z
1/2-x,1/2-y,z
1/2-x,1/2+y,z
1/2+x,1/2-y,z
loop_
_atom_site_type_symbol
_atom_site_label
_atom_site_fract_x
_atom_site_fract_y
_atom_site_fract_z
Si Si1 0.156631 0.815011 0.291690
Si Si2 0.156919 0.816973 0.000332
Si Si3 0.000000 0.685265 0.910534
Si Si4 0.649751 0.813483 0.646853
Si Si5 0.500000 0.813102 0.753623
Si Si6 0.000000 0.187492 0.389969
Si Si7 0.394418 0.178050 0.145046
Si Si8 0.500000 0.313206 0.548179
O O1 0.250000 0.750000 0.312804
O O2 0.135136 0.752581 0.216082
O O3 0.083959 0.762953 0.346109
O O4 0.157342 0.000000 0.289143
O O5 0.250000 0.750000 0.978850
O O6 0.139959 0.766079 0.078630
O O7 0.155181 0.000000 0.996064
O O8 0.083229 0.745621 0.952050
O O9 0.000000 0.500000 0.911195
O O10 0.000000 0.739742 0.831883
O O11 0.750000 0.750000 0.647609
O O12 0.588771 0.768010 0.712590
O O13 0.587827 0.751130 0.585208
O O14 0.653645 0.000000 0.643729
O O15 0.500000 0.000000 0.753666
O O16 0.000000 0.235132 0.468714
O O17 0.000000 0.000000 0.390339
O O18 0.500000 0.180868 0.142707
O O19 0.364735 0.000000 0.142142
O O20 0.500000 0.500000 0.553023
#
# Coordination Sequence:
#
# PCOD9349509 Si02
#       8
#     8   8   4   8   4   4   8   4
#     4  11  22  39  59  83 114 151 194 242 295 351
#     4  12  25  41  61  86 117 156 199 245 296 351
#     4  11  22  41  63  88 121 155 192 241 294 350
#     4  10  20  38  62  92 122 156 196 237 286 342
#     4   8  19  38  61  87 121 156 192 238 288 342
#     4   9  21  39  59  82 117 155 192 237 290 348
#     4  11  22  38  61  86 113 148 195 248 298 351
#     4  10  20  38  61  89 121 156 196 242 290 342
#
# _framework density 18.619657
#
# number of rings (size 3 to 8) (size 9 to 14) (size 15 to 20)
#    0.000    1.500    1.667    4.500    0.000    2.000 
#    0.000   11.667    0.000    0.000    0.000    0.000 
#    0.000    0.000    0.000    0.000    0.000    0.000 
#
# Total GULP energy -134079.168819 kJ/mol
# GULP energy per Si atom -5586.632034 kJ/mol
# Density = 1.857728 g / cm^3
# Si number density = 18.619657 Si / 1000 Ang^3
#
#
#
# Elastic Constant Matrix: (Units=GPa)
#
#
# Indices 1 2 3 4 5 6 
#
# 1 194.1211 58.0467 100.7098 0.0000 0.0000 0.0000
# 2 58.0467 105.9610 49.3784 0.0000 0.0000 0.0000
# 3 100.7098 49.3784 175.8120 0.0000 0.0000 0.0000
# 4 0.0000 0.0000 0.0000 30.5311 0.0000 0.0000
# 5 0.0000 0.0000 0.0000 0.0000 -165.8848 0.0000
# 6 0.0000 0.0000 0.0000 0.0000 0.0000 26.7426
#
#
#
# Elastic Compliance Matrix: (Units=1/GPa)
#
#
# Indices 1 2 3 4 5 6 
#
# 1 0.007886 -0.002548 -0.003801 0.000000 0.000000 0.000000
# 2 -0.002548 0.011682 -0.001821 0.000000 0.000000 0.000000
# 3 -0.003801 -0.001821 0.008377 0.000000 0.000000 0.000000
# 4 0.000000 0.000000 0.000000 0.032754 0.000000 0.000000
# 5 0.000000 0.000000 0.000000 0.000000 -0.006028 0.000000
# 6 0.000000 0.000000 0.000000 0.000000 0.000000 0.037394
#
#
# Mechanical properties :
#
#
# Convention : Reuss Voigt Hill
#
# Bulk Modulus (GPa) = 86.18667 99.12932 92.65800
# Shear Modulus (GPa) = 44.53431 -3.87162 20.33134
#
# Velocity S-wave (km/s) = 4.89590 -1.44355 3.30802
# Velocity P-wave (km/s) = 8.85145 7.11170 8.02884
#
# Compressibility (1/GPa) = 0.01160272
#
# Stress axis : x y z
#
# Youngs Moduli (GPa) = 126.81395 85.60046 119.37560
#
# Poissons Ratio (x) = 0.21814 0.45379
# Poissons Ratio (y) = 0.32317 0.21742
# Poissons Ratio (z) = 0.48206 0.15590
#
# Static dielectric constant tensor:
#      x y z
#    x 1.631430 0.000000 0.000000 
#    y 0.000000 1.580080 0.000000 
#    z 0.000000 0.000000 1.626640 
# 
# From -- ./inp_files/18824.got.cif
#   From: 2010.05.17/outbox.cif.g08.bks.cpg/sg35_10_cif.got.tgz:18824.got - 2010.06.03 17:29:28.
