data_PCOD9349317
_publ_section_title
;
Structure prediction by ZEFSAII (Michael W. Deem and Ramdas Pophale) SiO2 
 PCOD9349317
Probable space group: C M M 2
;
_chemical_formula_sum "Si O2"
_cell_formula_units_Z 58
_cell_length_a 31.002749
_cell_length_b 7.984882
_cell_length_c 12.819776
_cell_angle_alpha 90.000000
_cell_angle_beta 90.000000
_cell_angle_gamma 90.000000
_cell_volume 3173.577757
_symmetry_space_group_name_H-M "C M M 2"
_symmetry_group_IT_number 35
_symmetry_cell_setting 'orthorhombic'
loop_
_space_group_symop_operation_xyz
x,y,z
-x,-y,z
-x,y,z
x,-y,z
1/2+x,1/2+y,z
1/2-x,1/2-y,z
1/2-x,1/2+y,z
1/2+x,1/2-y,z
loop_
_atom_site_type_symbol
_atom_site_label
_atom_site_fract_x
_atom_site_fract_y
_atom_site_fract_z
Si Si1 0.048245 0.303586 0.177620
Si Si2 0.799062 0.202213 0.447549
Si Si3 0.000000 0.500000 0.893409
Si Si4 0.938444 0.187447 0.945268
Si Si5 0.799032 0.200378 0.685136
Si Si6 0.201657 0.699454 0.095596
Si Si7 0.364274 0.303016 0.271927
Si Si8 0.654996 0.196936 0.890991
O O1 0.047964 0.500000 0.148192
O O2 0.088672 0.274211 0.252856
O O3 0.000000 0.263789 0.218479
O O4 0.055508 0.204363 0.070316
O O5 0.750000 0.250000 0.418137
O O6 0.807207 0.259430 0.566413
O O7 0.835210 0.264673 0.367290
O O8 0.800530 0.000000 0.446424
O O9 0.963198 0.348158 0.898742
O O10 0.888478 0.206785 0.917263
O O11 0.952364 0.000000 0.913453
O O12 0.750000 0.250000 0.710034
O O13 0.829321 0.272796 0.774121
O O14 0.802770 0.000000 0.686484
O O15 0.198130 0.500000 0.105895
O O16 0.250000 0.750000 0.124835
O O17 0.165404 0.776978 0.170044
O O18 0.191002 0.747725 0.976286
O O19 0.370892 0.500000 0.288180
O O20 0.646994 0.000000 0.906919
#
# Coordination Sequence:
#
# PCOD9349317 Si02
#       8
#     8   8   2   8   8   8   8   8
#     4  11  21  37  55  81 115 149 190 243 289 345
#     4   9  20  37  56  81 112 145 193 245 289 346
#     4  12  22  40  56  86 120 150 206 244 292 350
#     4  12  22  36  59  84 117 158 193 242 298 349
#     4  10  20  36  57  81 110 149 195 245 295 345
#     4  11  23  35  50  73 112 153 184 225 278 341
#     4  11  22  35  55  82 112 147 191 235 290 353
#     4  11  22  37  54  82 118 150 192 243 288 347
#
# _framework density 18.275905000000002
#
# number of rings (size 3 to 8) (size 9 to 14) (size 15 to 20)
#    0.000    1.241    3.448    3.103    0.000    6.345 
#    0.000    0.000    0.000    0.000    1.793    0.000 
#    0.000    0.000    0.000    0.000    0.000    0.000 
#
# Total GULP energy -161655.437089 kJ/mol
# GULP energy per Si atom -5574.325417 kJ/mol
# Density = 1.823431 g / cm^3
# Si number density = 18.275905 Si / 1000 Ang^3
#
#
#
# Elastic Constant Matrix: (Units=GPa)
#
#
# Indices 1 2 3 4 5 6 
#
# 1 145.7501 23.4885 54.2010 0.0000 0.0000 0.0000
# 2 23.4885 83.9132 9.7311 0.0000 0.0000 0.0000
# 3 54.2010 9.7311 69.2258 0.0000 0.0000 0.0000
# 4 0.0000 0.0000 0.0000 5.4287 0.0000 0.0000
# 5 0.0000 0.0000 0.0000 0.0000 37.9565 0.0000
# 6 0.0000 0.0000 0.0000 0.0000 0.0000 22.7519
#
#
#
# Elastic Compliance Matrix: (Units=1/GPa)
#
#
# Indices 1 2 3 4 5 6 
#
# 1 0.009974 -0.001917 -0.007540 0.000000 0.000000 0.000000
# 2 -0.001917 0.012483 -0.000253 0.000000 0.000000 0.000000
# 3 -0.007540 -0.000253 0.020384 0.000000 0.000000 0.000000
# 4 0.000000 0.000000 0.000000 0.184206 0.000000 0.000000
# 5 0.000000 0.000000 0.000000 0.000000 0.026346 0.000000
# 6 0.000000 0.000000 0.000000 0.000000 0.000000 0.043952
#
#
# Mechanical properties :
#
#
# Convention : Reuss Voigt Hill
#
# Bulk Modulus (GPa) = 42.69802 52.63671 47.66737
# Shear Modulus (GPa) = 15.40484 27.32532 21.36508
#
# Velocity S-wave (km/s) = 2.90643 3.87092 3.42282
# Velocity P-wave (km/s) = 5.88871 6.98873 6.46217
#
# Compressibility (1/GPa) = 0.02342029
#
# Stress axis : x y z
#
# Youngs Moduli (GPa) = 100.26201 80.10767 49.05738
#
# Poissons Ratio (x) = 0.15361 0.36987
# Poissons Ratio (y) = 0.19225 0.01243
# Poissons Ratio (z) = 0.75593 0.02030
#
# Static dielectric constant tensor:
#      x y z
#    x 1.599160 0.000000 0.000000 
#    y 0.000000 1.654220 0.000000 
#    z 0.000000 0.000000 1.628230 
# 
# From -- ./inp_files/14508.got.cif
#   From: 2010.05.17/outbox.cif.g08.bks.cpg/sg35_8_cif.got.tgz:14508.got - 2010.06.03 17:29:28.
