data_PCOD9349865
_publ_section_title
;
Structure prediction by ZEFSAII (Michael W. Deem and Ramdas Pophale) SiO2 
 PCOD9349865
Probable space group: C M M 2
;
_chemical_formula_sum "Si O2"
_cell_formula_units_Z 56
_cell_length_a 22.725330
_cell_length_b 8.591184
_cell_length_c 15.196312
_cell_angle_alpha 90.000000
_cell_angle_beta 90.000000
_cell_angle_gamma 90.000000
_cell_volume 2966.889835
_symmetry_space_group_name_H-M "C M M 2"
_symmetry_group_IT_number 35
_symmetry_cell_setting 'orthorhombic'
loop_
_space_group_symop_operation_xyz
x,y,z
-x,-y,z
-x,y,z
x,-y,z
1/2+x,1/2+y,z
1/2-x,1/2-y,z
1/2-x,1/2+y,z
1/2+x,1/2-y,z
loop_
_atom_site_type_symbol
_atom_site_label
_atom_site_fract_x
_atom_site_fract_y
_atom_site_fract_z
Si Si1 0.000000 0.823864 0.939270
Si Si2 0.814960 0.316305 0.908936
Si Si3 0.185201 0.684044 0.564669
Si Si4 0.817862 0.813863 0.375455
Si Si5 0.000000 0.319241 0.757405
Si Si6 0.402522 0.183905 0.058069
Si Si7 0.569896 0.311460 0.250846
Si Si8 0.875370 0.817180 0.735618
O O1 0.000000 0.697143 0.862853
O O2 0.944957 0.791424 0.000631
O O3 0.000000 0.000000 0.903692
O O4 0.815489 0.500000 0.890790
O O5 0.750000 0.250000 0.903272
O O6 0.852976 0.237630 0.831469
O O7 0.840829 0.294510 0.007221
O O8 0.185335 0.500000 0.551985
O O9 0.250000 0.750000 0.575764
O O10 0.164271 0.762357 0.474048
O O11 0.153964 0.728197 0.654834
O O12 0.750000 0.750000 0.357646
O O13 0.874759 0.768677 0.315150
O O14 0.812390 0.000000 0.370729
O O15 0.056977 0.227760 0.727751
O O16 0.000000 0.500000 0.731619
O O17 0.411645 0.236366 0.157749
O O18 0.417681 0.000000 0.050326
O O19 0.500000 0.269114 0.271092
O O20 0.570087 0.500000 0.244403
O O21 0.864676 0.000000 0.727293
#
# Coordination Sequence:
#
# PCOD9349865 Si02
#       8
#     4   8   8   8   4   8   8   8
#     4  12  22  36  60  85 114 157 202 242 290 352
#     4  11  24  40  58  85 123 161 204 256 303 355
#     4  11  22  40  65  91 121 158 202 252 303 366
#     4  10  21  40  65  92 123 159 204 257 313 376
#     4  12  24  40  60  87 122 159 204 252 300 354
#     4  11  23  38  60  87 119 158 201 251 300 354
#     4  10  22  40  63  91 123 161 205 255 311 375
#     4  12  24  40  62  89 121 162 204 246 303 364
#
# _framework density 18.874984000000001
#
# number of rings (size 3 to 8) (size 9 to 14) (size 15 to 20)
#    0.000    1.000    2.143    6.429    0.000    3.429 
#    1.286    2.857    0.000    0.000    0.000    0.000 
#    0.000    0.000    0.000    0.000    0.000    0.000 
#
# Total GULP energy -156170.444645 kJ/mol
# GULP energy per Si atom -5577.515880 kJ/mol
# Density = 1.883202 g / cm^3
# Si number density = 18.874984 Si / 1000 Ang^3
#
#
#
# Elastic Constant Matrix: (Units=GPa)
#
#
# Indices 1 2 3 4 5 6 
#
# 1 88.0294 21.8006 48.3192 0.0000 0.0000 0.0000
# 2 21.8006 43.4873 5.9597 0.0000 0.0000 0.0000
# 3 48.3192 5.9597 96.2209 0.0000 0.0000 0.0000
# 4 0.0000 0.0000 0.0000 33.2953 0.0000 0.0000
# 5 0.0000 0.0000 0.0000 0.0000 47.8096 0.0000
# 6 0.0000 0.0000 0.0000 0.0000 0.0000 12.3666
#
#
#
# Elastic Compliance Matrix: (Units=1/GPa)
#
#
# Indices 1 2 3 4 5 6 
#
# 1 0.017998 -0.007851 -0.008552 0.000000 0.000000 0.000000
# 2 -0.007851 0.026616 0.002294 0.000000 0.000000 0.000000
# 3 -0.008552 0.002294 0.014545 0.000000 0.000000 0.000000
# 4 0.000000 0.000000 0.000000 0.030034 0.000000 0.000000
# 5 0.000000 0.000000 0.000000 0.000000 0.020916 0.000000
# 6 0.000000 0.000000 0.000000 0.000000 0.000000 0.080863
#
#
# Mechanical properties :
#
#
# Convention : Reuss Voigt Hill
#
# Bulk Modulus (GPa) = 32.31818 42.21074 37.26446
# Shear Modulus (GPa) = 21.78603 28.80485 25.29544
#
# Velocity S-wave (km/s) = 3.40108 3.91075 3.66479
# Velocity P-wave (km/s) = 5.70811 6.54247 6.13948
#
# Compressibility (1/GPa) = 0.03094233
#
# Stress axis : x y z
#
# Youngs Moduli (GPa) = 55.56111 37.57072 68.75123
#
# Poissons Ratio (x) = 0.29496 0.58795
# Poissons Ratio (y) = 0.43619 -0.15770
# Poissons Ratio (z) = 0.47515 -0.08618
#
# Static dielectric constant tensor:
#      x y z
#    x 1.666480 0.000000 0.000000 
#    y 0.000000 1.632230 0.000000 
#    z 0.000000 0.000000 1.678590 
# 
# From -- ./inp_files/17457.got.cif
#   From: 2010.05.17/outbox.cif.g08.bks.cpg/sg35_9_cif.got.tgz:17457.got - 2010.06.03 17:29:28.
