data_PCOD9349743
_publ_section_title
;
Structure prediction by ZEFSAII (Michael W. Deem and Ramdas Pophale) SiO2 
 PCOD9349743
Probable space group: C M M 2
;
_chemical_formula_sum "Si O2"
_cell_formula_units_Z 64
_cell_length_a 30.475330
_cell_length_b 7.668607
_cell_length_c 12.832094
_cell_angle_alpha 90.000000
_cell_angle_beta 90.000000
_cell_angle_gamma 90.000000
_cell_volume 2998.903085
_symmetry_space_group_name_H-M "C M M 2"
_symmetry_group_IT_number 35
_symmetry_cell_setting 'orthorhombic'
loop_
_space_group_symop_operation_xyz
x,y,z
-x,-y,z
-x,y,z
x,-y,z
1/2+x,1/2+y,z
1/2-x,1/2-y,z
1/2-x,1/2+y,z
1/2+x,1/2-y,z
loop_
_atom_site_type_symbol
_atom_site_label
_atom_site_fract_x
_atom_site_fract_y
_atom_site_fract_z
Si Si1 0.640708 0.713411 0.840260
Si Si2 0.658774 0.800715 0.217960
Si Si3 0.952171 0.786205 0.381187
Si Si4 0.643253 0.293024 0.447503
Si Si5 0.297115 0.706507 0.022879
Si Si6 0.048330 0.213459 0.917220
Si Si7 0.198307 0.210104 0.643804
Si Si8 0.066197 0.800541 0.149877
O O1 0.641133 0.500000 0.839121
O O2 0.590084 0.768778 0.849033
O O3 0.669661 0.771967 0.742483
O O4 0.665230 0.770501 0.945497
O O5 0.665117 0.734418 0.334504
O O6 0.698236 0.785900 0.137445
O O7 0.618601 0.699784 0.164275
O O8 0.644773 0.000000 0.225748
O O9 0.907209 0.726915 0.436940
O O10 0.950094 0.726287 0.260111
O O11 0.000000 0.737173 0.424742
O O12 0.950342 0.000000 0.379314
O O13 0.639290 0.500000 0.464318
O O14 0.673818 0.223340 0.539575
O O15 0.301041 0.500000 0.032772
O O16 0.250000 0.750000 0.976022
O O17 0.000000 0.264958 0.879999
O O18 0.049708 0.000000 0.919744
O O19 0.054171 0.274737 0.037505
O O20 0.250000 0.250000 0.648825
O O21 0.195657 0.000000 0.643644
O O22 0.050524 0.000000 0.147322
#
# Coordination Sequence:
#
# PCOD9349743 Si02
#       8
#     8   8   8   8   8   8   8   8
#     4   9  18  33  53  79 111 140 173 222 268 312
#     4  11  21  33  51  77 109 144 178 218 267 321
#     4   8  13  23  44  74 103 134 174 212 252 310
#     4   9  19  35  54  76 105 139 177 224 271 317
#     4  11  21  35  54  78 108 141 175 216 268 327
#     4   9  15  25  48  81 112 144 179 214 261 319
#     4  10  21  38  59  80 103 135 179 227 274 319
#     4   9  15  27  47  73 106 146 182 216 254 304
#
# _framework density 21.341135000000001
#
# number of rings (size 3 to 8) (size 9 to 14) (size 15 to 20)
#    0.000    2.500    1.250    3.000    0.000    2.500 
#    0.000    2.500    0.000   13.125    0.000    0.000 
#    0.000    1.000    0.000    0.000    0.000    0.000 
#
# Total GULP energy -178474.218786 kJ/mol
# GULP energy per Si atom -5577.319337 kJ/mol
# Density = 2.129256 g / cm^3
# Si number density = 21.341135 Si / 1000 Ang^3
#
#
#
# Elastic Constant Matrix: (Units=GPa)
#
#
# Indices 1 2 3 4 5 6 
#
# 1 181.8954 6.6889 91.3878 0.0000 0.0000 0.0000
# 2 6.6889 40.4397 0.2993 0.0000 0.0000 0.0000
# 3 91.3878 0.2993 123.1937 0.0000 0.0000 0.0000
# 4 0.0000 0.0000 0.0000 -16.7588 0.0000 0.0000
# 5 0.0000 0.0000 0.0000 0.0000 18.6146 0.0000
# 6 0.0000 0.0000 0.0000 0.0000 0.0000 7.9034
#
#
#
# Elastic Compliance Matrix: (Units=1/GPa)
#
#
# Indices 1 2 3 4 5 6 
#
# 1 0.008844 -0.001414 -0.006557 0.000000 0.000000 0.000000
# 2 -0.001414 0.024955 0.000989 0.000000 0.000000 0.000000
# 3 -0.006557 0.000989 0.012979 0.000000 0.000000 0.000000
# 4 0.000000 0.000000 0.000000 -0.059670 0.000000 0.000000
# 5 0.000000 0.000000 0.000000 0.000000 0.053721 0.000000
# 6 0.000000 0.000000 0.000000 0.000000 0.000000 0.126528
#
#
# Mechanical properties :
#
#
# Convention : Reuss Voigt Hill
#
# Bulk Modulus (GPa) = 30.47665 60.25339 45.36502
# Shear Modulus (GPa) = 26.00630 18.42868 22.21749
#
# Velocity S-wave (km/s) = 3.49463 2.94177 3.23005
# Velocity P-wave (km/s) = 5.53127 6.31138 5.93416
#
# Compressibility (1/GPa) = 0.03281201
#
# Stress axis : x y z
#
# Youngs Moduli (GPa) = 113.06773 40.07241 77.04549
#
# Poissons Ratio (x) = 0.05668 0.50522
# Poissons Ratio (y) = 0.15992 -0.07616
# Poissons Ratio (z) = 0.74143 -0.03961
#
# Static dielectric constant tensor:
#      x y z
#    x 1.815000 0.000000 0.000000 
#    y 0.000000 1.832820 0.000000 
#    z 0.000000 0.000000 1.756360 
# 
# From -- ./inp_files/14578.got.cif
#   From: 2010.05.17/outbox.cif.g08.bks.cpg/sg35_8_cif.got.tgz:14578.got - 2010.06.03 17:29:28.
