data_PCOD9349297
_publ_section_title
;
Structure prediction by ZEFSAII (Michael W. Deem and Ramdas Pophale) SiO2 
 PCOD9349297
Probable space group: C M M 2
;
_chemical_formula_sum "Si O2"
_cell_formula_units_Z 64
_cell_length_a 20.225639
_cell_length_b 14.846743
_cell_length_c 9.998855
_cell_angle_alpha 90.000000
_cell_angle_beta 90.000000
_cell_angle_gamma 90.000000
_cell_volume 3002.504816
_symmetry_space_group_name_H-M "C M M 2"
_symmetry_group_IT_number 35
_symmetry_cell_setting 'orthorhombic'
loop_
_space_group_symop_operation_xyz
x,y,z
-x,-y,z
-x,y,z
x,-y,z
1/2+x,1/2+y,z
1/2-x,1/2-y,z
1/2-x,1/2+y,z
1/2+x,1/2-y,z
loop_
_atom_site_type_symbol
_atom_site_label
_atom_site_fract_x
_atom_site_fract_y
_atom_site_fract_z
Si Si1 0.651095 0.601205 0.997660
Si Si2 0.924622 0.766461 0.409367
Si Si3 0.256432 0.391208 0.758212
Si Si4 0.897073 0.721375 0.111733
Si Si5 0.115727 0.604989 0.869914
Si Si6 0.076479 0.403027 0.569413
Si Si7 0.275278 0.897189 0.199114
Si Si8 0.697826 0.608285 0.466020
O O1 0.623294 0.500000 0.993693
O O2 0.681575 0.625798 0.854088
O O3 0.604869 0.679094 0.050803
O O4 0.713183 0.599865 0.099182
O O5 0.928459 0.731547 0.257051
O O6 0.896302 0.683206 0.495601
O O7 0.871919 0.845772 0.429098
O O8 0.000000 0.789402 0.452494
O O9 0.247939 0.500000 0.752572
O O10 0.189214 0.358348 0.830087
O O11 0.272266 0.360926 0.608248
O O12 0.825986 0.676724 0.146790
O O13 0.918851 0.657302 0.990248
O O14 0.122368 0.500000 0.908563
O O15 0.078934 0.608345 0.728407
O O16 0.109003 0.500000 0.538307
O O17 0.000000 0.407482 0.527045
O O18 0.248089 0.873510 0.345065
O O19 0.303224 0.000000 0.202043
O O20 0.688860 0.500000 0.472244
#
# Coordination Sequence:
#
# PCOD9349297 Si02
#       8
#     8   8   8   8   8   8   8   8
#     4  10  20  36  55  82 124 160 190 233 295 367
#     4  11  26  43  60  87 120 160 216 259 291 347
#     4   9  19  35  56  88 122 149 187 241 302 367
#     4  12  23  36  60  89 122 163 198 242 306 358
#     4  10  21  37  60  92 122 153 197 248 305 373
#     4   9  21  43  63  80 113 160 204 251 302 347
#     4  10  20  36  58  89 125 156 190 241 304 373
#     4  10  22  40  63  90 122 158 198 248 309 368
#
# _framework density 21.315536000000002
#
# number of rings (size 3 to 8) (size 9 to 14) (size 15 to 20)
#    0.000    1.875    2.500    0.750    3.500    1.750 
#    0.000    0.000    0.000    0.000    0.000    0.000 
#    0.000    0.000    0.000    0.000    0.000    0.000 
#
# Total GULP energy -178696.270666 kJ/mol
# GULP energy per Si atom -5584.258458 kJ/mol
# Density = 2.126702 g / cm^3
# Si number density = 21.315536 Si / 1000 Ang^3
#
#
#
# Elastic Constant Matrix: (Units=GPa)
#
#
# Indices 1 2 3 4 5 6 
#
# 1 38.4781 17.7214 9.6696 0.0000 0.0000 0.0000
# 2 17.7214 98.6474 32.3234 0.0000 0.0000 0.0000
# 3 9.6696 32.3234 131.0704 0.0000 0.0000 0.0000
# 4 0.0000 0.0000 0.0000 30.3589 0.0000 0.0000
# 5 0.0000 0.0000 0.0000 0.0000 -46.5835 0.0000
# 6 0.0000 0.0000 0.0000 0.0000 0.0000 29.2217
#
#
#
# Elastic Compliance Matrix: (Units=1/GPa)
#
#
# Indices 1 2 3 4 5 6 
#
# 1 0.028433 -0.004809 -0.000912 0.000000 0.000000 0.000000
# 2 -0.004809 0.011842 -0.002565 0.000000 0.000000 0.000000
# 3 -0.000912 -0.002565 0.008329 0.000000 0.000000 0.000000
# 4 0.000000 0.000000 0.000000 0.032939 0.000000 0.000000
# 5 0.000000 0.000000 0.000000 0.000000 -0.021467 0.000000
# 6 0.000000 0.000000 0.000000 0.000000 0.000000 0.034221
#
#
# Mechanical properties :
#
#
# Convention : Reuss Voigt Hill
#
# Bulk Modulus (GPa) = 31.21935 43.06944 37.14440
# Shear Modulus (GPa) = 41.13636 16.49818 28.81727
#
# Velocity S-wave (km/s) = 4.39780 2.78510 3.68086
# Velocity P-wave (km/s) = 6.36126 5.53099 5.96060
#
# Compressibility (1/GPa) = 0.03203141
#
# Stress axis : x y z
#
# Youngs Moduli (GPa) = 35.17072 84.44761 120.05637
#
# Poissons Ratio (x) = 0.40611 0.10945
# Poissons Ratio (y) = 0.16914 0.30800
# Poissons Ratio (z) = 0.03206 0.21665
#
# Static dielectric constant tensor:
#      x y z
#    x 1.775230 0.000000 0.000000 
#    y 0.000000 1.826860 0.000000 
#    z 0.000000 0.000000 1.771240 
# 
# From -- ./inp_files/7842.got.cif
#   From: 2010.05.17/outbox.cif.g08.bks.cpg/sg35_4_cif.got.tgz:7842.got - 2010.06.03 17:29:28.
