data_PCOD9349573
_publ_section_title
;
Structure prediction by ZEFSAII (Michael W. Deem and Ramdas Pophale) SiO2 
 PCOD9349573
Probable space group: C M M 2
;
_chemical_formula_sum "Si O2"
_cell_formula_units_Z 64
_cell_length_a 29.792963
_cell_length_b 7.481629
_cell_length_c 13.017096
_cell_angle_alpha 90.000000
_cell_angle_beta 90.000000
_cell_angle_gamma 90.000000
_cell_volume 2901.509344
_symmetry_space_group_name_H-M "C M M 2"
_symmetry_group_IT_number 35
_symmetry_cell_setting 'orthorhombic'
loop_
_space_group_symop_operation_xyz
x,y,z
-x,-y,z
-x,y,z
x,-y,z
1/2+x,1/2+y,z
1/2-x,1/2-y,z
1/2-x,1/2+y,z
1/2+x,1/2-y,z
loop_
_atom_site_type_symbol
_atom_site_label
_atom_site_fract_x
_atom_site_fract_y
_atom_site_fract_z
Si Si1 0.623332 0.280421 0.841640
Si Si2 0.803490 0.786437 0.221214
Si Si3 0.302722 0.713981 0.998514
Si Si4 0.947817 0.716122 0.450958
Si Si5 0.371659 0.708870 0.609988
Si Si6 0.550682 0.288568 0.002721
Si Si7 0.802989 0.214890 0.443926
Si Si8 0.447551 0.214274 0.227149
O O1 0.622028 0.500000 0.840574
O O2 0.667624 0.223450 0.903705
O O3 0.623010 0.217244 0.724417
O O4 0.581779 0.218961 0.911846
O O5 0.750000 0.750000 0.221758
O O6 0.819063 0.715870 0.331847
O O7 0.810793 0.000000 0.221286
O O8 0.818578 0.715494 0.110374
O O9 0.307978 0.500000 0.002798
O O10 0.250000 0.750000 0.986113
O O11 0.947110 0.500000 0.451093
O O12 0.916785 0.778505 0.543123
O O13 0.930352 0.777463 0.338145
O O14 0.000000 0.770164 0.461420
O O15 0.360682 0.500000 0.624047
O O16 0.332484 0.786240 0.537667
O O17 0.500000 0.213018 0.002879
O O18 0.546965 0.500000 0.986405
O O19 0.571475 0.268787 0.117013
O O20 0.750000 0.250000 0.455794
O O21 0.808329 0.000000 0.441135
O O22 0.500000 0.271074 0.224869
O O23 0.446523 0.000000 0.229028
#
# Coordination Sequence:
#
# PCOD9349573 Si02
#       8
#     8   8   8   8   8   8   8   8
#     4   9  19  34  49  69 100 134 166 204 249 289
#     4   8  14  26  45  68  92 120 155 196 244 295
#     4   9  17  31  50  69  93 125 158 197 246 294
#     4   9  19  36  55  75 102 134 165 202 253 307
#     4  10  21  35  51  74 102 133 175 217 247 288
#     4   9  17  30  50  74  98 127 164 202 241 292
#     4   9  18  32  50  73 100 129 163 205 251 298
#     4   8  15  30  51  74 101 129 156 194 248 302
#
# _framework density 22.057486000000001
#
# number of rings (size 3 to 8) (size 9 to 14) (size 15 to 20)
#    0.000    3.125    0.000    0.750    0.000    3.250 
#    0.000    6.875    0.000    7.500    0.000    0.000 
#    0.000    0.000    0.000    0.000    0.000    0.000 
#
# Total GULP energy -178469.297909 kJ/mol
# GULP energy per Si atom -5577.165560 kJ/mol
# Density = 2.200728 g / cm^3
# Si number density = 22.057486 Si / 1000 Ang^3
#
#
#
# Elastic Constant Matrix: (Units=GPa)
#
#
# Indices 1 2 3 4 5 6 
#
# 1 100.4787 -8.6099 93.7898 0.0000 0.0000 0.0000
# 2 -8.6099 63.3998 5.5877 0.0000 0.0000 0.0000
# 3 93.7898 5.5877 271.0462 0.0000 0.0000 0.0000
# 4 0.0000 0.0000 0.0000 9.3770 0.0000 0.0000
# 5 0.0000 0.0000 0.0000 0.0000 32.6339 0.0000
# 6 0.0000 0.0000 0.0000 0.0000 0.0000 12.9771
#
#
#
# Elastic Compliance Matrix: (Units=1/GPa)
#
#
# Indices 1 2 3 4 5 6 
#
# 1 0.015090 0.002514 -0.005273 0.000000 0.000000 0.000000
# 2 0.002514 0.016220 -0.001204 0.000000 0.000000 0.000000
# 3 -0.005273 -0.001204 0.005539 0.000000 0.000000 0.000000
# 4 0.000000 0.000000 0.000000 0.106644 0.000000 0.000000
# 5 0.000000 0.000000 0.000000 0.000000 0.030643 0.000000
# 6 0.000000 0.000000 0.000000 0.000000 0.000000 0.077059
#
#
# Mechanical properties :
#
#
# Convention : Reuss Voigt Hill
#
# Bulk Modulus (GPa) = 34.57548 68.49555 51.53551
# Shear Modulus (GPa) = 18.60367 33.94139 26.27253
#
# Velocity S-wave (km/s) = 2.90732 3.92697 3.45497
# Velocity P-wave (km/s) = 5.19415 7.18902 6.27141
#
# Compressibility (1/GPa) = 0.02892223
#
# Stress axis : x y z
#
# Youngs Moduli (GPa) = 66.26816 61.65043 180.53768
#
# Poissons Ratio (x) = -0.15499 0.95206
# Poissons Ratio (y) = -0.16660 0.21743
# Poissons Ratio (z) = 0.34946 0.07425
#
# Static dielectric constant tensor:
#      x y z
#    x 1.796680 0.000000 0.000000 
#    y 0.000000 1.828200 0.000000 
#    z 0.000000 0.000000 1.828230 
# 
# From -- ./inp_files/11939.got.cif
#   From: 2010.05.17/outbox.cif.g08.bks.cpg/sg35_6_cif.got.tgz:11939.got - 2010.06.03 17:29:28.
