data_PCOD9349736
_publ_section_title
;
Structure prediction by ZEFSAII (Michael W. Deem and Ramdas Pophale) SiO2 
 PCOD9349736
Probable space group: C M M 2
;
_chemical_formula_sum "Si O2"
_cell_formula_units_Z 64
_cell_length_a 17.775490
_cell_length_b 18.024029
_cell_length_c 9.314924
_cell_angle_alpha 90.000000
_cell_angle_beta 90.000000
_cell_angle_gamma 90.000000
_cell_volume 2984.370749
_symmetry_space_group_name_H-M "C M M 2"
_symmetry_group_IT_number 35
_symmetry_cell_setting 'orthorhombic'
loop_
_space_group_symop_operation_xyz
x,y,z
-x,-y,z
-x,y,z
x,-y,z
1/2+x,1/2+y,z
1/2-x,1/2-y,z
1/2-x,1/2+y,z
1/2+x,1/2-y,z
loop_
_atom_site_type_symbol
_atom_site_label
_atom_site_fract_x
_atom_site_fract_y
_atom_site_fract_z
Si Si1 0.585770 0.087156 0.465400
Si Si2 0.775214 0.413264 0.269513
Si Si3 0.687531 0.309731 0.488104
Si Si4 0.911097 0.775688 0.228110
Si Si5 0.909381 0.916718 0.041511
Si Si6 0.413355 0.659251 0.746485
Si Si7 0.413935 0.837352 0.765228
Si Si8 0.307671 0.815249 0.010268
O O1 0.500000 0.106364 0.428152
O O2 0.639797 0.095466 0.329993
O O3 0.606471 0.133398 0.607367
O O4 0.588674 0.000000 0.506087
O O5 0.758206 0.500000 0.264505
O O6 0.727868 0.369473 0.387774
O O7 0.768012 0.373157 0.116716
O O8 0.750000 0.250000 0.537505
O O9 0.628052 0.268918 0.382499
O O10 0.643020 0.349438 0.614915
O O11 0.000000 0.762101 0.233133
O O12 0.898190 0.859670 0.171064
O O13 0.869843 0.725127 0.110750
O O14 0.885185 0.880886 0.890238
O O15 0.000000 0.920779 0.027996
O O16 0.880935 0.000000 0.062606
O O17 0.500000 0.635948 0.715053
O O18 0.415653 0.747914 0.769588
O O19 0.500000 0.863103 0.796384
O O20 0.350826 0.855916 0.881936
O O21 0.250000 0.750000 0.964021
#
# Coordination Sequence:
#
# PCOD9349736 Si02
#       8
#     8   8   8   8   8   8   8   8
#     4   9  20  40  63  88 120 160 206 254 303 359
#     4  11  24  42  61  86 126 166 203 250 308 367
#     4  12  23  41  59  89 124 162 203 255 306 356
#     4  11  21  39  65  91 119 158 207 252 302 361
#     4   9  19  38  62  89 122 155 193 246 303 359
#     4  10  21  38  62  91 118 155 205 252 300 360
#     4  10  21  37  62  92 120 154 201 255 304 359
#     4  12  23  41  60  90 124 160 199 252 307 360
#
# _framework density 21.445056999999998
#
# number of rings (size 3 to 8) (size 9 to 14) (size 15 to 20)
#    0.000    1.500    3.750    1.500    0.000    4.000 
#    0.000    0.000    0.000    3.750    0.000    0.000 
#    0.000    0.000    0.000    0.000    0.000    0.000 
#
# Total GULP energy -178955.807315 kJ/mol
# GULP energy per Si atom -5592.368979 kJ/mol
# Density = 2.139625 g / cm^3
# Si number density = 21.445057 Si / 1000 Ang^3
#
#
#
# Elastic Constant Matrix: (Units=GPa)
#
#
# Indices 1 2 3 4 5 6 
#
# 1 99.7606 4.8782 36.2299 0.0000 0.0000 0.0000
# 2 4.8782 87.9389 12.6510 0.0000 0.0000 0.0000
# 3 36.2299 12.6510 84.7244 0.0000 0.0000 0.0000
# 4 0.0000 0.0000 0.0000 26.8018 0.0000 0.0000
# 5 0.0000 0.0000 0.0000 0.0000 48.6951 0.0000
# 6 0.0000 0.0000 0.0000 0.0000 0.0000 21.0756
#
#
#
# Elastic Compliance Matrix: (Units=1/GPa)
#
#
# Indices 1 2 3 4 5 6 
#
# 1 0.011867 0.000073 -0.005086 0.000000 0.000000 0.000000
# 2 0.000073 0.011622 -0.001767 0.000000 0.000000 0.000000
# 3 -0.005086 -0.001767 0.014242 0.000000 0.000000 0.000000
# 4 0.000000 0.000000 0.000000 0.037311 0.000000 0.000000
# 5 0.000000 0.000000 0.000000 0.000000 0.020536 0.000000
# 6 0.000000 0.000000 0.000000 0.000000 0.000000 0.047448
#
#
# Mechanical properties :
#
#
# Convention : Reuss Voigt Hill
#
# Bulk Modulus (GPa) = 41.36947 42.21579 41.79263
# Shear Modulus (GPa) = 30.36910 33.89216 32.13063
#
# Velocity S-wave (km/s) = 3.76724 3.97976 3.87496
# Velocity P-wave (km/s) = 6.18511 6.39111 6.28895
#
# Compressibility (1/GPa) = 0.02417241
#
# Stress axis : x y z
#
# Youngs Moduli (GPa) = 84.26467 86.04648 70.21722
#
# Poissons Ratio (x) = -0.00631 0.35710
# Poissons Ratio (y) = -0.00618 0.12405
# Poissons Ratio (z) = 0.42854 0.15202
#
# Static dielectric constant tensor:
#      x y z
#    x 1.825730 0.000000 0.000000 
#    y 0.000000 1.779880 0.000000 
#    z 0.000000 0.000000 1.751650 
# 
# From -- ./inp_files/8764.got.cif
#   From: 2010.05.17/outbox.cif.g08.bks.cpg/sg35_5_cif.got.tgz:8764.got - 2010.06.03 17:29:28.
