data_PCOD9349661
_publ_section_title
;
Structure prediction by ZEFSAII (Michael W. Deem and Ramdas Pophale) SiO2 
 PCOD9349661
Probable space group: C M M 2
;
_chemical_formula_sum "Si O2"
_cell_formula_units_Z 32
_cell_length_a 18.227478
_cell_length_b 7.844269
_cell_length_c 12.205959
_cell_angle_alpha 90.000000
_cell_angle_beta 90.000000
_cell_angle_gamma 90.000000
_cell_volume 1745.223161
_symmetry_space_group_name_H-M "C M M 2"
_symmetry_group_IT_number 35
_symmetry_cell_setting 'orthorhombic'
loop_
_space_group_symop_operation_xyz
x,y,z
-x,-y,z
-x,y,z
x,-y,z
1/2+x,1/2+y,z
1/2-x,1/2-y,z
1/2-x,1/2+y,z
1/2+x,1/2-y,z
loop_
_atom_site_type_symbol
_atom_site_label
_atom_site_fract_x
_atom_site_fract_y
_atom_site_fract_z
Si Si1 0.586854 0.000000 0.336540
Si Si2 0.167874 0.689291 0.512913
Si Si3 0.912442 0.500000 0.077403
Si Si4 0.581871 0.699393 0.719884
Si Si5 0.835945 0.793820 0.939597
O O1 0.623800 0.840348 0.400145
O O2 0.500000 0.000000 0.356479
O O3 0.600667 0.000000 0.207981
O O4 0.174414 0.500000 0.562311
O O5 0.250000 0.750000 0.493117
O O6 0.121952 0.786975 0.603538
O O7 0.877390 0.670765 0.025212
O O8 0.000000 0.500000 0.058007
O O9 0.500000 0.777334 0.716967
O O10 0.573518 0.500000 0.741970
O O11 0.631456 0.759847 0.820832
O O12 0.750000 0.750000 0.943231
O O13 0.845497 0.000000 0.956574
#
# Coordination Sequence:
#
# PCOD9349661 Si02
#       5
#     4   8   4   8   8
#     4   9  22  41  61  87 119 157 208 254 300 364
#     4  10  21  36  59  86 120 157 196 244 304 355
#     4  11  24  43  67  93 123 167 214 260 312 368
#     4  10  21  36  59  90 125 159 198 246 306 374
#     4  11  23  41  63  95 129 166 208 258 311 375
#
# _framework density 18.335763
#
# number of rings (size 3 to 8) (size 9 to 14) (size 15 to 20)
#    0.750    1.000    1.250    3.000    1.750    4.500 
#    0.000    1.250    0.000    3.000    0.000    0.000 
#    0.000    0.000    0.000    0.000    0.000    0.000 
#
# Total GULP energy -89108.489397 kJ/mol
# GULP energy per Si atom -5569.280587 kJ/mol
# Density = 1.829403 g / cm^3
# Si number density = 18.335763 Si / 1000 Ang^3
#
#
#
# Elastic Constant Matrix: (Units=GPa)
#
#
# Indices 1 2 3 4 5 6 
#
# 1 172.9532 40.3938 101.7390 0.0000 0.0000 0.0000
# 2 40.3938 74.3584 36.5479 0.0000 0.0000 0.0000
# 3 101.7390 36.5479 146.9123 0.0000 0.0000 0.0000
# 4 0.0000 0.0000 0.0000 0.2427 0.0000 0.0000
# 5 0.0000 0.0000 0.0000 0.0000 -15.6320 0.0000
# 6 0.0000 0.0000 0.0000 0.0000 0.0000 -25.4171
#
#
#
# Elastic Compliance Matrix: (Units=1/GPa)
#
#
# Indices 1 2 3 4 5 6 
#
# 1 0.010100 -0.002334 -0.006414 0.000000 0.000000 0.000000
# 2 -0.002334 0.015861 -0.002329 0.000000 0.000000 0.000000
# 3 -0.006414 -0.002329 0.011828 0.000000 0.000000 0.000000
# 4 0.000000 0.000000 0.000000 4.119975 0.000000 0.000000
# 5 0.000000 0.000000 0.000000 0.000000 -0.063971 0.000000
# 6 0.000000 0.000000 0.000000 0.000000 0.000000 -0.039344
#
#
# Mechanical properties :
#
#
# Convention : Reuss Voigt Hill
#
# Bulk Modulus (GPa) = 63.96100 83.50948 73.73524
# Shear Modulus (GPa) = 1.22495 6.20826 3.71660
#
# Velocity S-wave (km/s) = 0.81824 1.84207 1.42526
# Velocity P-wave (km/s) = 5.98762 7.08292 6.55818
#
# Compressibility (1/GPa) = 0.01563453
#
# Stress axis : x y z
#
# Youngs Moduli (GPa) = 99.01139 63.04647 84.54651
#
# Poissons Ratio (x) = 0.14716 0.54225
# Poissons Ratio (y) = 0.23111 0.19694
# Poissons Ratio (z) = 0.63502 0.14686
#
# Static dielectric constant tensor:
#      x y z
#    x 1.662880 0.000000 0.000000 
#    y 0.000000 1.768740 0.000000 
#    z 0.000000 0.000000 1.594410 
# 
# From -- ./inp_files/10972.got.cif
#   From: 2010.05.17/outbox.cif.g08.bks.cpg/sg35_6_cif.got.tgz:10972.got - 2010.06.03 17:29:28.
