data_PCOD9349163
_publ_section_title
;
Structure prediction by ZEFSAII (Michael W. Deem and Ramdas Pophale) SiO2 
 PCOD9349163
Probable space group: C M M 2
;
_chemical_formula_sum "Si O2"
_cell_formula_units_Z 64
_cell_length_a 28.579181
_cell_length_b 8.821606
_cell_length_c 13.267032
_cell_angle_alpha 90.000000
_cell_angle_beta 90.000000
_cell_angle_gamma 90.000000
_cell_volume 3344.808149
_symmetry_space_group_name_H-M "C M M 2"
_symmetry_group_IT_number 35
_symmetry_cell_setting 'orthorhombic'
loop_
_space_group_symop_operation_xyz
x,y,z
-x,-y,z
-x,y,z
x,-y,z
1/2+x,1/2+y,z
1/2-x,1/2-y,z
1/2-x,1/2+y,z
1/2+x,1/2-y,z
loop_
_atom_site_type_symbol
_atom_site_label
_atom_site_fract_x
_atom_site_fract_y
_atom_site_fract_z
Si Si1 0.554540 0.819956 0.349730
Si Si2 0.801895 0.681947 0.626210
Si Si3 0.946227 0.816973 0.914151
Si Si4 0.556793 0.672614 0.138291
Si Si5 0.198065 0.181161 0.234782
Si Si6 0.857586 0.819559 0.439459
Si Si7 0.141759 0.317891 0.826160
Si Si8 0.197837 0.317831 0.027678
O O1 0.500000 0.778126 0.364629
O O2 0.567974 0.770410 0.235922
O O3 0.589593 0.737623 0.425327
O O4 0.558932 0.000000 0.359609
O O5 0.798775 0.500000 0.624283
O O6 0.750000 0.750000 0.624851
O O7 0.830848 0.739618 0.530377
O O8 0.829135 0.728490 0.727988
O O9 0.909426 0.753863 0.835020
O O10 0.000000 0.769849 0.896703
O O11 0.945301 0.000000 0.915660
O O12 0.930937 0.767294 0.027350
O O13 0.500000 0.663342 0.134902
O O14 0.574721 0.500000 0.151925
O O15 0.250000 0.250000 0.246371
O O16 0.168746 0.216591 0.334397
O O17 0.177627 0.250637 0.131699
O O18 0.201317 0.000000 0.224028
O O19 0.856283 0.000000 0.453370
O O20 0.137580 0.500000 0.824813
O O21 0.169603 0.274946 0.927738
O O22 0.200088 0.500000 0.034729
O O23 0.250000 0.250000 0.019117
#
# Coordination Sequence:
#
# PCOD9349163 Si02
#       8
#     8   8   8   8   8   8   8   8
#     4  10  21  36  56  85 120 158 200 245 295 351
#     4  11  24  44  67  90 118 151 196 249 301 356
#     4   9  19  35  56  84 118 157 201 245 289 344
#     4   8  15  30  51  77 113 155 196 239 286 339
#     4  10  21  36  55  82 115 149 186 232 288 350
#     4  11  24  40  61  88 117 153 200 246 298 356
#     4  10  23  39  58  87 118 152 195 243 295 351
#     4  10  20  35  55  82 116 150 187 231 285 349
#
# _framework density 19.134132000000001
#
# number of rings (size 3 to 8) (size 9 to 14) (size 15 to 20)
#    0.000    2.125    0.000    4.125    1.750    6.500 
#    0.000    1.875    0.000    0.750    0.000    0.000 
#    0.000    0.000    0.000    0.000    0.000    0.000 
#
# Total GULP energy -178768.063298 kJ/mol
# GULP energy per Si atom -5586.501978 kJ/mol
# Density = 1.909058 g / cm^3
# Si number density = 19.134132 Si / 1000 Ang^3
#
#
#
# Elastic Constant Matrix: (Units=GPa)
#
#
# Indices 1 2 3 4 5 6 
#
# 1 124.3040 42.9639 81.1213 0.0000 0.0000 0.0000
# 2 42.9639 44.6226 54.3302 0.0000 0.0000 0.0000
# 3 81.1213 54.3302 139.0839 0.0000 0.0000 0.0000
# 4 0.0000 0.0000 0.0000 26.7129 0.0000 0.0000
# 5 0.0000 0.0000 0.0000 0.0000 34.0481 0.0000
# 6 0.0000 0.0000 0.0000 0.0000 0.0000 23.0353
#
#
#
# Elastic Compliance Matrix: (Units=1/GPa)
#
#
# Indices 1 2 3 4 5 6 
#
# 1 0.013975 -0.006734 -0.005520 0.000000 0.000000 0.000000
# 2 -0.006734 0.045981 -0.014034 0.000000 0.000000 0.000000
# 3 -0.005520 -0.014034 0.015892 0.000000 0.000000 0.000000
# 4 0.000000 0.000000 0.000000 0.037435 0.000000 0.000000
# 5 0.000000 0.000000 0.000000 0.000000 0.029370 0.000000
# 6 0.000000 0.000000 0.000000 0.000000 0.000000 0.043412
#
#
# Mechanical properties :
#
#
# Convention : Reuss Voigt Hill
#
# Bulk Modulus (GPa) = 42.97213 73.87125 58.42169
# Shear Modulus (GPa) = 20.29239 25.39895 22.84567
#
# Velocity S-wave (km/s) = 3.26012 3.64732 3.45914
# Velocity P-wave (km/s) = 6.05626 7.51187 6.82299
#
# Compressibility (1/GPa) = 0.02327089
#
# Stress axis : x y z
#
# Youngs Moduli (GPa) = 71.55628 21.74824 62.92602
#
# Poissons Ratio (x) = 0.14646 0.34738
# Poissons Ratio (y) = 0.48187 0.88308
# Poissons Ratio (z) = 0.39502 0.30521
#
# Static dielectric constant tensor:
#      x y z
#    x 1.680450 0.000000 0.000000 
#    y 0.000000 1.642260 0.000000 
#    z 0.000000 0.000000 1.655680 
# 
# From -- ./inp_files/14516.got.cif
#   From: 2010.05.17/outbox.cif.g08.bks.cpg/sg35_8_cif.got.tgz:14516.got - 2010.06.03 17:29:28.
