data_PCOD9349927
_publ_section_title
;
Structure prediction by ZEFSAII (Michael W. Deem and Ramdas Pophale) SiO2 
 PCOD9349927
Probable space group: C M M 2
;
_chemical_formula_sum "Si O2"
_cell_formula_units_Z 58
_cell_length_a 7.599955
_cell_length_b 19.808503
_cell_length_c 18.262874
_cell_angle_alpha 90.000000
_cell_angle_beta 90.000000
_cell_angle_gamma 90.000000
_cell_volume 2749.361198
_symmetry_space_group_name_H-M "C M M 2"
_symmetry_group_IT_number 35
_symmetry_cell_setting 'orthorhombic'
loop_
_space_group_symop_operation_xyz
x,y,z
-x,-y,z
-x,y,z
x,-y,z
1/2+x,1/2+y,z
1/2-x,1/2-y,z
1/2-x,1/2+y,z
1/2+x,1/2-y,z
loop_
_atom_site_type_symbol
_atom_site_label
_atom_site_fract_x
_atom_site_fract_y
_atom_site_fract_z
Si Si1 0.209171 0.175287 0.873520
Si Si2 0.291036 0.829562 0.612728
Si Si3 0.289255 0.922642 0.481954
Si Si4 0.290534 0.326626 0.189059
Si Si5 0.290093 0.576499 0.751126
Si Si6 0.000000 0.500000 0.020990
Si Si7 0.711919 0.576573 0.315974
Si Si8 0.784368 0.878294 0.029225
O O1 0.250000 0.250000 0.845278
O O2 0.282611 0.115656 0.822358
O O3 0.000000 0.168665 0.870877
O O4 0.258350 0.166835 0.958132
O O5 0.500000 0.833159 0.609312
O O6 0.250000 0.750000 0.616902
O O7 0.220165 0.869067 0.541045
O O8 0.237001 0.873898 0.682702
O O9 0.500000 0.926245 0.490278
O O10 0.253539 0.901273 0.398526
O O11 0.221828 0.000000 0.492280
O O12 0.500000 0.334925 0.189687
O O13 0.250000 0.250000 0.207502
O O14 0.218473 0.376480 0.251251
O O15 0.236913 0.343829 0.106420
O O16 0.500000 0.570068 0.760192
O O17 0.220531 0.500000 0.741158
O O18 0.842571 0.557934 0.022204
O O19 0.500000 0.574632 0.310702
O O20 0.777881 0.500000 0.307543
O O21 0.000000 0.891976 0.028763
#
# Coordination Sequence:
#
# PCOD9349927 Si02
#       8
#     8   8   8   8   8   2   8   8
#     4  10  22  40  64  89 124 166 202 250 310 364
#     4  11  23  39  59  85 118 156 199 247 303 364
#     4   9  19  37  58  82 113 150 193 245 304 360
#     4  10  22  39  61  86 122 164 203 254 312 366
#     4  10  22  40  62  90 121 157 200 248 306 363
#     4  12  26  40  68 102 120 164 222 260 308 402
#     4   9  19  36  58  85 115 154 199 245 306 366
#     4  10  24  44  64  93 133 166 206 270 316 361
#
# _framework density 21.09581
#
# number of rings (size 3 to 8) (size 9 to 14) (size 15 to 20)
#    0.000    2.069    0.000    1.862    3.862    4.690 
#    0.000    4.138    0.000    0.000    0.000    0.000 
#    0.000    0.000    0.000    0.000    0.000    0.000 
#
# Total GULP energy -161580.150726 kJ/mol
# GULP energy per Si atom -5571.729335 kJ/mol
# Density = 2.104779 g / cm^3
# Si number density = 21.095810 Si / 1000 Ang^3
#
#
#
# Elastic Constant Matrix: (Units=GPa)
#
#
# Indices 1 2 3 4 5 6 
#
# 1 54.2007 8.3503 5.3471 0.0000 0.0000 0.0000
# 2 8.3503 162.6407 103.2747 0.0000 0.0000 0.0000
# 3 5.3471 103.2747 169.6025 0.0000 0.0000 0.0000
# 4 0.0000 0.0000 0.0000 33.4754 0.0000 0.0000
# 5 0.0000 0.0000 0.0000 0.0000 20.2675 0.0000
# 6 0.0000 0.0000 0.0000 0.0000 0.0000 27.3218
#
#
#
# Elastic Compliance Matrix: (Units=1/GPa)
#
#
# Indices 1 2 3 4 5 6 
#
# 1 0.018597 -0.000950 -0.000008 0.000000 0.000000 0.000000
# 2 -0.000950 0.010073 -0.006104 0.000000 0.000000 0.000000
# 3 -0.000008 -0.006104 0.009613 0.000000 0.000000 0.000000
# 4 0.000000 0.000000 0.000000 0.029873 0.000000 0.000000
# 5 0.000000 0.000000 0.000000 0.000000 0.049340 0.000000
# 6 0.000000 0.000000 0.000000 0.000000 0.000000 0.036601
#
#
# Mechanical properties :
#
#
# Convention : Reuss Voigt Hill
#
# Bulk Modulus (GPa) = 41.39032 68.93202 55.16117
# Shear Modulus (GPa) = 28.36504 34.17772 31.27138
#
# Velocity S-wave (km/s) = 3.67083 4.02944 3.85431
# Velocity P-wave (km/s) = 6.13428 7.37530 6.78323
#
# Compressibility (1/GPa) = 0.02416024
#
# Stress axis : x y z
#
# Youngs Moduli (GPa) = 53.77195 99.27405 104.02432
#
# Poissons Ratio (x) = 0.09428 0.00083
# Poissons Ratio (y) = 0.05107 0.63494
# Poissons Ratio (z) = 0.00043 0.60595
#
# Static dielectric constant tensor:
#      x y z
#    x 1.784420 0.000000 0.000000 
#    y 0.000000 1.735190 0.000000 
#    z 0.000000 0.000000 1.772610 
# 
# From -- ./inp_files/18158.got.cif
#   From: 2010.05.17/outbox.cif.g08.bks.cpg/sg35_10_cif.got.tgz:18158.got - 2010.06.03 17:29:28.
