data_PCOD9349931
_publ_section_title
;
Structure prediction by ZEFSAII (Michael W. Deem and Ramdas Pophale) SiO2 
 PCOD9349931
Probable space group: C M M 2
;
_chemical_formula_sum "Si O2"
_cell_formula_units_Z 56
_cell_length_a 15.289889
_cell_length_b 28.318297
_cell_length_c 5.588068
_cell_angle_alpha 90.000000
_cell_angle_beta 90.000000
_cell_angle_gamma 90.000000
_cell_volume 2419.541899
_symmetry_space_group_name_H-M "C M M 2"
_symmetry_group_IT_number 35
_symmetry_cell_setting 'orthorhombic'
loop_
_space_group_symop_operation_xyz
x,y,z
-x,-y,z
-x,y,z
x,-y,z
1/2+x,1/2+y,z
1/2-x,1/2-y,z
1/2-x,1/2+y,z
1/2+x,1/2-y,z
loop_
_atom_site_type_symbol
_atom_site_label
_atom_site_fract_x
_atom_site_fract_y
_atom_site_fract_z
Si Si1 0.778409 0.132950 0.981530
Si Si2 0.851036 0.265659 0.484687
Si Si3 0.103672 0.054941 0.263369
Si Si4 0.757458 0.050364 0.644602
Si Si5 0.098124 0.781712 0.970312
Si Si6 0.598276 0.156360 0.174831
Si Si7 0.593985 0.050036 0.294066
O O1 0.743619 0.097698 0.784620
O O2 0.844613 0.173097 0.907517
O O3 0.835662 0.095612 0.142717
O O4 0.694034 0.163348 0.061874
O O5 0.750000 0.250000 0.509869
O O6 0.893283 0.251107 0.736727
O O7 0.882151 0.319366 0.432085
O O8 0.877903 0.240748 0.229879
O O9 0.146487 0.052871 0.526935
O O10 0.000000 0.065923 0.257603
O O11 0.113279 0.000000 0.173101
O O12 0.681182 0.049580 0.448506
O O13 0.750586 0.000000 0.775709
O O14 0.000000 0.798089 0.995860
O O15 0.500000 0.172937 0.099722
O O16 0.594241 0.099615 0.163399
O O17 0.500000 0.050379 0.429964
O O18 0.594441 0.000000 0.155992
#
# Coordination Sequence:
#
# PCOD9349931 Si02
#       7
#     8   8   8   8   8   8   8
#     4  12  25  41  68 104 136 186 237 308 369 442
#     4  12  27  52  77 109 149 196 246 313 371 452
#     4  10  22  42  66  95 139 189 240 298 364 441
#     4  10  22  39  63  96 138 183 233 291 362 438
#     4  12  28  49  77 109 149 192 247 312 381 449
#     4  11  24  44  72 104 139 188 241 297 370 447
#     4   9  19  38  65  98 136 178 226 284 352 432
#
# _framework density 23.144877000000001
#
# number of rings (size 3 to 8) (size 9 to 14) (size 15 to 20)
#    0.000    1.143    2.857    2.571    4.000    2.286 
#    0.000    2.857    0.000    0.000    0.000    0.000 
#    0.000    0.000    0.000    0.000    0.000    0.000 
#
# Total GULP energy -155880.040445 kJ/mol
# GULP energy per Si atom -5567.144302 kJ/mol
# Density = 2.309220 g / cm^3
# Si number density = 23.144877 Si / 1000 Ang^3
#
#
#
# Elastic Constant Matrix: (Units=GPa)
#
#
# Indices 1 2 3 4 5 6 
#
# 1 185.9645 13.1766 19.5953 0.0000 0.0000 0.0000
# 2 13.1766 96.2457 13.6095 0.0000 0.0000 0.0000
# 3 19.5953 13.6095 53.5765 0.0000 0.0000 0.0000
# 4 0.0000 0.0000 0.0000 35.7915 0.0000 0.0000
# 5 0.0000 0.0000 0.0000 0.0000 7.4995 0.0000
# 6 0.0000 0.0000 0.0000 0.0000 0.0000 27.4759
#
#
#
# Elastic Compliance Matrix: (Units=1/GPa)
#
#
# Indices 1 2 3 4 5 6 
#
# 1 0.005616 -0.000496 -0.001928 0.000000 0.000000 0.000000
# 2 -0.000496 0.010821 -0.002567 0.000000 0.000000 0.000000
# 3 -0.001928 -0.002567 0.020022 0.000000 0.000000 0.000000
# 4 0.000000 0.000000 0.000000 0.027940 0.000000 0.000000
# 5 0.000000 0.000000 0.000000 0.000000 0.133342 0.000000
# 6 0.000000 0.000000 0.000000 0.000000 0.000000 0.036396
#
#
# Mechanical properties :
#
#
# Convention : Reuss Voigt Hill
#
# Bulk Modulus (GPa) = 37.76981 47.61660 42.69321
# Shear Modulus (GPa) = 19.76720 33.44707 26.60714
#
# Velocity S-wave (km/s) = 2.92561 3.80559 3.39424
# Velocity P-wave (km/s) = 5.26940 6.31886 5.81784
#
# Compressibility (1/GPa) = 0.02647617
#
# Stress axis : x y z
#
# Youngs Moduli (GPa) = 178.07316 92.41265 49.94475
#
# Poissons Ratio (x) = 0.04586 0.09629
# Poissons Ratio (y) = 0.08836 0.12822
# Poissons Ratio (z) = 0.34330 0.23725
#
# Static dielectric constant tensor:
#      x y z
#    x 1.872080 0.000000 0.000000 
#    y 0.000000 1.925870 0.000000 
#    z 0.000000 0.000000 1.943120 
# 
# From -- ./inp_files/2084.got.cif
#   From: 2010.05.17/outbox.cif.g08.bks.cpg/sg35_2_cif.got.tgz:2084.got - 2010.06.03 17:29:28.
