data_PCOD9349177
_publ_section_title
;
Structure prediction by ZEFSAII (Michael W. Deem and Ramdas Pophale) SiO2 
 PCOD9349177
Probable space group: C M M 2
;
_chemical_formula_sum "Si O2"
_cell_formula_units_Z 48
_cell_length_a 19.820154
_cell_length_b 18.328290
_cell_length_c 7.572051
_cell_angle_alpha 90.000000
_cell_angle_beta 90.000000
_cell_angle_gamma 90.000000
_cell_volume 2750.695411
_symmetry_space_group_name_H-M "C M M 2"
_symmetry_group_IT_number 35
_symmetry_cell_setting 'orthorhombic'
loop_
_space_group_symop_operation_xyz
x,y,z
-x,-y,z
-x,y,z
x,-y,z
1/2+x,1/2+y,z
1/2-x,1/2-y,z
1/2-x,1/2+y,z
1/2+x,1/2-y,z
loop_
_atom_site_type_symbol
_atom_site_label
_atom_site_fract_x
_atom_site_fract_y
_atom_site_fract_z
Si Si1 0.281067 0.330170 0.310490
Si Si2 0.806309 0.914293 0.665451
Si Si3 0.422735 0.830353 0.998070
Si Si4 0.422099 0.298135 0.722911
Si Si5 0.424257 0.728307 0.317518
Si Si6 0.290812 0.915951 0.998716
O O1 0.250000 0.250000 0.346110
O O2 0.278184 0.379846 0.484542
O O3 0.360592 0.321090 0.265952
O O4 0.241715 0.365516 0.148708
O O5 0.871268 0.865889 0.718842
O O6 0.751369 0.906900 0.819463
O O7 0.822495 0.000000 0.643496
O O8 0.500000 0.851681 0.960269
O O9 0.405897 0.761308 0.872122
O O10 0.367586 0.891705 0.970434
O O11 0.419350 0.800338 0.198626
O O12 0.500000 0.321000 0.748916
O O13 0.417863 0.261425 0.528104
O O14 0.500000 0.697811 0.284433
O O15 0.286397 0.000000 0.053640
#
# Coordination Sequence:
#
# PCOD9349177 Si02
#       6
#     8   8   8   8   8   8
#     4  11  21  35  60  85 106 149 188 227 273 328
#     4  10  23  37  54  83 118 147 178 226 280 334
#     4  10  20  35  56  80 107 142 187 232 271 324
#     4   9  19  34  56  82 109 143 185 226 265 323
#     4   9  18  33  53  83 110 134 178 227 269 316
#     4  11  24  38  54  81 116 147 181 232 284 332
#
# _framework density 17.450133999999998
#
# number of rings (size 3 to 8) (size 9 to 14) (size 15 to 20)
#    0.000    2.000    1.667    1.500    4.667    0.667 
#    0.000    0.000    0.000    2.500    0.000   11.667 
#    0.000    0.000    0.000    0.000    0.000    0.000 
#
# Total GULP energy -133855.149515 kJ/mol
# GULP energy per Si atom -5577.297896 kJ/mol
# Density = 1.741042 g / cm^3
# Si number density = 17.450134 Si / 1000 Ang^3
#
#
#
# Elastic Constant Matrix: (Units=GPa)
#
#
# Indices 1 2 3 4 5 6 
#
# 1 81.3271 31.0363 23.0814 0.0000 0.0000 0.0000
# 2 31.0363 51.3310 22.9262 0.0000 0.0000 0.0000
# 3 23.0814 22.9262 44.7311 0.0000 0.0000 0.0000
# 4 0.0000 0.0000 0.0000 26.2049 0.0000 0.0000
# 5 0.0000 0.0000 0.0000 0.0000 21.4857 0.0000
# 6 0.0000 0.0000 0.0000 0.0000 0.0000 10.3071
#
#
#
# Elastic Compliance Matrix: (Units=1/GPa)
#
#
# Indices 1 2 3 4 5 6 
#
# 1 0.016640 -0.008074 -0.004448 0.000000 0.000000 0.000000
# 2 -0.008074 0.029183 -0.010791 0.000000 0.000000 0.000000
# 3 -0.004448 -0.010791 0.030182 0.000000 0.000000 0.000000
# 4 0.000000 0.000000 0.000000 0.038161 0.000000 0.000000
# 5 0.000000 0.000000 0.000000 0.000000 0.046543 0.000000
# 6 0.000000 0.000000 0.000000 0.000000 0.000000 0.097021
#
#
# Mechanical properties :
#
#
# Convention : Reuss Voigt Hill
#
# Bulk Modulus (GPa) = 34.03876 36.83077 35.43476
# Shear Modulus (GPa) = 15.91613 18.28923 17.10268
#
# Velocity S-wave (km/s) = 3.02336 3.24093 3.13403
# Velocity P-wave (km/s) = 5.63350 5.92933 5.78330
#
# Compressibility (1/GPa) = 0.02937828
#
# Stress axis : x y z
#
# Youngs Moduli (GPa) = 60.09726 34.26661 33.13286
#
# Poissons Ratio (x) = 0.27668 0.14737
# Poissons Ratio (y) = 0.48525 0.35753
# Poissons Ratio (z) = 0.26730 0.36977
#
# Static dielectric constant tensor:
#      x y z
#    x 1.610140 0.000000 0.000000 
#    y 0.000000 1.555420 0.000000 
#    z 0.000000 0.000000 1.594360 
# 
# From -- ./inp_files/7335.got.cif
#   From: 2010.05.17/outbox.cif.g08.bks.cpg/sg35_4_cif.got.tgz:7335.got - 2010.06.03 17:29:28.
