data_PCOD9349473
_publ_section_title
;
Structure prediction by ZEFSAII (Michael W. Deem and Ramdas Pophale) SiO2 
 PCOD9349473
Probable space group: C M M 2
;
_chemical_formula_sum "Si O2"
_cell_formula_units_Z 56
_cell_length_a 14.055151
_cell_length_b 17.726589
_cell_length_c 11.820705
_cell_angle_alpha 90.000000
_cell_angle_beta 90.000000
_cell_angle_gamma 90.000000
_cell_volume 2945.127293
_symmetry_space_group_name_H-M "C M M 2"
_symmetry_group_IT_number 35
_symmetry_cell_setting 'orthorhombic'
loop_
_space_group_symop_operation_xyz
x,y,z
-x,-y,z
-x,y,z
x,-y,z
1/2+x,1/2+y,z
1/2-x,1/2-y,z
1/2-x,1/2+y,z
1/2+x,1/2-y,z
loop_
_atom_site_type_symbol
_atom_site_label
_atom_site_fract_x
_atom_site_fract_y
_atom_site_fract_z
Si Si1 0.776936 0.584634 0.310610
Si Si2 0.260604 0.915937 0.933620
Si Si3 0.890683 0.810249 0.063674
Si Si4 0.613115 0.090682 0.717957
Si Si5 0.109995 0.357183 0.102618
Si Si6 0.888999 0.188619 0.338826
Si Si7 0.112486 0.337505 0.482793
O O1 0.762547 0.500000 0.269594
O O2 0.822073 0.634542 0.210512
O O3 0.681138 0.619732 0.361132
O O4 0.852286 0.591929 0.410124
O O5 0.309612 0.893203 0.815710
O O6 0.219291 0.000000 0.922747
O O7 0.183844 0.861689 0.995806
O O8 0.351636 0.918237 0.016578
O O9 0.878553 0.721978 0.037195
O O10 0.881443 0.805976 0.201340
O O11 0.000000 0.833422 0.040124
O O12 0.500000 0.103705 0.747640
O O13 0.638555 0.144199 0.611647
O O14 0.619559 0.000000 0.692602
O O15 0.000000 0.364274 0.136914
O O16 0.858409 0.261526 0.413303
O O17 0.000000 0.174859 0.363235
O O18 0.000000 0.334626 0.480426
#
# Coordination Sequence:
#
# PCOD9349473 Si02
#       7
#     8   8   8   8   8   8   8
#     4  12  23  34  55  87 120 154 194 248 308 361
#     4  11  22  36  59  90 122 157 198 247 303 362
#     4  10  21  38  58  80 117 162 202 249 297 346
#     4   9  19  37  60  89 127 164 198 246 308 368
#     4  11  22  36  54  81 117 157 197 242 298 359
#     4  10  21  38  58  82 117 160 204 248 294 350
#     4  10  20  37  62  88 116 154 198 246 302 365
#
# _framework density 19.014458999999999
#
# number of rings (size 3 to 8) (size 9 to 14) (size 15 to 20)
#    0.000    1.571    2.857    2.571    0.000    3.714 
#    0.000    4.286    0.000    2.571    0.000    2.000 
#    0.000    0.000    0.000    0.000    0.000    0.000 
#
# Total GULP energy -155903.908723 kJ/mol
# GULP energy per Si atom -5567.996740 kJ/mol
# Density = 1.897118 g / cm^3
# Si number density = 19.014459 Si / 1000 Ang^3
#
#
#
# Elastic Constant Matrix: (Units=GPa)
#
#
# Indices 1 2 3 4 5 6 
#
# 1 92.2692 57.4332 63.0360 0.0000 0.0000 0.0000
# 2 57.4332 95.5120 45.9435 0.0000 0.0000 0.0000
# 3 63.0360 45.9435 100.8426 0.0000 0.0000 0.0000
# 4 0.0000 0.0000 0.0000 20.1858 0.0000 0.0000
# 5 0.0000 0.0000 0.0000 0.0000 28.8140 0.0000
# 6 0.0000 0.0000 0.0000 0.0000 0.0000 5.0442
#
#
#
# Elastic Compliance Matrix: (Units=1/GPa)
#
#
# Indices 1 2 3 4 5 6 
#
# 1 0.023917 -0.009208 -0.010755 0.000000 0.000000 0.000000
# 2 -0.009208 0.016954 -0.001968 0.000000 0.000000 0.000000
# 3 -0.010755 -0.001968 0.017536 0.000000 0.000000 0.000000
# 4 0.000000 0.000000 0.000000 0.049540 0.000000 0.000000
# 5 0.000000 0.000000 0.000000 0.000000 0.034705 0.000000
# 6 0.000000 0.000000 0.000000 0.000000 0.000000 0.198246
#
#
# Mechanical properties :
#
#
# Convention : Reuss Voigt Hill
#
# Bulk Modulus (GPa) = 68.75725 69.04991 68.90358
# Shear Modulus (GPa) = 12.83337 18.95621 15.89479
#
# Velocity S-wave (km/s) = 2.60075 3.16086 2.89439
# Velocity P-wave (km/s) = 6.72737 7.05086 6.89102
#
# Compressibility (1/GPa) = 0.01454392
#
# Stress axis : x y z
#
# Youngs Moduli (GPa) = 41.81048 58.98402 57.02537
#
# Poissons Ratio (x) = 0.54315 0.61332
# Poissons Ratio (y) = 0.38501 0.11222
# Poissons Ratio (z) = 0.44968 0.11607
#
# Static dielectric constant tensor:
#      x y z
#    x 1.673450 0.000000 0.000000 
#    y 0.000000 1.726790 0.000000 
#    z 0.000000 0.000000 1.713850 
# 
# From -- ./inp_files/12963.got.cif
#   From: 2010.05.17/outbox.cif.g08.bks.cpg/sg35_7_cif.got.tgz:12963.got - 2010.06.03 17:29:28.
