data_PCOD9349248
_publ_section_title
;
Structure prediction by ZEFSAII (Michael W. Deem and Ramdas Pophale) SiO2 
 PCOD9349248
Probable space group: C M M 2
;
_chemical_formula_sum "Si O2"
_cell_formula_units_Z 64
_cell_length_a 15.920810
_cell_length_b 16.898792
_cell_length_c 12.122471
_cell_angle_alpha 90.000000
_cell_angle_beta 90.000000
_cell_angle_gamma 90.000000
_cell_volume 3261.459379
_symmetry_space_group_name_H-M "C M M 2"
_symmetry_group_IT_number 35
_symmetry_cell_setting 'orthorhombic'
loop_
_space_group_symop_operation_xyz
x,y,z
-x,-y,z
-x,y,z
x,-y,z
1/2+x,1/2+y,z
1/2-x,1/2-y,z
1/2-x,1/2+y,z
1/2+x,1/2-y,z
loop_
_atom_site_type_symbol
_atom_site_label
_atom_site_fract_x
_atom_site_fract_y
_atom_site_fract_z
Si Si1 0.712119 0.591587 0.059570
Si Si2 0.594190 0.596000 0.255474
Si Si3 0.403551 0.091067 0.306012
Si Si4 0.653316 0.278483 0.909886
Si Si5 0.295101 0.829777 0.493520
Si Si6 0.626933 0.591738 0.511045
Si Si7 0.095052 0.359198 0.062232
Si Si8 0.907640 0.239223 0.662168
O O1 0.693932 0.500000 0.055568
O O2 0.671298 0.622026 0.176164
O O3 0.812837 0.601089 0.041514
O O4 0.661066 0.636344 0.965060
O O5 0.500000 0.622273 0.219721
O O6 0.594567 0.500000 0.253876
O O7 0.605606 0.615925 0.384701
O O8 0.500000 0.085670 0.340691
O O9 0.352500 0.132823 0.400867
O O10 0.401852 0.142460 0.194703
O O11 0.374176 0.000000 0.282380
O O12 0.750000 0.250000 0.905366
O O13 0.617015 0.275599 0.787959
O O14 0.603293 0.221068 0.992979
O O15 0.250000 0.750000 0.449908
O O16 0.226459 0.895356 0.522810
O O17 0.344132 0.797740 0.600116
O O18 0.603034 0.500000 0.527739
O O19 0.591845 0.656388 0.595451
O O20 0.000000 0.393458 0.037811
O O21 0.000000 0.274784 0.656999
#
# Coordination Sequence:
#
# PCOD9349248 Si02
#       8
#     8   8   8   8   8   8   8   8
#     4  10  21  37  60  89 118 150 193 246 300 349
#     4   9  18  33  53  81 118 153 185 228 286 348
#     4  10  20  35  58  88 118 145 180 230 282 333
#     4  10  22  40  58  79 111 152 197 241 286 341
#     4  10  21  36  56  83 115 152 188 226 279 343
#     4  10  20  35  58  85 113 148 189 235 287 341
#     4  10  21  37  59  86 118 156 192 231 288 358
#     4  11  23  39  58  80 110 149 194 240 286 343
#
# _framework density 19.623117000000001
#
# number of rings (size 3 to 8) (size 9 to 14) (size 15 to 20)
#    0.000    2.000    0.000    3.750    0.000    7.500 
#    0.000    2.500    0.000    2.250    0.000    1.750 
#    0.000    0.000    0.000    0.000    0.000    0.000 
#
# Total GULP energy -178319.694562 kJ/mol
# GULP energy per Si atom -5572.490455 kJ/mol
# Density = 1.957845 g / cm^3
# Si number density = 19.623117 Si / 1000 Ang^3
#
#
#
# Elastic Constant Matrix: (Units=GPa)
#
#
# Indices 1 2 3 4 5 6 
#
# 1 99.5133 36.2706 55.1571 0.0000 0.0000 0.0000
# 2 36.2706 50.7467 47.5977 0.0000 0.0000 0.0000
# 3 55.1571 47.5977 118.5078 0.0000 0.0000 0.0000
# 4 0.0000 0.0000 0.0000 18.3178 0.0000 0.0000
# 5 0.0000 0.0000 0.0000 0.0000 46.5237 0.0000
# 6 0.0000 0.0000 0.0000 0.0000 0.0000 10.9908
#
#
#
# Elastic Compliance Matrix: (Units=1/GPa)
#
#
# Indices 1 2 3 4 5 6 
#
# 1 0.014806 -0.006608 -0.004237 0.000000 0.000000 0.000000
# 2 -0.006608 0.034566 -0.010807 0.000000 0.000000 0.000000
# 3 -0.004237 -0.010807 0.014751 0.000000 0.000000 0.000000
# 4 0.000000 0.000000 0.000000 0.054592 0.000000 0.000000
# 5 0.000000 0.000000 0.000000 0.000000 0.021494 0.000000
# 6 0.000000 0.000000 0.000000 0.000000 0.000000 0.090985
#
#
# Mechanical properties :
#
#
# Convention : Reuss Voigt Hill
#
# Bulk Modulus (GPa) = 48.03688 60.75761 54.39724
# Shear Modulus (GPa) = 17.76591 23.81596 20.79094
#
# Velocity S-wave (km/s) = 3.01218 3.48755 3.25855
# Velocity P-wave (km/s) = 6.05231 6.87363 6.47601
#
# Compressibility (1/GPa) = 0.02081734
#
# Stress axis : x y z
#
# Youngs Moduli (GPa) = 67.54065 28.93053 67.79242
#
# Poissons Ratio (x) = 0.19118 0.28723
# Poissons Ratio (y) = 0.44633 0.73265
# Poissons Ratio (z) = 0.28617 0.31266
#
# Static dielectric constant tensor:
#      x y z
#    x 1.741200 0.000000 0.000000 
#    y 0.000000 1.681840 0.000000 
#    z 0.000000 0.000000 1.665350 
# 
# From -- ./inp_files/13217.got.cif
#   From: 2010.05.17/outbox.cif.g08.bks.cpg/sg35_7_cif.got.tgz:13217.got - 2010.06.03 17:29:28.
