data_PCOD9349406
_publ_section_title
;
Structure prediction by ZEFSAII (Michael W. Deem and Ramdas Pophale) SiO2 
 PCOD9349406
Probable space group: C M M 2
;
_chemical_formula_sum "Si O2"
_cell_formula_units_Z 64
_cell_length_a 28.393406
_cell_length_b 8.722179
_cell_length_c 13.412706
_cell_angle_alpha 90.000000
_cell_angle_beta 90.000000
_cell_angle_gamma 90.000000
_cell_volume 3321.688423
_symmetry_space_group_name_H-M "C M M 2"
_symmetry_group_IT_number 35
_symmetry_cell_setting 'orthorhombic'
loop_
_space_group_symop_operation_xyz
x,y,z
-x,-y,z
-x,y,z
x,-y,z
1/2+x,1/2+y,z
1/2-x,1/2-y,z
1/2-x,1/2+y,z
1/2+x,1/2-y,z
loop_
_atom_site_type_symbol
_atom_site_label
_atom_site_fract_x
_atom_site_fract_y
_atom_site_fract_z
Si Si1 0.197060 0.183684 0.049900
Si Si2 0.889072 0.185428 0.749360
Si Si3 0.302577 0.683163 0.273186
Si Si4 0.302427 0.182182 0.843078
Si Si5 0.893246 0.318506 0.358585
Si Si6 0.442920 0.679883 0.167118
Si Si7 0.945362 0.186719 0.946069
Si Si8 0.554567 0.685253 0.550498
O O1 0.250000 0.250000 0.052643
O O2 0.178894 0.220075 0.160492
O O3 0.197029 0.000000 0.038301
O O4 0.177276 0.256159 0.949177
O O5 0.837635 0.258222 0.758757
O O6 0.917663 0.235451 0.848082
O O7 0.917363 0.229024 0.650415
O O8 0.885178 0.000000 0.751734
O O9 0.299944 0.500000 0.280613
O O10 0.250000 0.750000 0.284628
O O11 0.340827 0.749766 0.348181
O O12 0.250000 0.250000 0.831492
O O13 0.299748 0.000000 0.845989
O O14 0.890588 0.500000 0.365528
O O15 0.921322 0.270199 0.258888
O O16 0.920354 0.251357 0.453378
O O17 0.500000 0.686811 0.169796
O O18 0.429481 0.500000 0.177435
O O19 0.428177 0.734270 0.056235
O O20 0.000000 0.231676 0.936590
O O21 0.944027 0.000000 0.948311
O O22 0.500000 0.733515 0.555747
O O23 0.555227 0.500000 0.544496
#
# Coordination Sequence:
#
# PCOD9349406 Si02
#       8
#     8   8   8   8   8   8   8   8
#     4   9  17  31  53  80 112 152 194 237 285 338
#     4  10  20  36  61  90 117 148 194 245 298 354
#     4  10  21  38  60  86 119 156 198 246 297 352
#     4  11  22  36  55  82 120 160 200 242 289 345
#     4  12  25  38  57  85 119 158 202 246 296 355
#     4   9  18  34  56  83 116 153 193 238 293 357
#     4   8  15  30  55  86 116 146 183 231 289 352
#     4  10  22  42  67  91 116 151 199 252 301 356
#
# _framework density 19.267309999999998
#
# number of rings (size 3 to 8) (size 9 to 14) (size 15 to 20)
#    0.000    2.125    0.000    5.250    1.750    5.500 
#    0.000    0.625    0.000    4.875    0.000    0.000 
#    0.000    0.000    0.000    0.000    0.000    0.000 
#
# Total GULP energy -178694.168384 kJ/mol
# GULP energy per Si atom -5584.192762 kJ/mol
# Density = 1.922346 g / cm^3
# Si number density = 19.267310 Si / 1000 Ang^3
#
#
#
# Elastic Constant Matrix: (Units=GPa)
#
#
# Indices 1 2 3 4 5 6 
#
# 1 127.7579 44.9373 90.9717 0.0000 0.0000 0.0000
# 2 44.9373 56.1199 50.0178 0.0000 0.0000 0.0000
# 3 90.9717 50.0178 149.6514 0.0000 0.0000 0.0000
# 4 0.0000 0.0000 0.0000 -1.5135 0.0000 0.0000
# 5 0.0000 0.0000 0.0000 0.0000 38.3723 0.0000
# 6 0.0000 0.0000 0.0000 0.0000 0.0000 23.9621
#
#
#
# Elastic Compliance Matrix: (Units=1/GPa)
#
#
# Indices 1 2 3 4 5 6 
#
# 1 0.014904 -0.005497 -0.007223 0.000000 0.000000 0.000000
# 2 -0.005497 0.027406 -0.005819 0.000000 0.000000 0.000000
# 3 -0.007223 -0.005819 0.013018 0.000000 0.000000 0.000000
# 4 0.000000 0.000000 0.000000 -0.660736 0.000000 0.000000
# 5 0.000000 0.000000 0.000000 0.000000 0.026060 0.000000
# 6 0.000000 0.000000 0.000000 0.000000 0.000000 0.041733
#
#
# Mechanical properties :
#
#
# Convention : Reuss Voigt Hill
#
# Bulk Modulus (GPa) = 54.78952 78.37587 66.58270
# Shear Modulus (GPa) = -10.11213 22.00434 5.94611
#
# Velocity S-wave (km/s) = -2.29341 3.38310 1.75864
# Velocity P-wave (km/s) = 4.63522 7.48511 6.22544
#
# Compressibility (1/GPa) = 0.01825167
#
# Stress axis : x y z
#
# Youngs Moduli (GPa) = 67.09761 36.48798 76.81932
#
# Poissons Ratio (x) = 0.20056 0.55484
# Poissons Ratio (y) = 0.36881 0.44699
# Poissons Ratio (z) = 0.48462 0.21231
#
# Static dielectric constant tensor:
#      x y z
#    x 1.683630 0.000000 0.000000 
#    y 0.000000 1.639160 0.000000 
#    z 0.000000 0.000000 1.672180 
# 
# From -- ./inp_files/14560.got.cif
#   From: 2010.05.17/outbox.cif.g08.bks.cpg/sg35_8_cif.got.tgz:14560.got - 2010.06.03 17:29:28.
