data_PCOD9349789
_publ_section_title
;
Structure prediction by ZEFSAII (Michael W. Deem and Ramdas Pophale) SiO2 
 PCOD9349789
Probable space group: C M M 2
;
_chemical_formula_sum "Si O2"
_cell_formula_units_Z 64
_cell_length_a 31.568423
_cell_length_b 8.716422
_cell_length_c 12.100339
_cell_angle_alpha 90.000000
_cell_angle_beta 90.000000
_cell_angle_gamma 90.000000
_cell_volume 3329.574011
_symmetry_space_group_name_H-M "C M M 2"
_symmetry_group_IT_number 35
_symmetry_cell_setting 'orthorhombic'
loop_
_space_group_symop_operation_xyz
x,y,z
-x,-y,z
-x,y,z
x,-y,z
1/2+x,1/2+y,z
1/2-x,1/2-y,z
1/2-x,1/2+y,z
1/2+x,1/2-y,z
loop_
_atom_site_type_symbol
_atom_site_label
_atom_site_fract_x
_atom_site_fract_y
_atom_site_fract_z
Si Si1 0.205740 0.182574 0.895870
Si Si2 0.583818 0.682563 0.127479
Si Si3 0.951886 0.184125 0.369457
Si Si4 0.627270 0.816866 0.498857
Si Si5 0.871891 0.684551 0.757626
Si Si6 0.452299 0.815529 0.904400
Si Si7 0.705625 0.317242 0.362617
Si Si8 0.677861 0.182765 0.129335
O O1 0.250000 0.250000 0.853063
O O2 0.166656 0.235772 0.820725
O O3 0.207762 0.000000 0.901027
O O4 0.197965 0.249311 0.018355
O O5 0.592132 0.500000 0.122047
O O6 0.559067 0.714452 0.240974
O O7 0.628429 0.770592 0.129039
O O8 0.558137 0.735708 0.020436
O O9 0.916537 0.264322 0.443435
O O10 0.000000 0.232095 0.393916
O O11 0.948866 0.000000 0.384742
O O12 0.627580 0.777585 0.628383
O O13 0.666088 0.737155 0.435835
O O14 0.631749 0.000000 0.487158
O O15 0.866917 0.500000 0.768540
O O16 0.915964 0.727133 0.817135
O O17 0.500000 0.777406 0.868199
O O18 0.449999 0.000000 0.919909
O O19 0.707351 0.500000 0.359421
O O20 0.750000 0.250000 0.405130
O O21 0.698150 0.253184 0.239248
O O22 0.682424 0.000000 0.130170
#
# Coordination Sequence:
#
# PCOD9349789 Si02
#       8
#     8   8   8   8   8   8   8   8
#     4  12  25  42  66  95 127 165 206 252 310 370
#     4  11  21  36  61  93 126 166 205 250 309 372
#     4  10  22  40  62  90 128 169 208 257 314 372
#     4  11  24  42  65  92 123 165 214 263 315 370
#     4  10  23  43  64  89 125 165 211 262 311 366
#     4  10  21  38  62  91 125 166 208 255 310 368
#     4  12  25  43  66  94 127 164 206 255 312 373
#     4  12  23  39  64  95 130 164 202 251 309 373
#
# _framework density 19.221678000000001
#
# number of rings (size 3 to 8) (size 9 to 14) (size 15 to 20)
#    0.000    1.000    2.500    4.875    0.000    3.500 
#    0.000    1.250    0.000    0.000    0.000    0.000 
#    0.000    0.000    0.000    0.000    0.000    0.000 
#
# Total GULP energy -179041.010476 kJ/mol
# GULP energy per Si atom -5595.031577 kJ/mol
# Density = 1.917793 g / cm^3
# Si number density = 19.221678 Si / 1000 Ang^3
#
#
#
# Elastic Constant Matrix: (Units=GPa)
#
#
# Indices 1 2 3 4 5 6 
#
# 1 175.3645 74.0915 72.2617 0.0000 0.0000 0.0000
# 2 74.0915 105.5096 73.7181 0.0000 0.0000 0.0000
# 3 72.2617 73.7181 130.7459 0.0000 0.0000 0.0000
# 4 0.0000 0.0000 0.0000 8.8771 0.0000 0.0000
# 5 0.0000 0.0000 0.0000 0.0000 -15.0145 0.0000
# 6 0.0000 0.0000 0.0000 0.0000 0.0000 32.2895
#
#
#
# Elastic Compliance Matrix: (Units=1/GPa)
#
#
# Indices 1 2 3 4 5 6 
#
# 1 0.008472 -0.004418 -0.002191 0.000000 0.000000 0.000000
# 2 -0.004418 0.017943 -0.007675 0.000000 0.000000 0.000000
# 3 -0.002191 -0.007675 0.013187 0.000000 0.000000 0.000000
# 4 0.000000 0.000000 0.000000 0.112650 0.000000 0.000000
# 5 0.000000 0.000000 0.000000 0.000000 -0.066602 0.000000
# 6 0.000000 0.000000 0.000000 0.000000 0.000000 0.030970
#
#
# Mechanical properties :
#
#
# Convention : Reuss Voigt Hill
#
# Bulk Modulus (GPa) = 90.63698 94.64032 92.63865
# Shear Modulus (GPa) = 33.58766 18.00034 25.79400
#
# Velocity S-wave (km/s) = 4.18471 3.06348 3.66720
# Velocity P-wave (km/s) = 8.40267 7.86488 8.13822
#
# Compressibility (1/GPa) = 0.01103302
#
# Stress axis : x y z
#
# Youngs Moduli (GPa) = 118.03469 55.73340 75.83437
#
# Poissons Ratio (x) = 0.24625 0.16617
# Poissons Ratio (y) = 0.52151 0.58200
# Poissons Ratio (z) = 0.25864 0.42773
#
# Static dielectric constant tensor:
#      x y z
#    x 1.664470 0.000000 0.000000 
#    y 0.000000 1.647050 0.000000 
#    z 0.000000 0.000000 1.638580 
# 
# From -- ./inp_files/11887.got.cif
#   From: 2010.05.17/outbox.cif.g08.bks.cpg/sg35_6_cif.got.tgz:11887.got - 2010.06.03 17:29:28.
