data_PCOD9349197
_publ_section_title
;
Structure prediction by ZEFSAII (Michael W. Deem and Ramdas Pophale) SiO2 
 PCOD9349197
Probable space group: C M M 2
;
_chemical_formula_sum "Si O2"
_cell_formula_units_Z 56
_cell_length_a 18.445259
_cell_length_b 8.856201
_cell_length_c 18.503018
_cell_angle_alpha 90.000000
_cell_angle_beta 90.000000
_cell_angle_gamma 90.000000
_cell_volume 3022.559047
_symmetry_space_group_name_H-M "C M M 2"
_symmetry_group_IT_number 35
_symmetry_cell_setting 'orthorhombic'
loop_
_space_group_symop_operation_xyz
x,y,z
-x,-y,z
-x,y,z
x,-y,z
1/2+x,1/2+y,z
1/2-x,1/2-y,z
1/2-x,1/2+y,z
1/2+x,1/2-y,z
loop_
_atom_site_type_symbol
_atom_site_label
_atom_site_fract_x
_atom_site_fract_y
_atom_site_fract_z
Si Si1 0.586211 0.679921 0.013990
Si Si2 0.087424 0.175626 0.315990
Si Si3 0.911789 0.325802 0.165744
Si Si4 0.414584 0.819818 0.731672
Si Si5 0.170014 0.680098 0.448012
Si Si6 0.670170 0.180930 0.878796
Si Si7 0.169822 0.819742 0.599056
O O1 0.500000 0.711255 0.005957
O O2 0.596024 0.500000 0.013680
O O3 0.610372 0.746619 0.091243
O O4 0.629067 0.754493 0.948437
O O5 0.111388 0.239252 0.238076
O O6 0.121378 0.270711 0.380746
O O7 0.000000 0.185524 0.318872
O O8 0.107817 0.000000 0.323313
O O9 0.888618 0.500000 0.167514
O O10 0.000000 0.323562 0.166098
O O11 0.500000 0.790218 0.738156
O O12 0.374261 0.780709 0.806204
O O13 0.379932 0.730431 0.665316
O O14 0.404682 0.000000 0.719337
O O15 0.174558 0.500000 0.454278
O O16 0.250000 0.750000 0.437446
O O17 0.142193 0.750785 0.523331
O O18 0.750000 0.250000 0.874251
O O19 0.674294 0.000000 0.884039
O O20 0.250000 0.750000 0.610436
O O21 0.174981 0.000000 0.593736
#
# Coordination Sequence:
#
# PCOD9349197 Si02
#       7
#     8   8   8   8   8   8   8
#     4  10  20  35  57  84 113 146 186 232 280 330
#     4  10  20  35  56  83 115 149 188 233 279 329
#     4   9  17  31  53  81 112 147 187 229 277 332
#     4  10  22  40  61  86 115 146 183 228 277 329
#     4  11  22  38  59  82 112 149 189 231 279 334
#     4  11  23  39  59  83 113 149 187 228 277 332
#     4  11  22  38  60  84 112 147 187 229 277 332
#
# _framework density 18.527346000000001
#
# number of rings (size 3 to 8) (size 9 to 14) (size 15 to 20)
#    0.000    1.714    0.000    6.000    0.000    7.143 
#    0.000    0.714    0.000    0.000    0.000    0.000 
#    0.000    0.000    0.000    0.000    0.000    0.000 
#
# Total GULP energy -156470.647918 kJ/mol
# GULP energy per Si atom -5588.237426 kJ/mol
# Density = 1.848518 g / cm^3
# Si number density = 18.527346 Si / 1000 Ang^3
#
#
#
# Elastic Constant Matrix: (Units=GPa)
#
#
# Indices 1 2 3 4 5 6 
#
# 1 56.9301 58.8397 68.7266 0.0000 0.0000 0.0000
# 2 58.8397 141.9279 96.7477 0.0000 0.0000 0.0000
# 3 68.7266 96.7477 185.4205 0.0000 0.0000 0.0000
# 4 0.0000 0.0000 0.0000 44.5899 0.0000 0.0000
# 5 0.0000 0.0000 0.0000 0.0000 58.2357 0.0000
# 6 0.0000 0.0000 0.0000 0.0000 0.0000 24.9909
#
#
#
# Elastic Compliance Matrix: (Units=1/GPa)
#
#
# Indices 1 2 3 4 5 6 
#
# 1 0.038938 -0.009785 -0.009327 0.000000 0.000000 0.000000
# 2 -0.009785 0.013394 -0.003362 0.000000 0.000000 0.000000
# 3 -0.009327 -0.003362 0.010604 0.000000 0.000000 0.000000
# 4 0.000000 0.000000 0.000000 0.022427 0.000000 0.000000
# 5 0.000000 0.000000 0.000000 0.000000 0.017172 0.000000
# 6 0.000000 0.000000 0.000000 0.000000 0.000000 0.040015
#
#
# Mechanical properties :
#
#
# Convention : Reuss Voigt Hill
#
# Bulk Modulus (GPa) = 55.58932 92.54515 74.06724
# Shear Modulus (GPa) = 25.84066 36.22759 31.03412
#
# Velocity S-wave (km/s) = 3.73866 4.42674 4.09717
# Velocity P-wave (km/s) = 6.97896 8.72852 7.90231
#
# Compressibility (1/GPa) = 0.01798907
#
# Stress axis : x y z
#
# Youngs Moduli (GPa) = 25.68172 74.65989 94.30024
#
# Poissons Ratio (x) = 0.73053 0.87955
# Poissons Ratio (y) = 0.25129 0.31703
# Poissons Ratio (z) = 0.23954 0.25100
#
# Static dielectric constant tensor:
#      x y z
#    x 1.619490 0.000000 0.000000 
#    y 0.000000 1.608870 0.000000 
#    z 0.000000 0.000000 1.616580 
# 
# From -- ./inp_files/17406.got.cif
#   From: 2010.05.17/outbox.cif.g08.bks.cpg/sg35_9_cif.got.tgz:17406.got - 2010.06.03 17:29:28.
