data_PCOD9349920
_publ_section_title
;
Structure prediction by ZEFSAII (Michael W. Deem and Ramdas Pophale) SiO2 
 PCOD9349920
Probable space group: C M M 2
;
_chemical_formula_sum "Si O2"
_cell_formula_units_Z 64
_cell_length_a 29.006372
_cell_length_b 8.503119
_cell_length_c 13.325037
_cell_angle_alpha 90.000000
_cell_angle_beta 90.000000
_cell_angle_gamma 90.000000
_cell_volume 3286.548859
_symmetry_space_group_name_H-M "C M M 2"
_symmetry_group_IT_number 35
_symmetry_cell_setting 'orthorhombic'
loop_
_space_group_symop_operation_xyz
x,y,z
-x,-y,z
-x,y,z
x,-y,z
1/2+x,1/2+y,z
1/2-x,1/2-y,z
1/2-x,1/2+y,z
1/2+x,1/2-y,z
loop_
_atom_site_type_symbol
_atom_site_label
_atom_site_fract_x
_atom_site_fract_y
_atom_site_fract_z
Si Si1 0.447564 0.192015 0.177270
Si Si2 0.055976 0.321267 0.398356
Si Si3 0.802376 0.687608 0.493816
Si Si4 0.644820 0.811429 0.085375
Si Si5 0.948247 0.187879 0.613004
Si Si6 0.646006 0.690787 0.690461
Si Si7 0.302592 0.311940 0.280966
Si Si8 0.302024 0.688283 0.891632
O O1 0.500000 0.244010 0.157280
O O2 0.431892 0.244958 0.288940
O O3 0.408709 0.237143 0.097978
O O4 0.448500 0.000000 0.182753
O O5 0.073758 0.500000 0.408421
O O6 0.066563 0.227686 0.498942
O O7 0.000000 0.329438 0.394399
O O8 0.801932 0.500000 0.490229
O O9 0.750000 0.750000 0.501831
O O10 0.829528 0.746773 0.590631
O O11 0.821599 0.752232 0.388123
O O12 0.670410 0.754774 0.185903
O O13 0.647024 0.000000 0.081202
O O14 0.669636 0.742906 0.988426
O O15 0.907413 0.242977 0.685369
O O16 0.000000 0.252467 0.629814
O O17 0.950968 0.000000 0.621670
O O18 0.647098 0.500000 0.687898
O O19 0.672740 0.743326 0.789828
O O20 0.302545 0.500000 0.279471
O O21 0.250000 0.250000 0.274869
O O22 0.300688 0.500000 0.890321
O O23 0.250000 0.750000 0.895936
#
# Coordination Sequence:
#
# PCOD9349920 Si02
#       8
#     8   8   8   8   8   8   8   8
#     4   8  16  32  54  81 115 153 192 234 281 335
#     4   8  14  27  48  75 108 147 188 228 272 325
#     4  11  22  37  58  85 117 150 187 233 291 353
#     4  11  22  37  60  88 117 150 195 241 292 346
#     4   9  18  33  53  80 115 153 192 234 282 335
#     4  10  22  39  59  84 115 152 195 240 290 346
#     4  11  22  38  58  83 118 153 189 233 288 351
#     4  11  24  43  64  85 112 148 194 245 298 352
#
# _framework density 19.473313999999998
#
# number of rings (size 3 to 8) (size 9 to 14) (size 15 to 20)
#    0.000    2.125    0.000    5.250    1.750    2.500 
#    0.000    1.250    0.000    3.000    0.000    0.000 
#    0.000    0.000    0.000    0.000    0.000    0.000 
#
# Total GULP energy -178687.036520 kJ/mol
# GULP energy per Si atom -5583.969891 kJ/mol
# Density = 1.942899 g / cm^3
# Si number density = 19.473314 Si / 1000 Ang^3
#
#
#
# Elastic Constant Matrix: (Units=GPa)
#
#
# Indices 1 2 3 4 5 6 
#
# 1 140.9440 23.4664 90.3472 0.0000 0.0000 0.0000
# 2 23.4664 42.5016 23.8305 0.0000 0.0000 0.0000
# 3 90.3472 23.8305 142.2527 0.0000 0.0000 0.0000
# 4 0.0000 0.0000 0.0000 21.7935 0.0000 0.0000
# 5 0.0000 0.0000 0.0000 0.0000 37.2771 0.0000
# 6 0.0000 0.0000 0.0000 0.0000 0.0000 -7.1593
#
#
#
# Elastic Compliance Matrix: (Units=1/GPa)
#
#
# Indices 1 2 3 4 5 6 
#
# 1 0.012231 -0.002646 -0.007325 0.000000 0.000000 0.000000
# 2 -0.002646 0.026540 -0.002765 0.000000 0.000000 0.000000
# 3 -0.007325 -0.002765 0.012145 0.000000 0.000000 0.000000
# 4 0.000000 0.000000 0.000000 0.045885 0.000000 0.000000
# 5 0.000000 0.000000 0.000000 0.000000 0.026826 0.000000
# 6 0.000000 0.000000 0.000000 0.000000 0.000000 -0.139679
#
#
# Mechanical properties :
#
#
# Convention : Reuss Voigt Hill
#
# Bulk Modulus (GPa) = 39.30290 66.77629 53.03960
# Shear Modulus (GPa) = 279.29551 22.91921 151.10736
#
# Velocity S-wave (km/s) = 11.98900 3.43440 8.81848
# Velocity P-wave (km/s) = 14.55592 7.07760 11.44481
#
# Compressibility (1/GPa) = 0.02544341
#
# Stress axis : x y z
#
# Youngs Moduli (GPa) = 81.76048 37.67887 82.33770
#
# Poissons Ratio (x) = 0.09970 0.60310
# Poissons Ratio (y) = 0.21634 0.22770
# Poissons Ratio (z) = 0.59888 0.10420
#
# Static dielectric constant tensor:
#      x y z
#    x 1.724490 0.000000 0.000000 
#    y 0.000000 1.660970 0.000000 
#    z 0.000000 0.000000 1.656550 
# 
# From -- ./inp_files/14583.got.cif
#   From: 2010.05.17/outbox.cif.g08.bks.cpg/sg35_8_cif.got.tgz:14583.got - 2010.06.03 17:29:28.
