data_PCOD9349830
_publ_section_title
;
Structure prediction by ZEFSAII (Michael W. Deem and Ramdas Pophale) SiO2 
 PCOD9349830
Probable space group: C M M 2
;
_chemical_formula_sum "Si O2"
_cell_formula_units_Z 48
_cell_length_a 16.114914
_cell_length_b 8.796531
_cell_length_c 17.099761
_cell_angle_alpha 90.000000
_cell_angle_beta 90.000000
_cell_angle_gamma 90.000000
_cell_volume 2423.982444
_symmetry_space_group_name_H-M "C M M 2"
_symmetry_group_IT_number 35
_symmetry_cell_setting 'orthorhombic'
loop_
_space_group_symop_operation_xyz
x,y,z
-x,-y,z
-x,y,z
x,-y,z
1/2+x,1/2+y,z
1/2-x,1/2-y,z
1/2-x,1/2+y,z
1/2+x,1/2-y,z
loop_
_atom_site_type_symbol
_atom_site_label
_atom_site_fract_x
_atom_site_fract_y
_atom_site_fract_z
Si Si1 0.158145 0.317983 0.501030
Si Si2 0.500000 0.817116 0.091748
Si Si3 0.837748 0.180027 0.175038
Si Si4 0.097363 0.177315 0.660370
Si Si5 0.836743 0.318150 0.815717
Si Si6 0.597740 0.179294 0.327732
Si Si7 0.500000 0.815498 0.909320
O O1 0.160232 0.500000 0.509334
O O2 0.250000 0.250000 0.500199
O O3 0.112111 0.246943 0.575149
O O4 0.116432 0.282527 0.417663
O O5 0.416856 0.752281 0.131350
O O6 0.500000 0.000000 0.099861
O O7 0.500000 0.775213 0.000252
O O8 0.750000 0.250000 0.148836
O O9 0.851181 0.222647 0.266192
O O10 0.837203 0.000000 0.164578
O O11 0.147801 0.264836 0.726856
O O12 0.000000 0.189430 0.679576
O O13 0.121211 0.000000 0.660349
O O14 0.833021 0.500000 0.818668
O O15 0.750000 0.250000 0.844234
O O16 0.916295 0.264285 0.865736
O O17 0.500000 0.199773 0.312538
O O18 0.617327 0.000000 0.315996
O O19 0.500000 0.000000 0.904821
#
# Coordination Sequence:
#
# PCOD9349830 Si02
#       7
#     8   4   8   8   8   8   4
#     4  11  23  38  57  85 121 164 212 261 314 370
#     4  11  23  45  71  98 133 166 207 265 322 387
#     4  12  25  42  66  98 131 173 218 262 320 382
#     4  11  23  39  60  88 121 162 211 262 315 369
#     4  11  22  41  66  95 128 166 210 256 312 376
#     4  10  21  39  63  90 123 165 211 263 320 376
#     4   9  22  43  69  96 127 166 205 253 318 381
#
# _framework density 19.802122000000001
#
# number of rings (size 3 to 8) (size 9 to 14) (size 15 to 20)
#    0.000    1.167    1.667    4.750    0.000    5.000 
#    0.000    5.000    0.000    0.000    0.000    0.000 
#    0.000    0.000    0.000    0.000    0.000    0.000 
#
# Total GULP energy -134247.239935 kJ/mol
# GULP energy per Si atom -5593.634997 kJ/mol
# Density = 1.975705 g / cm^3
# Si number density = 19.802122 Si / 1000 Ang^3
#
#
#
# Elastic Constant Matrix: (Units=GPa)
#
#
# Indices 1 2 3 4 5 6 
#
# 1 148.0516 65.7935 61.6227 0.0000 0.0000 0.0000
# 2 65.7935 99.6231 45.6656 0.0000 0.0000 0.0000
# 3 61.6227 45.6656 110.0834 0.0000 0.0000 0.0000
# 4 0.0000 0.0000 0.0000 15.5788 0.0000 0.0000
# 5 0.0000 0.0000 0.0000 0.0000 13.7940 0.0000
# 6 0.0000 0.0000 0.0000 0.0000 0.0000 29.0537
#
#
#
# Elastic Compliance Matrix: (Units=1/GPa)
#
#
# Indices 1 2 3 4 5 6 
#
# 1 0.010696 -0.005333 -0.003775 0.000000 0.000000 0.000000
# 2 -0.005333 0.015054 -0.003259 0.000000 0.000000 0.000000
# 3 -0.003775 -0.003259 0.012549 0.000000 0.000000 0.000000
# 4 0.000000 0.000000 0.000000 0.064190 0.000000 0.000000
# 5 0.000000 0.000000 0.000000 0.000000 0.072495 0.000000
# 6 0.000000 0.000000 0.000000 0.000000 0.000000 0.034419
#
#
# Mechanical properties :
#
#
# Convention : Reuss Voigt Hill
#
# Bulk Modulus (GPa) = 73.72501 78.21353 75.96927
# Shear Modulus (GPa) = 20.95033 23.99705 22.47369
#
# Velocity S-wave (km/s) = 3.25620 3.48493 3.37250
# Velocity P-wave (km/s) = 7.17278 7.46835 7.32206
#
# Compressibility (1/GPa) = 0.01356392
#
# Stress axis : x y z
#
# Youngs Moduli (GPa) = 93.49539 66.42686 79.68659
#
# Poissons Ratio (x) = 0.35428 0.30080
# Poissons Ratio (y) = 0.49865 0.25973
# Poissons Ratio (z) = 0.35293 0.21651
#
# Static dielectric constant tensor:
#      x y z
#    x 1.687700 0.000000 0.000000 
#    y 0.000000 1.667700 0.000000 
#    z 0.000000 0.000000 1.685560 
# 
# From -- ./inp_files/18787.got.cif
#   From: 2010.05.17/outbox.cif.g08.bks.cpg/sg35_10_cif.got.tgz:18787.got - 2010.06.03 17:29:28.
