data_PCOD9349805
_publ_section_title
;
Structure prediction by ZEFSAII (Michael W. Deem and Ramdas Pophale) SiO2 
 PCOD9349805
Probable space group: C M M 2
;
_chemical_formula_sum "Si O2"
_cell_formula_units_Z 32
_cell_length_a 23.237894
_cell_length_b 13.133607
_cell_length_c 5.217980
_cell_angle_alpha 90.000000
_cell_angle_beta 90.000000
_cell_angle_gamma 90.000000
_cell_volume 1592.513759
_symmetry_space_group_name_H-M "C M M 2"
_symmetry_group_IT_number 35
_symmetry_cell_setting 'orthorhombic'
loop_
_space_group_symop_operation_xyz
x,y,z
-x,-y,z
-x,y,z
x,-y,z
1/2+x,1/2+y,z
1/2-x,1/2-y,z
1/2-x,1/2+y,z
1/2+x,1/2-y,z
loop_
_atom_site_type_symbol
_atom_site_label
_atom_site_fract_x
_atom_site_fract_y
_atom_site_fract_z
Si Si1 0.263990 0.000000 0.772550
Si Si2 0.640079 0.221647 0.375752
Si Si3 0.324332 0.681096 0.870359
Si Si4 0.565922 0.614632 0.607707
Si Si5 0.339766 0.000000 0.271369
O O1 0.223685 0.902477 0.822903
O O2 0.288723 0.000000 0.484486
O O3 0.313849 0.000000 0.986358
O O4 0.674327 0.236174 0.641868
O O5 0.585575 0.296260 0.414643
O O6 0.626677 0.104830 0.320273
O O7 0.677369 0.266231 0.143737
O O8 0.386936 0.627855 0.831781
O O9 0.500000 0.626889 0.688029
O O10 0.572730 0.500000 0.501141
#
# Coordination Sequence:
#
# PCOD9349805 Si02
#       5
#     4   8   8   8   4
#     4  12  24  38  65  90 121 168 200 254 309 353
#     4  10  23  40  61  88 127 159 202 254 291 371
#     4  10  21  39  60  90 124 151 204 251 303 360
#     4   9  20  40  68  94 121 155 196 257 322 361
#     4  12  26  40  59  88 125 170 212 236 299 357
#
# _framework density 20.094018999999999
#
# number of rings (size 3 to 8) (size 9 to 14) (size 15 to 20)
#    1.500    0.250    1.250    3.000    1.750    7.000 
#    0.000    3.125    0.000    0.000    0.000    0.000 
#    0.000    0.000    0.000    0.000    0.000    0.000 
#
# Total GULP energy -89210.520595 kJ/mol
# GULP energy per Si atom -5575.657537 kJ/mol
# Density = 2.004828 g / cm^3
# Si number density = 20.094019 Si / 1000 Ang^3
#
#
#
# Elastic Constant Matrix: (Units=GPa)
#
#
# Indices 1 2 3 4 5 6 
#
# 1 79.4727 40.3476 6.8962 0.0000 0.0000 0.0000
# 2 40.3476 117.5696 -15.1481 0.0000 0.0000 0.0000
# 3 6.8962 -15.1481 64.8813 0.0000 0.0000 0.0000
# 4 0.0000 0.0000 0.0000 25.5654 0.0000 0.0000
# 5 0.0000 0.0000 0.0000 0.0000 17.0075 0.0000
# 6 0.0000 0.0000 0.0000 0.0000 0.0000 21.9349
#
#
#
# Elastic Compliance Matrix: (Units=1/GPa)
#
#
# Indices 1 2 3 4 5 6 
#
# 1 0.015797 -0.005813 -0.003036 0.000000 0.000000 0.000000
# 2 -0.005813 0.010908 0.003165 0.000000 0.000000 0.000000
# 3 -0.003036 0.003165 0.016474 0.000000 0.000000 0.000000
# 4 0.000000 0.000000 0.000000 0.039115 0.000000 0.000000
# 5 0.000000 0.000000 0.000000 0.000000 0.058798 0.000000
# 6 0.000000 0.000000 0.000000 0.000000 0.000000 0.045590
#
#
# Mechanical properties :
#
#
# Convention : Reuss Voigt Hill
#
# Bulk Modulus (GPa) = 31.43521 36.23501 33.83511
# Shear Modulus (GPa) = 23.96308 28.22341 26.09325
#
# Velocity S-wave (km/s) = 3.45708 3.75182 3.60746
# Velocity P-wave (km/s) = 5.62256 6.06961 5.85035
#
# Compressibility (1/GPa) = 0.03181146
#
# Stress axis : x y z
#
# Youngs Moduli (GPa) = 63.30167 91.67516 60.70059
#
# Poissons Ratio (x) = 0.53287 0.18430
# Poissons Ratio (y) = 0.36794 -0.19209
# Poissons Ratio (z) = 0.19219 -0.29011
#
# Static dielectric constant tensor:
#      x y z
#    x 1.693810 0.000000 0.000000 
#    y 0.000000 1.740630 0.000000 
#    z 0.000000 0.000000 1.706010 
# 
# From -- ./inp_files/1221.got.cif
#   From: 2010.05.17/outbox.cif.g08.bks.cpg/sg35_1_cif.got.tgz:1221.got - 2010.06.03 17:29:28.
