data_PCOD9349860
_publ_section_title
;
Structure prediction by ZEFSAII (Michael W. Deem and Ramdas Pophale) SiO2 
 PCOD9349860
Probable space group: C M M 2
;
_chemical_formula_sum "Si O2"
_cell_formula_units_Z 64
_cell_length_a 16.540739
_cell_length_b 15.936940
_cell_length_c 11.178065
_cell_angle_alpha 90.000000
_cell_angle_beta 90.000000
_cell_angle_gamma 90.000000
_cell_volume 2946.635910
_symmetry_space_group_name_H-M "C M M 2"
_symmetry_group_IT_number 35
_symmetry_cell_setting 'orthorhombic'
loop_
_space_group_symop_operation_xyz
x,y,z
-x,-y,z
-x,y,z
x,-y,z
1/2+x,1/2+y,z
1/2-x,1/2-y,z
1/2-x,1/2+y,z
1/2+x,1/2-y,z
loop_
_atom_site_type_symbol
_atom_site_label
_atom_site_fract_x
_atom_site_fract_y
_atom_site_fract_z
Si Si1 0.674518 0.091499 0.533070
Si Si2 0.090071 0.641119 0.296362
Si Si3 0.906983 0.811927 0.914951
Si Si4 0.268316 0.404685 0.047104
Si Si5 0.090157 0.629807 0.023052
Si Si6 0.680383 0.692506 0.282162
Si Si7 0.592191 0.750497 0.654120
Si Si8 0.362990 0.407197 0.500771
O O1 0.649719 0.101679 0.393247
O O2 0.640581 0.171943 0.600739
O O3 0.770629 0.091551 0.545994
O O4 0.643699 0.000000 0.573830
O O5 0.092334 0.604656 0.163047
O O6 0.109906 0.738912 0.273335
O O7 0.000000 0.631881 0.346131
O O8 0.880848 0.779232 0.784722
O O9 0.000000 0.843420 0.908127
O O10 0.841885 0.877491 0.962246
O O11 0.908203 0.729814 0.999792
O O12 0.277835 0.500000 0.087631
O O13 0.180265 0.397544 0.983550
O O14 0.278498 0.343163 0.161984
O O15 0.000000 0.602856 0.977097
O O16 0.750000 0.750000 0.344255
O O17 0.646989 0.617672 0.362119
O O18 0.500000 0.778649 0.667166
O O19 0.595627 0.670134 0.567278
O O20 0.398137 0.500000 0.517632
#
# Coordination Sequence:
#
# PCOD9349860 Si02
#       8
#     8   8   8   8   8   8   8   8
#     4  11  23  40  64  97 131 165 212 266 323 393
#     4  11  21  35  62  93 127 168 207 253 319 388
#     4  10  23  44  67  88 118 168 226 275 324 390
#     4  12  24  38  63  98 132 169 214 269 330 392
#     4  10  21  40  64  92 126 167 213 260 316 390
#     4  12  19  37  62  89 127 169 212 259 315 384
#     4  11  24  43  66  91 124 170 218 270 334 390
#     4  11  23  38  60  92 129 170 216 264 315 382
#
# _framework density 21.719684000000001
#
# number of rings (size 3 to 8) (size 9 to 14) (size 15 to 20)
#    0.000    1.000    5.000    1.500    0.000    5.750 
#    0.000    4.375    0.000    4.500    0.000    0.000 
#    0.000    0.000    0.000    0.000    0.000    0.000 
#
# Total GULP energy -178590.999488 kJ/mol
# GULP energy per Si atom -5580.968734 kJ/mol
# Density = 2.167025 g / cm^3
# Si number density = 21.719684 Si / 1000 Ang^3
#
#
#
# Elastic Constant Matrix: (Units=GPa)
#
#
# Indices 1 2 3 4 5 6 
#
# 1 79.2980 30.3293 14.3465 0.0000 0.0000 0.0000
# 2 30.3293 121.0089 8.3835 0.0000 0.0000 0.0000
# 3 14.3465 8.3835 51.6145 0.0000 0.0000 0.0000
# 4 0.0000 0.0000 0.0000 7.4732 0.0000 0.0000
# 5 0.0000 0.0000 0.0000 0.0000 20.2168 0.0000
# 6 0.0000 0.0000 0.0000 0.0000 0.0000 -15.8231
#
#
#
# Elastic Compliance Matrix: (Units=1/GPa)
#
#
# Indices 1 2 3 4 5 6 
#
# 1 0.014544 -0.003403 -0.003490 0.000000 0.000000 0.000000
# 2 -0.003403 0.009154 -0.000541 0.000000 0.000000 0.000000
# 3 -0.003490 -0.000541 0.020432 0.000000 0.000000 0.000000
# 4 0.000000 0.000000 0.000000 0.133812 0.000000 0.000000
# 5 0.000000 0.000000 0.000000 0.000000 0.049464 0.000000
# 6 0.000000 0.000000 0.000000 0.000000 0.000000 -0.063199
#
#
# Mechanical properties :
#
#
# Convention : Reuss Voigt Hill
#
# Bulk Modulus (GPa) = 34.17369 39.78222 36.97795
# Shear Modulus (GPa) = 26.47891 15.63084 21.05487
#
# Velocity S-wave (km/s) = 3.49538 2.68556 3.11688
# Velocity P-wave (km/s) = 5.66201 5.28888 5.47862
#
# Compressibility (1/GPa) = 0.02926228
#
# Stress axis : x y z
#
# Youngs Moduli (GPa) = 68.75809 109.23758 48.94223
#
# Poissons Ratio (x) = 0.37178 0.17079
# Poissons Ratio (y) = 0.23401 0.02647
# Poissons Ratio (z) = 0.23995 0.05909
#
# Static dielectric constant tensor:
#      x y z
#    x 1.834820 0.000000 0.000000 
#    y 0.000000 1.792390 0.000000 
#    z 0.000000 0.000000 1.816340 
# 
# From -- ./inp_files/13587.got.cif
#   From: 2010.05.17/outbox.cif.g08.bks.cpg/sg35_7_cif.got.tgz:13587.got - 2010.06.03 17:29:28.
