data_PCOD9349306
_publ_section_title
;
Structure prediction by ZEFSAII (Michael W. Deem and Ramdas Pophale) SiO2 
 PCOD9349306
Probable space group: C M M 2
;
_chemical_formula_sum "Si O2"
_cell_formula_units_Z 64
_cell_length_a 28.472518
_cell_length_b 8.726622
_cell_length_c 13.460338
_cell_angle_alpha 90.000000
_cell_angle_beta 90.000000
_cell_angle_gamma 90.000000
_cell_volume 3344.475403
_symmetry_space_group_name_H-M "C M M 2"
_symmetry_group_IT_number 35
_symmetry_cell_setting 'orthorhombic'
loop_
_space_group_symop_operation_xyz
x,y,z
-x,-y,z
-x,y,z
x,-y,z
1/2+x,1/2+y,z
1/2-x,1/2-y,z
1/2-x,1/2+y,z
1/2+x,1/2-y,z
loop_
_atom_site_type_symbol
_atom_site_label
_atom_site_fract_x
_atom_site_fract_y
_atom_site_fract_z
Si Si1 0.802368 0.183584 0.349360
Si Si2 0.053873 0.313006 0.630530
Si Si3 0.107845 0.317002 0.828778
Si Si4 0.892156 0.682998 0.432281
Si Si5 0.697632 0.683584 0.911700
Si Si6 0.302573 0.315802 0.130530
Si Si7 0.056608 0.181006 0.242035
Si Si8 0.556608 0.681006 0.019024
O O1 0.750000 0.250000 0.361291
O O2 0.840197 0.247165 0.425601
O O3 0.821328 0.229913 0.238559
O O4 0.800063 0.000000 0.353545
O O5 0.053388 0.500000 0.630530
O O6 0.080442 0.264439 0.730389
O O7 0.080442 0.264439 0.530670
O O8 0.000000 0.261105 0.630530
O O9 0.111147 0.500000 0.826845
O O10 0.159803 0.247167 0.835458
O O11 0.079641 0.266271 0.926979
O O12 0.888853 0.500000 0.434214
O O13 0.920359 0.733728 0.334080
O O14 0.699937 0.500000 0.907514
O O15 0.750000 0.750000 0.899769
O O16 0.678672 0.729913 0.022501
O O17 0.301575 0.500000 0.130530
O O18 0.250000 0.250000 0.130530
O O19 0.000000 0.194176 0.247523
O O20 0.068554 0.000000 0.249002
O O21 0.070834 0.232505 0.130530
O O22 0.500000 0.694178 0.013535
O O23 0.568553 0.500000 0.012058
#
# Coordination Sequence:
#
# PCOD9349306 Si02
#       8
#     8   8   8   8   8   8   8   8
#     4  10  20  36  56  82 116 154 193 235 284 337
#     4   9  20  40  62  83 112 149 190 241 294 339
#     4  11  22  36  58  86 113 148 194 239 288 344
#     4  11  22  36  58  86 113 148 194 239 288 344
#     4  10  20  36  56  82 116 154 193 235 284 337
#     4   8  16  30  50  74 105 146 183 220 268 323
#     4   9  19  36  56  80 114 152 186 228 287 348
#     4   9  19  36  56  80 114 152 186 228 287 348
#
# _framework density 19.136035
#
# number of rings (size 3 to 8) (size 9 to 14) (size 15 to 20)
#    0.000    2.375    0.000    3.000    1.750    3.000 
#    0.000    4.375    0.000    4.500    0.000    0.000 
#    0.000    0.000    0.000    0.000    0.000    0.000 
#
# Total GULP energy -178576.930012 kJ/mol
# GULP energy per Si atom -5580.529063 kJ/mol
# Density = 1.909248 g / cm^3
# Si number density = 19.136035 Si / 1000 Ang^3
#
#
#
# Elastic Constant Matrix: (Units=GPa)
#
#
# Indices 1 2 3 4 5 6 
#
# 1 126.2026 41.2978 94.0104 0.0000 0.0000 0.0000
# 2 41.2978 41.5148 41.9093 0.0000 0.0000 0.0000
# 3 94.0104 41.9093 149.9563 0.0000 0.0000 0.0000
# 4 0.0000 0.0000 0.0000 21.5231 0.0000 0.0000
# 5 0.0000 0.0000 0.0000 0.0000 38.3315 0.0000
# 6 0.0000 0.0000 0.0000 0.0000 0.0000 32.3910
#
#
#
# Elastic Compliance Matrix: (Units=1/GPa)
#
#
# Indices 1 2 3 4 5 6 
#
# 1 0.016753 -0.008445 -0.008142 0.000000 0.000000 0.000000
# 2 -0.008445 0.037812 -0.005273 0.000000 0.000000 0.000000
# 3 -0.008142 -0.005273 0.013247 0.000000 0.000000 0.000000
# 4 0.000000 0.000000 0.000000 0.046462 0.000000 0.000000
# 5 0.000000 0.000000 0.000000 0.000000 0.026088 0.000000
# 6 0.000000 0.000000 0.000000 0.000000 0.000000 0.030873
#
#
# Mechanical properties :
#
#
# Convention : Reuss Voigt Hill
#
# Bulk Modulus (GPa) = 41.51054 74.67874 58.09464
# Shear Modulus (GPa) = 22.42291 27.81288 25.11789
#
# Velocity S-wave (km/s) = 3.42682 3.81652 3.62691
# Velocity P-wave (km/s) = 6.11530 7.65056 6.92560
#
# Compressibility (1/GPa) = 0.02409027
#
# Stress axis : x y z
#
# Youngs Moduli (GPa) = 59.69170 26.44645 75.48962
#
# Poissons Ratio (x) = 0.22335 0.61466
# Poissons Ratio (y) = 0.50413 0.39806
# Poissons Ratio (z) = 0.48603 0.13945
#
# Static dielectric constant tensor:
#      x y z
#    x 1.670720 0.000000 0.000000 
#    y 0.000000 1.652970 0.000000 
#    z 0.000000 0.000000 1.674520 
# 
# From -- ./inp_files/14525.got.cif
#   From: 2010.05.17/outbox.cif.g08.bks.cpg/sg35_8_cif.got.tgz:14525.got - 2010.06.03 17:29:28.
