data_PCOD9349553
_publ_section_title
;
Structure prediction by ZEFSAII (Michael W. Deem and Ramdas Pophale) SiO2 
 PCOD9349553
Probable space group: C M M 2
;
_chemical_formula_sum "Si O2"
_cell_formula_units_Z 48
_cell_length_a 16.037705
_cell_length_b 8.518593
_cell_length_c 18.115174
_cell_angle_alpha 90.000000
_cell_angle_beta 90.000000
_cell_angle_gamma 90.000000
_cell_volume 2474.871188
_symmetry_space_group_name_H-M "C M M 2"
_symmetry_group_IT_number 35
_symmetry_cell_setting 'orthorhombic'
loop_
_space_group_symop_operation_xyz
x,y,z
-x,-y,z
-x,y,z
x,-y,z
1/2+x,1/2+y,z
1/2-x,1/2-y,z
1/2-x,1/2+y,z
1/2+x,1/2-y,z
loop_
_atom_site_type_symbol
_atom_site_label
_atom_site_fract_x
_atom_site_fract_y
_atom_site_fract_z
Si Si1 0.500000 0.688660 0.383011
Si Si2 0.597397 0.325513 0.793387
Si Si3 0.500000 0.691498 0.212168
Si Si4 0.843303 0.189760 0.949274
Si Si5 0.345098 0.189162 0.477639
Si Si6 0.343012 0.813553 0.642882
Si Si7 0.845410 0.809993 0.111848
O O1 0.500000 0.500000 0.385988
O O2 0.500000 0.739029 0.297464
O O3 0.583995 0.749256 0.422799
O O4 0.500000 0.342827 0.803607
O O5 0.636839 0.500000 0.786559
O O6 0.626661 0.248569 0.869945
O O7 0.611010 0.240972 0.716166
O O8 0.500000 0.500000 0.209619
O O9 0.584964 0.742057 0.170634
O O10 0.750000 0.250000 0.954964
O O11 0.850115 0.000000 0.945209
O O12 0.878800 0.234869 0.029550
O O13 0.250000 0.250000 0.464797
O O14 0.371566 0.238981 0.561290
O O15 0.342802 0.000000 0.474487
O O16 0.250000 0.750000 0.650526
O O17 0.343030 0.000000 0.641666
O O18 0.750000 0.750000 0.122942
O O19 0.840569 0.000000 0.113763
#
# Coordination Sequence:
#
# PCOD9349553 Si02
#       7
#     4   8   4   8   8   8   8
#     4  11  23  39  61  90 121 152 190 237 293 353
#     4  10  21  33  48  77 111 144 185 227 270 322
#     4   9  20  37  59  86 113 146 186 227 279 343
#     4   9  18  32  52  75 103 141 184 226 270 320
#     4  10  22  41  63  88 117 153 196 240 290 348
#     4  10  21  37  57  78 105 142 185 228 276 329
#     4   9  18  35  58  82 111 148 188 230 277 330
#
# _framework density 19.394950000000001
#
# number of rings (size 3 to 8) (size 9 to 14) (size 15 to 20)
#    0.000    2.333    0.000    1.750    2.333    5.000 
#    0.000    3.750    0.000    0.000    0.000    0.000 
#    0.000    0.000    0.000    0.000    0.000    0.000 
#
# Total GULP energy -133682.256604 kJ/mol
# GULP energy per Si atom -5570.094025 kJ/mol
# Density = 1.935081 g / cm^3
# Si number density = 19.394950 Si / 1000 Ang^3
#
#
#
# Elastic Constant Matrix: (Units=GPa)
#
#
# Indices 1 2 3 4 5 6 
#
# 1 89.5098 17.6614 91.8449 0.0000 0.0000 0.0000
# 2 17.6614 24.5594 32.5221 0.0000 0.0000 0.0000
# 3 91.8449 32.5221 191.1463 0.0000 0.0000 0.0000
# 4 0.0000 0.0000 0.0000 34.3417 0.0000 0.0000
# 5 0.0000 0.0000 0.0000 0.0000 45.2039 0.0000
# 6 0.0000 0.0000 0.0000 0.0000 0.0000 24.1287
#
#
#
# Elastic Compliance Matrix: (Units=1/GPa)
#
#
# Indices 1 2 3 4 5 6 
#
# 1 0.022143 -0.002368 -0.010237 0.000000 0.000000 0.000000
# 2 -0.002368 0.052813 -0.007848 0.000000 0.000000 0.000000
# 3 -0.010237 -0.007848 0.011486 0.000000 0.000000 0.000000
# 4 0.000000 0.000000 0.000000 0.029119 0.000000 0.000000
# 5 0.000000 0.000000 0.000000 0.000000 0.022122 0.000000
# 6 0.000000 0.000000 0.000000 0.000000 0.000000 0.041444
#
#
# Mechanical properties :
#
#
# Convention : Reuss Voigt Hill
#
# Bulk Modulus (GPa) = 21.96054 65.47471 43.71762
# Shear Modulus (GPa) = 21.25752 31.61399 26.43576
#
# Velocity S-wave (km/s) = 3.31423 4.04172 3.69592
# Velocity P-wave (km/s) = 5.09832 7.45739 6.38770
#
# Compressibility (1/GPa) = 0.04553622
#
# Stress axis : x y z
#
# Youngs Moduli (GPa) = 45.16124 18.93473 87.06620
#
# Poissons Ratio (x) = 0.04484 0.89127
# Poissons Ratio (y) = 0.10694 0.68329
# Poissons Ratio (z) = 0.46230 0.14860
#
# Static dielectric constant tensor:
#      x y z
#    x 1.642830 0.000000 0.000000 
#    y 0.000000 1.704720 0.000000 
#    z 0.000000 0.000000 1.746130 
# 
# From -- ./inp_files/15179.got.cif
#   From: 2010.05.17/outbox.cif.g08.bks.cpg/sg35_8_cif.got.tgz:15179.got - 2010.06.03 17:29:28.
