data_PCOD9349619
_publ_section_title
;
Structure prediction by ZEFSAII (Michael W. Deem and Ramdas Pophale) SiO2 
 PCOD9349619
Probable space group: C M M 2
;
_chemical_formula_sum "Si O2"
_cell_formula_units_Z 64
_cell_length_a 7.741351
_cell_length_b 18.778761
_cell_length_c 21.503907
_cell_angle_alpha 90.000000
_cell_angle_beta 90.000000
_cell_angle_gamma 90.000000
_cell_volume 3126.087048
_symmetry_space_group_name_H-M "C M M 2"
_symmetry_group_IT_number 35
_symmetry_cell_setting 'orthorhombic'
loop_
_space_group_symop_operation_xyz
x,y,z
-x,-y,z
-x,y,z
x,-y,z
1/2+x,1/2+y,z
1/2-x,1/2-y,z
1/2-x,1/2+y,z
1/2+x,1/2-y,z
loop_
_atom_site_type_symbol
_atom_site_label
_atom_site_fract_x
_atom_site_fract_y
_atom_site_fract_z
Si Si1 0.711786 0.917732 0.088670
Si Si2 0.793577 0.080837 0.843367
Si Si3 0.708021 0.918724 0.466287
Si Si4 0.792082 0.666788 0.209621
Si Si5 0.794554 0.666785 0.967246
Si Si6 0.707921 0.167149 0.347455
Si Si7 0.708260 0.666908 0.723360
Si Si8 0.792624 0.918206 0.603382
O O1 0.500000 0.916670 0.088850
O O2 0.770755 0.880986 0.152643
O O3 0.764308 0.000000 0.084061
O O4 0.772127 0.872084 0.029433
O O5 0.763340 0.125204 0.905849
O O6 0.726141 0.123779 0.783496
O O7 0.000000 0.075589 0.835540
O O8 0.725244 0.000000 0.847533
O O9 0.500000 0.920305 0.462371
O O10 0.774379 0.875879 0.406807
O O11 0.751753 0.889676 0.534579
O O12 0.772256 0.000000 0.464233
O O13 0.750000 0.750000 0.199615
O O14 0.728062 0.645696 0.278589
O O15 0.000000 0.660836 0.210624
O O16 0.750000 0.750000 0.965429
O O17 0.000000 0.661525 0.969128
O O18 0.500000 0.159358 0.346564
O O19 0.750000 0.250000 0.355028
O O20 0.500000 0.661342 0.723298
O O21 0.750000 0.750000 0.726866
O O22 0.772211 0.630152 0.659836
O O23 0.000000 0.921518 0.608411
O O24 0.727225 0.000000 0.607926
#
# Coordination Sequence:
#
# PCOD9349619 Si02
#       8
#     8   8   8   8   8   8   8   8
#     4   9  18  32  51  76 103 131 167 211 255 299
#     4  10  21  38  59  81 106 137 172 211 256 305
#     4   9  18  32  49  71  99 128 161 204 250 294
#     4   9  17  31  51  72  96 129 167 205 247 296
#     4  11  22  36  55  79 108 140 174 213 256 303
#     4   9  18  31  48  71  98 129 164 203 247 295
#     4  10  21  36  54  77 104 133 167 208 251 297
#     4   9  18  34  54  73  95 128 168 205 245 296
#
# _framework density 20.472878000000001
#
# number of rings (size 3 to 8) (size 9 to 14) (size 15 to 20)
#    0.000    2.500    0.000    1.875    0.000    5.750 
#    0.000    5.625    0.000    4.125    0.000    3.500 
#    0.000    0.000    0.000    0.000    0.000    0.000 
#
# Total GULP energy -178628.260688 kJ/mol
# GULP energy per Si atom -5582.133147 kJ/mol
# Density = 2.042628 g / cm^3
# Si number density = 20.472878 Si / 1000 Ang^3
#
#
#
# Elastic Constant Matrix: (Units=GPa)
#
#
# Indices 1 2 3 4 5 6 
#
# 1 31.0732 2.0281 7.2890 0.0000 0.0000 0.0000
# 2 2.0281 154.2855 135.6118 0.0000 0.0000 0.0000
# 3 7.2890 135.6118 245.0949 0.0000 0.0000 0.0000
# 4 0.0000 0.0000 0.0000 48.7619 0.0000 0.0000
# 5 0.0000 0.0000 0.0000 0.0000 10.3687 0.0000
# 6 0.0000 0.0000 0.0000 0.0000 0.0000 18.8334
#
#
#
# Elastic Compliance Matrix: (Units=1/GPa)
#
#
# Indices 1 2 3 4 5 6 
#
# 1 0.032461 0.000821 -0.001420 0.000000 0.000000 0.000000
# 2 0.000821 0.012639 -0.007018 0.000000 0.000000 0.000000
# 3 -0.001420 -0.007018 0.008005 0.000000 0.000000 0.000000
# 4 0.000000 0.000000 0.000000 0.020508 0.000000 0.000000
# 5 0.000000 0.000000 0.000000 0.000000 0.096444 0.000000
# 6 0.000000 0.000000 0.000000 0.000000 0.000000 0.053097
#
#
# Mechanical properties :
#
#
# Convention : Reuss Voigt Hill
#
# Bulk Modulus (GPa) = 26.40386 80.03460 53.21923
# Shear Modulus (GPa) = 19.91945 34.62778 27.27362
#
# Velocity S-wave (km/s) = 3.12263 4.11712 3.65387
# Velocity P-wave (km/s) = 5.09176 7.85995 6.62212
#
# Compressibility (1/GPa) = 0.03787325
#
# Stress axis : x y z
#
# Youngs Moduli (GPa) = 30.80574 79.12087 124.92018
#
# Poissons Ratio (x) = -0.06497 0.17736
# Poissons Ratio (y) = -0.02530 0.87663
# Poissons Ratio (z) = 0.04374 0.55524
#
# Static dielectric constant tensor:
#      x y z
#    x 1.761510 0.000000 0.000000 
#    y 0.000000 1.683940 0.000000 
#    z 0.000000 0.000000 1.733720 
# 
# From -- ./inp_files/18438.got.cif
#   From: 2010.05.17/outbox.cif.g08.bks.cpg/sg35_10_cif.got.tgz:18438.got - 2010.06.03 17:29:28.
