data_PCOD9349788
_publ_section_title
;
Structure prediction by ZEFSAII (Michael W. Deem and Ramdas Pophale) SiO2 
 PCOD9349788
Probable space group: C M M 2
;
_chemical_formula_sum "Si O2"
_cell_formula_units_Z 64
_cell_length_a 31.625354
_cell_length_b 8.669849
_cell_length_c 12.152117
_cell_angle_alpha 90.000000
_cell_angle_beta 90.000000
_cell_angle_gamma 90.000000
_cell_volume 3331.953036
_symmetry_space_group_name_H-M "C M M 2"
_symmetry_group_IT_number 35
_symmetry_cell_setting 'orthorhombic'
loop_
_space_group_symop_operation_xyz
x,y,z
-x,-y,z
-x,y,z
x,-y,z
1/2+x,1/2+y,z
1/2-x,1/2-y,z
1/2-x,1/2+y,z
1/2+x,1/2-y,z
loop_
_atom_site_type_symbol
_atom_site_label
_atom_site_fract_x
_atom_site_fract_y
_atom_site_fract_z
Si Si1 0.205427 0.183654 0.895870
Si Si2 0.582714 0.682831 0.128695
Si Si3 0.952257 0.314585 0.352955
Si Si4 0.627650 0.813864 0.500752
Si Si5 0.872350 0.686135 0.756637
Si Si6 0.452257 0.814585 0.904435
Si Si7 0.705427 0.316346 0.361519
Si Si8 0.677092 0.183860 0.128695
O O1 0.250000 0.250000 0.854826
O O2 0.166668 0.239284 0.820834
O O3 0.206940 0.000000 0.899299
O O4 0.197470 0.248077 0.018523
O O5 0.589995 0.500000 0.128695
O O6 0.557951 0.733467 0.237720
O O7 0.627816 0.768769 0.128695
O O8 0.557951 0.733466 0.019669
O O9 0.949634 0.500000 0.336321
O O10 0.916067 0.271642 0.440006
O O11 0.000000 0.278500 0.389134
O O12 0.627155 0.770303 0.628695
O O13 0.666668 0.739284 0.436556
O O14 0.631817 0.000000 0.493805
O O15 0.868183 0.500000 0.763584
O O16 0.916067 0.728358 0.817383
O O17 0.500000 0.778502 0.868256
O O18 0.449634 0.000000 0.921070
O O19 0.706940 0.500000 0.358090
O O20 0.750000 0.250000 0.402563
O O21 0.697470 0.251922 0.238866
O O22 0.681173 0.000000 0.128694
#
# Coordination Sequence:
#
# PCOD9349788 Si02
#       8
#     8   8   8   8   8   8   8   8
#     4  12  25  42  65  94 126 163 204 251 308 369
#     4  12  23  36  59  92 126 165 204 250 308 370
#     4  10  21  38  62  91 125 166 208 253 307 367
#     4  10  22  41  64  90 123 165 212 260 308 361
#     4  10  22  41  64  90 123 165 212 260 308 361
#     4  10  21  38  62  91 125 166 208 253 307 367
#     4  12  25  42  65  94 126 163 204 251 308 369
#     4  12  23  40  65  93 127 162 199 250 308 372
#
# _framework density 19.207953
#
# number of rings (size 3 to 8) (size 9 to 14) (size 15 to 20)
#    0.000    1.000    2.500    5.250    0.000    3.500 
#    0.000    2.500    0.000    0.000    0.000    3.500 
#    0.000    0.000    0.000    0.000    0.000    0.000 
#
# Total GULP energy -179028.295355 kJ/mol
# GULP energy per Si atom -5594.634230 kJ/mol
# Density = 1.916423 g / cm^3
# Si number density = 19.207953 Si / 1000 Ang^3
#
#
#
# Elastic Constant Matrix: (Units=GPa)
#
#
# Indices 1 2 3 4 5 6 
#
# 1 177.5353 65.5239 82.0178 0.0000 0.0000 0.0000
# 2 65.5239 87.5216 66.4743 0.0000 0.0000 0.0000
# 3 82.0178 66.4743 151.8176 0.0000 0.0000 0.0000
# 4 0.0000 0.0000 0.0000 11.2668 0.0000 0.0000
# 5 0.0000 0.0000 0.0000 0.0000 1.6662 0.0000
# 6 0.0000 0.0000 0.0000 0.0000 0.0000 28.3959
#
#
#
# Elastic Compliance Matrix: (Units=1/GPa)
#
#
# Indices 1 2 3 4 5 6 
#
# 1 0.008459 -0.004288 -0.002692 0.000000 0.000000 0.000000
# 2 -0.004288 0.019292 -0.006131 0.000000 0.000000 0.000000
# 3 -0.002692 -0.006131 0.010726 0.000000 0.000000 0.000000
# 4 0.000000 0.000000 0.000000 0.088756 0.000000 0.000000
# 5 0.000000 0.000000 0.000000 0.000000 0.600165 0.000000
# 6 0.000000 0.000000 0.000000 0.000000 0.000000 0.035216
#
#
# Mechanical properties :
#
#
# Convention : Reuss Voigt Hill
#
# Bulk Modulus (GPa) = 81.59972 93.87848 87.73910
# Shear Modulus (GPa) = 6.30578 21.78968 14.04773
#
# Velocity S-wave (km/s) = 1.81384 3.37175 2.70728
# Velocity P-wave (km/s) = 6.85282 8.00870 7.45320
#
# Compressibility (1/GPa) = 0.01225494
#
# Stress axis : x y z
#
# Youngs Moduli (GPa) = 118.21524 51.83368 93.23343
#
# Poissons Ratio (x) = 0.22227 0.25102
# Poissons Ratio (y) = 0.50692 0.57159
# Poissons Ratio (z) = 0.31828 0.31778
#
# Static dielectric constant tensor:
#      x y z
#    x 1.669360 0.000000 0.000000 
#    y 0.000000 1.645020 0.000000 
#    z 0.000000 0.000000 1.635360 
# 
# From -- ./inp_files/14565.got.cif
#   From: 2010.05.17/outbox.cif.g08.bks.cpg/sg35_8_cif.got.tgz:14565.got - 2010.06.03 17:29:28.
