data_PCOD9349625
_publ_section_title
;
Structure prediction by ZEFSAII (Michael W. Deem and Ramdas Pophale) SiO2 
 PCOD9349625
Probable space group: C M M 2
;
_chemical_formula_sum "Si O2"
_cell_formula_units_Z 64
_cell_length_a 30.070269
_cell_length_b 8.624172
_cell_length_c 12.786950
_cell_angle_alpha 90.000000
_cell_angle_beta 90.000000
_cell_angle_gamma 90.000000
_cell_volume 3316.054729
_symmetry_space_group_name_H-M "C M M 2"
_symmetry_group_IT_number 35
_symmetry_cell_setting 'orthorhombic'
loop_
_space_group_symop_operation_xyz
x,y,z
-x,-y,z
-x,y,z
x,-y,z
1/2+x,1/2+y,z
1/2-x,1/2-y,z
1/2-x,1/2+y,z
1/2+x,1/2-y,z
loop_
_atom_site_type_symbol
_atom_site_label
_atom_site_fract_x
_atom_site_fract_y
_atom_site_fract_z
Si Si1 0.627625 0.812028 0.450640
Si Si2 0.551057 0.810710 0.292471
Si Si3 0.200086 0.313008 0.849286
Si Si4 0.300476 0.185875 0.079626
Si Si5 0.945858 0.322699 0.062396
Si Si6 0.551463 0.315722 0.841872
Si Si7 0.199913 0.184490 0.296244
Si Si8 0.625046 0.812984 0.690875
O O1 0.584348 0.763946 0.383818
O O2 0.670093 0.746255 0.390388
O O3 0.625445 0.760672 0.570869
O O4 0.629699 0.000000 0.448690
O O5 0.500000 0.761395 0.309885
O O6 0.566686 0.759640 0.176673
O O7 0.550743 0.000000 0.288101
O O8 0.202372 0.500000 0.846628
O O9 0.250000 0.250000 0.838632
O O10 0.167713 0.258551 0.757553
O O11 0.181357 0.271462 0.964991
O O12 0.250000 0.250000 0.077036
O O13 0.320046 0.255772 0.185531
O O14 0.300202 0.000000 0.089186
O O15 0.929565 0.500000 0.052260
O O16 0.000000 0.327048 0.065531
O O17 0.933291 0.231701 0.958528
O O18 0.500000 0.264797 0.831202
O O19 0.553119 0.500000 0.832174
O O20 0.581998 0.240022 0.754400
O O21 0.250000 0.250000 0.304752
O O22 0.201723 0.000000 0.295030
O O23 0.625971 0.000000 0.690276
#
# Coordination Sequence:
#
# PCOD9349625 Si02
#       8
#     8   8   8   8   8   8   8   8
#     4  10  21  37  56  79 108 141 182 226 264 310
#     4   8  15  30  54  82 108 136 173 219 268 316
#     4   9  19  35  55  80 108 138 173 217 268 319
#     4   9  16  30  53  79 107 135 168 213 265 321
#     4   8  14  28  52  79 105 134 171 214 263 322
#     4  10  21  36  54  78 109 142 176 219 270 318
#     4  11  22  37  57  80 109 141 176 218 266 319
#     4  10  22  38  55  78 107 142 186 225 259 311
#
# _framework density 19.300042999999999
#
# number of rings (size 3 to 8) (size 9 to 14) (size 15 to 20)
#    0.000    2.625    0.000    3.375    0.000    4.250 
#    0.000    8.125    0.000    1.125    0.000    0.000 
#    0.000    0.000    0.000    0.000    0.000    0.000 
#
# Total GULP energy -178538.436990 kJ/mol
# GULP energy per Si atom -5579.326156 kJ/mol
# Density = 1.925612 g / cm^3
# Si number density = 19.300043 Si / 1000 Ang^3
#
#
#
# Elastic Constant Matrix: (Units=GPa)
#
#
# Indices 1 2 3 4 5 6 
#
# 1 100.7024 18.9242 86.8466 0.0000 0.0000 0.0000
# 2 18.9242 24.5324 37.4559 0.0000 0.0000 0.0000
# 3 86.8466 37.4559 219.1402 0.0000 0.0000 0.0000
# 4 0.0000 0.0000 0.0000 9.4457 0.0000 0.0000
# 5 0.0000 0.0000 0.0000 0.0000 33.8712 0.0000
# 6 0.0000 0.0000 0.0000 0.0000 0.0000 18.8327
#
#
#
# Elastic Compliance Matrix: (Units=1/GPa)
#
#
# Indices 1 2 3 4 5 6 
#
# 1 0.015298 -0.003443 -0.005474 0.000000 0.000000 0.000000
# 2 -0.003443 0.055931 -0.008195 0.000000 0.000000 0.000000
# 3 -0.005474 -0.008195 0.008134 0.000000 0.000000 0.000000
# 4 0.000000 0.000000 0.000000 0.105868 0.000000 0.000000
# 5 0.000000 0.000000 0.000000 0.000000 0.029524 0.000000
# 6 0.000000 0.000000 0.000000 0.000000 0.000000 0.053099
#
#
# Mechanical properties :
#
#
# Convention : Reuss Voigt Hill
#
# Bulk Modulus (GPa) = 22.15450 70.09204 46.12327
# Shear Modulus (GPa) = 15.76667 25.83982 20.80324
#
# Velocity S-wave (km/s) = 2.86129 3.66300 3.28668
# Velocity P-wave (km/s) = 4.73496 7.36790 6.19297
#
# Compressibility (1/GPa) = 0.04513757
#
# Stress axis : x y z
#
# Youngs Moduli (GPa) = 65.36634 17.87922 122.94683
#
# Poissons Ratio (x) = 0.06156 0.67306
# Poissons Ratio (y) = 0.22505 1.00760
# Poissons Ratio (z) = 0.35784 0.14653
#
# Static dielectric constant tensor:
#      x y z
#    x 1.665150 0.000000 0.000000 
#    y 0.000000 1.651470 0.000000 
#    z 0.000000 0.000000 1.682650 
# 
# From -- ./inp_files/14570.got.cif
#   From: 2010.05.17/outbox.cif.g08.bks.cpg/sg35_8_cif.got.tgz:14570.got - 2010.06.03 17:29:28.
