data_PCOD9349187
_publ_section_title
;
Structure prediction by ZEFSAII (Michael W. Deem and Ramdas Pophale) SiO2 
 PCOD9349187
Probable space group: C M M 2
;
_chemical_formula_sum "Si O2"
_cell_formula_units_Z 48
_cell_length_a 8.156887
_cell_length_b 18.421049
_cell_length_c 15.969748
_cell_angle_alpha 90.000000
_cell_angle_beta 90.000000
_cell_angle_gamma 90.000000
_cell_volume 2399.589024
_symmetry_space_group_name_H-M "C M M 2"
_symmetry_group_IT_number 35
_symmetry_cell_setting 'orthorhombic'
loop_
_space_group_symop_operation_xyz
x,y,z
-x,-y,z
-x,y,z
x,-y,z
1/2+x,1/2+y,z
1/2-x,1/2-y,z
1/2-x,1/2+y,z
1/2+x,1/2-y,z
loop_
_atom_site_type_symbol
_atom_site_label
_atom_site_fract_x
_atom_site_fract_y
_atom_site_fract_z
Si Si1 0.696194 0.666588 0.597030
Si Si2 0.802122 0.416854 0.430415
Si Si3 0.302198 0.583102 0.762773
Si Si4 0.801870 0.666496 0.264083
Si Si5 0.303878 0.166589 0.929323
Si Si6 0.700507 0.083917 0.096400
O O1 0.500000 0.664641 0.598312
O O2 0.750000 0.750000 0.596863
O O3 0.754025 0.625675 0.513869
O O4 0.757788 0.625355 0.680239
O O5 0.742767 0.500000 0.432283
O O6 0.743459 0.374736 0.347564
O O7 0.000000 0.418809 0.426423
O O8 0.500000 0.581143 0.758596
O O9 0.242395 0.500000 0.764434
O O10 0.254805 0.625450 0.846472
O O11 0.750000 0.750000 0.264169
O O12 0.745587 0.625478 0.180136
O O13 0.000000 0.663990 0.264307
O O14 0.500000 0.164449 0.930189
O O15 0.250000 0.250000 0.928948
O O16 0.244121 0.125618 0.012988
O O17 0.500000 0.084236 0.096364
O O18 0.752176 0.000000 0.096259
#
# Coordination Sequence:
#
# PCOD9349187 Si02
#       6
#     8   8   8   8   8   8
#     4  11  23  39  59  83 112 147 185 226 276 330
#     4  10  21  37  58  84 112 145 186 230 277 328
#     4  10  22  40  60  83 112 145 182 227 279 331
#     4  10  20  35  56  81 111 146 183 225 273 326
#     4  11  22  36  57  84 113 147 187 229 275 327
#     4   9  18  34  56  81 109 143 184 228 274 326
#
# _framework density 20.003426999999999
#
# number of rings (size 3 to 8) (size 9 to 14) (size 15 to 20)
#    0.000    1.833    0.000    4.000    0.000    8.667 
#    0.000    0.833    0.000    3.500    0.000    0.000 
#    0.000    0.000    0.000    0.000    0.000    0.000 
#
# Total GULP energy -134162.434828 kJ/mol
# GULP energy per Si atom -5590.101451 kJ/mol
# Density = 1.995790 g / cm^3
# Si number density = 20.003427 Si / 1000 Ang^3
#
#
#
# Elastic Constant Matrix: (Units=GPa)
#
#
# Indices 1 2 3 4 5 6 
#
# 1 14.2251 14.6649 16.1848 0.0000 0.0000 0.0000
# 2 14.6649 248.9159 154.9817 0.0000 0.0000 0.0000
# 3 16.1848 154.9817 250.5264 0.0000 0.0000 0.0000
# 4 0.0000 0.0000 0.0000 48.4721 0.0000 0.0000
# 5 0.0000 0.0000 0.0000 0.0000 695.3162 0.0000
# 6 0.0000 0.0000 0.0000 0.0000 0.0000 17.7153
#
#
#
# Elastic Compliance Matrix: (Units=1/GPa)
#
#
# Indices 1 2 3 4 5 6 
#
# 1 0.076699 -0.002332 -0.003512 0.000000 0.000000 0.000000
# 2 -0.002332 0.006605 -0.003935 0.000000 0.000000 0.000000
# 3 -0.003512 -0.003935 0.006653 0.000000 0.000000 0.000000
# 4 0.000000 0.000000 0.000000 0.020630 0.000000 0.000000
# 5 0.000000 0.000000 0.000000 0.000000 0.001438 0.000000
# 6 0.000000 0.000000 0.000000 0.000000 0.000000 0.056448
#
#
# Mechanical properties :
#
#
# Convention : Reuss Voigt Hill
#
# Bulk Modulus (GPa) = 14.20506 98.37002 56.28754
# Shear Modulus (GPa) = 23.64078 174.15646 98.89862
#
# Velocity S-wave (km/s) = 3.44151 9.34089 7.03905
# Velocity P-wave (km/s) = 4.78631 12.86933 9.70898
#
# Compressibility (1/GPa) = 0.07039747
#
# Stress axis : x y z
#
# Youngs Moduli (GPa) = 13.03804 151.39802 150.30655
#
# Poissons Ratio (x) = 0.35302 0.52795
# Poissons Ratio (y) = 0.03040 0.59152
# Poissons Ratio (z) = 0.04580 0.59582
#
# Static dielectric constant tensor:
#      x y z
#    x 1.710960 0.000000 0.000000 
#    y 0.000000 1.668190 0.000000 
#    z 0.000000 0.000000 1.678020 
# 
# From -- ./inp_files/15085.got.cif
#   From: 2010.05.17/outbox.cif.g08.bks.cpg/sg35_8_cif.got.tgz:15085.got - 2010.06.03 17:29:28.
