data_PCOD9349544
_publ_section_title
;
Structure prediction by ZEFSAII (Michael W. Deem and Ramdas Pophale) SiO2 
 PCOD9349544
Probable space group: C M M 2
;
_chemical_formula_sum "Si O2"
_cell_formula_units_Z 48
_cell_length_a 19.381276
_cell_length_b 7.705846
_cell_length_c 16.872676
_cell_angle_alpha 90.000000
_cell_angle_beta 90.000000
_cell_angle_gamma 90.000000
_cell_volume 2519.919450
_symmetry_space_group_name_H-M "C M M 2"
_symmetry_group_IT_number 35
_symmetry_cell_setting 'orthorhombic'
loop_
_space_group_symop_operation_xyz
x,y,z
-x,-y,z
-x,y,z
x,-y,z
1/2+x,1/2+y,z
1/2-x,1/2-y,z
1/2-x,1/2+y,z
1/2+x,1/2-y,z
loop_
_atom_site_type_symbol
_atom_site_label
_atom_site_fract_x
_atom_site_fract_y
_atom_site_fract_z
Si Si1 0.829679 0.695127 0.396420
Si Si2 0.078628 0.289754 0.071340
Si Si3 0.169756 0.708478 0.744385
Si Si4 0.580485 0.500000 0.470107
Si Si5 0.828587 0.707466 0.927548
Si Si6 0.826787 0.797882 0.219016
Si Si7 0.919159 0.000000 0.660028
O O1 0.840368 0.500000 0.425717
O O2 0.750000 0.750000 0.409852
O O3 0.840052 0.700231 0.301295
O O4 0.880335 0.832363 0.436071
O O5 0.078258 0.500000 0.068436
O O6 0.119112 0.238361 0.150328
O O7 0.000000 0.229209 0.072440
O O8 0.119312 0.224812 0.993764
O O9 0.158610 0.500000 0.736282
O O10 0.250000 0.750000 0.725404
O O11 0.159612 0.762472 0.836816
O O12 0.119833 0.829559 0.693203
O O13 0.500000 0.500000 0.446825
O O14 0.584787 0.500000 0.565025
O O15 0.834906 0.500000 0.926481
O O16 0.750000 0.750000 0.949563
O O17 0.750000 0.750000 0.190186
O O18 0.827074 0.000000 0.239733
O O19 0.000000 0.000000 0.683056
#
# Coordination Sequence:
#
# PCOD9349544 Si02
#       7
#     8   8   8   4   8   8   4
#     4  11  21  42  70  97 125 164 213 262 314 373
#     4  10  21  36  52  80 120 161 205 248 300 360
#     4  10  20  40  67  96 126 163 216 264 312 375
#     4  11  26  46  64  95 136 166 203 259 320 388
#     4   9  19  34  58  84 115 155 200 256 304 355
#     4  11  21  37  60  86 119 155 203 258 303 358
#     4  11  26  44  64  95 134 168 203 257 326 384
#
# _framework density 19.048228000000002
#
# number of rings (size 3 to 8) (size 9 to 14) (size 15 to 20)
#    0.000    1.667    2.500    3.000    1.167    5.667 
#    0.000    3.333    0.000    0.000    0.000    0.000 
#    0.000    0.000    0.000    0.000    0.000    0.000 
#
# Total GULP energy -134074.277024 kJ/mol
# GULP energy per Si atom -5586.428209 kJ/mol
# Density = 1.900487 g / cm^3
# Si number density = 19.048228 Si / 1000 Ang^3
#
#
#
# Elastic Constant Matrix: (Units=GPa)
#
#
# Indices 1 2 3 4 5 6 
#
# 1 161.5716 58.7613 89.9331 0.0000 0.0000 0.0000
# 2 58.7613 127.3755 36.0606 0.0000 0.0000 0.0000
# 3 89.9331 36.0606 75.6944 0.0000 0.0000 0.0000
# 4 0.0000 0.0000 0.0000 55.5102 0.0000 0.0000
# 5 0.0000 0.0000 0.0000 0.0000 38.0811 0.0000
# 6 0.0000 0.0000 0.0000 0.0000 0.0000 24.8020
#
#
#
# Elastic Compliance Matrix: (Units=1/GPa)
#
#
# Indices 1 2 3 4 5 6 
#
# 1 0.019076 -0.002755 -0.021352 0.000000 0.000000 0.000000
# 2 -0.002755 0.009473 -0.001239 0.000000 0.000000 0.000000
# 3 -0.021352 -0.001239 0.039169 0.000000 0.000000 0.000000
# 4 0.000000 0.000000 0.000000 0.018015 0.000000 0.000000
# 5 0.000000 0.000000 0.000000 0.000000 0.026260 0.000000
# 6 0.000000 0.000000 0.000000 0.000000 0.000000 0.040319
#
#
# Mechanical properties :
#
#
# Convention : Reuss Voigt Hill
#
# Bulk Modulus (GPa) = 58.73428 81.57240 70.15334
# Shear Modulus (GPa) = 23.96026 35.67110 29.81568
#
# Velocity S-wave (km/s) = 3.55050 4.33213 3.96065
# Velocity P-wave (km/s) = 6.90721 8.24259 7.60427
#
# Compressibility (1/GPa) = 0.01702583
#
# Stress axis : x y z
#
# Youngs Moduli (GPa) = 52.42218 105.56625 25.53026
#
# Poissons Ratio (x) = 0.29088 0.54511
# Poissons Ratio (y) = 0.14445 0.03163
# Poissons Ratio (z) = 1.11929 0.13080
#
# Static dielectric constant tensor:
#      x y z
#    x 1.635190 0.000000 0.000000 
#    y 0.000000 1.675710 0.000000 
#    z 0.000000 0.000000 1.647090 
# 
# From -- ./inp_files/18773.got.cif
#   From: 2010.05.17/outbox.cif.g08.bks.cpg/sg35_10_cif.got.tgz:18773.got - 2010.06.03 17:29:28.
