data_PCOD9349055
_publ_section_title
;
Structure prediction by ZEFSAII (Michael W. Deem and Ramdas Pophale) SiO2 
 PCOD9349055
Probable space group: C M M 2
;
_chemical_formula_sum "Si O2"
_cell_formula_units_Z 40
_cell_length_a 8.844721
_cell_length_b 15.881912
_cell_length_c 14.908986
_cell_angle_alpha 90.000000
_cell_angle_beta 90.000000
_cell_angle_gamma 90.000000
_cell_volume 2094.281374
_symmetry_space_group_name_H-M "C M M 2"
_symmetry_group_IT_number 35
_symmetry_cell_setting 'orthorhombic'
loop_
_space_group_symop_operation_xyz
x,y,z
-x,-y,z
-x,y,z
x,-y,z
1/2+x,1/2+y,z
1/2-x,1/2-y,z
1/2-x,1/2+y,z
1/2+x,1/2-y,z
loop_
_atom_site_type_symbol
_atom_site_label
_atom_site_fract_x
_atom_site_fract_y
_atom_site_fract_z
Si Si1 0.322689 0.398591 0.309830
Si Si2 0.680586 0.838082 0.127633
Si Si3 0.820764 0.399069 0.497254
Si Si4 0.182702 0.338221 0.692534
Si Si5 0.315654 0.000000 0.013433
Si Si6 0.184393 0.500000 0.807372
O O1 0.500000 0.381073 0.299714
O O2 0.299789 0.500000 0.304069
O O3 0.232491 0.356373 0.229177
O O4 0.265839 0.371843 0.407958
O O5 0.500000 0.833716 0.124231
O O6 0.750000 0.750000 0.097179
O O7 0.732480 0.916596 0.066795
O O8 0.800125 0.500000 0.508304
O O9 0.771043 0.355982 0.589480
O O10 0.000000 0.384683 0.484833
O O11 0.250000 0.250000 0.723201
O O12 0.231511 0.416511 0.753925
O O13 0.000000 0.335240 0.694049
O O14 0.500000 0.000000 0.013736
O O15 0.265704 0.000000 0.910405
O O16 0.000000 0.500000 0.807056
#
# Coordination Sequence:
#
# PCOD9349055 Si02
#       6
#     8   8   8   8   4   4
#     4  10  20  34  55  84 116 152 190 234 282 331
#     4  11  22  38  59  86 115 150 191 234 283 339
#     4   9  17  32  54  79 109 152 196 229 269 331
#     4  10  20  35  58  85 114 148 188 231 278 332
#     4   9  20  38  62  85 110 146 189 233 284 341
#     4   9  18  38  62  83 110 148 189 229 278 343
#
# _framework density 19.099630999999999
#
# number of rings (size 3 to 8) (size 9 to 14) (size 15 to 20)
#    0.000    2.200    2.000    1.200    0.000    3.200 
#    0.000    2.500    0.000    3.600    0.000    0.000 
#    0.000    0.000    0.000    0.000    0.000    0.000 
#
# Total GULP energy -111698.964602 kJ/mol
# GULP energy per Si atom -5584.948230 kJ/mol
# Density = 1.905616 g / cm^3
# Si number density = 19.099631 Si / 1000 Ang^3
#
#
#
# Elastic Constant Matrix: (Units=GPa)
#
#
# Indices 1 2 3 4 5 6 
#
# 1 28.1854 42.2214 26.6453 0.0000 0.0000 0.0000
# 2 42.2214 145.2632 85.8504 0.0000 0.0000 0.0000
# 3 26.6453 85.8504 138.3415 0.0000 0.0000 0.0000
# 4 0.0000 0.0000 0.0000 -2.0392 0.0000 0.0000
# 5 0.0000 0.0000 0.0000 0.0000 9.1762 0.0000
# 6 0.0000 0.0000 0.0000 0.0000 0.0000 29.1612
#
#
#
# Elastic Compliance Matrix: (Units=1/GPa)
#
#
# Indices 1 2 3 4 5 6 
#
# 1 0.062969 -0.017583 -0.001217 0.000000 0.000000 0.000000
# 2 -0.017583 0.015781 -0.006407 0.000000 0.000000 0.000000
# 3 -0.001217 -0.006407 0.011438 0.000000 0.000000 0.000000
# 4 0.000000 0.000000 0.000000 -0.490390 0.000000 0.000000
# 5 0.000000 0.000000 0.000000 0.000000 0.108978 0.000000
# 6 0.000000 0.000000 0.000000 0.000000 0.000000 0.034292
#
#
# Mechanical properties :
#
#
# Convention : Reuss Voigt Hill
#
# Bulk Modulus (GPa) = 25.14090 69.02492 47.08291
# Shear Modulus (GPa) = -25.87190 17.73116 -4.07037
#
# Velocity S-wave (km/s) = -3.68445 3.05019 -1.46142
# Velocity P-wave (km/s) = 2.21554 6.97300 4.67515
#
# Compressibility (1/GPa) = 0.03977582
#
# Stress axis : x y z
#
# Youngs Moduli (GPa) = 15.88081 63.36745 87.42406
#
# Poissons Ratio (x) = 1.11421 0.10636
# Poissons Ratio (y) = 0.27924 0.56009
# Poissons Ratio (z) = 0.01932 0.40597
#
# Static dielectric constant tensor:
#      x y z
#    x 1.640770 0.000000 0.000000 
#    y 0.000000 1.670850 0.000000 
#    z 0.000000 0.000000 1.641920 
# 
# From -- ./inp_files/14722.got.cif
#   From: 2010.05.17/outbox.cif.g08.bks.cpg/sg35_8_cif.got.tgz:14722.got - 2010.06.03 17:29:28.
