data_PCOD9349426
_publ_section_title
;
Structure prediction by ZEFSAII (Michael W. Deem and Ramdas Pophale) SiO2 
 PCOD9349426
Probable space group: C M M 2
;
_chemical_formula_sum "Si O2"
_cell_formula_units_Z 48
_cell_length_a 9.240325
_cell_length_b 35.500111
_cell_length_c 7.849732
_cell_angle_alpha 90.000000
_cell_angle_beta 90.000000
_cell_angle_gamma 90.000000
_cell_volume 2574.967708
_symmetry_space_group_name_H-M "C M M 2"
_symmetry_group_IT_number 35
_symmetry_cell_setting 'orthorhombic'
loop_
_space_group_symop_operation_xyz
x,y,z
-x,-y,z
-x,y,z
x,-y,z
1/2+x,1/2+y,z
1/2-x,1/2-y,z
1/2-x,1/2+y,z
1/2+x,1/2-y,z
loop_
_atom_site_type_symbol
_atom_site_label
_atom_site_fract_x
_atom_site_fract_y
_atom_site_fract_z
Si Si1 0.670922 0.500000 0.493271
Si Si2 0.326835 0.344591 0.014417
Si Si3 0.663763 0.924343 0.399088
Si Si4 0.672193 0.000000 0.842013
Si Si5 0.326195 0.651149 0.412031
Si Si6 0.825694 0.209852 0.710854
Si Si7 0.660691 0.081498 0.993086
O O1 0.500000 0.500000 0.463481
O O2 0.745771 0.537798 0.424726
O O3 0.715707 0.500000 0.689547
O O4 0.500000 0.345900 0.009903
O O5 0.280056 0.312165 0.883371
O O6 0.267068 0.384649 0.948499
O O7 0.285927 0.339368 0.214449
O O8 0.500000 0.928181 0.467851
O O9 0.745477 0.887295 0.465244
O O10 0.654094 0.918662 0.196947
O O11 0.697467 0.960956 0.940179
O O12 0.500000 0.000000 0.792411
O O13 0.500000 0.644878 0.415396
O O14 0.291921 0.683914 0.546374
O O15 0.750000 0.250000 0.699232
O O16 0.000000 0.214373 0.715772
O O17 0.500000 0.089941 0.924993
#
# Coordination Sequence:
#
# PCOD9349426 Si02
#       7
#     4   8   8   4   8   8   8
#     4  12  25  36  50  78 114 152 191 230 274 326
#     4   9  19  36  57  81 112 148 183 227 279 331
#     4  10  20  37  59  82 109 144 186 233 282 332
#     4  10  21  36  52  78 112 146 185 232 278 320
#     4   9  19  37  58  82 114 148 185 230 279 335
#     4  10  22  38  57  83 113 145 183 228 280 338
#     4   9  19  36  58  81 108 143 184 231 280 330
#
# _framework density 18.641012
#
# number of rings (size 3 to 8) (size 9 to 14) (size 15 to 20)
#    0.000    2.333    0.000    1.750    2.333    4.667 
#    0.000    0.833    0.000    0.000    0.000    0.000 
#    0.000    0.000    0.000    0.000    0.000    0.000 
#
# Total GULP energy -133830.756210 kJ/mol
# GULP energy per Si atom -5576.281509 kJ/mol
# Density = 1.859858 g / cm^3
# Si number density = 18.641012 Si / 1000 Ang^3
#
#
#
# Elastic Constant Matrix: (Units=GPa)
#
#
# Indices 1 2 3 4 5 6 
#
# 1 64.5630 75.8661 39.3827 0.0000 0.0000 0.0000
# 2 75.8661 186.7649 63.5847 0.0000 0.0000 0.0000
# 3 39.3827 63.5847 67.3476 0.0000 0.0000 0.0000
# 4 0.0000 0.0000 0.0000 36.1177 0.0000 0.0000
# 5 0.0000 0.0000 0.0000 0.0000 16.7445 0.0000
# 6 0.0000 0.0000 0.0000 0.0000 0.0000 41.4448
#
#
#
# Elastic Compliance Matrix: (Units=1/GPa)
#
#
# Indices 1 2 3 4 5 6 
#
# 1 0.033641 -0.010269 -0.009977 0.000000 0.000000 0.000000
# 2 -0.010269 0.011025 -0.004404 0.000000 0.000000 0.000000
# 3 -0.009977 -0.004404 0.024841 0.000000 0.000000 0.000000
# 4 0.000000 0.000000 0.000000 0.027687 0.000000 0.000000
# 5 0.000000 0.000000 0.000000 0.000000 0.059721 0.000000
# 6 0.000000 0.000000 0.000000 0.000000 0.000000 0.024128
#
#
# Mechanical properties :
#
#
# Convention : Reuss Voigt Hill
#
# Bulk Modulus (GPa) = 49.48871 75.14917 62.31894
# Shear Modulus (GPa) = 21.08994 28.18421 24.63707
#
# Velocity S-wave (km/s) = 3.36724 3.89259 3.63941
# Velocity P-wave (km/s) = 6.45938 7.78489 7.15291
#
# Compressibility (1/GPa) = 0.02020663
#
# Stress axis : x y z
#
# Youngs Moduli (GPa) = 29.72550 90.70294 40.25612
#
# Poissons Ratio (x) = 0.93139 0.40165
# Poissons Ratio (y) = 0.30524 0.17730
# Poissons Ratio (z) = 0.29658 0.39948
#
# Static dielectric constant tensor:
#      x y z
#    x 1.651670 0.000000 0.000000 
#    y 0.000000 1.638080 0.000000 
#    z 0.000000 0.000000 1.677040 
# 
# From -- ./inp_files/5381.got.cif
#   From: 2010.05.17/outbox.cif.g08.bks.cpg/sg35_3_cif.got.tgz:5381.got - 2010.06.03 17:29:28.
