data_PCOD9349589
_publ_section_title
;
Structure prediction by ZEFSAII (Michael W. Deem and Ramdas Pophale) SiO2 
 PCOD9349589
Probable space group: C M M 2
;
_chemical_formula_sum "Si O2"
_cell_formula_units_Z 48
_cell_length_a 8.616941
_cell_length_b 15.816331
_cell_length_c 17.973085
_cell_angle_alpha 90.000000
_cell_angle_beta 90.000000
_cell_angle_gamma 90.000000
_cell_volume 2449.522837
_symmetry_space_group_name_H-M "C M M 2"
_symmetry_group_IT_number 35
_symmetry_cell_setting 'orthorhombic'
loop_
_space_group_symop_operation_xyz
x,y,z
-x,-y,z
-x,y,z
x,-y,z
1/2+x,1/2+y,z
1/2-x,1/2-y,z
1/2-x,1/2+y,z
1/2+x,1/2-y,z
loop_
_atom_site_type_symbol
_atom_site_label
_atom_site_fract_x
_atom_site_fract_y
_atom_site_fract_z
Si Si1 0.812726 0.844207 0.736420
Si Si2 0.315017 0.346534 0.268800
Si Si3 0.685767 0.000000 0.997475
Si Si4 0.813945 0.500000 0.172222
Si Si5 0.816835 0.656077 0.424244
Si Si6 0.826057 0.099165 0.576168
Si Si7 0.186903 0.846442 0.900934
O O1 0.750000 0.750000 0.739622
O O2 0.757414 0.877837 0.656729
O O3 0.768503 0.879548 0.817519
O O4 0.000000 0.848622 0.733236
O O5 0.500000 0.341637 0.265307
O O6 0.250000 0.250000 0.259448
O O7 0.252134 0.414959 0.210330
O O8 0.263632 0.380347 0.350469
O O9 0.751525 0.084754 0.958866
O O10 0.500000 0.000000 0.989612
O O11 0.724368 0.000000 0.084837
O O12 0.000000 0.500000 0.180976
O O13 0.750000 0.750000 0.427752
O O14 0.774072 0.618575 0.503942
O O15 0.000000 0.655378 0.412514
O O16 0.000000 0.138755 0.567648
O O17 0.845221 0.000000 0.578250
O O18 0.250000 0.750000 0.910956
O O19 0.000000 0.842215 0.904431
#
# Coordination Sequence:
#
# PCOD9349589 Si02
#       7
#     8   8   4   4   8   8   8
#     4   9  19  35  57  82 112 154 198 247 299 353
#     4  11  23  42  68  96 126 163 206 252 307 367
#     4  11  25  43  65  94 127 162 203 251 308 369
#     4  11  25  45  67  94 127 162 201 251 308 371
#     4  11  22  38  59  83 116 155 201 248 297 353
#     4  10  21  35  53  80 117 156 199 246 297 352
#     4  10  21  39  65  93 126 164 208 255 309 368
#
# _framework density 19.595654
#
# number of rings (size 3 to 8) (size 9 to 14) (size 15 to 20)
#    0.000    1.667    0.000    5.500    2.333    5.000 
#    0.000    0.000    0.000    0.000    0.000    0.000 
#    0.000    0.000    0.000    0.000    0.000    0.000 
#
# Total GULP energy -133875.912386 kJ/mol
# GULP energy per Si atom -5578.163016 kJ/mol
# Density = 1.955105 g / cm^3
# Si number density = 19.595654 Si / 1000 Ang^3
#
#
#
# Elastic Constant Matrix: (Units=GPa)
#
#
# Indices 1 2 3 4 5 6 
#
# 1 93.3868 39.3405 73.4729 0.0000 0.0000 0.0000
# 2 39.3405 88.8183 85.6834 0.0000 0.0000 0.0000
# 3 73.4729 85.6834 198.9954 0.0000 0.0000 0.0000
# 4 0.0000 0.0000 0.0000 44.9987 0.0000 0.0000
# 5 0.0000 0.0000 0.0000 0.0000 28.6183 0.0000
# 6 0.0000 0.0000 0.0000 0.0000 0.0000 27.4610
#
#
#
# Elastic Compliance Matrix: (Units=1/GPa)
#
#
# Indices 1 2 3 4 5 6 
#
# 1 0.015357 -0.002279 -0.004689 0.000000 0.000000 0.000000
# 2 -0.002279 0.019597 -0.007597 0.000000 0.000000 0.000000
# 3 -0.004689 -0.007597 0.010027 0.000000 0.000000 0.000000
# 4 0.000000 0.000000 0.000000 0.022223 0.000000 0.000000
# 5 0.000000 0.000000 0.000000 0.000000 0.034943 0.000000
# 6 0.000000 0.000000 0.000000 0.000000 0.000000 0.036415
#
#
# Mechanical properties :
#
#
# Convention : Reuss Voigt Hill
#
# Bulk Modulus (GPa) = 63.08055 86.46601 74.77328
# Shear Modulus (GPa) = 28.90589 32.39585 30.65087
#
# Velocity S-wave (km/s) = 3.84489 4.07039 3.95925
# Velocity P-wave (km/s) = 7.20915 8.14319 7.69037
#
# Compressibility (1/GPa) = 0.01585275
#
# Stress axis : x y z
#
# Youngs Moduli (GPa) = 65.11606 51.02893 99.72614
#
# Poissons Ratio (x) = 0.11628 0.46762
# Poissons Ratio (y) = 0.14838 0.75758
# Poissons Ratio (z) = 0.30533 0.38765
#
# Static dielectric constant tensor:
#      x y z
#    x 1.706720 0.000000 0.000000 
#    y 0.000000 1.655230 0.000000 
#    z 0.000000 0.000000 1.783990 
# 
# From -- ./inp_files/17881.got.cif
#   From: 2010.05.17/outbox.cif.g08.bks.cpg/sg35_9_cif.got.tgz:17881.got - 2010.06.03 17:29:28.
