data_PCOD9349816
_publ_section_title
;
Structure prediction by ZEFSAII (Michael W. Deem and Ramdas Pophale) SiO2 
 PCOD9349816
Probable space group: C M M 2
;
_chemical_formula_sum "Si O2"
_cell_formula_units_Z 48
_cell_length_a 15.009541
_cell_length_b 21.730131
_cell_length_c 7.317984
_cell_angle_alpha 90.000000
_cell_angle_beta 90.000000
_cell_angle_gamma 90.000000
_cell_volume 2386.828482
_symmetry_space_group_name_H-M "C M M 2"
_symmetry_group_IT_number 35
_symmetry_cell_setting 'orthorhombic'
loop_
_space_group_symop_operation_xyz
x,y,z
-x,-y,z
-x,y,z
x,-y,z
1/2+x,1/2+y,z
1/2-x,1/2-y,z
1/2-x,1/2+y,z
1/2+x,1/2-y,z
loop_
_atom_site_type_symbol
_atom_site_label
_atom_site_fract_x
_atom_site_fract_y
_atom_site_fract_z
Si Si1 0.400700 0.875294 0.687230
Si Si2 0.283629 0.929383 0.388439
Si Si3 0.650179 0.261856 0.589348
Si Si4 0.393532 0.712160 0.987756
Si Si5 0.400042 0.630316 0.325967
Si Si6 0.604647 0.153330 0.110864
O O1 0.500000 0.898827 0.646403
O O2 0.326357 0.913881 0.584267
O O3 0.394498 0.804622 0.615992
O O4 0.388736 0.872609 0.904884
O O5 0.179392 0.913589 0.385759
O O6 0.334926 0.884448 0.248599
O O7 0.299157 0.000000 0.339770
O O8 0.750000 0.250000 0.521903
O O9 0.603226 0.309401 0.455716
O O10 0.654132 0.290876 0.793094
O O11 0.500000 0.717860 0.949885
O O12 0.380553 0.655369 0.122106
O O13 0.367880 0.775204 0.091317
O O14 0.500000 0.604567 0.332442
O O15 0.500000 0.151039 0.165347
#
# Coordination Sequence:
#
# PCOD9349816 Si02
#       6
#     8   8   8   8   8   8
#     4  10  21  39  61  90 123 149 180 232 298 360
#     4  12  26  40  57  82 112 157 211 247 276 326
#     4  11  20  34  62  94 121 147 181 231 295 361
#     4   9  20  36  59  91 121 147 181 229 293 361
#     4  11  24  40  59  85 118 156 196 240 288 338
#     4   9  20  38  61  90 122 148 177 232 299 359
#
# _framework density 20.11037
#
# number of rings (size 3 to 8) (size 9 to 14) (size 15 to 20)
#    0.000    1.667    1.667    4.000    4.667    3.667 
#    0.000    1.667    0.000    0.000    0.000    4.667 
#    0.000    0.000    0.000    0.000    0.000    0.000 
#
# Total GULP energy -134212.378859 kJ/mol
# GULP energy per Si atom -5592.182452 kJ/mol
# Density = 2.006460 g / cm^3
# Si number density = 20.110370 Si / 1000 Ang^3
#
#
#
# Elastic Constant Matrix: (Units=GPa)
#
#
# Indices 1 2 3 4 5 6 
#
# 1 98.6176 2.9506 18.0865 0.0000 0.0000 0.0000
# 2 2.9506 13.6442 6.9728 0.0000 0.0000 0.0000
# 3 18.0865 6.9728 49.6307 0.0000 0.0000 0.0000
# 4 0.0000 0.0000 0.0000 7.6888 0.0000 0.0000
# 5 0.0000 0.0000 0.0000 0.0000 34.7045 0.0000
# 6 0.0000 0.0000 0.0000 0.0000 0.0000 -6.4611
#
#
#
# Elastic Compliance Matrix: (Units=1/GPa)
#
#
# Indices 1 2 3 4 5 6 
#
# 1 0.010868 -0.000351 -0.003911 0.000000 0.000000 0.000000
# 2 -0.000351 0.078972 -0.010967 0.000000 0.000000 0.000000
# 3 -0.003911 -0.010967 0.023115 0.000000 0.000000 0.000000
# 4 0.000000 0.000000 0.000000 0.130060 0.000000 0.000000
# 5 0.000000 0.000000 0.000000 0.000000 0.028815 0.000000
# 6 0.000000 0.000000 0.000000 0.000000 0.000000 -0.154772
#
#
# Mechanical properties :
#
#
# Convention : Reuss Voigt Hill
#
# Bulk Modulus (GPa) = 12.12183 24.21249 18.16716
# Shear Modulus (GPa) = 28.56887 16.11193 22.34040
#
# Velocity S-wave (km/s) = 3.77318 2.83357 3.33662
# Velocity P-wave (km/s) = 5.00232 4.77195 4.88849
#
# Compressibility (1/GPa) = 0.08249579
#
# Stress axis : x y z
#
# Youngs Moduli (GPa) = 92.01322 12.66269 43.26207
#
# Poissons Ratio (x) = 0.00445 0.16921
# Poissons Ratio (y) = 0.03234 0.47446
# Poissons Ratio (z) = 0.35988 0.13887
#
# Static dielectric constant tensor:
#      x y z
#    x 1.603460 0.000000 0.000000 
#    y 0.000000 1.682350 0.000000 
#    z 0.000000 0.000000 1.719140 
# 
# From -- ./inp_files/7478.got.cif
#   From: 2010.05.17/outbox.cif.g08.bks.cpg/sg35_4_cif.got.tgz:7478.got - 2010.06.03 17:29:28.
