data_PCOD9349421
_publ_section_title
;
Structure prediction by ZEFSAII (Michael W. Deem and Ramdas Pophale) SiO2 
 PCOD9349421
Probable space group: C M M 2
;
_chemical_formula_sum "Si O2"
_cell_formula_units_Z 56
_cell_length_a 22.518359
_cell_length_b 13.591723
_cell_length_c 8.961144
_cell_angle_alpha 90.000000
_cell_angle_beta 90.000000
_cell_angle_gamma 90.000000
_cell_volume 2742.677286
_symmetry_space_group_name_H-M "C M M 2"
_symmetry_group_IT_number 35
_symmetry_cell_setting 'orthorhombic'
loop_
_space_group_symop_operation_xyz
x,y,z
-x,-y,z
-x,y,z
x,-y,z
1/2+x,1/2+y,z
1/2-x,1/2-y,z
1/2-x,1/2+y,z
1/2+x,1/2-y,z
loop_
_atom_site_type_symbol
_atom_site_label
_atom_site_fract_x
_atom_site_fract_y
_atom_site_fract_z
Si Si1 0.152284 0.260707 0.262050
Si Si2 0.670659 0.382688 0.692085
Si Si3 0.400650 0.885227 0.698481
Si Si4 0.066491 0.790583 0.517325
Si Si5 0.344134 0.382878 0.022746
Si Si6 0.930311 0.715160 0.013233
Si Si7 0.783807 0.383643 0.512596
O O1 0.103435 0.206082 0.365239
O O2 0.192143 0.325437 0.370197
O O3 0.183628 0.177313 0.160746
O O4 0.112968 0.323744 0.144451
O O5 0.668933 0.500000 0.685011
O O6 0.607125 0.343111 0.640878
O O7 0.685474 0.358577 0.863364
O O8 0.720610 0.349464 0.575879
O O9 0.434470 0.822257 0.573302
O O10 0.414861 0.838253 0.858445
O O11 0.332036 0.874010 0.646541
O O12 0.415547 0.000000 0.698048
O O13 0.000000 0.828959 0.505348
O O14 0.345982 0.500000 0.044152
O O15 0.408686 0.329557 0.007880
O O16 0.000000 0.706388 0.043881
O O17 0.780116 0.500000 0.477749
#
# Coordination Sequence:
#
# PCOD9349421 Si02
#       7
#     8   8   8   8   8   8   8
#     4   9  21  37  59  91 120 168 203 254 319 383
#     4  10  21  40  65  92 123 165 217 269 322 379
#     4  10  21  37  59  88 122 170 221 271 324 373
#     4  11  21  37  58  88 128 163 212 269 322 387
#     4   9  20  39  61  92 126 166 212 259 316 379
#     4  10  20  37  58  91 129 169 218 263 312 383
#     4   9  20  41  65  90 126 166 214 269 321 383
#
# _framework density 20.418005999999998
#
# number of rings (size 3 to 8) (size 9 to 14) (size 15 to 20)
#    0.857    1.429    1.429    0.857    0.000    5.143 
#    0.000    4.286    0.000    6.857    0.000    0.000 
#    0.000    0.000    0.000    0.000    0.000    0.000 
#
# Total GULP energy -156103.406400 kJ/mol
# GULP energy per Si atom -5575.121657 kJ/mol
# Density = 2.037153 g / cm^3
# Si number density = 20.418006 Si / 1000 Ang^3
#
#
#
# Elastic Constant Matrix: (Units=GPa)
#
#
# Indices 1 2 3 4 5 6 
#
# 1 103.2296 33.2621 40.7533 0.0000 0.0000 0.0000
# 2 33.2621 80.9814 49.8252 0.0000 0.0000 0.0000
# 3 40.7533 49.8252 130.8868 0.0000 0.0000 0.0000
# 4 0.0000 0.0000 0.0000 31.0880 0.0000 0.0000
# 5 0.0000 0.0000 0.0000 0.0000 16.4818 0.0000
# 6 0.0000 0.0000 0.0000 0.0000 0.0000 14.4728
#
#
#
# Elastic Compliance Matrix: (Units=1/GPa)
#
#
# Indices 1 2 3 4 5 6 
#
# 1 0.011701 -0.003349 -0.002369 0.000000 0.000000 0.000000
# 2 -0.003349 0.017084 -0.005461 0.000000 0.000000 0.000000
# 3 -0.002369 -0.005461 0.010456 0.000000 0.000000 0.000000
# 4 0.000000 0.000000 0.000000 0.032167 0.000000 0.000000
# 5 0.000000 0.000000 0.000000 0.000000 0.060673 0.000000
# 6 0.000000 0.000000 0.000000 0.000000 0.000000 0.069095
#
#
# Mechanical properties :
#
#
# Convention : Reuss Voigt Hill
#
# Bulk Modulus (GPa) = 59.22289 62.53101 60.87695
# Shear Modulus (GPa) = 21.81878 25.15902 23.48890
#
# Velocity S-wave (km/s) = 3.27250 3.51408 3.39544
# Velocity P-wave (km/s) = 6.58386 6.86709 6.72696
#
# Compressibility (1/GPa) = 0.01688536
#
# Stress axis : x y z
#
# Youngs Moduli (GPa) = 85.46098 58.53514 95.63553
#
# Poissons Ratio (x) = 0.19603 0.22651
# Poissons Ratio (y) = 0.28620 0.52223
# Poissons Ratio (z) = 0.20241 0.31964
#
# Static dielectric constant tensor:
#      x y z
#    x 1.755980 0.000000 0.000000 
#    y 0.000000 1.743000 0.000000 
#    z 0.000000 0.000000 1.753380 
# 
# From -- ./inp_files/9283.got.cif
#   From: 2010.05.17/outbox.cif.g08.bks.cpg/sg35_5_cif.got.tgz:9283.got - 2010.06.03 17:29:28.
