data_PCOD9349815
_publ_section_title
;
Structure prediction by ZEFSAII (Michael W. Deem and Ramdas Pophale) SiO2 
 PCOD9349815
Probable space group: C M M 2
;
_chemical_formula_sum "Si O2"
_cell_formula_units_Z 64
_cell_length_a 31.803757
_cell_length_b 8.538576
_cell_length_c 12.184581
_cell_angle_alpha 90.000000
_cell_angle_beta 90.000000
_cell_angle_gamma 90.000000
_cell_volume 3308.830149
_symmetry_space_group_name_H-M "C M M 2"
_symmetry_group_IT_number 35
_symmetry_cell_setting 'orthorhombic'
loop_
_space_group_symop_operation_xyz
x,y,z
-x,-y,z
-x,y,z
x,-y,z
1/2+x,1/2+y,z
1/2-x,1/2-y,z
1/2-x,1/2+y,z
1/2+x,1/2-y,z
loop_
_atom_site_type_symbol
_atom_site_label
_atom_site_fract_x
_atom_site_fract_y
_atom_site_fract_z
Si Si1 0.374094 0.687681 0.876850
Si Si2 0.046863 0.189110 0.730329
Si Si3 0.575744 0.187800 0.497028
Si Si4 0.174228 0.690178 0.502735
Si Si5 0.452740 0.687225 0.264547
Si Si6 0.795302 0.687817 0.740469
Si Si7 0.704922 0.189139 0.265868
Si Si8 0.875564 0.312495 0.122963
O O1 0.372570 0.500000 0.872386
O O2 0.415695 0.740826 0.810517
O O3 0.333026 0.754603 0.816932
O O4 0.376042 0.741811 0.002000
O O5 0.054834 0.257497 0.609715
O O6 0.000000 0.232907 0.768630
O O7 0.048579 0.000000 0.723139
O O8 0.625062 0.233354 0.500805
O O9 0.555044 0.263422 0.390292
O O10 0.573298 0.000000 0.487487
O O11 0.175720 0.500000 0.502755
O O12 0.195271 0.744300 0.615720
O O13 0.196088 0.744409 0.390759
O O14 0.500000 0.735227 0.231961
O O15 0.449736 0.500000 0.255511
O O16 0.416617 0.762976 0.190840
O O17 0.794938 0.500000 0.740352
O O18 0.750000 0.750000 0.776102
O O19 0.750000 0.250000 0.228062
O O20 0.666021 0.239193 0.189909
O O21 0.705457 0.000000 0.266744
O O22 0.874285 0.500000 0.115658
#
# Coordination Sequence:
#
# PCOD9349815 Si02
#       8
#     8   8   8   8   8   8   8   8
#     4  11  24  42  63  88 120 161 209 255 308 366
#     4  10  22  40  61  88 123 160 199 247 303 363
#     4  11  20  36  62  92 125 160 198 246 303 361
#     4   9  18  35  59  88 123 156 190 242 302 357
#     4  11  24  41  62  91 126 162 202 250 305 365
#     4  11  22  39  63  91 124 160 202 252 307 366
#     4  10  21  39  61  89 121 155 193 241 298 356
#     4  11  24  43  65  88 120 160 207 258 306 359
#
# _framework density 19.342184
#
# number of rings (size 3 to 8) (size 9 to 14) (size 15 to 20)
#    0.000    1.500    2.500    2.625    0.000    5.250 
#    0.000    3.125    0.000    0.000    0.000    0.000 
#    0.000    0.000    0.000    0.000    0.000    0.000 
#
# Total GULP energy -178879.169932 kJ/mol
# GULP energy per Si atom -5589.974060 kJ/mol
# Density = 1.929816 g / cm^3
# Si number density = 19.342184 Si / 1000 Ang^3
#
#
#
# Elastic Constant Matrix: (Units=GPa)
#
#
# Indices 1 2 3 4 5 6 
#
# 1 182.4855 33.2834 71.7821 0.0000 0.0000 0.0000
# 2 33.2834 31.7141 23.9474 0.0000 0.0000 0.0000
# 3 71.7821 23.9474 135.8478 0.0000 0.0000 0.0000
# 4 0.0000 0.0000 0.0000 31.8737 0.0000 0.0000
# 5 0.0000 0.0000 0.0000 0.0000 2.2541 0.0000
# 6 0.0000 0.0000 0.0000 0.0000 0.0000 28.1293
#
#
#
# Elastic Compliance Matrix: (Units=1/GPa)
#
#
# Indices 1 2 3 4 5 6 
#
# 1 0.007747 -0.005813 -0.003069 0.000000 0.000000 0.000000
# 2 -0.005813 0.040736 -0.004109 0.000000 0.000000 0.000000
# 3 -0.003069 -0.004109 0.009707 0.000000 0.000000 0.000000
# 4 0.000000 0.000000 0.000000 0.031374 0.000000 0.000000
# 5 0.000000 0.000000 0.000000 0.000000 0.443645 0.000000
# 6 0.000000 0.000000 0.000000 0.000000 0.000000 0.035550
#
#
# Mechanical properties :
#
#
# Convention : Reuss Voigt Hill
#
# Bulk Modulus (GPa) = 31.04895 67.56370 49.30632
# Shear Modulus (GPa) = 8.25795 27.18706 17.72250
#
# Velocity S-wave (km/s) = 2.06849 3.75318 3.03027
# Velocity P-wave (km/s) = 4.66821 7.33406 6.14738
#
# Compressibility (1/GPa) = 0.03220721
#
# Stress axis : x y z
#
# Youngs Moduli (GPa) = 129.07606 24.54860 103.01670
#
# Poissons Ratio (x) = 0.14271 0.31615
# Poissons Ratio (y) = 0.75037 0.42331
# Poissons Ratio (z) = 0.39613 0.10087
#
# Static dielectric constant tensor:
#      x y z
#    x 1.669360 0.000000 0.000000 
#    y 0.000000 1.656860 0.000000 
#    z 0.000000 0.000000 1.643370 
# 
# From -- ./inp_files/12030.got.cif
#   From: 2010.05.17/outbox.cif.g08.bks.cpg/sg35_7_cif.got.tgz:12030.got - 2010.06.03 17:29:28.
