data_PCOD9349995
_publ_section_title
;
Structure prediction by ZEFSAII (Michael W. Deem and Ramdas Pophale) SiO2 
 PCOD9349995
Probable space group: C M M 2
;
_chemical_formula_sum "Si O2"
_cell_formula_units_Z 32
_cell_length_a 13.892510
_cell_length_b 20.148863
_cell_length_c 5.022649
_cell_angle_alpha 90.000000
_cell_angle_beta 90.000000
_cell_angle_gamma 90.000000
_cell_volume 1405.931273
_symmetry_space_group_name_H-M "C M M 2"
_symmetry_group_IT_number 35
_symmetry_cell_setting 'orthorhombic'
loop_
_space_group_symop_operation_xyz
x,y,z
-x,-y,z
-x,y,z
x,-y,z
1/2+x,1/2+y,z
1/2-x,1/2-y,z
1/2-x,1/2+y,z
1/2+x,1/2-y,z
loop_
_atom_site_type_symbol
_atom_site_label
_atom_site_fract_x
_atom_site_fract_y
_atom_site_fract_z
Si Si1 0.234589 0.127643 0.760260
Si Si2 0.108250 0.428227 0.105667
Si Si3 0.612159 0.346849 0.271748
Si Si4 0.608058 0.800720 0.492943
O O1 0.177310 0.114669 0.487976
O O2 0.308679 0.187873 0.704898
O O3 0.308925 0.075542 0.885291
O O4 0.155420 0.142734 0.981758
O O5 0.115669 0.500000 0.245701
O O6 0.116386 0.364409 0.297614
O O7 0.000000 0.425136 0.988934
O O8 0.500000 0.365017 0.286911
O O9 0.620729 0.268925 0.345418
O O10 0.500000 0.800026 0.608245
#
# Coordination Sequence:
#
# PCOD9349995 Si02
#       4
#     8   8   8   8
#     4  12  23  42  68  97 133 172 221 269 334 390
#     4  10  23  43  67 100 139 175 215 266 329 404
#     4  11  26  42  65  98 136 173 223 276 328 385
#     4  10  23  40  65 100 136 174 214 268 334 402
#
# _framework density 22.760715000000001
#
# number of rings (size 3 to 8) (size 9 to 14) (size 15 to 20)
#    0.000    1.250    2.500    2.250    7.000    1.000 
#    0.000    2.500    0.000    4.500    0.000    0.000 
#    0.000    0.000    0.000    0.000    0.000    0.000 
#
# Total GULP energy -89449.029130 kJ/mol
# GULP energy per Si atom -5590.564321 kJ/mol
# Density = 2.270891 g / cm^3
# Si number density = 22.760715 Si / 1000 Ang^3
#
#
#
# Elastic Constant Matrix: (Units=GPa)
#
#
# Indices 1 2 3 4 5 6 
#
# 1 171.5500 2.8413 35.3557 0.0000 0.0000 0.0000
# 2 2.8413 64.3899 -10.4433 0.0000 0.0000 0.0000
# 3 35.3557 -10.4433 66.7936 0.0000 0.0000 0.0000
# 4 0.0000 0.0000 0.0000 20.5460 0.0000 0.0000
# 5 0.0000 0.0000 0.0000 0.0000 34.7480 0.0000
# 6 0.0000 0.0000 0.0000 0.0000 0.0000 12.4864
#
#
#
# Elastic Compliance Matrix: (Units=1/GPa)
#
#
# Indices 1 2 3 4 5 6 
#
# 1 0.006591 -0.000879 -0.003626 0.000000 0.000000 0.000000
# 2 -0.000879 0.016052 0.002975 0.000000 0.000000 0.000000
# 3 -0.003626 0.002975 0.017356 0.000000 0.000000 0.000000
# 4 0.000000 0.000000 0.000000 0.048671 0.000000 0.000000
# 5 0.000000 0.000000 0.000000 0.000000 0.028779 0.000000
# 6 0.000000 0.000000 0.000000 0.000000 0.000000 0.080087
#
#
# Mechanical properties :
#
#
# Convention : Reuss Voigt Hill
#
# Bulk Modulus (GPa) = 27.07217 39.80457 33.43837
# Shear Modulus (GPa) = 23.48414 31.88804 27.68609
#
# Velocity S-wave (km/s) = 3.21562 3.74707 3.49147
# Velocity P-wave (km/s) = 5.07021 6.02054 5.56570
#
# Compressibility (1/GPa) = 0.03693831
#
# Stress axis : x y z
#
# Youngs Moduli (GPa) = 151.71911 62.29881 57.61648
#
# Poissons Ratio (x) = 0.05476 0.20893
# Poissons Ratio (y) = 0.13336 -0.17141
# Poissons Ratio (z) = 0.55018 -0.18534
#
# Static dielectric constant tensor:
#      x y z
#    x 1.847900 0.000000 0.000000 
#    y 0.000000 1.849580 0.000000 
#    z 0.000000 0.000000 1.862480 
# 
# From -- ./inp_files/1540.got.cif
#   From: 2010.05.17/outbox.cif.g08.bks.cpg/sg35_1_cif.got.tgz:1540.got - 2010.06.03 17:29:28.
