data_PCOD9349125
_publ_section_title
;
Structure prediction by ZEFSAII (Michael W. Deem and Ramdas Pophale) SiO2 
 PCOD9349125
Probable space group: C M M 2
;
_chemical_formula_sum "Si O2"
_cell_formula_units_Z 64
_cell_length_a 28.750462
_cell_length_b 8.361032
_cell_length_c 13.494201
_cell_angle_alpha 90.000000
_cell_angle_beta 90.000000
_cell_angle_gamma 90.000000
_cell_volume 3243.783709
_symmetry_space_group_name_H-M "C M M 2"
_symmetry_group_IT_number 35
_symmetry_cell_setting 'orthorhombic'
loop_
_space_group_symop_operation_xyz
x,y,z
-x,-y,z
-x,y,z
x,-y,z
1/2+x,1/2+y,z
1/2-x,1/2-y,z
1/2-x,1/2+y,z
1/2+x,1/2-y,z
loop_
_atom_site_type_symbol
_atom_site_label
_atom_site_fract_x
_atom_site_fract_y
_atom_site_fract_z
Si Si1 0.893061 0.809328 0.581850
Si Si2 0.893344 0.807168 0.187589
Si Si3 0.053693 0.804245 0.385320
Si Si4 0.802834 0.691645 0.102848
Si Si5 0.803435 0.692984 0.885382
Si Si6 0.945902 0.308925 0.776630
Si Si7 0.554409 0.692830 0.989613
Si Si8 0.197251 0.308618 0.667590
O O1 0.919880 0.750214 0.484325
O O2 0.919242 0.754136 0.681154
O O3 0.840018 0.751578 0.589100
O O4 0.893402 0.000000 0.579503
O O5 0.919827 0.752152 0.285980
O O6 0.839966 0.754325 0.181062
O O7 0.895158 0.000000 0.186660
O O8 0.919126 0.749462 0.087551
O O9 0.000000 0.753561 0.385284
O O10 0.053797 0.000000 0.385445
O O11 0.802502 0.500000 0.102959
O O12 0.750000 0.750000 0.117157
O O13 0.820309 0.749286 0.993091
O O14 0.806117 0.500000 0.885818
O O15 0.750000 0.750000 0.884967
O O16 0.820484 0.747219 0.777402
O O17 0.944337 0.500000 0.774614
O O18 0.927167 0.254659 0.883985
O O19 0.000000 0.255661 0.771338
O O20 0.500000 0.740263 0.996664
O O21 0.556287 0.500000 0.987744
O O22 0.197707 0.500000 0.668047
O O23 0.250000 0.250000 0.653200
#
# Coordination Sequence:
#
# PCOD9349125 Si02
#       8
#     8   8   8   8   8   8   8   8
#     4  11  22  36  58  86 113 148 194 239 287 342
#     4  10  20  35  58  86 112 145 189 235 286 339
#     4   9  19  38  63  87 112 145 189 241 290 338
#     4  10  20  35  54  80 114 152 191 233 280 333
#     4   8  16  30  49  73 104 144 182 221 268 322
#     4  10  21  36  54  79 114 152 187 230 287 346
#     4   9  18  33  54  82 114 146 183 228 280 344
#     4  10  20  36  56  82 116 154 193 236 285 337
#
# _framework density 19.730046000000002
#
# number of rings (size 3 to 8) (size 9 to 14) (size 15 to 20)
#    0.000    2.375    0.000    2.250    1.750    4.250 
#    0.000    1.875    0.000    2.625    0.000    0.000 
#    0.000    0.000    0.000    0.000    0.000    0.000 
#
# Total GULP energy -178579.198937 kJ/mol
# GULP energy per Si atom -5580.599967 kJ/mol
# Density = 1.968514 g / cm^3
# Si number density = 19.730046 Si / 1000 Ang^3
#
#
#
# Elastic Constant Matrix: (Units=GPa)
#
#
# Indices 1 2 3 4 5 6 
#
# 1 135.9127 15.7295 101.5666 0.0000 0.0000 0.0000
# 2 15.7295 13.0984 24.1821 0.0000 0.0000 0.0000
# 3 101.5666 24.1821 160.7114 0.0000 0.0000 0.0000
# 4 0.0000 0.0000 0.0000 8.3756 0.0000 0.0000
# 5 0.0000 0.0000 0.0000 0.0000 38.8348 0.0000
# 6 0.0000 0.0000 0.0000 0.0000 0.0000 25.5502
#
#
#
# Elastic Compliance Matrix: (Units=1/GPa)
#
#
# Indices 1 2 3 4 5 6 
#
# 1 0.013946 -0.000659 -0.008715 0.000000 0.000000 0.000000
# 2 -0.000659 0.105742 -0.015494 0.000000 0.000000 0.000000
# 3 -0.008715 -0.015494 0.014061 0.000000 0.000000 0.000000
# 4 0.000000 0.000000 0.000000 0.119394 0.000000 0.000000
# 5 0.000000 0.000000 0.000000 0.000000 0.025750 0.000000
# 6 0.000000 0.000000 0.000000 0.000000 0.000000 0.039139
#
#
# Mechanical properties :
#
#
# Convention : Reuss Voigt Hill
#
# Bulk Modulus (GPa) = 11.90284 65.85320 38.87802
# Shear Modulus (GPa) = 12.63350 25.76841 19.20095
#
# Velocity S-wave (km/s) = 2.53319 3.61785 3.12297
# Velocity P-wave (km/s) = 3.82126 7.13452 5.72291
#
# Compressibility (1/GPa) = 0.08401354
#
# Stress axis : x y z
#
# Youngs Moduli (GPa) = 71.70337 9.45698 71.11721
#
# Poissons Ratio (x) = 0.00623 0.61976
# Poissons Ratio (y) = 0.04724 1.10193
# Poissons Ratio (z) = 0.62487 0.14653
#
# Static dielectric constant tensor:
#      x y z
#    x 1.694920 0.000000 0.000000 
#    y 0.000000 1.680990 0.000000 
#    z 0.000000 0.000000 1.704360 
# 
# From -- ./inp_files/14569.got.cif
#   From: 2010.05.17/outbox.cif.g08.bks.cpg/sg35_8_cif.got.tgz:14569.got - 2010.06.03 17:29:28.
