data_PCOD9349519
_publ_section_title
;
Structure prediction by ZEFSAII (Michael W. Deem and Ramdas Pophale) SiO2 
 PCOD9349519
Probable space group: C M M 2
;
_chemical_formula_sum "Si O2"
_cell_formula_units_Z 48
_cell_length_a 8.603363
_cell_length_b 14.832876
_cell_length_c 18.466184
_cell_angle_alpha 90.000000
_cell_angle_beta 90.000000
_cell_angle_gamma 90.000000
_cell_volume 2356.518058
_symmetry_space_group_name_H-M "C M M 2"
_symmetry_group_IT_number 35
_symmetry_cell_setting 'orthorhombic'
loop_
_space_group_symop_operation_xyz
x,y,z
-x,-y,z
-x,y,z
x,-y,z
1/2+x,1/2+y,z
1/2-x,1/2-y,z
1/2-x,1/2+y,z
1/2+x,1/2-y,z
loop_
_atom_site_type_symbol
_atom_site_label
_atom_site_fract_x
_atom_site_fract_y
_atom_site_fract_z
Si Si1 0.315138 0.000000 0.482760
Si Si2 0.685832 0.647635 0.215577
Si Si3 0.187553 0.647730 0.910858
Si Si4 0.313399 0.853066 0.067283
Si Si5 0.815068 0.000000 0.644701
Si Si6 0.812749 0.351869 0.751817
Si Si7 0.186819 0.851687 0.375793
O O1 0.255889 0.913879 0.437833
O O2 0.500000 0.000000 0.485626
O O3 0.248616 0.000000 0.563482
O O4 0.500000 0.649170 0.210264
O O5 0.750000 0.750000 0.216864
O O6 0.751165 0.605511 0.141831
O O7 0.728036 0.611429 0.295110
O O8 0.250000 0.750000 0.910845
O O9 0.233649 0.611134 0.832077
O O10 0.000000 0.648930 0.911356
O O11 0.234556 0.607455 0.988822
O O12 0.500000 0.851717 0.070933
O O13 0.250000 0.750000 0.066252
O O14 0.754342 0.913823 0.689151
O O15 0.000000 0.000000 0.643283
O O16 0.750000 0.250000 0.746003
O O17 0.000000 0.351446 0.748013
O O18 0.250000 0.750000 0.381504
O O19 0.000000 0.850728 0.380610
#
# Coordination Sequence:
#
# PCOD9349519 Si02
#       7
#     4   8   8   8   4   8   8
#     4  12  26  44  66  91 116 147 188 235 292 353
#     4   9  16  26  44  72 107 147 188 230 277 327
#     4   8  15  26  44  72 107 146 187 231 278 328
#     4   9  14  21  37  66 104 144 187 232 275 322
#     4  12  26  44  64  89 118 149 188 235 290 351
#     4  10  20  38  62  89 120 155 195 239 289 344
#     4  10  21  39  62  89 121 156 194 238 288 343
#
# _framework density 20.369036999999999
#
# number of rings (size 3 to 8) (size 9 to 14) (size 15 to 20)
#    0.000    2.333    0.000    4.500    0.000    4.000 
#    0.000    3.333    0.000    1.000    0.000    1.167 
#    0.000    0.000    0.000    0.000    0.000    0.000 
#
# Total GULP energy -133886.251048 kJ/mol
# GULP energy per Si atom -5578.593794 kJ/mol
# Density = 2.032268 g / cm^3
# Si number density = 20.369037 Si / 1000 Ang^3
#
#
#
# Elastic Constant Matrix: (Units=GPa)
#
#
# Indices 1 2 3 4 5 6 
#
# 1 92.4015 30.2201 81.6735 0.0000 0.0000 0.0000
# 2 30.2201 95.4213 76.7536 0.0000 0.0000 0.0000
# 3 81.6735 76.7536 267.2174 0.0000 0.0000 0.0000
# 4 0.0000 0.0000 0.0000 77.4772 0.0000 0.0000
# 5 0.0000 0.0000 0.0000 0.0000 33.5906 0.0000
# 6 0.0000 0.0000 0.0000 0.0000 0.0000 16.9257
#
#
#
# Elastic Compliance Matrix: (Units=1/GPa)
#
#
# Indices 1 2 3 4 5 6 
#
# 1 0.014967 -0.001379 -0.004178 0.000000 0.000000 0.000000
# 2 -0.001379 0.013756 -0.003530 0.000000 0.000000 0.000000
# 3 -0.004178 -0.003530 0.006033 0.000000 0.000000 0.000000
# 4 0.000000 0.000000 0.000000 0.012907 0.000000 0.000000
# 5 0.000000 0.000000 0.000000 0.000000 0.029770 0.000000
# 6 0.000000 0.000000 0.000000 0.000000 0.000000 0.059082
#
#
# Mechanical properties :
#
#
# Convention : Reuss Voigt Hill
#
# Bulk Modulus (GPa) = 60.30819 92.48162 76.39491
# Shear Modulus (GPa) = 31.20797 43.35824 37.28310
#
# Velocity S-wave (km/s) = 3.91849 4.61872 4.28294
# Velocity P-wave (km/s) = 7.08130 8.59913 7.87686
#
# Compressibility (1/GPa) = 0.01658149
#
# Stress axis : x y z
#
# Youngs Moduli (GPa) = 66.81551 72.69736 165.75024
#
# Poissons Ratio (x) = 0.10025 0.69256
# Poissons Ratio (y) = 0.09214 0.58503
# Poissons Ratio (z) = 0.27918 0.25659
#
# Static dielectric constant tensor:
#      x y z
#    x 1.679360 0.000000 0.000000 
#    y 0.000000 1.747640 0.000000 
#    z 0.000000 0.000000 1.770470 
# 
# From -- ./inp_files/17931.got.cif
#   From: 2010.05.17/outbox.cif.g08.bks.cpg/sg35_9_cif.got.tgz:17931.got - 2010.06.03 17:29:28.
