data_PCOD9349527
_publ_section_title
;
Structure prediction by ZEFSAII (Michael W. Deem and Ramdas Pophale) SiO2 
 PCOD9349527
Probable space group: C M M 2
;
_chemical_formula_sum "Si O2"
_cell_formula_units_Z 56
_cell_length_a 8.634278
_cell_length_b 20.717471
_cell_length_c 15.571419
_cell_angle_alpha 90.000000
_cell_angle_beta 90.000000
_cell_angle_gamma 90.000000
_cell_volume 2785.421723
_symmetry_space_group_name_H-M "C M M 2"
_symmetry_group_IT_number 35
_symmetry_cell_setting 'orthorhombic'
loop_
_space_group_symop_operation_xyz
x,y,z
-x,-y,z
-x,y,z
x,-y,z
1/2+x,1/2+y,z
1/2-x,1/2-y,z
1/2-x,1/2+y,z
1/2+x,1/2-y,z
loop_
_atom_site_type_symbol
_atom_site_label
_atom_site_fract_x
_atom_site_fract_y
_atom_site_fract_z
Si Si1 0.328590 0.500000 0.039081
Si Si2 0.187228 0.860864 0.020229
Si Si3 0.183414 0.820165 0.653156
Si Si4 0.315967 0.317084 0.204678
Si Si5 0.182175 0.362441 0.832396
Si Si6 0.314205 0.823851 0.478362
Si Si7 0.186858 0.575915 0.326707
Si Si8 0.174883 0.000000 0.834601
O O1 0.500000 0.500000 0.081143
O O2 0.251008 0.568746 0.051180
O O3 0.348496 0.500000 0.936471
O O4 0.217810 0.817732 0.102533
O O5 0.000000 0.866541 0.008886
O O6 0.256015 0.843485 0.927284
O O7 0.250000 0.750000 0.636806
O O8 0.234318 0.832604 0.750431
O O9 0.257247 0.853960 0.569771
O O10 0.000000 0.824258 0.647487
O O11 0.500000 0.317794 0.215910
O O12 0.250000 0.250000 0.241639
O O13 0.248574 0.381930 0.246861
O O14 0.225584 0.437115 0.817875
O O15 0.000000 0.350312 0.828902
O O16 0.500000 0.925622 0.323522
O O17 0.250000 0.750000 0.462166
O O18 0.269555 0.876983 0.406571
O O19 0.238316 0.500000 0.329775
O O20 0.000000 0.682208 0.480107
O O21 0.000000 0.000000 0.795892
#
# Coordination Sequence:
#
# PCOD9349527 Si02
#       8
#     4   8   8   8   8   8   8   4
#     4   7  12  27  51  73  98 135 188 245 295 346
#     4   9  19  35  56  81 114 160 207 255 309 359
#     4  11  22  38  60  86 118 156 200 249 301 358
#     4  11  24  40  62  90 124 166 210 256 307 369
#     4  11  21  35  56  86 120 160 206 251 302 360
#     4  10  20  38  64  91 122 159 203 249 307 371
#     4  10  23  43  66  94 127 161 198 252 313 369
#     4   9  17  33  53  75 108 151 198 247 297 350
#
# _framework density 20.104675
#
# number of rings (size 3 to 8) (size 9 to 14) (size 15 to 20)
#    0.000    2.000    0.000    5.786    1.000    4.286 
#    1.286    1.429    0.000    0.000    0.000    0.000 
#    0.000    0.000    0.000    0.000    0.000    0.000 
#
# Total GULP energy -155889.116077 kJ/mol
# GULP energy per Si atom -5567.468431 kJ/mol
# Density = 2.005892 g / cm^3
# Si number density = 20.104675 Si / 1000 Ang^3
#
#
#
# Elastic Constant Matrix: (Units=GPa)
#
#
# Indices 1 2 3 4 5 6 
#
# 1 58.9187 28.6469 42.8088 0.0000 0.0000 0.0000
# 2 28.6469 110.8781 47.1187 0.0000 0.0000 0.0000
# 3 42.8088 47.1187 136.6407 0.0000 0.0000 0.0000
# 4 0.0000 0.0000 0.0000 -63.5490 0.0000 0.0000
# 5 0.0000 0.0000 0.0000 0.0000 29.9330 0.0000
# 6 0.0000 0.0000 0.0000 0.0000 0.0000 52.5073
#
#
#
# Elastic Compliance Matrix: (Units=1/GPa)
#
#
# Indices 1 2 3 4 5 6 
#
# 1 0.023005 -0.003375 -0.006043 0.000000 0.000000 0.000000
# 2 -0.003375 0.011063 -0.002757 0.000000 0.000000 0.000000
# 3 -0.006043 -0.002757 0.010163 0.000000 0.000000 0.000000
# 4 0.000000 0.000000 0.000000 -0.015736 0.000000 0.000000
# 5 0.000000 0.000000 0.000000 0.000000 0.033408 0.000000
# 6 0.000000 0.000000 0.000000 0.000000 0.000000 0.019045
#
#
# Mechanical properties :
#
#
# Convention : Reuss Voigt Hill
#
# Bulk Modulus (GPa) = 50.30704 60.39849 55.35276
# Shear Modulus (GPa) = 44.67277 16.30245 30.48761
#
# Velocity S-wave (km/s) = 4.71893 2.85068 3.89838
# Velocity P-wave (km/s) = 7.40054 6.39863 6.91775
#
# Compressibility (1/GPa) = 0.01987793
#
# Stress axis : x y z
#
# Youngs Moduli (GPa) = 43.46962 90.39341 98.39982
#
# Poissons Ratio (x) = 0.30511 0.59465
# Poissons Ratio (y) = 0.14673 0.27132
# Poissons Ratio (z) = 0.26270 0.24925
#
# Static dielectric constant tensor:
#      x y z
#    x 1.692410 0.000000 0.000000 
#    y 0.000000 1.687120 0.000000 
#    z 0.000000 0.000000 1.763220 
# 
# From -- ./inp_files/15781.got.cif
#   From: 2010.05.17/outbox.cif.g08.bks.cpg/sg35_8_cif.got.tgz:15781.got - 2010.06.03 17:29:28.
