data_PCOD9349401
_publ_section_title
;
Structure prediction by ZEFSAII (Michael W. Deem and Ramdas Pophale) SiO2 
 PCOD9349401
Probable space group: C M M 2
;
_chemical_formula_sum "Si O2"
_cell_formula_units_Z 40
_cell_length_a 8.819057
_cell_length_b 23.721390
_cell_length_c 10.420352
_cell_angle_alpha 90.000000
_cell_angle_beta 90.000000
_cell_angle_gamma 90.000000
_cell_volume 2179.940666
_symmetry_space_group_name_H-M "C M M 2"
_symmetry_group_IT_number 35
_symmetry_cell_setting 'orthorhombic'
loop_
_space_group_symop_operation_xyz
x,y,z
-x,-y,z
-x,y,z
x,-y,z
1/2+x,1/2+y,z
1/2-x,1/2-y,z
1/2-x,1/2+y,z
1/2+x,1/2-y,z
loop_
_atom_site_type_symbol
_atom_site_label
_atom_site_fract_x
_atom_site_fract_y
_atom_site_fract_z
Si Si1 0.320169 0.114271 0.965990
Si Si2 0.180262 0.188306 0.737462
Si Si3 0.173785 0.000000 0.871048
Si Si4 0.321927 0.399293 0.507704
Si Si5 0.321469 0.568164 0.217039
Si Si6 0.667122 0.000000 0.625112
O O1 0.500000 0.120530 0.963036
O O2 0.248734 0.158408 0.864843
O O3 0.263534 0.054436 0.913507
O O4 0.262954 0.106813 0.112116
O O5 0.250000 0.250000 0.723749
O O6 0.205780 0.152385 0.606014
O O7 0.000000 0.191480 0.755344
O O8 0.190543 0.000000 0.719829
O O9 0.000000 0.000000 0.912385
O O10 0.500000 0.415823 0.530304
O O11 0.308669 0.400096 0.353631
O O12 0.195368 0.444656 0.544678
O O13 0.500000 0.566677 0.183855
O O14 0.275360 0.500000 0.221588
O O15 0.500000 0.000000 0.685326
#
# Coordination Sequence:
#
# PCOD9349401 Si02
#       6
#     8   8   4   8   8   4
#     4  12  24  38  59  91 126 160 202 254 307 364
#     4  11  24  43  67  89 117 159 209 262 307 360
#     4  12  22  35  56  85 122 162 200 246 308 371
#     4  10  21  39  62  87 121 165 205 244 299 367
#     4  10  20  36  60  90 127 169 204 239 297 371
#     4  12  22  31  54  91 126 156 194 250 306 361
#
# _framework density 18.349122999999999
#
# number of rings (size 3 to 8) (size 9 to 14) (size 15 to 20)
#    0.000    1.000    4.000    4.200    0.000    1.600 
#    0.000    1.000    0.000    2.400    0.000    0.000 
#    0.000    0.000    0.000    0.000    0.000    0.000 
#
# Total GULP energy -111362.019392 kJ/mol
# GULP energy per Si atom -5568.100970 kJ/mol
# Density = 1.830736 g / cm^3
# Si number density = 18.349123 Si / 1000 Ang^3
#
#
#
# Elastic Constant Matrix: (Units=GPa)
#
#
# Indices 1 2 3 4 5 6 
#
# 1 109.1046 70.6047 78.1402 0.0000 0.0000 0.0000
# 2 70.6047 117.7688 67.5271 0.0000 0.0000 0.0000
# 3 78.1402 67.5271 149.5538 0.0000 0.0000 0.0000
# 4 0.0000 0.0000 0.0000 1.3291 0.0000 0.0000
# 5 0.0000 0.0000 0.0000 0.0000 23.9530 0.0000
# 6 0.0000 0.0000 0.0000 0.0000 0.0000 19.2134
#
#
#
# Elastic Compliance Matrix: (Units=1/GPa)
#
#
# Indices 1 2 3 4 5 6 
#
# 1 0.018525 -0.007497 -0.006294 0.000000 0.000000 0.000000
# 2 -0.007497 0.014492 -0.002626 0.000000 0.000000 0.000000
# 3 -0.006294 -0.002626 0.011161 0.000000 0.000000 0.000000
# 4 0.000000 0.000000 0.000000 0.752417 0.000000 0.000000
# 5 0.000000 0.000000 0.000000 0.000000 0.041748 0.000000
# 6 0.000000 0.000000 0.000000 0.000000 0.000000 0.052047
#
#
# Mechanical properties :
#
#
# Convention : Reuss Voigt Hill
#
# Bulk Modulus (GPa) = 88.16056 89.88570 89.02313
# Shear Modulus (GPa) = 5.39371 19.57611 12.48491
#
# Velocity S-wave (km/s) = 1.71636 3.26984 2.61130
# Velocity P-wave (km/s) = 7.21653 7.95918 7.59694
#
# Compressibility (1/GPa) = 0.01134294
#
# Stress axis : x y z
#
# Youngs Moduli (GPa) = 53.98182 69.00496 89.59931
#
# Poissons Ratio (x) = 0.51734 0.56392
# Poissons Ratio (y) = 0.40471 0.23530
# Poissons Ratio (z) = 0.33975 0.18122
#
# Static dielectric constant tensor:
#      x y z
#    x 1.614360 0.000000 0.000000 
#    y 0.000000 1.594450 0.000000 
#    z 0.000000 0.000000 1.743910 
# 
# From -- ./inp_files/11233.got.cif
#   From: 2010.05.17/outbox.cif.g08.bks.cpg/sg35_6_cif.got.tgz:11233.got - 2010.06.03 17:29:28.
