data_PCOD9349518
_publ_section_title
;
Structure prediction by ZEFSAII (Michael W. Deem and Ramdas Pophale) SiO2 
 PCOD9349518
Probable space group: C M M 2
;
_chemical_formula_sum "Si O2"
_cell_formula_units_Z 48
_cell_length_a 8.754629
_cell_length_b 30.664029
_cell_length_c 9.698715
_cell_angle_alpha 90.000000
_cell_angle_beta 90.000000
_cell_angle_gamma 90.000000
_cell_volume 2603.641355
_symmetry_space_group_name_H-M "C M M 2"
_symmetry_group_IT_number 35
_symmetry_cell_setting 'orthorhombic'
loop_
_space_group_symop_operation_xyz
x,y,z
-x,-y,z
-x,y,z
x,-y,z
1/2+x,1/2+y,z
1/2-x,1/2-y,z
1/2-x,1/2+y,z
1/2+x,1/2-y,z
loop_
_atom_site_type_symbol
_atom_site_label
_atom_site_fract_x
_atom_site_fract_y
_atom_site_fract_z
Si Si1 0.183798 0.797782 0.308930
Si Si2 0.317714 0.875624 0.490951
Si Si3 0.681995 0.448498 0.297115
Si Si4 0.683433 0.702794 0.990036
Si Si5 0.681965 0.051447 0.997242
Si Si6 0.316212 0.622552 0.797018
O O1 0.250000 0.750000 0.341669
O O2 0.252200 0.834318 0.407602
O O3 0.000000 0.797412 0.319425
O O4 0.226103 0.807302 0.148923
O O5 0.500000 0.874135 0.492725
O O6 0.260853 0.918531 0.410422
O O7 0.252917 0.875665 0.645207
O O8 0.500000 0.441198 0.298915
O O9 0.710812 0.500000 0.320115
O O10 0.746401 0.437207 0.145836
O O11 0.500000 0.705474 0.985947
O O12 0.750000 0.750000 0.953998
O O13 0.731761 0.664826 0.886503
O O14 0.500000 0.058425 0.001137
O O15 0.710180 0.000000 0.973903
O O16 0.757240 0.080603 0.879848
O O17 0.500000 0.621832 0.789445
#
# Coordination Sequence:
#
# PCOD9349518 Si02
#       6
#     8   8   8   8   8   8
#     4  10  20  38  62  88 116 148 191 239 289 347
#     4  12  25  39  57  84 118 156 195 240 295 348
#     4  10  21  39  63  88 114 149 193 239 289 347
#     4   9  20  37  60  86 111 143 185 233 281 334
#     4  10  21  38  61  89 118 149 189 237 287 342
#     4  11  23  39  58  83 117 156 195 236 286 345
#
# _framework density 18.435718000000001
#
# number of rings (size 3 to 8) (size 9 to 14) (size 15 to 20)
#    0.000    1.667    0.000    4.500    0.000    6.667 
#    0.000    1.667    0.000    0.000    0.000    0.000 
#    0.000    0.000    0.000    0.000    0.000    0.000 
#
# Total GULP energy -134172.552310 kJ/mol
# GULP energy per Si atom -5590.523013 kJ/mol
# Density = 1.839376 g / cm^3
# Si number density = 18.435718 Si / 1000 Ang^3
#
#
#
# Elastic Constant Matrix: (Units=GPa)
#
#
# Indices 1 2 3 4 5 6 
#
# 1 96.8945 70.0396 74.6091 0.0000 0.0000 0.0000
# 2 70.0396 107.7066 105.9300 0.0000 0.0000 0.0000
# 3 74.6091 105.9300 161.3289 0.0000 0.0000 0.0000
# 4 0.0000 0.0000 0.0000 -25.5767 0.0000 0.0000
# 5 0.0000 0.0000 0.0000 0.0000 32.4755 0.0000
# 6 0.0000 0.0000 0.0000 0.0000 0.0000 35.5936
#
#
#
# Elastic Compliance Matrix: (Units=1/GPa)
#
#
# Indices 1 2 3 4 5 6 
#
# 1 0.019695 -0.010867 -0.001973 0.000000 0.000000 0.000000
# 2 -0.010867 0.032207 -0.016122 0.000000 0.000000 0.000000
# 3 -0.001973 -0.016122 0.017697 0.000000 0.000000 0.000000
# 4 0.000000 0.000000 0.000000 -0.039098 0.000000 0.000000
# 5 0.000000 0.000000 0.000000 0.000000 0.030792 0.000000
# 6 0.000000 0.000000 0.000000 0.000000 0.000000 0.028095
#
#
# Mechanical properties :
#
#
# Convention : Reuss Voigt Hill
#
# Bulk Modulus (GPa) = 85.65138 96.34304 90.99721
# Shear Modulus (GPa) = 33.06848 16.18856 24.62852
#
# Velocity S-wave (km/s) = 4.23983 2.96650 3.65898
# Velocity P-wave (km/s) = 8.39812 8.00661 8.20471
#
# Compressibility (1/GPa) = 0.01167524
#
# Stress axis : x y z
#
# Youngs Moduli (GPa) = 50.77554 31.04950 56.50793
#
# Poissons Ratio (x) = 0.33740 0.11149
# Poissons Ratio (y) = 0.55176 0.91101
# Poissons Ratio (z) = 0.10018 0.50057
#
# Static dielectric constant tensor:
#      x y z
#    x 1.614230 0.000000 0.000000 
#    y 0.000000 1.619620 0.000000 
#    z 0.000000 0.000000 1.601460 
# 
# From -- ./inp_files/5278.got.cif
#   From: 2010.05.17/outbox.cif.g08.bks.cpg/sg35_3_cif.got.tgz:5278.got - 2010.06.03 17:29:28.
