data_PCOD9349801
_publ_section_title
;
Structure prediction by ZEFSAII (Michael W. Deem and Ramdas Pophale) SiO2 
 PCOD9349801
Probable space group: C M M 2
;
_chemical_formula_sum "Si O2"
_cell_formula_units_Z 32
_cell_length_a 31.626820
_cell_length_b 8.038938
_cell_length_c 4.949929
_cell_angle_alpha 90.000000
_cell_angle_beta 90.000000
_cell_angle_gamma 90.000000
_cell_volume 1258.499872
_symmetry_space_group_name_H-M "C M M 2"
_symmetry_group_IT_number 35
_symmetry_cell_setting 'orthorhombic'
loop_
_space_group_symop_operation_xyz
x,y,z
-x,-y,z
-x,y,z
x,-y,z
1/2+x,1/2+y,z
1/2-x,1/2-y,z
1/2-x,1/2+y,z
1/2+x,1/2-y,z
loop_
_atom_site_type_symbol
_atom_site_label
_atom_site_fract_x
_atom_site_fract_y
_atom_site_fract_z
Si Si1 0.750000 0.250000 0.135540
Si Si2 0.189999 0.500000 0.796926
Si Si3 0.102445 0.304570 0.057466
Si Si4 0.169787 0.822537 0.457803
Si Si5 0.047103 0.304297 0.577160
O O1 0.783226 0.168303 0.338932
O O2 0.780013 0.360105 0.949929
O O3 0.167040 0.651205 0.622871
O O4 0.118598 0.500000 0.033939
O O5 0.138721 0.201890 0.202334
O O6 0.064078 0.301158 0.273445
O O7 0.082184 0.237189 0.782525
O O8 0.161050 0.000000 0.595731
O O9 0.044849 0.500000 0.654344
O O10 0.000000 0.233549 0.602026
#
# Coordination Sequence:
#
# PCOD9349801 Si02
#       5
#     4   4   8   8   8
#     4  12  28  48  72 100 144 190 246 310 368 438
#     4  12  28  48  76 100 143 192 239 314 366 444
#     4  10  21  38  66 100 143 184 238 301 362 435
#     4  12  28  49  70 107 145 190 250 305 370 445
#     4   9  18  35  64 101 139 186 238 292 360 440
#
# _framework density 25.427098000000001
#
# number of rings (size 3 to 8) (size 9 to 14) (size 15 to 20)
#    0.000    1.250    2.500    2.250    8.750    3.000 
#    0.000    0.000    0.000    4.500    0.000    0.000 
#    0.000    0.000    0.000    0.000    0.000    0.000 
#
# Total GULP energy -89083.281569 kJ/mol
# GULP energy per Si atom -5567.705098 kJ/mol
# Density = 2.536922 g / cm^3
# Si number density = 25.427098 Si / 1000 Ang^3
#
#
#
# Elastic Constant Matrix: (Units=GPa)
#
#
# Indices 1 2 3 4 5 6 
#
# 1 61.9744 29.6292 -8.6313 0.0000 0.0000 0.0000
# 2 29.6292 172.8102 41.6513 0.0000 0.0000 0.0000
# 3 -8.6313 41.6513 89.1610 0.0000 0.0000 0.0000
# 4 0.0000 0.0000 0.0000 -27.3891 0.0000 0.0000
# 5 0.0000 0.0000 0.0000 0.0000 73.5530 0.0000
# 6 0.0000 0.0000 0.0000 0.0000 0.0000 14.6033
#
#
#
# Elastic Compliance Matrix: (Units=1/GPa)
#
#
# Indices 1 2 3 4 5 6 
#
# 1 0.018605 -0.004084 0.003709 0.000000 0.000000 0.000000
# 2 -0.004084 0.007417 -0.003860 0.000000 0.000000 0.000000
# 3 0.003709 -0.003860 0.013378 0.000000 0.000000 0.000000
# 4 0.000000 0.000000 0.000000 -0.036511 0.000000 0.000000
# 5 0.000000 0.000000 0.000000 0.000000 0.013596 0.000000
# 6 0.000000 0.000000 0.000000 0.000000 0.000000 0.068478
#
#
# Mechanical properties :
#
#
# Convention : Reuss Voigt Hill
#
# Bulk Modulus (GPa) = 32.33179 49.91602 41.12390
# Shear Modulus (GPa) = 48.19614 29.57320 38.88467
#
# Velocity S-wave (km/s) = 4.35842 3.41406 3.91482
# Velocity P-wave (km/s) = 6.17015 5.93420 6.05333
#
# Compressibility (1/GPa) = 0.03092931
#
# Stress axis : x y z
#
# Youngs Moduli (GPa) = 53.75010 134.81992 74.74949
#
# Poissons Ratio (x) = 0.55057 -0.27723
# Poissons Ratio (y) = 0.21950 0.28856
# Poissons Ratio (z) = -0.19935 0.52045
#
# Static dielectric constant tensor:
#      x y z
#    x 1.765190 0.000000 0.000000 
#    y 0.000000 2.117260 0.000000 
#    z 0.000000 0.000000 2.019660 
# 
# From -- ./inp_files/607.got.cif
#   From: 2010.05.17/outbox.cif.g08.bks.cpg/sg35_1_cif.got.tgz:607.got - 2010.06.03 17:29:28.
