data_PCOD9349859
_publ_section_title
;
Structure prediction by ZEFSAII (Michael W. Deem and Ramdas Pophale) SiO2 
 PCOD9349859
Probable space group: C M M 2
;
_chemical_formula_sum "Si O2"
_cell_formula_units_Z 48
_cell_length_a 16.000073
_cell_length_b 8.719184
_cell_length_c 17.010409
_cell_angle_alpha 90.000000
_cell_angle_beta 90.000000
_cell_angle_gamma 90.000000
_cell_volume 2373.081003
_symmetry_space_group_name_H-M "C M M 2"
_symmetry_group_IT_number 35
_symmetry_cell_setting 'orthorhombic'
loop_
_space_group_symop_operation_xyz
x,y,z
-x,-y,z
-x,y,z
x,-y,z
1/2+x,1/2+y,z
1/2-x,1/2-y,z
1/2-x,1/2+y,z
1/2+x,1/2-y,z
loop_
_atom_site_type_symbol
_atom_site_label
_atom_site_fract_x
_atom_site_fract_y
_atom_site_fract_z
Si Si1 0.342686 0.681459 0.789060
Si Si2 0.661245 0.681599 0.103536
Si Si3 0.901611 0.321448 0.628636
Si Si4 0.000000 0.316298 0.192060
Si Si5 0.339201 0.815422 0.458043
Si Si6 0.000000 0.816016 0.367580
Si Si7 0.597926 0.822440 0.948751
O O1 0.341352 0.500000 0.800671
O O2 0.250000 0.750000 0.789829
O O3 0.381656 0.722710 0.704905
O O4 0.390607 0.760657 0.861003
O O5 0.659981 0.500000 0.114579
O O6 0.750000 0.750000 0.129762
O O7 0.583153 0.756941 0.148359
O O8 0.648266 0.723570 0.011795
O O9 0.881826 0.500000 0.646814
O O10 0.852402 0.275956 0.550274
O O11 0.000000 0.312571 0.610251
O O12 0.000000 0.500000 0.192483
O O13 0.000000 0.249668 0.279699
O O14 0.250000 0.750000 0.431448
O O15 0.417140 0.745270 0.411303
O O16 0.341179 0.000000 0.451224
O O17 0.000000 0.000000 0.367138
O O18 0.500000 0.815075 0.969429
O O19 0.624846 0.000000 0.953459
#
# Coordination Sequence:
#
# PCOD9349859 Si02
#       7
#     8   8   8   4   8   4   8
#     4  12  25  39  57  86 125 169 222 277 330 388
#     4  12  25  44  71 103 139 178 224 274 330 396
#     4  10  21  40  64  91 127 170 217 270 330 391
#     4  12  26  48  74 103 138 175 218 272 334 399
#     4  11  23  43  69 101 136 178 223 274 333 397
#     4  12  26  46  72 103 136 175 220 272 332 399
#     4  11  23  41  65  92 128 173 221 272 332 393
#
# _framework density 20.226869000000001
#
# number of rings (size 3 to 8) (size 9 to 14) (size 15 to 20)
#    0.000    0.667    1.667    7.000    0.000    6.667 
#    0.000    3.333    0.000    0.000    0.000    0.000 
#    0.000    0.000    0.000    0.000    0.000    0.000 
#
# Total GULP energy -134364.008366 kJ/mol
# GULP energy per Si atom -5598.500349 kJ/mol
# Density = 2.018083 g / cm^3
# Si number density = 20.226869 Si / 1000 Ang^3
#
#
#
# Elastic Constant Matrix: (Units=GPa)
#
#
# Indices 1 2 3 4 5 6 
#
# 1 144.8738 60.8524 54.0263 0.0000 0.0000 0.0000
# 2 60.8524 137.4747 51.5117 0.0000 0.0000 0.0000
# 3 54.0263 51.5117 109.2294 0.0000 0.0000 0.0000
# 4 0.0000 0.0000 0.0000 31.0604 0.0000 0.0000
# 5 0.0000 0.0000 0.0000 0.0000 5.9452 0.0000
# 6 0.0000 0.0000 0.0000 0.0000 0.0000 31.1620
#
#
#
# Elastic Compliance Matrix: (Units=1/GPa)
#
#
# Indices 1 2 3 4 5 6 
#
# 1 0.009337 -0.002918 -0.003242 0.000000 0.000000 0.000000
# 2 -0.002918 0.009747 -0.003153 0.000000 0.000000 0.000000
# 3 -0.003242 -0.003153 0.012246 0.000000 0.000000 0.000000
# 4 0.000000 0.000000 0.000000 0.032195 0.000000 0.000000
# 5 0.000000 0.000000 0.000000 0.000000 0.168204 0.000000
# 6 0.000000 0.000000 0.000000 0.000000 0.000000 0.032090
#
#
# Mechanical properties :
#
#
# Convention : Reuss Voigt Hill
#
# Bulk Modulus (GPa) = 78.72211 80.48431 79.60321
# Shear Modulus (GPa) = 17.44092 28.64601 23.04346
#
# Velocity S-wave (km/s) = 2.93962 3.76737 3.37894
# Velocity P-wave (km/s) = 7.10816 7.66820 7.39348
#
# Compressibility (1/GPa) = 0.01270291
#
# Stress axis : x y z
#
# Youngs Moduli (GPa) = 107.09582 102.59134 81.66095
#
# Poissons Ratio (x) = 0.29940 0.26476
# Poissons Ratio (y) = 0.31254 0.25751
# Poissons Ratio (z) = 0.34722 0.32351
#
# Static dielectric constant tensor:
#      x y z
#    x 1.698370 0.000000 0.000000 
#    y 0.000000 1.680960 0.000000 
#    z 0.000000 0.000000 1.713770 
# 
# From -- ./inp_files/18800.got.cif
#   From: 2010.05.17/outbox.cif.g08.bks.cpg/sg35_10_cif.got.tgz:18800.got - 2010.06.03 17:29:28.
