data_PCOD9349020
_publ_section_title
;
Structure prediction by ZEFSAII (Michael W. Deem and Ramdas Pophale) SiO2 
 PCOD9349020
Probable space group: C M M 2
;
_chemical_formula_sum "Si O2"
_cell_formula_units_Z 40
_cell_length_a 9.045213
_cell_length_b 16.004757
_cell_length_c 14.758919
_cell_angle_alpha 90.000000
_cell_angle_beta 90.000000
_cell_angle_gamma 90.000000
_cell_volume 2136.596104
_symmetry_space_group_name_H-M "C M M 2"
_symmetry_group_IT_number 35
_symmetry_cell_setting 'orthorhombic'
loop_
_space_group_symop_operation_xyz
x,y,z
-x,-y,z
-x,y,z
x,-y,z
1/2+x,1/2+y,z
1/2-x,1/2-y,z
1/2-x,1/2+y,z
1/2+x,1/2-y,z
loop_
_atom_site_type_symbol
_atom_site_label
_atom_site_fract_x
_atom_site_fract_y
_atom_site_fract_z
Si Si1 0.323995 0.159983 0.086010
Si Si2 0.321478 0.335354 0.447821
Si Si3 0.322128 0.159260 0.879132
Si Si4 0.329711 0.596057 0.258223
Si Si5 0.678960 0.000000 0.758539
Si Si6 0.321536 0.500000 0.561344
O O1 0.500000 0.166017 0.092195
O O2 0.250000 0.250000 0.099352
O O3 0.262611 0.104543 0.167083
O O4 0.286388 0.133773 0.983175
O O5 0.500000 0.329631 0.448403
O O6 0.250000 0.250000 0.482034
O O7 0.274668 0.350618 0.343371
O O8 0.279661 0.416406 0.506337
O O9 0.500000 0.168717 0.873566
O O10 0.250000 0.250000 0.861125
O O11 0.277142 0.084170 0.812835
O O12 0.500000 0.619899 0.238630
O O13 0.330372 0.500000 0.289095
O O14 0.748470 0.000000 0.659509
O O15 0.500000 0.000000 0.753435
O O16 0.500000 0.500000 0.569364
#
# Coordination Sequence:
#
# PCOD9349020 Si02
#       6
#     8   8   8   8   4   4
#     4  10  20  34  54  80 113 151 190 231 275 329
#     4  10  21  39  61  83 113 151 187 228 281 335
#     4   9  20  38  59  82 115 151 187 230 280 333
#     4  10  20  35  55  81 116 154 189 229 277 332
#     4  10  22  40  61  84 112 146 183 234 289 336
#     4  10  22  42  61  82 112 146 185 232 285 342
#
# _framework density 18.721367000000001
#
# number of rings (size 3 to 8) (size 9 to 14) (size 15 to 20)
#    0.000    2.200    1.000    1.200    1.400    6.000 
#    0.000    4.000    0.000    0.000    0.000    0.000 
#    0.000    0.000    0.000    0.000    0.000    0.000 
#
# Total GULP energy -111604.783092 kJ/mol
# GULP energy per Si atom -5580.239155 kJ/mol
# Density = 1.867876 g / cm^3
# Si number density = 18.721367 Si / 1000 Ang^3
#
#
#
# Elastic Constant Matrix: (Units=GPa)
#
#
# Indices 1 2 3 4 5 6 
#
# 1 25.9947 34.3705 40.3134 0.0000 0.0000 0.0000
# 2 34.3705 134.8667 84.8937 0.0000 0.0000 0.0000
# 3 40.3134 84.8937 125.8347 0.0000 0.0000 0.0000
# 4 0.0000 0.0000 0.0000 13.6814 0.0000 0.0000
# 5 0.0000 0.0000 0.0000 0.0000 28.3741 0.0000
# 6 0.0000 0.0000 0.0000 0.0000 0.0000 30.1446
#
#
#
# Elastic Compliance Matrix: (Units=1/GPa)
#
#
# Indices 1 2 3 4 5 6 
#
# 1 0.080539 -0.007446 -0.020779 0.000000 0.000000 0.000000
# 2 -0.007446 0.013576 -0.006774 0.000000 0.000000 0.000000
# 3 -0.020779 -0.006774 0.019174 0.000000 0.000000 0.000000
# 4 0.000000 0.000000 0.000000 0.073092 0.000000 0.000000
# 5 0.000000 0.000000 0.000000 0.000000 0.035243 0.000000
# 6 0.000000 0.000000 0.000000 0.000000 0.000000 0.033173
#
#
# Mechanical properties :
#
#
# Convention : Reuss Voigt Hill
#
# Bulk Modulus (GPa) = 23.09895 67.31683 45.20789
# Shear Modulus (GPa) = 14.73953 22.91458 18.82706
#
# Velocity S-wave (km/s) = 2.80895 3.50234 3.17463
# Velocity P-wave (km/s) = 4.78386 7.23812 6.13497
#
# Compressibility (1/GPa) = 0.04329201
#
# Stress axis : x y z
#
# Youngs Moduli (GPa) = 12.41642 73.65953 52.15495
#
# Poissons Ratio (x) = 0.54843 1.08372
# Poissons Ratio (y) = 0.09245 0.35328
# Poissons Ratio (z) = 0.25800 0.49894
#
# Static dielectric constant tensor:
#      x y z
#    x 1.631010 0.000000 0.000000 
#    y 0.000000 1.645750 0.000000 
#    z 0.000000 0.000000 1.642130 
# 
# From -- ./inp_files/14728.got.cif
#   From: 2010.05.17/outbox.cif.g08.bks.cpg/sg35_8_cif.got.tgz:14728.got - 2010.06.03 17:29:28.
