data_PCOD9349282
_publ_section_title
;
Structure prediction by ZEFSAII (Michael W. Deem and Ramdas Pophale) SiO2 
 PCOD9349282
Probable space group: C M M 2
;
_chemical_formula_sum "Si O2"
_cell_formula_units_Z 38
_cell_length_a 14.212505
_cell_length_b 19.130062
_cell_length_c 7.244063
_cell_angle_alpha 90.000000
_cell_angle_beta 90.000000
_cell_angle_gamma 90.000000
_cell_volume 1969.560050
_symmetry_space_group_name_H-M "C M M 2"
_symmetry_group_IT_number 35
_symmetry_cell_setting 'orthorhombic'
loop_
_space_group_symop_operation_xyz
x,y,z
-x,-y,z
-x,y,z
x,-y,z
1/2+x,1/2+y,z
1/2-x,1/2-y,z
1/2-x,1/2+y,z
1/2+x,1/2-y,z
loop_
_atom_site_type_symbol
_atom_site_label
_atom_site_fract_x
_atom_site_fract_y
_atom_site_fract_z
Si Si1 0.315766 0.919218 0.546920
Si Si2 0.000000 0.500000 0.023552
Si Si3 0.500000 0.773951 0.261485
Si Si4 0.000000 0.794360 0.914814
Si Si5 0.000000 0.330282 0.648283
Si Si6 0.346588 0.116401 0.131611
Si Si7 0.209045 0.171629 0.817116
O O1 0.410313 0.879628 0.615896
O O2 0.311246 0.915007 0.325716
O O3 0.233361 0.876747 0.643738
O O4 0.320348 0.000000 0.603023
O O5 0.082270 0.438864 0.040026
O O6 0.500000 0.773599 0.481760
O O7 0.591807 0.817255 0.198157
O O8 0.500000 0.705882 0.137121
O O9 0.000000 0.714150 0.834544
O O10 0.901900 0.825401 0.848774
O O11 0.265928 0.140169 0.991688
O O12 0.250000 0.250000 0.786971
#
# Coordination Sequence:
#
# PCOD9349282 Si02
#       7
#     8   2   4   4   4   8   8
#     4  11  23  39  65  98 133 163 204 268 333 384
#     4  10  20  40  70 106 130 150 204 272 332 388
#     4   9  18  32  61  93 124 164 192 257 319 373
#     4  12  23  44  59  91 132 173 222 258 302 385
#     4  10  20  35  64 100 129 159 201 259 333 391
#     4  10  21  39  63  98 134 157 202 261 330 388
#     4  12  25  42  63  93 131 176 218 258 317 382
#
# _framework density 19.293648000000001
#
# number of rings (size 3 to 8) (size 9 to 14) (size 15 to 20)
#    0.000    1.263    5.263    0.947    1.474    3.368 
#    0.000    0.526    0.000    0.000    0.000    0.000 
#    0.000    0.000    0.000    0.000    0.000    0.000 
#
# Total GULP energy -105894.270055 kJ/mol
# GULP energy per Si atom -5573.382634 kJ/mol
# Density = 1.924974 g / cm^3
# Si number density = 19.293648 Si / 1000 Ang^3
#
#
#
# Elastic Constant Matrix: (Units=GPa)
#
#
# Indices 1 2 3 4 5 6 
#
# 1 134.1445 49.6816 33.9412 0.0000 0.0000 0.0000
# 2 49.6816 79.6111 39.2384 0.0000 0.0000 0.0000
# 3 33.9412 39.2384 96.5391 0.0000 0.0000 0.0000
# 4 0.0000 0.0000 0.0000 22.7909 0.0000 0.0000
# 5 0.0000 0.0000 0.0000 0.0000 11.4521 0.0000
# 6 0.0000 0.0000 0.0000 0.0000 0.0000 21.3986
#
#
#
# Elastic Compliance Matrix: (Units=1/GPa)
#
#
# Indices 1 2 3 4 5 6 
#
# 1 0.009806 -0.005527 -0.001201 0.000000 0.000000 0.000000
# 2 -0.005527 0.018824 -0.005708 0.000000 0.000000 0.000000
# 3 -0.001201 -0.005708 0.013101 0.000000 0.000000 0.000000
# 4 0.000000 0.000000 0.000000 0.043877 0.000000 0.000000
# 5 0.000000 0.000000 0.000000 0.000000 0.087320 0.000000
# 6 0.000000 0.000000 0.000000 0.000000 0.000000 0.046732
#
#
# Mechanical properties :
#
#
# Convention : Reuss Voigt Hill
#
# Bulk Modulus (GPa) = 59.31842 61.77970 60.54906
# Shear Modulus (GPa) = 19.98803 23.62389 21.80596
#
# Velocity S-wave (km/s) = 3.22217 3.50299 3.36551
# Velocity P-wave (km/s) = 6.68244 6.96072 6.82300
#
# Compressibility (1/GPa) = 0.01685817
#
# Stress axis : x y z
#
# Youngs Moduli (GPa) = 101.98270 53.12502 76.33278
#
# Poissons Ratio (x) = 0.29364 0.09166
# Poissons Ratio (y) = 0.56369 0.43567
# Poissons Ratio (z) = 0.12247 0.30321
#
# Static dielectric constant tensor:
#      x y z
#    x 1.658030 0.000000 0.000000 
#    y 0.000000 1.676680 0.000000 
#    z 0.000000 0.000000 1.734000 
# 
# From -- ./inp_files/5941.got.cif
#   From: 2010.05.17/outbox.cif.g08.bks.cpg/sg35_3_cif.got.tgz:5941.got - 2010.06.03 17:29:28.
