data_PCOD9349543
_publ_section_title
;
Structure prediction by ZEFSAII (Michael W. Deem and Ramdas Pophale) SiO2 
 PCOD9349543
Probable space group: C M M 2
;
_chemical_formula_sum "Si O2"
_cell_formula_units_Z 36
_cell_length_a 22.183048
_cell_length_b 10.966883
_cell_length_c 7.998553
_cell_angle_alpha 90.000000
_cell_angle_beta 90.000000
_cell_angle_gamma 90.000000
_cell_volume 1945.879111
_symmetry_space_group_name_H-M "C M M 2"
_symmetry_group_IT_number 35
_symmetry_cell_setting 'orthorhombic'
loop_
_space_group_symop_operation_xyz
x,y,z
-x,-y,z
-x,y,z
x,-y,z
1/2+x,1/2+y,z
1/2-x,1/2-y,z
1/2-x,1/2+y,z
1/2+x,1/2-y,z
loop_
_atom_site_type_symbol
_atom_site_label
_atom_site_fract_x
_atom_site_fract_y
_atom_site_fract_z
Si Si1 0.677789 0.251687 0.776220
Si Si2 0.879217 0.858279 0.114336
Si Si3 0.611936 0.000000 0.700244
Si Si4 0.500000 0.000000 0.452718
Si Si5 0.203660 0.862310 0.442545
Si Si6 0.500000 0.000000 0.943846
Si Si7 0.500000 0.781489 0.196907
O O1 0.750000 0.250000 0.806410
O O2 0.652808 0.120048 0.718734
O O3 0.667827 0.340783 0.616703
O O4 0.646104 0.292623 0.948074
O O5 0.834384 0.851882 0.272833
O O6 0.940846 0.799190 0.178029
O O7 0.887895 0.000000 0.072407
O O8 0.564991 0.000000 0.545932
O O9 0.562337 0.000000 0.845726
O O10 0.500000 0.127664 0.353860
O O11 0.250000 0.750000 0.439738
O O12 0.229942 0.000000 0.446944
O O13 0.500000 0.877419 0.047396
#
# Coordination Sequence:
#
# PCOD9349543 Si02
#       7
#     8   8   4   2   8   2   4
#     4  11  24  39  65  95 132 173 214 270 329 397
#     4  11  23  41  63  91 129 170 214 269 331 399
#     4  11  22  42  64  98 130 169 222 269 328 394
#     4  10  24  40  74  94 130 168 226 286 336 382
#     4  10  23  42  62  93 128 169 218 267 325 396
#     4  10  20  40  60  88 124 156 212 268 310 378
#     4  11  21  42  59  95 118 167 213 270 332 383
#
# _framework density 18.500636
#
# number of rings (size 3 to 8) (size 9 to 14) (size 15 to 20)
#    0.000    1.333    2.222    3.000    7.778    0.000 
#    6.000    0.000    0.000    2.667    0.000    0.000 
#    0.000    0.000    0.000    0.000    0.000    0.000 
#
# Total GULP energy -100370.496513 kJ/mol
# GULP energy per Si atom -5576.138695 kJ/mol
# Density = 1.845853 g / cm^3
# Si number density = 18.500636 Si / 1000 Ang^3
#
#
#
# Elastic Constant Matrix: (Units=GPa)
#
#
# Indices 1 2 3 4 5 6 
#
# 1 115.6064 78.9533 47.0820 0.0000 0.0000 0.0000
# 2 78.9533 163.3962 62.3875 0.0000 0.0000 0.0000
# 3 47.0820 62.3875 120.2471 0.0000 0.0000 0.0000
# 4 0.0000 0.0000 0.0000 39.0350 0.0000 0.0000
# 5 0.0000 0.0000 0.0000 0.0000 28.0610 0.0000
# 6 0.0000 0.0000 0.0000 0.0000 0.0000 32.6395
#
#
#
# Elastic Compliance Matrix: (Units=1/GPa)
#
#
# Indices 1 2 3 4 5 6 
#
# 1 0.013426 -0.005587 -0.002358 0.000000 0.000000 0.000000
# 2 -0.005587 0.009957 -0.002978 0.000000 0.000000 0.000000
# 3 -0.002358 -0.002978 0.010785 0.000000 0.000000 0.000000
# 4 0.000000 0.000000 0.000000 0.025618 0.000000 0.000000
# 5 0.000000 0.000000 0.000000 0.000000 0.035637 0.000000
# 6 0.000000 0.000000 0.000000 0.000000 0.000000 0.030638
#
#
# Mechanical properties :
#
#
# Convention : Reuss Voigt Hill
#
# Bulk Modulus (GPa) = 81.16476 86.23281 83.69879
# Shear Modulus (GPa) = 32.89155 34.00220 33.44688
#
# Velocity S-wave (km/s) = 4.22104 4.29172 4.25653
# Velocity P-wave (km/s) = 8.22939 8.44218 8.33646
#
# Compressibility (1/GPa) = 0.01232062
#
# Stress axis : x y z
#
# Youngs Moduli (GPa) = 74.48131 100.43168 92.72326
#
# Poissons Ratio (x) = 0.56113 0.21866
# Poissons Ratio (y) = 0.41614 0.27616
# Poissons Ratio (z) = 0.17564 0.29912
#
# Static dielectric constant tensor:
#      x y z
#    x 1.629870 0.000000 0.000000 
#    y 0.000000 1.624960 0.000000 
#    z 0.000000 0.000000 1.665750 
# 
# From -- ./inp_files/9009.got.cif
#   From: 2010.05.17/outbox.cif.g08.bks.cpg/sg35_5_cif.got.tgz:9009.got - 2010.06.03 17:29:28.
