data_PCOD9349877
_publ_section_title
;
Structure prediction by ZEFSAII (Michael W. Deem and Ramdas Pophale) SiO2 
 PCOD9349877
Probable space group: C M M 2
;
_chemical_formula_sum "Si O2"
_cell_formula_units_Z 64
_cell_length_a 11.972912
_cell_length_b 30.343001
_cell_length_c 7.048744
_cell_angle_alpha 90.000000
_cell_angle_beta 90.000000
_cell_angle_gamma 90.000000
_cell_volume 2560.766972
_symmetry_space_group_name_H-M "C M M 2"
_symmetry_group_IT_number 35
_symmetry_cell_setting 'orthorhombic'
loop_
_space_group_symop_operation_xyz
x,y,z
-x,-y,z
-x,y,z
x,-y,z
1/2+x,1/2+y,z
1/2-x,1/2-y,z
1/2-x,1/2+y,z
1/2+x,1/2-y,z
loop_
_atom_site_type_symbol
_atom_site_label
_atom_site_fract_x
_atom_site_fract_y
_atom_site_fract_z
Si Si1 0.616252 0.951916 0.603460
Si Si2 0.151132 0.951682 0.444163
Si Si3 0.875915 0.649965 0.289444
Si Si4 0.124544 0.249878 0.207276
Si Si5 0.875453 0.048998 0.998167
Si Si6 0.685317 0.884363 0.910341
Si Si7 0.195749 0.795564 0.813763
Si Si8 0.622584 0.645077 0.482512
O O1 0.500000 0.950077 0.499024
O O2 0.716203 0.950617 0.459003
O O3 0.624292 0.912072 0.749514
O O4 0.622020 0.000000 0.701600
O O5 0.118606 0.906239 0.542703
O O6 0.117177 0.000000 0.518309
O O7 0.118268 0.949089 0.226161
O O8 0.883372 0.697690 0.189833
O O9 0.748944 0.648847 0.385512
O O10 0.000000 0.645881 0.390175
O O11 0.871114 0.616288 0.115048
O O12 0.250000 0.250000 0.301310
O O13 0.000000 0.238457 0.287751
O O14 0.139945 0.220756 0.013870
O O15 0.799528 0.088739 0.935930
O O16 0.000000 0.052585 0.922704
O O17 0.831598 0.000000 0.950857
O O18 0.714881 0.834572 0.850913
O O19 0.250000 0.750000 0.742917
O O20 0.123642 0.819183 0.650971
O O21 0.500000 0.649551 0.378898
#
# Coordination Sequence:
#
# PCOD9349877 Si02
#       8
#     8   8   8   8   8   8   8   8
#     4  10  22  41  65  96 134 178 232 289 345 413
#     4  10  21  41  67  98 135 181 230 281 343 408
#     4  11  25  45  70 102 138 182 232 285 348 416
#     4  10  21  42  68  97 131 173 225 283 343 406
#     4  10  22  40  64  99 141 181 226 286 351 412
#     4  12  21  42  70  98 133 181 233 284 348 417
#     4  11  24  47  71 100 136 180 235 291 352 410
#     4  12  26  47  72 105 143 185 234 289 345 415
#
# _framework density 24.992514
#
# number of rings (size 3 to 8) (size 9 to 14) (size 15 to 20)
#    0.000    1.250    5.000    1.500    0.000    3.250 
#    0.000    4.375    0.000    0.000    0.000    0.000 
#    0.000    0.000    0.000    0.000    0.000    0.000 
#
# Total GULP energy -178161.021424 kJ/mol
# GULP energy per Si atom -5567.531919 kJ/mol
# Density = 2.493563 g / cm^3
# Si number density = 24.992514 Si / 1000 Ang^3
#
#
#
# Elastic Constant Matrix: (Units=GPa)
#
#
# Indices 1 2 3 4 5 6 
#
# 1 238.1804 34.2930 34.3706 0.0000 0.0000 0.0000
# 2 34.2930 225.9566 32.6161 0.0000 0.0000 0.0000
# 3 34.3706 32.6161 67.8623 0.0000 0.0000 0.0000
# 4 0.0000 0.0000 0.0000 365.2066 0.0000 0.0000
# 5 0.0000 0.0000 0.0000 0.0000 28.7631 0.0000
# 6 0.0000 0.0000 0.0000 0.0000 0.0000 6.8157
#
#
#
# Elastic Compliance Matrix: (Units=1/GPa)
#
#
# Indices 1 2 3 4 5 6 
#
# 1 0.004561 -0.000385 -0.002125 0.000000 0.000000 0.000000
# 2 -0.000385 0.004788 -0.002106 0.000000 0.000000 0.000000
# 3 -0.002125 -0.002106 0.016824 0.000000 0.000000 0.000000
# 4 0.000000 0.000000 0.000000 0.002738 0.000000 0.000000
# 5 0.000000 0.000000 0.000000 0.000000 0.034767 0.000000
# 6 0.000000 0.000000 0.000000 0.000000 0.000000 0.146720
#
#
# Mechanical properties :
#
#
# Convention : Reuss Voigt Hill
#
# Bulk Modulus (GPa) = 59.03005 81.61765 70.32385
# Shear Modulus (GPa) = 22.19490 108.87173 65.53332
#
# Velocity S-wave (km/s) = 2.98327 6.60729 5.12622
# Velocity P-wave (km/s) = 5.96128 9.53604 7.95214
#
# Compressibility (1/GPa) = 0.01694053
#
# Stress axis : x y z
#
# Youngs Moduli (GPa) = 219.27020 208.84975 59.43902
#
# Poissons Ratio (x) = 0.08051 0.12628
# Poissons Ratio (y) = 0.08452 0.12518
# Poissons Ratio (z) = 0.46585 0.43985
#
# Static dielectric constant tensor:
#      x y z
#    x 2.069120 0.000000 0.000000 
#    y 0.000000 1.896020 0.000000 
#    z 0.000000 0.000000 2.002220 
# 
# From -- ./inp_files/6552.got.cif
#   From: 2010.05.17/outbox.cif.g08.bks.cpg/sg35_4_cif.got.tgz:6552.got - 2010.06.03 17:29:28.
