data_PCOD9349307
_publ_section_title
;
Structure prediction by ZEFSAII (Michael W. Deem and Ramdas Pophale) SiO2 
 PCOD9349307
Probable space group: C M M 2
;
_chemical_formula_sum "Si O2"
_cell_formula_units_Z 56
_cell_length_a 20.632786
_cell_length_b 8.647956
_cell_length_c 15.550266
_cell_angle_alpha 90.000000
_cell_angle_beta 90.000000
_cell_angle_gamma 90.000000
_cell_volume 2774.656129
_symmetry_space_group_name_H-M "C M M 2"
_symmetry_group_IT_number 35
_symmetry_cell_setting 'orthorhombic'
loop_
_space_group_symop_operation_xyz
x,y,z
-x,-y,z
-x,y,z
x,-y,z
1/2+x,1/2+y,z
1/2-x,1/2-y,z
1/2-x,1/2+y,z
1/2+x,1/2-y,z
loop_
_atom_site_type_symbol
_atom_site_label
_atom_site_fract_x
_atom_site_fract_y
_atom_site_fract_z
Si Si1 0.638494 0.315781 0.487830
Si Si2 0.500000 0.172911 0.478279
Si Si3 0.637138 0.682755 0.685353
Si Si4 0.316401 0.183590 0.315529
Si Si5 0.000000 0.325004 0.683013
Si Si6 0.923622 0.312600 0.181203
Si Si7 0.324544 0.315049 0.037774
Si Si8 0.179632 0.317323 0.862974
O O1 0.644760 0.500000 0.485392
O O2 0.565428 0.265900 0.463194
O O3 0.652675 0.266957 0.587032
O O4 0.680094 0.238161 0.413966
O O5 0.500000 0.153038 0.580914
O O6 0.500000 0.000000 0.438166
O O7 0.650137 0.500000 0.692120
O O8 0.562261 0.723050 0.701132
O O9 0.667718 0.773078 0.764327
O O10 0.250000 0.250000 0.275875
O O11 0.382431 0.231103 0.266693
O O12 0.312599 0.000000 0.312321
O O13 0.000000 0.500000 0.721450
O O14 0.923768 0.500000 0.175327
O O15 0.876871 0.246268 0.106710
O O16 0.000000 0.264026 0.180814
O O17 0.319527 0.500000 0.040671
O O18 0.250000 0.250000 0.052139
O O19 0.354246 0.262607 0.944692
O O20 0.175051 0.500000 0.872937
O O21 0.250000 0.250000 0.877864
#
# Coordination Sequence:
#
# PCOD9349307 Si02
#       8
#     8   4   8   8   4   8   8   8
#     4  10  21  36  57  85 120 162 208 259 311 363
#     4   9  17  31  53  79 110 149 198 249 303 363
#     4  10  20  36  56  83 120 161 205 255 305 357
#     4  11  24  41  63  90 125 167 210 258 311 371
#     4   9  17  31  51  77 108 149 198 245 297 357
#     4  10  23  44  68  96 128 161 201 253 313 372
#     4  11  22  40  67  96 127 164 206 251 309 373
#     4  11  22  38  61  88 119 157 203 250 303 362
#
# _framework density 20.182682
#
# number of rings (size 3 to 8) (size 9 to 14) (size 15 to 20)
#    0.000    1.714    0.000    5.571    1.000    6.571 
#    1.286    0.000    0.000    0.000    0.000    0.000 
#    0.000    0.000    0.000    0.000    0.000    0.000 
#
# Total GULP energy -156011.749473 kJ/mol
# GULP energy per Si atom -5571.848195 kJ/mol
# Density = 2.013675 g / cm^3
# Si number density = 20.182682 Si / 1000 Ang^3
#
#
#
# Elastic Constant Matrix: (Units=GPa)
#
#
# Indices 1 2 3 4 5 6 
#
# 1 111.0131 31.1342 53.1514 0.0000 0.0000 0.0000
# 2 31.1342 73.8972 38.0004 0.0000 0.0000 0.0000
# 3 53.1514 38.0004 132.6410 0.0000 0.0000 0.0000
# 4 0.0000 0.0000 0.0000 51.1759 0.0000 0.0000
# 5 0.0000 0.0000 0.0000 0.0000 -37.8484 0.0000
# 6 0.0000 0.0000 0.0000 0.0000 0.0000 33.3818
#
#
#
# Elastic Compliance Matrix: (Units=1/GPa)
#
#
# Indices 1 2 3 4 5 6 
#
# 1 0.011669 -0.002946 -0.003832 0.000000 0.000000 0.000000
# 2 -0.002946 0.016614 -0.003579 0.000000 0.000000 0.000000
# 3 -0.003832 -0.003579 0.010100 0.000000 0.000000 0.000000
# 4 0.000000 0.000000 0.000000 0.019540 0.000000 0.000000
# 5 0.000000 0.000000 0.000000 0.000000 -0.026421 0.000000
# 6 0.000000 0.000000 0.000000 0.000000 0.000000 0.029956
#
#
# Mechanical properties :
#
#
# Convention : Reuss Voigt Hill
#
# Bulk Modulus (GPa) = 56.59682 62.45816 59.52749
# Shear Modulus (GPa) = 56.77798 22.35955 39.56877
#
# Velocity S-wave (km/s) = 5.30972 3.33206 4.43259
# Velocity P-wave (km/s) = 8.10518 6.76883 7.46696
#
# Compressibility (1/GPa) = 0.01766884
#
# Stress axis : x y z
#
# Youngs Moduli (GPa) = 85.69886 60.19009 99.00875
#
# Poissons Ratio (x) = 0.17730 0.37940
# Poissons Ratio (y) = 0.25245 0.35439
# Poissons Ratio (z) = 0.32839 0.21544
#
# Static dielectric constant tensor:
#      x y z
#    x 1.645550 0.000000 0.000000 
#    y 0.000000 1.689340 0.000000 
#    z 0.000000 0.000000 1.776680 
# 
# From -- ./inp_files/17446.got.cif
#   From: 2010.05.17/outbox.cif.g08.bks.cpg/sg35_9_cif.got.tgz:17446.got - 2010.06.03 17:29:28.
