data_PCOD9349117
_publ_section_title
;
Structure prediction by ZEFSAII (Michael W. Deem and Ramdas Pophale) SiO2 
 PCOD9349117
Probable space group: C M M 2
;
_chemical_formula_sum "Si O2"
_cell_formula_units_Z 48
_cell_length_a 35.774500
_cell_length_b 7.445612
_cell_length_c 8.212994
_cell_angle_alpha 90.000000
_cell_angle_beta 90.000000
_cell_angle_gamma 90.000000
_cell_volume 2187.638103
_symmetry_space_group_name_H-M "C M M 2"
_symmetry_group_IT_number 35
_symmetry_cell_setting 'orthorhombic'
loop_
_space_group_symop_operation_xyz
x,y,z
-x,-y,z
-x,y,z
x,-y,z
1/2+x,1/2+y,z
1/2-x,1/2-y,z
1/2-x,1/2+y,z
1/2+x,1/2-y,z
loop_
_atom_site_type_symbol
_atom_site_label
_atom_site_fract_x
_atom_site_fract_y
_atom_site_fract_z
Si Si1 0.079527 0.297835 0.969160
Si Si2 0.836738 0.792276 0.992946
Si Si3 0.500000 0.718185 0.512236
Si Si4 0.076622 0.217350 0.341028
Si Si5 0.340842 0.281315 0.367836
Si Si6 0.293938 0.715229 0.677272
Si Si7 0.500000 0.796798 0.879285
O O1 0.079909 0.500000 0.900779
O O2 0.119891 0.213883 0.935169
O O3 0.039916 0.210643 0.922219
O O4 0.077757 0.299453 0.163182
O O5 0.812306 0.713771 0.845405
O O6 0.825633 0.000000 0.009267
O O7 0.834299 0.718735 0.179492
O O8 0.500000 0.500000 0.525423
O O9 0.538371 0.770883 0.425484
O O10 0.500000 0.802586 0.687480
O O11 0.116526 0.264271 0.419078
O O12 0.076000 0.000000 0.324150
O O13 0.338981 0.500000 0.360787
O O14 0.313098 0.218692 0.509607
O O15 0.300144 0.500000 0.678246
O O16 0.250000 0.750000 0.675549
O O17 0.500000 0.000000 0.952068
#
# Coordination Sequence:
#
# PCOD9349117 Si02
#       7
#     8   8   4   8   8   8   4
#     4  10  20  35  54  76 105 145 185 221 268 325
#     4   9  19  36  58  80 106 143 180 224 277 317
#     4  10  21  32  52  82 106 138 187 232 264 312
#     4   9  18  34  54  78 105 135 179 230 272 314
#     4   8  16  33  54  76 105 137 172 213 265 325
#     4  10  21  36  56  80 108 141 173 216 275 329
#     4  10  23  36  46  72 114 150 177 218 274 324
#
# _framework density 21.941469999999999
#
# number of rings (size 3 to 8) (size 9 to 14) (size 15 to 20)
#    0.000    2.667    0.000    2.000    2.333    3.333 
#    0.000    3.333    0.000    0.000    0.000    0.000 
#    0.000    0.000    0.000    0.000    0.000    0.000 
#
# Total GULP energy -133791.808844 kJ/mol
# GULP energy per Si atom -5574.658702 kJ/mol
# Density = 2.189153 g / cm^3
# Si number density = 21.941470 Si / 1000 Ang^3
#
#
#
# Elastic Constant Matrix: (Units=GPa)
#
#
# Indices 1 2 3 4 5 6 
#
# 1 198.6609 2.1504 112.2841 0.0000 0.0000 0.0000
# 2 2.1504 58.4800 6.3184 0.0000 0.0000 0.0000
# 3 112.2841 6.3184 118.2186 0.0000 0.0000 0.0000
# 4 0.0000 0.0000 0.0000 4.7631 0.0000 0.0000
# 5 0.0000 0.0000 0.0000 0.0000 49.3592 0.0000
# 6 0.0000 0.0000 0.0000 0.0000 0.0000 -28.1894
#
#
#
# Elastic Compliance Matrix: (Units=1/GPa)
#
#
# Indices 1 2 3 4 5 6 
#
# 1 0.010898 0.000722 -0.010390 0.000000 0.000000 0.000000
# 2 0.000722 0.017247 -0.001607 0.000000 0.000000 0.000000
# 3 -0.010390 -0.001607 0.018413 0.000000 0.000000 0.000000
# 4 0.000000 0.000000 0.000000 0.209948 0.000000 0.000000
# 5 0.000000 0.000000 0.000000 0.000000 0.020260 0.000000
# 6 0.000000 0.000000 0.000000 0.000000 0.000000 -0.035474
#
#
# Mechanical properties :
#
#
# Convention : Reuss Voigt Hill
#
# Bulk Modulus (GPa) = 41.65343 68.54059 55.09701
# Shear Modulus (GPa) = 18.39286 22.16035 20.27661
#
# Velocity S-wave (km/s) = 2.89843 3.18146 3.04324
# Velocity P-wave (km/s) = 5.49784 6.69338 6.12485
#
# Compressibility (1/GPa) = 0.02400763
#
# Stress axis : x y z
#
# Youngs Moduli (GPa) = 91.75823 57.98116 54.30954
#
# Poissons Ratio (x) = -0.04185 0.56426
# Poissons Ratio (y) = -0.06623 0.08730
# Poissons Ratio (z) = 0.95334 0.09320
#
# Static dielectric constant tensor:
#      x y z
#    x 1.825580 0.000000 0.000000 
#    y 0.000000 1.844450 0.000000 
#    z 0.000000 0.000000 1.776470 
# 
# From -- ./inp_files/5416.got.cif
#   From: 2010.05.17/outbox.cif.g08.bks.cpg/sg35_3_cif.got.tgz:5416.got - 2010.06.03 17:29:28.
