data_PCOD9349385
_publ_section_title
;
Structure prediction by ZEFSAII (Michael W. Deem and Ramdas Pophale) SiO2 
 PCOD9349385
Probable space group: C M M 2
;
_chemical_formula_sum "Si O2"
_cell_formula_units_Z 60
_cell_length_a 19.937173
_cell_length_b 10.934501
_cell_length_c 12.597127
_cell_angle_alpha 90.000000
_cell_angle_beta 90.000000
_cell_angle_gamma 90.000000
_cell_volume 2746.211957
_symmetry_space_group_name_H-M "C M M 2"
_symmetry_group_IT_number 35
_symmetry_cell_setting 'orthorhombic'
loop_
_space_group_symop_operation_xyz
x,y,z
-x,-y,z
-x,y,z
x,-y,z
1/2+x,1/2+y,z
1/2-x,1/2-y,z
1/2-x,1/2+y,z
1/2+x,1/2-y,z
loop_
_atom_site_type_symbol
_atom_site_label
_atom_site_fract_x
_atom_site_fract_y
_atom_site_fract_z
Si Si1 0.828618 0.634156 0.112870
Si Si2 0.250000 0.250000 0.294109
Si Si3 0.285362 0.870406 0.649314
Si Si4 0.881771 0.859610 0.392819
Si Si5 0.425529 0.769790 0.602084
Si Si6 0.830005 0.365259 0.880206
Si Si7 0.076576 0.137366 0.152890
Si Si8 0.078717 0.138421 0.819028
O O1 0.861569 0.500000 0.122972
O O2 0.778429 0.650001 0.211127
O O3 0.878562 0.749192 0.117025
O O4 0.796379 0.637647 0.995711
O O5 0.190033 0.198299 0.363963
O O6 0.250000 0.750000 0.606707
O O7 0.363856 0.860099 0.622264
O O8 0.282318 0.866078 0.777681
O O9 0.257562 0.000000 0.611887
O O10 0.917086 0.786032 0.485987
O O11 0.920932 0.857329 0.281110
O O12 0.874530 0.000000 0.425210
O O13 0.500000 0.822481 0.615901
O O14 0.417313 0.665426 0.692482
O O15 0.865101 0.500000 0.874749
O O16 0.878988 0.249263 0.868947
O O17 0.000000 0.149137 0.116451
O O18 0.100920 0.000000 0.122846
O O19 0.000000 0.147135 0.848200
O O20 0.101800 0.000000 0.842418
#
# Coordination Sequence:
#
# PCOD9349385 Si02
#       8
#     8   4   8   8   8   8   8   8
#     4  10  21  38  59  83 115 156 202 248 304 369
#     4  10  22  38  58  84 118 158 198 264 312 368
#     4  10  23  42  63  92 128 165 206 254 306 363
#     4  10  20  36  59  86 117 158 205 252 310 370
#     4  10  21  38  62  91 125 165 206 251 303 368
#     4   9  20  37  56  81 114 155 202 247 298 363
#     4   9  19  36  57  84 118 153 196 251 307 364
#     4   9  18  33  54  84 120 155 196 245 297 357
#
# _framework density 21.848279000000002
#
# number of rings (size 3 to 8) (size 9 to 14) (size 15 to 20)
#    0.000    2.400    0.000    1.200    1.867    6.400 
#    0.000    8.000    0.000    3.200    0.000    0.000 
#    0.000    0.000    0.000    0.000    0.000    0.000 
#
# Total GULP energy -167442.554817 kJ/mol
# GULP energy per Si atom -5581.418494 kJ/mol
# Density = 2.179855 g / cm^3
# Si number density = 21.848279 Si / 1000 Ang^3
#
#
#
# Elastic Constant Matrix: (Units=GPa)
#
#
# Indices 1 2 3 4 5 6 
#
# 1 65.0776 44.4140 0.8481 0.0000 0.0000 0.0000
# 2 44.4140 181.7611 14.1205 0.0000 0.0000 0.0000
# 3 0.8481 14.1205 85.0791 0.0000 0.0000 0.0000
# 4 0.0000 0.0000 0.0000 17.1925 0.0000 0.0000
# 5 0.0000 0.0000 0.0000 0.0000 1080.2780 0.0000
# 6 0.0000 0.0000 0.0000 0.0000 0.0000 22.1992
#
#
#
# Elastic Compliance Matrix: (Units=1/GPa)
#
#
# Indices 1 2 3 4 5 6 
#
# 1 0.018469 -0.004557 0.000572 0.000000 0.000000 0.000000
# 2 -0.004557 0.006698 -0.001066 0.000000 0.000000 0.000000
# 3 0.000572 -0.001066 0.011925 0.000000 0.000000 0.000000
# 4 0.000000 0.000000 0.000000 0.058165 0.000000 0.000000
# 5 0.000000 0.000000 0.000000 0.000000 0.000926 0.000000
# 6 0.000000 0.000000 0.000000 0.000000 0.000000 0.045047
#
#
# Mechanical properties :
#
#
# Convention : Reuss Voigt Hill
#
# Bulk Modulus (GPa) = 37.05140 50.07588 43.56364
# Shear Modulus (GPa) = 31.18585 242.10296 136.64441
#
# Velocity S-wave (km/s) = 3.78217 10.53810 7.91696
# Velocity P-wave (km/s) = 6.00570 13.07816 10.17612
#
# Compressibility (1/GPa) = 0.02698953
#
# Stress axis : x y z
#
# Youngs Moduli (GPa) = 54.14428 149.29394 83.85719
#
# Poissons Ratio (x) = 0.68040 -0.04799
# Poissons Ratio (y) = 0.24676 0.08941
# Poissons Ratio (z) = -0.03099 0.15919
#
# Static dielectric constant tensor:
#      x y z
#    x 1.799390 0.000000 0.000000 
#    y 0.000000 1.807190 0.000000 
#    z 0.000000 0.000000 1.806990 
# 
# From -- ./inp_files/13933.got.cif
#   From: 2010.05.17/outbox.cif.g08.bks.cpg/sg35_7_cif.got.tgz:13933.got - 2010.06.03 17:29:28.
