data_PCOD9349977
_publ_section_title
;
Structure prediction by ZEFSAII (Michael W. Deem and Ramdas Pophale) SiO2 
 PCOD9349977
Probable space group: C M M 2
;
_chemical_formula_sum "Si O2"
_cell_formula_units_Z 48
_cell_length_a 10.040412
_cell_length_b 17.958949
_cell_length_c 13.942343
_cell_angle_alpha 90.000000
_cell_angle_beta 90.000000
_cell_angle_gamma 90.000000
_cell_volume 2514.017022
_symmetry_space_group_name_H-M "C M M 2"
_symmetry_group_IT_number 35
_symmetry_cell_setting 'orthorhombic'
loop_
_space_group_symop_operation_xyz
x,y,z
-x,-y,z
-x,y,z
x,-y,z
1/2+x,1/2+y,z
1/2-x,1/2-y,z
1/2-x,1/2+y,z
1/2+x,1/2-y,z
loop_
_atom_site_type_symbol
_atom_site_label
_atom_site_fract_x
_atom_site_fract_y
_atom_site_fract_z
Si Si1 0.267670 0.161260 0.297180
Si Si2 0.238762 0.835497 0.720277
Si Si3 0.344836 0.088427 0.896021
Si Si4 0.154416 0.678866 0.089858
Si Si5 0.000000 0.911174 0.375259
Si Si6 0.500000 0.319444 0.568482
Si Si7 0.000000 0.340117 0.451307
Si Si8 0.000000 0.414096 0.638938
O O1 0.250000 0.250000 0.290330
O O2 0.317923 0.138877 0.191644
O O3 0.130881 0.121405 0.324000
O O4 0.373081 0.153173 0.382573
O O5 0.250000 0.750000 0.751176
O O6 0.237609 0.882504 0.818529
O O7 0.369863 0.869573 0.671539
O O8 0.124972 0.832769 0.639186
O O9 0.500000 0.107389 0.866844
O O10 0.337507 0.000000 0.902376
O O11 0.324237 0.125997 0.998857
O O12 0.250000 0.750000 0.080843
O O13 0.000000 0.703158 0.090604
O O14 0.000000 0.878839 0.483068
O O15 0.000000 0.000000 0.374710
O O16 0.500000 0.238157 0.513629
O O17 0.000000 0.407703 0.524931
O O18 0.000000 0.500000 0.671948
#
# Coordination Sequence:
#
# PCOD9349977 Si02
#       8
#     8   8   8   8   4   4   4   4
#     4  11  22  41  71  97 134 180 232 280 337 419
#     4  12  23  42  68  99 129 178 229 282 337 407
#     4  10  22  43  68  95 136 180 223 282 348 409
#     4  10  22  41  69 104 130 173 229 286 338 408
#     4  12  28  44  65 101 145 181 220 292 358 398
#     4  12  26  42  65 101 138 177 232 287 349 398
#     4  12  22  42  67 101 130 181 234 281 339 404
#     4  12  26  42  65  97 133 173 226 278 340 408
#
# _framework density 19.092949999999998
#
# number of rings (size 3 to 8) (size 9 to 14) (size 15 to 20)
#    0.000    0.833    5.000    2.000    3.500    4.000 
#    1.500    0.000    0.000    0.000    0.000    0.000 
#    0.000    0.000    0.000    0.000    0.000    0.000 
#
# Total GULP energy -133962.923869 kJ/mol
# GULP energy per Si atom -5581.788495 kJ/mol
# Density = 1.904949 g / cm^3
# Si number density = 19.092950 Si / 1000 Ang^3
#
#
#
# Elastic Constant Matrix: (Units=GPa)
#
#
# Indices 1 2 3 4 5 6 
#
# 1 134.0589 57.0584 68.6445 0.0000 0.0000 0.0000
# 2 57.0584 117.9718 51.2464 0.0000 0.0000 0.0000
# 3 68.6445 51.2464 158.1301 0.0000 0.0000 0.0000
# 4 0.0000 0.0000 0.0000 -145.8817 0.0000 0.0000
# 5 0.0000 0.0000 0.0000 0.0000 84.8580 0.0000
# 6 0.0000 0.0000 0.0000 0.0000 0.0000 36.5489
#
#
#
# Elastic Compliance Matrix: (Units=1/GPa)
#
#
# Indices 1 2 3 4 5 6 
#
# 1 0.010834 -0.003721 -0.003497 0.000000 0.000000 0.000000
# 2 -0.003721 0.011143 -0.001996 0.000000 0.000000 0.000000
# 3 -0.003497 -0.001996 0.008489 0.000000 0.000000 0.000000
# 4 0.000000 0.000000 0.000000 -0.006855 0.000000 0.000000
# 5 0.000000 0.000000 0.000000 0.000000 0.011784 0.000000
# 6 0.000000 0.000000 0.000000 0.000000 0.000000 0.027361
#
#
# Mechanical properties :
#
#
# Convention : Reuss Voigt Hill
#
# Bulk Modulus (GPa) = 83.07043 84.89550 83.98297
# Shear Modulus (GPa) = 58.68773 10.65246 34.67010
#
# Velocity S-wave (km/s) = 5.55019 2.36461 4.26591
# Velocity P-wave (km/s) = 9.20194 7.21221 8.26716
#
# Compressibility (1/GPa) = 0.01203798
#
# Stress axis : x y z
#
# Youngs Moduli (GPa) = 92.30429 89.74021 117.80073
#
# Poissons Ratio (x) = 0.33390 0.41197
# Poissons Ratio (y) = 0.34344 0.23514
# Poissons Ratio (z) = 0.32280 0.17913
#
# Static dielectric constant tensor:
#      x y z
#    x 1.676270 0.000000 0.000000 
#    y 0.000000 1.755460 0.000000 
#    z 0.000000 0.000000 1.710050 
# 
# From -- ./inp_files/15305.got.cif
#   From: 2010.05.17/outbox.cif.g08.bks.cpg/sg35_8_cif.got.tgz:15305.got - 2010.06.03 17:29:28.
