data_PCOD9349137
_publ_section_title
;
Structure prediction by ZEFSAII (Michael W. Deem and Ramdas Pophale) SiO2 
 PCOD9349137
Probable space group: C M M 2
;
_chemical_formula_sum "Si O2"
_cell_formula_units_Z 48
_cell_length_a 19.187190
_cell_length_b 7.963591
_cell_length_c 16.002294
_cell_angle_alpha 90.000000
_cell_angle_beta 90.000000
_cell_angle_gamma 90.000000
_cell_volume 2445.133458
_symmetry_space_group_name_H-M "C M M 2"
_symmetry_group_IT_number 35
_symmetry_cell_setting 'orthorhombic'
loop_
_space_group_symop_operation_xyz
x,y,z
-x,-y,z
-x,y,z
x,-y,z
1/2+x,1/2+y,z
1/2-x,1/2-y,z
1/2-x,1/2+y,z
1/2+x,1/2-y,z
loop_
_atom_site_type_symbol
_atom_site_label
_atom_site_fract_x
_atom_site_fract_y
_atom_site_fract_z
Si Si1 0.329972 0.202569 0.500000
Si Si2 0.420751 0.298838 0.845018
Si Si3 0.330343 0.200811 0.687225
Si Si4 0.330840 0.702944 0.002582
Si Si5 0.580232 0.297969 0.160442
Si Si6 0.079752 0.297330 0.344717
O O1 0.250000 0.250000 0.485718
O O2 0.348672 0.262856 0.593541
O O3 0.376391 0.265682 0.423458
O O4 0.335420 0.000000 0.501215
O O5 0.500000 0.233072 0.846611
O O6 0.424890 0.500000 0.854759
O O7 0.381779 0.264075 0.758377
O O8 0.373474 0.234947 0.921645
O O9 0.250000 0.250000 0.704418
O O10 0.333675 0.000000 0.686779
O O11 0.334049 0.500000 0.002413
O O12 0.250000 0.750000 0.999784
O O13 0.370063 0.763162 0.086340
O O14 0.500000 0.236263 0.151413
O O15 0.577647 0.500000 0.155107
O O16 0.606133 0.252168 0.252986
O O17 0.079240 0.500000 0.348045
O O18 0.000000 0.237366 0.350557
#
# Coordination Sequence:
#
# PCOD9349137 Si02
#       6
#     8   8   8   8   8   8
#     4   9  19  34  52  74 102 136 170 207 252 301
#     4  10  21  37  56  78 105 137 172 212 259 309
#     4  10  20  35  55  78 105 138 175 215 259 307
#     4  10  21  36  54  76 103 135 169 207 253 305
#     4   9  18  34  54  74  98 131 170 209 250 298
#     4   9  18  33  52  74 101 133 168 207 252 299
#
# _framework density 19.630831000000001
#
# number of rings (size 3 to 8) (size 9 to 14) (size 15 to 20)
#    0.000    2.500    0.000    1.500    0.000    7.667 
#    0.000    5.000    0.000    5.000    0.000    0.000 
#    0.000    0.000    0.000    0.000    0.000    0.000 
#
# Total GULP energy -133929.054606 kJ/mol
# GULP energy per Si atom -5580.377275 kJ/mol
# Density = 1.958615 g / cm^3
# Si number density = 19.630831 Si / 1000 Ang^3
#
#
#
# Elastic Constant Matrix: (Units=GPa)
#
#
# Indices 1 2 3 4 5 6 
#
# 1 137.7588 6.6356 133.3739 0.0000 0.0000 0.0000
# 2 6.6356 15.6532 7.8520 0.0000 0.0000 0.0000
# 3 133.3739 7.8520 213.5142 0.0000 0.0000 0.0000
# 4 0.0000 0.0000 0.0000 29.3798 0.0000 0.0000
# 5 0.0000 0.0000 0.0000 0.0000 44.6597 0.0000
# 6 0.0000 0.0000 0.0000 0.0000 0.0000 23.5216
#
#
#
# Elastic Compliance Matrix: (Units=1/GPa)
#
#
# Indices 1 2 3 4 5 6 
#
# 1 0.018433 -0.002076 -0.011438 0.000000 0.000000 0.000000
# 2 -0.002076 0.065319 -0.001105 0.000000 0.000000 0.000000
# 3 -0.011438 -0.001105 0.011869 0.000000 0.000000 0.000000
# 4 0.000000 0.000000 0.000000 0.034037 0.000000 0.000000
# 5 0.000000 0.000000 0.000000 0.000000 0.022392 0.000000
# 6 0.000000 0.000000 0.000000 0.000000 0.000000 0.042514
#
#
# Mechanical properties :
#
#
# Convention : Reuss Voigt Hill
#
# Bulk Modulus (GPa) = 15.06422 73.62768 44.34595
# Shear Modulus (GPa) = 20.33094 34.11654 27.22374
#
# Velocity S-wave (km/s) = 3.22166 4.17334 3.72800
# Velocity P-wave (km/s) = 4.63996 7.79807 6.41635
#
# Compressibility (1/GPa) = 0.06638246
#
# Stress axis : x y z
#
# Youngs Moduli (GPa) = 54.25042 15.30939 84.25267
#
# Poissons Ratio (x) = 0.03179 0.96369
# Poissons Ratio (y) = 0.11265 0.09311
# Poissons Ratio (z) = 0.62052 0.01692
#
# Static dielectric constant tensor:
#      x y z
#    x 1.649720 0.000000 0.000000 
#    y 0.000000 1.709490 0.000000 
#    z 0.000000 0.000000 1.693290 
# 
# From -- ./inp_files/12295.got.cif
#   From: 2010.05.17/outbox.cif.g08.bks.cpg/sg35_7_cif.got.tgz:12295.got - 2010.06.03 17:29:28.
