data_PCOD9349482
_publ_section_title
;
Structure prediction by ZEFSAII (Michael W. Deem and Ramdas Pophale) SiO2 
 PCOD9349482
Probable space group: C M M 2
;
_chemical_formula_sum "Si O2"
_cell_formula_units_Z 64
_cell_length_a 17.957139
_cell_length_b 14.225616
_cell_length_c 12.814061
_cell_angle_alpha 90.000000
_cell_angle_beta 90.000000
_cell_angle_gamma 90.000000
_cell_volume 3273.369359
_symmetry_space_group_name_H-M "C M M 2"
_symmetry_group_IT_number 35
_symmetry_cell_setting 'orthorhombic'
loop_
_space_group_symop_operation_xyz
x,y,z
-x,-y,z
-x,y,z
x,-y,z
1/2+x,1/2+y,z
1/2-x,1/2-y,z
1/2-x,1/2+y,z
1/2+x,1/2-y,z
loop_
_atom_site_type_symbol
_atom_site_label
_atom_site_fract_x
_atom_site_fract_y
_atom_site_fract_z
Si Si1 0.589191 0.607909 0.802190
Si Si2 0.836990 0.235656 0.627575
Si Si3 0.345136 0.671212 0.020834
Si Si4 0.586564 0.863041 0.265869
Si Si5 0.583758 0.360009 0.236813
Si Si6 0.411974 0.604372 0.463508
Si Si7 0.085344 0.391511 0.504841
Si Si8 0.673573 0.889910 0.054901
O O1 0.500000 0.616494 0.796854
O O2 0.608814 0.500000 0.773864
O O3 0.625949 0.683827 0.725421
O O4 0.618093 0.628795 0.918194
O O5 0.750000 0.250000 0.643720
O O6 0.859725 0.170837 0.529557
O O7 0.871224 0.334202 0.591608
O O8 0.378853 0.628277 0.126336
O O9 0.359712 0.786036 0.018469
O O10 0.259338 0.637616 0.032021
O O11 0.500000 0.896526 0.251955
O O12 0.583164 0.751309 0.256519
O O13 0.611768 0.884323 0.384138
O O14 0.642596 0.894586 0.174339
O O15 0.500000 0.395196 0.229608
O O16 0.615549 0.398853 0.344364
O O17 0.500000 0.634328 0.463500
O O18 0.410800 0.500000 0.508505
O O19 0.085750 0.500000 0.532538
O O20 0.000000 0.356763 0.502067
O O21 0.660711 0.000000 0.015471
#
# Coordination Sequence:
#
# PCOD9349482 Si02
#       8
#     8   8   8   8   8   8   8   8
#     4  11  25  47  74  95 116 159 217 268 316 379
#     4  12  26  41  63  89 126 161 205 260 324 374
#     4  10  22  39  62  92 127 163 209 260 318 376
#     4   9  17  33  58  88 125 169 211 247 293 367
#     4   9  17  33  59  90 126 161 196 253 312 365
#     4  10  20  37  63  93 126 164 206 256 315 376
#     4  10  20  37  62  90 124 167 213 256 300 361
#     4  10  21  36  58  89 129 171 207 251 309 373
#
# _framework density 19.55172
#
# number of rings (size 3 to 8) (size 9 to 14) (size 15 to 20)
#    0.000    1.875    1.250    2.625    1.750    5.250 
#    0.000    1.875    0.000    0.750    0.000    0.000 
#    0.000    0.000    0.000    0.000    0.000    0.000 
#
# Total GULP energy -178209.937728 kJ/mol
# GULP energy per Si atom -5569.060554 kJ/mol
# Density = 1.950722 g / cm^3
# Si number density = 19.551720 Si / 1000 Ang^3
#
#
#
# Elastic Constant Matrix: (Units=GPa)
#
#
# Indices 1 2 3 4 5 6 
#
# 1 66.2995 28.8113 41.7330 0.0000 0.0000 0.0000
# 2 28.8113 119.5701 28.9125 0.0000 0.0000 0.0000
# 3 41.7330 28.9125 98.2314 0.0000 0.0000 0.0000
# 4 0.0000 0.0000 0.0000 8.0343 0.0000 0.0000
# 5 0.0000 0.0000 0.0000 0.0000 118.5275 0.0000
# 6 0.0000 0.0000 0.0000 0.0000 0.0000 7.7809
#
#
#
# Elastic Compliance Matrix: (Units=1/GPa)
#
#
# Indices 1 2 3 4 5 6 
#
# 1 0.021687 -0.003228 -0.008264 0.000000 0.000000 0.000000
# 2 -0.003228 0.009484 -0.001420 0.000000 0.000000 0.000000
# 3 -0.008264 -0.001420 0.014109 0.000000 0.000000 0.000000
# 4 0.000000 0.000000 0.000000 0.124466 0.000000 0.000000
# 5 0.000000 0.000000 0.000000 0.000000 0.008437 0.000000
# 6 0.000000 0.000000 0.000000 0.000000 0.000000 0.128519
#
#
# Mechanical properties :
#
#
# Convention : Reuss Voigt Hill
#
# Bulk Modulus (GPa) = 51.39438 53.66830 52.53134
# Shear Modulus (GPa) = 14.74875 39.17816 26.96346
#
# Velocity S-wave (km/s) = 2.74951 4.48126 3.71763
# Velocity P-wave (km/s) = 6.03516 7.36781 6.73453
#
# Compressibility (1/GPa) = 0.01945738
#
# Stress axis : x y z
#
# Youngs Moduli (GPa) = 46.10972 105.43587 70.87710
#
# Poissons Ratio (x) = 0.34030 0.58571
# Poissons Ratio (y) = 0.14882 0.10067
# Poissons Ratio (z) = 0.38104 0.14976
#
# Static dielectric constant tensor:
#      x y z
#    x 1.667530 0.000000 0.000000 
#    y 0.000000 1.743340 0.000000 
#    z 0.000000 0.000000 1.671990 
# 
# From -- ./inp_files/13577.got.cif
#   From: 2010.05.17/outbox.cif.g08.bks.cpg/sg35_7_cif.got.tgz:13577.got - 2010.06.03 17:29:28.
