data_PCOD9349216
_publ_section_title
;
Structure prediction by ZEFSAII (Michael W. Deem and Ramdas Pophale) SiO2 
 PCOD9349216
Probable space group: C M M 2
;
_chemical_formula_sum "Si O2"
_cell_formula_units_Z 64
_cell_length_a 32.506093
_cell_length_b 9.210728
_cell_length_c 11.822097
_cell_angle_alpha 90.000000
_cell_angle_beta 90.000000
_cell_angle_gamma 90.000000
_cell_volume 3539.592363
_symmetry_space_group_name_H-M "C M M 2"
_symmetry_group_IT_number 35
_symmetry_cell_setting 'orthorhombic'
loop_
_space_group_symop_operation_xyz
x,y,z
-x,-y,z
-x,y,z
x,-y,z
1/2+x,1/2+y,z
1/2-x,1/2-y,z
1/2-x,1/2+y,z
1/2+x,1/2-y,z
loop_
_atom_site_type_symbol
_atom_site_label
_atom_site_fract_x
_atom_site_fract_y
_atom_site_fract_z
Si Si1 0.123514 0.673969 0.961820
Si Si2 0.874346 0.665375 0.695416
Si Si3 0.402437 0.327526 0.480709
Si Si4 0.173800 0.324307 0.359096
Si Si5 0.951586 0.337434 0.317104
Si Si6 0.294533 0.175000 0.105727
Si Si7 0.951259 0.174195 0.087603
Si Si8 0.714652 0.162791 0.585604
O O1 0.118505 0.500000 0.981537
O O2 0.125126 0.699366 0.827399
O O3 0.166772 0.715091 0.023726
O O4 0.083158 0.756897 0.006582
O O5 0.890162 0.500000 0.678443
O O6 0.895902 0.774455 0.608808
O O7 0.827314 0.665252 0.653818
O O8 0.402324 0.500000 0.472686
O O9 0.367289 0.258016 0.398715
O O10 0.442213 0.251294 0.429556
O O11 0.167809 0.500000 0.367518
O O12 0.190308 0.291223 0.234291
O O13 0.204960 0.281359 0.459549
O O14 0.932929 0.500000 0.316433
O O15 0.939465 0.242543 0.208856
O O16 0.000000 0.353563 0.306835
O O17 0.250000 0.250000 0.084122
O O18 0.289211 0.000000 0.097713
O O19 0.000000 0.209376 0.063408
O O20 0.948213 0.000000 0.089672
O O21 0.750000 0.250000 0.645408
O O22 0.729403 0.000000 0.573029
#
# Coordination Sequence:
#
# PCOD9349216 Si02
#       8
#     8   8   8   8   8   8   8   8
#     4  10  21  38  59  80 107 150 198 235 271 324
#     4   9  20  38  54  71 102 144 188 227 264 319
#     4  11  21  33  54  82 108 136 174 223 279 328
#     4   9  18  33  51  73 106 143 177 217 268 330
#     4  10  20  35  57  83 111 143 175 207 254 324
#     4  10  21  35  53  80 112 146 184 227 275 327
#     4  10  21  37  59  89 120 145 176 225 281 330
#     4   9  17  29  47  70  97 132 174 224 276 321
#
# _framework density 18.081178000000001
#
# number of rings (size 3 to 8) (size 9 to 14) (size 15 to 20)
#    0.000    2.250    0.000    3.750    0.000    6.500 
#    0.000    0.625    0.000    0.750    0.000    0.000 
#    0.000    0.000    0.000    0.000    0.000    0.000 
#
# Total GULP energy -178277.978384 kJ/mol
# GULP energy per Si atom -5571.186824 kJ/mol
# Density = 1.804002 g / cm^3
# Si number density = 18.081178 Si / 1000 Ang^3
#
#
#
# Elastic Constant Matrix: (Units=GPa)
#
#
# Indices 1 2 3 4 5 6 
#
# 1 64.3883 40.9296 52.8260 0.0000 0.0000 0.0000
# 2 40.9296 77.0778 59.2019 0.0000 0.0000 0.0000
# 3 52.8260 59.2019 113.5265 0.0000 0.0000 0.0000
# 4 0.0000 0.0000 0.0000 15.5324 0.0000 0.0000
# 5 0.0000 0.0000 0.0000 0.0000 -8.3685 0.0000
# 6 0.0000 0.0000 0.0000 0.0000 0.0000 32.3259
#
#
#
# Elastic Compliance Matrix: (Units=1/GPa)
#
#
# Indices 1 2 3 4 5 6 
#
# 1 0.027831 -0.008060 -0.008747 0.000000 0.000000 0.000000
# 2 -0.008060 0.023977 -0.008753 0.000000 0.000000 0.000000
# 3 -0.008747 -0.008753 0.017443 0.000000 0.000000 0.000000
# 4 0.000000 0.000000 0.000000 0.064381 0.000000 0.000000
# 5 0.000000 0.000000 0.000000 0.000000 -0.119495 0.000000
# 6 0.000000 0.000000 0.000000 0.000000 0.000000 0.030935
#
#
# Mechanical properties :
#
#
# Convention : Reuss Voigt Hill
#
# Bulk Modulus (GPa) = 55.15543 62.32307 58.73925
# Shear Modulus (GPa) = 48.90690 14.70031 31.80361
#
# Velocity S-wave (km/s) = 5.20646 2.85444 4.19852
# Velocity P-wave (km/s) = 8.16784 6.73848 7.48734
#
# Compressibility (1/GPa) = 0.01813058
#
# Stress axis : x y z
#
# Youngs Moduli (GPa) = 35.93178 41.70662 57.32930
#
# Poissons Ratio (x) = 0.33616 0.50145
# Poissons Ratio (y) = 0.28962 0.50180
# Poissons Ratio (z) = 0.31429 0.36506
#
# Static dielectric constant tensor:
#      x y z
#    x 1.695470 0.000000 0.000000 
#    y 0.000000 1.631080 0.000000 
#    z 0.000000 0.000000 1.615600 
# 
# From -- ./inp_files/14559.got.cif
#   From: 2010.05.17/outbox.cif.g08.bks.cpg/sg35_8_cif.got.tgz:14559.got - 2010.06.03 17:29:28.
