data_PCOD9349411
_publ_section_title
;
Structure prediction by ZEFSAII (Michael W. Deem and Ramdas Pophale) SiO2 
 PCOD9349411
Probable space group: C M M 2
;
_chemical_formula_sum "Si O2"
_cell_formula_units_Z 48
_cell_length_a 15.224165
_cell_length_b 8.737379
_cell_length_c 19.465549
_cell_angle_alpha 90.000000
_cell_angle_beta 90.000000
_cell_angle_gamma 90.000000
_cell_volume 2589.293694
_symmetry_space_group_name_H-M "C M M 2"
_symmetry_group_IT_number 35
_symmetry_cell_setting 'orthorhombic'
loop_
_space_group_symop_operation_xyz
x,y,z
-x,-y,z
-x,y,z
x,-y,z
1/2+x,1/2+y,z
1/2-x,1/2-y,z
1/2-x,1/2+y,z
1/2+x,1/2-y,z
loop_
_atom_site_type_symbol
_atom_site_label
_atom_site_fract_x
_atom_site_fract_y
_atom_site_fract_z
Si Si1 0.500000 0.813620 0.625000
Si Si2 0.605622 0.323368 0.870533
Si Si3 0.342975 0.183479 0.724235
Si Si4 0.150161 0.315078 0.361222
Si Si5 0.842269 0.318245 0.015280
Si Si6 0.000000 0.816523 0.264779
Si Si7 0.500000 0.682397 0.102614
Si Si8 0.500000 0.185639 0.468456
O O1 0.584014 0.767032 0.669474
O O2 0.500000 0.758701 0.546717
O O3 0.500000 0.000000 0.622750
O O4 0.500000 0.320954 0.873114
O O5 0.635476 0.500000 0.872101
O O6 0.634961 0.246324 0.799844
O O7 0.640151 0.237689 0.937558
O O8 0.250000 0.250000 0.703039
O O9 0.341282 0.000000 0.727075
O O10 0.155005 0.500000 0.358205
O O11 0.250000 0.250000 0.361967
O O12 0.087841 0.254111 0.299434
O O13 0.088836 0.270785 0.427127
O O14 0.841759 0.500000 0.016872
O O15 0.750000 0.250000 0.037896
O O16 0.916708 0.253017 0.064568
O O17 0.000000 0.786077 0.183611
O O18 0.000000 0.000000 0.275980
O O19 0.500000 0.500000 0.092345
O O20 0.500000 0.000000 0.469160
#
# Coordination Sequence:
#
# PCOD9349411 Si02
#       8
#     4   8   8   8   8   4   4   4
#     4   9  19  36  57  80 115 155 192 237 290 348
#     4  11  22  38  61  84 113 149 193 249 298 349
#     4  11  22  37  57  82 112 150 196 243 295 352
#     4  10  20  36  62  91 122 156 195 239 285 343
#     4  12  25  41  63  88 118 155 197 244 295 352
#     4  10  22  40  63  89 121 156 194 240 288 342
#     4  11  24  43  63  88 121 155 194 241 292 348
#     4   8  17  35  57  85 117 154 194 238 288 338
#
# _framework density 18.537875
#
# number of rings (size 3 to 8) (size 9 to 14) (size 15 to 20)
#    0.000    1.500    1.667    4.500    0.000    3.333 
#    0.000    0.000    0.000   11.000    0.000    0.000 
#    0.000    0.000    0.000    0.000    0.000    0.000 
#
# Total GULP energy -134085.377231 kJ/mol
# GULP energy per Si atom -5586.890718 kJ/mol
# Density = 1.849568 g / cm^3
# Si number density = 18.537875 Si / 1000 Ang^3
#
#
#
# Elastic Constant Matrix: (Units=GPa)
#
#
# Indices 1 2 3 4 5 6 
#
# 1 198.8795 72.2530 100.8578 0.0000 0.0000 0.0000
# 2 72.2530 109.5043 76.7315 0.0000 0.0000 0.0000
# 3 100.8578 76.7315 158.8762 0.0000 0.0000 0.0000
# 4 0.0000 0.0000 0.0000 -157.9748 0.0000 0.0000
# 5 0.0000 0.0000 0.0000 0.0000 269.9554 0.0000
# 6 0.0000 0.0000 0.0000 0.0000 0.0000 30.2662
#
#
#
# Elastic Compliance Matrix: (Units=1/GPa)
#
#
# Indices 1 2 3 4 5 6 
#
# 1 0.007861 -0.002555 -0.003757 0.000000 0.000000 0.000000
# 2 -0.002555 0.014634 -0.005446 0.000000 0.000000 0.000000
# 3 -0.003757 -0.005446 0.011309 0.000000 0.000000 0.000000
# 4 0.000000 0.000000 0.000000 -0.006330 0.000000 0.000000
# 5 0.000000 0.000000 0.000000 0.000000 0.003704 0.000000
# 6 0.000000 0.000000 0.000000 0.000000 0.000000 0.033040
#
#
# Mechanical properties :
#
#
# Convention : Reuss Voigt Hill
#
# Bulk Modulus (GPa) = 97.18339 107.43830 102.31085
# Shear Modulus (GPa) = 54.84676 42.94386 48.89531
#
# Velocity S-wave (km/s) = 5.44523 4.81827 5.14132
# Velocity P-wave (km/s) = 9.59542 9.43590 9.51600
#
# Compressibility (1/GPa) = 0.01028982
#
# Stress axis : x y z
#
# Youngs Moduli (GPa) = 127.20249 68.33575 88.42363
#
# Poissons Ratio (x) = 0.17458 0.33219
# Poissons Ratio (y) = 0.32496 0.48153
# Poissons Ratio (z) = 0.47787 0.37214
#
# Static dielectric constant tensor:
#      x y z
#    x 1.626450 0.000000 0.000000 
#    y 0.000000 1.801970 0.000000 
#    z 0.000000 0.000000 1.621930 
# 
# From -- ./inp_files/18840.got.cif
#   From: 2010.05.17/outbox.cif.g08.bks.cpg/sg35_10_cif.got.tgz:18840.got - 2010.06.03 17:29:28.
