data_PCOD9349045
_publ_section_title
;
Structure prediction by ZEFSAII (Michael W. Deem and Ramdas Pophale) SiO2 
 PCOD9349045
Probable space group: C M M 2
;
_chemical_formula_sum "Si O2"
_cell_formula_units_Z 48
_cell_length_a 10.320534
_cell_length_b 18.213264
_cell_length_c 14.202641
_cell_angle_alpha 90.000000
_cell_angle_beta 90.000000
_cell_angle_gamma 90.000000
_cell_volume 2669.679098
_symmetry_space_group_name_H-M "C M M 2"
_symmetry_group_IT_number 35
_symmetry_cell_setting 'orthorhombic'
loop_
_space_group_symop_operation_xyz
x,y,z
-x,-y,z
-x,y,z
x,-y,z
1/2+x,1/2+y,z
1/2-x,1/2-y,z
1/2-x,1/2+y,z
1/2+x,1/2-y,z
loop_
_atom_site_type_symbol
_atom_site_label
_atom_site_fract_x
_atom_site_fract_y
_atom_site_fract_z
Si Si1 0.000000 0.330429 0.525790
Si Si2 0.243618 0.586246 0.852093
Si Si3 0.000000 0.845488 0.526469
Si Si4 0.000000 0.582791 0.714530
Si Si5 0.500000 0.411351 0.736658
Si Si6 0.844782 0.680217 0.031570
Si Si7 0.847352 0.413909 0.221380
Si Si8 0.249869 0.838632 0.404567
O O1 0.000000 0.362276 0.629187
O O2 0.874635 0.354756 0.468148
O O3 0.000000 0.242665 0.534460
O O4 0.257756 0.500000 0.878721
O O5 0.125691 0.591530 0.779013
O O6 0.373419 0.609924 0.797198
O O7 0.204966 0.634151 0.941825
O O8 0.000000 0.879096 0.631089
O O9 0.874068 0.863465 0.464386
O O10 0.000000 0.500000 0.676006
O O11 0.500000 0.500000 0.728172
O O12 0.750000 0.750000 0.040581
O O13 0.830457 0.630204 0.124551
O O14 0.000000 0.697577 0.021636
O O15 0.818488 0.500000 0.209131
O O16 0.764528 0.378366 0.304948
O O17 0.000000 0.407253 0.247164
O O18 0.250000 0.750000 0.389950
#
# Coordination Sequence:
#
# PCOD9349045 Si02
#       8
#     4   8   4   4   4   8   8   8
#     4  10  20  34  55  82 115 154 199 244 290 344
#     4  10  21  39  61  86 118 158 200 245 297 348
#     4  10  22  36  57  82 121 162 195 240 296 350
#     4  10  20  34  57  86 113 148 199 250 292 344
#     4  10  22  38  57  84 121 162 199 244 300 350
#     4  11  24  41  64  92 121 154 194 242 298 357
#     4  10  21  39  64  90 116 152 197 244 291 347
#     4  10  20  37  57  85 118 156 196 242 296 347
#
# _framework density 17.979687999999999
#
# number of rings (size 3 to 8) (size 9 to 14) (size 15 to 20)
#    0.000    1.833    1.667    2.000    1.167    3.333 
#    1.500    0.000    0.000    0.000    0.000    0.000 
#    0.000    0.000    0.000    0.000    0.000    0.000 
#
# Total GULP energy -133984.001224 kJ/mol
# GULP energy per Si atom -5582.666718 kJ/mol
# Density = 1.793877 g / cm^3
# Si number density = 17.979688 Si / 1000 Ang^3
#
#
#
# Elastic Constant Matrix: (Units=GPa)
#
#
# Indices 1 2 3 4 5 6 
#
# 1 161.5768 56.1565 74.4131 0.0000 0.0000 0.0000
# 2 56.1565 67.5558 65.5951 0.0000 0.0000 0.0000
# 3 74.4131 65.5951 131.5570 0.0000 0.0000 0.0000
# 4 0.0000 0.0000 0.0000 45.8390 0.0000 0.0000
# 5 0.0000 0.0000 0.0000 0.0000 37.7005 0.0000
# 6 0.0000 0.0000 0.0000 0.0000 0.0000 -29.9462
#
#
#
# Elastic Compliance Matrix: (Units=1/GPa)
#
#
# Indices 1 2 3 4 5 6 
#
# 1 0.009169 -0.005013 -0.002687 0.000000 0.000000 0.000000
# 2 -0.005013 0.031435 -0.012838 0.000000 0.000000 0.000000
# 3 -0.002687 -0.012838 0.015522 0.000000 0.000000 0.000000
# 4 0.000000 0.000000 0.000000 0.021815 0.000000 0.000000
# 5 0.000000 0.000000 0.000000 0.000000 0.026525 0.000000
# 6 0.000000 0.000000 0.000000 0.000000 0.000000 -0.033393
#
#
# Mechanical properties :
#
#
# Convention : Reuss Voigt Hill
#
# Bulk Modulus (GPa) = 66.44345 83.66876 75.05610
# Shear Modulus (GPa) = 42.67464 21.68699 32.18082
#
# Velocity S-wave (km/s) = 4.87713 3.47680 4.23524
# Velocity P-wave (km/s) = 8.29157 7.92172 8.10876
#
# Compressibility (1/GPa) = 0.01505039
#
# Stress axis : x y z
#
# Youngs Moduli (GPa) = 109.06889 31.81137 64.42379
#
# Poissons Ratio (x) = 0.15946 0.17308
# Poissons Ratio (y) = 0.54674 0.82710
# Poissons Ratio (z) = 0.29303 0.40841
#
# Static dielectric constant tensor:
#      x y z
#    x 1.619750 0.000000 0.000000 
#    y 0.000000 1.606610 0.000000 
#    z 0.000000 0.000000 1.569510 
# 
# From -- ./inp_files/15320.got.cif
#   From: 2010.05.17/outbox.cif.g08.bks.cpg/sg35_8_cif.got.tgz:15320.got - 2010.06.03 17:29:28.
