data_PCOD9349963
_publ_section_title
;
Structure prediction by ZEFSAII (Michael W. Deem and Ramdas Pophale) SiO2 
 PCOD9349963
Probable space group: C M M 2
;
_chemical_formula_sum "Si O2"
_cell_formula_units_Z 56
_cell_length_a 14.850770
_cell_length_b 28.348483
_cell_length_c 6.191973
_cell_angle_alpha 90.000000
_cell_angle_beta 90.000000
_cell_angle_gamma 90.000000
_cell_volume 2606.800824
_symmetry_space_group_name_H-M "C M M 2"
_symmetry_group_IT_number 35
_symmetry_cell_setting 'orthorhombic'
loop_
_space_group_symop_operation_xyz
x,y,z
-x,-y,z
-x,y,z
x,-y,z
1/2+x,1/2+y,z
1/2-x,1/2-y,z
1/2-x,1/2+y,z
1/2+x,1/2-y,z
loop_
_atom_site_type_symbol
_atom_site_label
_atom_site_fract_x
_atom_site_fract_y
_atom_site_fract_z
Si Si1 0.902969 0.554763 0.245890
Si Si2 0.657061 0.120306 0.883863
Si Si3 0.894857 0.135936 0.521232
Si Si4 0.601125 0.198096 0.544112
Si Si5 0.898411 0.215031 0.875582
Si Si6 0.762559 0.944389 0.573415
Si Si7 0.740058 0.689641 0.204501
O O1 0.897445 0.500000 0.174137
O O2 0.814795 0.563656 0.390991
O O3 0.000000 0.559609 0.364260
O O4 0.903583 0.590745 0.047969
O O5 0.614386 0.151321 0.691098
O O6 0.721815 0.081225 0.781352
O O7 0.710799 0.156787 0.031457
O O8 0.884010 0.166390 0.742375
O O9 0.854556 0.083528 0.531289
O O10 0.832913 0.161611 0.346834
O O11 0.000000 0.136992 0.467172
O O12 0.500000 0.197112 0.447322
O O13 0.606684 0.242829 0.703179
O O14 0.681939 0.203132 0.374478
O O15 0.000000 0.214578 0.965125
O O16 0.825034 0.222314 0.059584
O O17 0.774225 0.000000 0.598135
#
# Coordination Sequence:
#
# PCOD9349963 Si02
#       7
#     8   8   8   8   8   8   8
#     4  10  22  40  64  94 133 182 228 277 344 411
#     4  12  22  40  65  99 137 177 226 276 340 404
#     4  11  23  44  69  97 133 176 229 288 344 405
#     4  11  26  44  68 106 143 177 223 280 341 407
#     4  10  24  46  71 101 136 179 228 275 335 410
#     4  11  23  43  66  97 137 177 230 291 343 403
#     4  12  23  44  70  99 135 183 224 279 337 407
#
# _framework density 21.482271000000001
#
# number of rings (size 3 to 8) (size 9 to 14) (size 15 to 20)
#    0.000    1.000    4.286    1.286    0.000    8.286 
#    0.000    4.286    0.000    1.714    0.000    0.000 
#    0.000    0.000    0.000    0.000    0.000    0.000 
#
# Total GULP energy -156535.713875 kJ/mol
# GULP energy per Si atom -5590.561210 kJ/mol
# Density = 2.143338 g / cm^3
# Si number density = 21.482271 Si / 1000 Ang^3
#
#
#
# Elastic Constant Matrix: (Units=GPa)
#
#
# Indices 1 2 3 4 5 6 
#
# 1 181.7390 56.1974 64.0495 0.0000 0.0000 0.0000
# 2 56.1974 111.9656 32.8590 0.0000 0.0000 0.0000
# 3 64.0495 32.8590 69.2570 0.0000 0.0000 0.0000
# 4 0.0000 0.0000 0.0000 37.1128 0.0000 0.0000
# 5 0.0000 0.0000 0.0000 0.0000 17.7231 0.0000
# 6 0.0000 0.0000 0.0000 0.0000 0.0000 -10.4723
#
#
#
# Elastic Compliance Matrix: (Units=1/GPa)
#
#
# Indices 1 2 3 4 5 6 
#
# 1 0.008651 -0.002317 -0.006901 0.000000 0.000000 0.000000
# 2 -0.002317 0.010996 -0.003075 0.000000 0.000000 0.000000
# 3 -0.006901 -0.003075 0.022280 0.000000 0.000000 0.000000
# 4 0.000000 0.000000 0.000000 0.026945 0.000000 0.000000
# 5 0.000000 0.000000 0.000000 0.000000 0.056423 0.000000
# 6 0.000000 0.000000 0.000000 0.000000 0.000000 -0.095490
#
#
# Mechanical properties :
#
#
# Convention : Reuss Voigt Hill
#
# Bulk Modulus (GPa) = 57.66335 74.35260 66.00797
# Shear Modulus (GPa) = 83.09545 22.86312 52.97928
#
# Velocity S-wave (km/s) = 6.22615 3.26587 4.97146
# Velocity P-wave (km/s) = 8.86494 6.99339 7.98419
#
# Compressibility (1/GPa) = 0.01734204
#
# Stress axis : x y z
#
# Youngs Moduli (GPa) = 115.59387 90.93829 44.88294
#
# Poissons Ratio (x) = 0.21068 0.30975
# Poissons Ratio (y) = 0.26780 0.13800
# Poissons Ratio (z) = 0.79775 0.27961
#
# Static dielectric constant tensor:
#      x y z
#    x 1.783990 0.000000 0.000000 
#    y 0.000000 1.817150 0.000000 
#    z 0.000000 0.000000 1.768510 
# 
# From -- ./inp_files/2059.got.cif
#   From: 2010.05.17/outbox.cif.g08.bks.cpg/sg35_2_cif.got.tgz:2059.got - 2010.06.03 17:29:28.
