data_PCOD9349664
_publ_section_title
;
Structure prediction by ZEFSAII (Michael W. Deem and Ramdas Pophale) SiO2 
 PCOD9349664
Probable space group: C M M 2
;
_chemical_formula_sum "Si O2"
_cell_formula_units_Z 48
_cell_length_a 36.265546
_cell_length_b 8.218185
_cell_length_c 7.933767
_cell_angle_alpha 90.000000
_cell_angle_beta 90.000000
_cell_angle_gamma 90.000000
_cell_volume 2364.555847
_symmetry_space_group_name_H-M "C M M 2"
_symmetry_group_IT_number 35
_symmetry_cell_setting 'orthorhombic'
loop_
_space_group_symop_operation_xyz
x,y,z
-x,-y,z
-x,y,z
x,-y,z
1/2+x,1/2+y,z
1/2-x,1/2-y,z
1/2-x,1/2+y,z
1/2+x,1/2-y,z
loop_
_atom_site_type_symbol
_atom_site_label
_atom_site_fract_x
_atom_site_fract_y
_atom_site_fract_z
Si Si1 0.658305 0.302145 0.488830
Si Si2 0.000000 0.816159 0.014582
Si Si3 0.342765 0.806880 0.099974
Si Si4 0.291839 0.306971 0.795041
Si Si5 0.500000 0.314371 0.616739
Si Si6 0.422284 0.686772 0.517009
Si Si7 0.923860 0.308566 0.151448
O O1 0.657117 0.500000 0.487598
O O2 0.663573 0.249506 0.294156
O O3 0.688680 0.244571 0.622950
O O4 0.618079 0.243595 0.556466
O O5 0.962545 0.725916 0.064432
O O6 0.000000 0.000000 0.086842
O O7 0.000000 0.828784 0.815178
O O8 0.385744 0.770057 0.055347
O O9 0.338212 0.000000 0.098305
O O10 0.315616 0.736251 0.960187
O O11 0.291594 0.500000 0.780535
O O12 0.250000 0.250000 0.810864
O O13 0.500000 0.500000 0.541348
O O14 0.538920 0.234159 0.568898
O O15 0.423090 0.500000 0.580197
O O16 0.422947 0.696410 0.315677
O O17 0.921876 0.500000 0.199060
#
# Coordination Sequence:
#
# PCOD9349664 Si02
#       7
#     8   4   8   8   4   8   8
#     4   9  20  38  62  89 119 158 201 248 299 353
#     4  11  22  33  52  80 112 153 196 241 286 336
#     4  10  22  40  63  90 123 162 201 245 299 360
#     4  11  24  41  64  92 123 157 197 245 300 361
#     4   9  19  31  50  80 110 141 188 239 280 328
#     4   9  17  34  57  81 108 144 192 239 285 338
#     4  10  21  37  55  80 114 151 192 238 289 345
#
# _framework density 20.299796000000001
#
# number of rings (size 3 to 8) (size 9 to 14) (size 15 to 20)
#    0.000    2.167    0.000    2.250    2.333    4.667 
#    0.000    3.333    0.000    0.000    0.000    0.000 
#    0.000    0.000    0.000    0.000    0.000    0.000 
#
# Total GULP energy -133790.691252 kJ/mol
# GULP energy per Si atom -5574.612136 kJ/mol
# Density = 2.025359 g / cm^3
# Si number density = 20.299796 Si / 1000 Ang^3
#
#
#
# Elastic Constant Matrix: (Units=GPa)
#
#
# Indices 1 2 3 4 5 6 
#
# 1 198.8373 25.9619 75.7947 0.0000 0.0000 0.0000
# 2 25.9619 37.5213 6.7255 0.0000 0.0000 0.0000
# 3 75.7947 6.7255 71.5055 0.0000 0.0000 0.0000
# 4 0.0000 0.0000 0.0000 2.9927 0.0000 0.0000
# 5 0.0000 0.0000 0.0000 0.0000 36.6813 0.0000
# 6 0.0000 0.0000 0.0000 0.0000 0.0000 3.4899
#
#
#
# Elastic Compliance Matrix: (Units=1/GPa)
#
#
# Indices 1 2 3 4 5 6 
#
# 1 0.009184 -0.004689 -0.009294 0.000000 0.000000 0.000000
# 2 -0.004689 0.029502 0.002195 0.000000 0.000000 0.000000
# 3 -0.009294 0.002195 0.023630 0.000000 0.000000 0.000000
# 4 0.000000 0.000000 0.000000 0.334142 0.000000 0.000000
# 5 0.000000 0.000000 0.000000 0.000000 0.027262 0.000000
# 6 0.000000 0.000000 0.000000 0.000000 0.000000 0.286541
#
#
# Mechanical properties :
#
#
# Convention : Reuss Voigt Hill
#
# Bulk Modulus (GPa) = 25.81231 58.31428 42.06329
# Shear Modulus (GPa) = 6.69567 21.92492 14.31030
#
# Velocity S-wave (km/s) = 1.81812 3.28999 2.65797
# Velocity P-wave (km/s) = 4.14132 6.57426 5.49415
#
# Compressibility (1/GPa) = 0.03874121
#
# Stress axis : x y z
#
# Youngs Moduli (GPa) = 108.88120 33.89554 42.31879
#
# Poissons Ratio (x) = 0.15893 0.39332
# Poissons Ratio (y) = 0.51053 -0.09290
# Poissons Ratio (z) = 1.01196 -0.07441
#
# Static dielectric constant tensor:
#      x y z
#    x 1.775090 0.000000 0.000000 
#    y 0.000000 1.739170 0.000000 
#    z 0.000000 0.000000 1.689500 
# 
# From -- ./inp_files/10500.got.cif
#   From: 2010.05.17/outbox.cif.g08.bks.cpg/sg35_6_cif.got.tgz:10500.got - 2010.06.03 17:29:28.
