data_PCOD9349436
_publ_section_title
;
Structure prediction by ZEFSAII (Michael W. Deem and Ramdas Pophale) SiO2 
 PCOD9349436
Probable space group: C M M 2
;
_chemical_formula_sum "Si O2"
_cell_formula_units_Z 56
_cell_length_a 21.589295
_cell_length_b 8.729278
_cell_length_c 14.510262
_cell_angle_alpha 90.000000
_cell_angle_beta 90.000000
_cell_angle_gamma 90.000000
_cell_volume 2734.588855
_symmetry_space_group_name_H-M "C M M 2"
_symmetry_group_IT_number 35
_symmetry_cell_setting 'orthorhombic'
loop_
_space_group_symop_operation_xyz
x,y,z
-x,-y,z
-x,y,z
x,-y,z
1/2+x,1/2+y,z
1/2-x,1/2-y,z
1/2-x,1/2+y,z
1/2+x,1/2-y,z
loop_
_atom_site_type_symbol
_atom_site_label
_atom_site_fract_x
_atom_site_fract_y
_atom_site_fract_z
Si Si1 0.314296 0.183521 0.164150
Si Si2 0.569211 0.316122 0.273179
Si Si3 0.369381 0.816367 0.977370
Si Si4 0.685651 0.681879 0.588889
Si Si5 0.430924 0.184110 0.479972
Si Si6 0.500000 0.675027 0.761923
Si Si7 0.000000 0.827769 0.985271
Si Si8 0.367444 0.183810 0.766455
O O1 0.250000 0.250000 0.201045
O O2 0.374303 0.246736 0.216320
O O3 0.313560 0.000000 0.169843
O O4 0.322258 0.230826 0.056820
O O5 0.500000 0.278636 0.236048
O O6 0.574602 0.500000 0.276418
O O7 0.572127 0.248304 0.376218
O O8 0.436729 0.757022 0.008166
O O9 0.356456 0.765753 0.872504
O O10 0.371722 0.000000 0.974332
O O11 0.686796 0.500000 0.583380
O O12 0.750000 0.750000 0.551922
O O13 0.625862 0.746551 0.536131
O O14 0.677381 0.736510 0.694240
O O15 0.500000 0.224483 0.516661
O O16 0.426101 0.000000 0.479421
O O17 0.500000 0.500000 0.726194
O O18 0.500000 0.665314 0.873569
O O19 0.562792 0.764753 0.739532
O O20 0.000000 0.000000 0.022686
O O21 0.362450 0.000000 0.760332
#
# Coordination Sequence:
#
# PCOD9349436 Si02
#       8
#     8   8   8   8   8   4   4   8
#     4  11  24  41  61  89 125 166 212 258 311 370
#     4  10  22  42  68  98 129 160 200 251 310 370
#     4   9  20  37  57  83 119 164 209 257 310 367
#     4  12  26  43  63  91 128 167 212 259 312 373
#     4  10  22  43  71 100 128 160 202 250 309 373
#     4   9  17  31  51  81 114 151 200 253 307 359
#     4   9  17  29  51  81 112 147 196 253 305 357
#     4  10  20  37  59  85 121 164 211 260 314 368
#
# _framework density 20.478399
#
# number of rings (size 3 to 8) (size 9 to 14) (size 15 to 20)
#    0.000    1.857    0.000    3.429    2.000    6.286 
#    0.000    4.286    0.000    0.000    0.000    0.000 
#    0.000    0.000    0.000    0.000    0.000    0.000 
#
# Total GULP energy -156476.549444 kJ/mol
# GULP energy per Si atom -5588.448194 kJ/mol
# Density = 2.043179 g / cm^3
# Si number density = 20.478399 Si / 1000 Ang^3
#
#
#
# Elastic Constant Matrix: (Units=GPa)
#
#
# Indices 1 2 3 4 5 6 
#
# 1 174.3689 61.9410 68.6805 0.0000 0.0000 0.0000
# 2 61.9410 86.1418 34.8367 0.0000 0.0000 0.0000
# 3 68.6805 34.8367 77.6610 0.0000 0.0000 0.0000
# 4 0.0000 0.0000 0.0000 26.0059 0.0000 0.0000
# 5 0.0000 0.0000 0.0000 0.0000 23.5179 0.0000
# 6 0.0000 0.0000 0.0000 0.0000 0.0000 30.1847
#
#
#
# Elastic Compliance Matrix: (Units=1/GPa)
#
#
# Indices 1 2 3 4 5 6 
#
# 1 0.010011 -0.004420 -0.006871 0.000000 0.000000 0.000000
# 2 -0.004420 0.016133 -0.003328 0.000000 0.000000 0.000000
# 3 -0.006871 -0.003328 0.020446 0.000000 0.000000 0.000000
# 4 0.000000 0.000000 0.000000 0.038453 0.000000 0.000000
# 5 0.000000 0.000000 0.000000 0.000000 0.042521 0.000000
# 6 0.000000 0.000000 0.000000 0.000000 0.000000 0.033129
#
#
# Mechanical properties :
#
#
# Convention : Reuss Voigt Hill
#
# Bulk Modulus (GPa) = 57.62966 74.34315 65.98640
# Shear Modulus (GPa) = 25.54734 27.45594 26.50164
#
# Velocity S-wave (km/s) = 3.53587 3.66557 3.60130
# Velocity P-wave (km/s) = 6.69870 7.36866 7.04165
#
# Compressibility (1/GPa) = 0.01735218
#
# Stress axis : x y z
#
# Youngs Moduli (GPa) = 99.88517 61.98518 48.90994
#
# Poissons Ratio (x) = 0.27398 0.33606
# Poissons Ratio (y) = 0.44150 0.16276
# Poissons Ratio (z) = 0.68632 0.20627
#
# Static dielectric constant tensor:
#      x y z
#    x 1.717290 0.000000 0.000000 
#    y 0.000000 1.684850 0.000000 
#    z 0.000000 0.000000 1.759680 
# 
# From -- ./inp_files/17473.got.cif
#   From: 2010.05.17/outbox.cif.g08.bks.cpg/sg35_9_cif.got.tgz:17473.got - 2010.06.03 17:29:28.
