data_PCOD9349128
_publ_section_title
;
Structure prediction by ZEFSAII (Michael W. Deem and Ramdas Pophale) SiO2 
 PCOD9349128
Probable space group: C M M 2
;
_chemical_formula_sum "Si O2"
_cell_formula_units_Z 64
_cell_length_a 20.094293
_cell_length_b 14.063407
_cell_length_c 9.619487
_cell_angle_alpha 90.000000
_cell_angle_beta 90.000000
_cell_angle_gamma 90.000000
_cell_volume 2718.411434
_symmetry_space_group_name_H-M "C M M 2"
_symmetry_group_IT_number 35
_symmetry_cell_setting 'orthorhombic'
loop_
_space_group_symop_operation_xyz
x,y,z
-x,-y,z
-x,y,z
x,-y,z
1/2+x,1/2+y,z
1/2-x,1/2-y,z
1/2-x,1/2+y,z
1/2+x,1/2-y,z
loop_
_atom_site_type_symbol
_atom_site_label
_atom_site_fract_x
_atom_site_fract_y
_atom_site_fract_z
Si Si1 0.291942 0.108884 0.387820
Si Si2 0.575310 0.169795 0.242793
Si Si3 0.140536 0.113971 0.743993
Si Si4 0.219682 0.614446 0.882028
Si Si5 0.209085 0.113887 0.149894
Si Si6 0.872256 0.614658 0.647083
Si Si7 0.575659 0.312875 0.015233
Si Si8 0.428447 0.286865 0.511126
O O1 0.359946 0.112256 0.293626
O O2 0.231938 0.151385 0.299078
O O3 0.313489 0.143065 0.538556
O O4 0.274063 0.000000 0.413663
O O5 0.500000 0.128753 0.262685
O O6 0.579295 0.207832 0.085198
O O7 0.578875 0.259621 0.349801
O O8 0.214778 0.139180 0.793445
O O9 0.125143 0.149639 0.589679
O O10 0.133127 0.000000 0.755597
O O11 0.091379 0.165076 0.854410
O O12 0.217251 0.500000 0.885988
O O13 0.153894 0.641222 0.799102
O O14 0.236607 0.647916 0.036146
O O15 0.136188 0.135886 0.094852
O O16 0.214765 0.000000 0.153799
O O17 0.884626 0.500000 0.637197
O O18 0.928108 0.684472 0.590394
O O19 0.500000 0.345343 0.044457
O O20 0.500000 0.334043 0.530112
#
# Coordination Sequence:
#
# PCOD9349128 Si02
#       8
#     8   8   8   8   8   8   8   8
#     4   9  18  33  54  79 106 139 177 216 263 318
#     4   9  20  37  53  75 108 140 176 223 268 314
#     4  10  21  37  57  79 104 139 182 223 264 315
#     4   8  16  32  52  76 105 135 172 219 268 316
#     4   9  18  32  51  76 104 134 172 219 265 312
#     4   9  18  34  56  80 108 142 177 216 264 318
#     4  10  20  35  55  76 102 139 179 218 263 316
#     4  10  21  36  54  79 110 142 178 220 265 315
#
# _framework density 23.543161000000001
#
# number of rings (size 3 to 8) (size 9 to 14) (size 15 to 20)
#    0.000    2.750    0.000    1.500    0.000    5.250 
#    0.000   10.000    0.000    4.500    0.000    5.250 
#    0.000    0.000    0.000    0.000    0.000    0.000 
#
# Total GULP energy -178445.462832 kJ/mol
# GULP energy per Si atom -5576.420713 kJ/mol
# Density = 2.348958 g / cm^3
# Si number density = 23.543161 Si / 1000 Ang^3
#
#
#
# Elastic Constant Matrix: (Units=GPa)
#
#
# Indices 1 2 3 4 5 6 
#
# 1 75.4191 -5.2448 30.5588 0.0000 0.0000 0.0000
# 2 -5.2448 64.8308 11.4404 0.0000 0.0000 0.0000
# 3 30.5588 11.4404 85.9421 0.0000 0.0000 0.0000
# 4 0.0000 0.0000 0.0000 24.7517 0.0000 0.0000
# 5 0.0000 0.0000 0.0000 0.0000 25.4128 0.0000
# 6 0.0000 0.0000 0.0000 0.0000 0.0000 22.3431
#
#
#
# Elastic Compliance Matrix: (Units=1/GPa)
#
#
# Indices 1 2 3 4 5 6 
#
# 1 0.015827 0.002328 -0.005938 0.000000 0.000000 0.000000
# 2 0.002328 0.016138 -0.002976 0.000000 0.000000 0.000000
# 3 -0.005938 -0.002976 0.014143 0.000000 0.000000 0.000000
# 4 0.000000 0.000000 0.000000 0.040401 0.000000 0.000000
# 5 0.000000 0.000000 0.000000 0.000000 0.039350 0.000000
# 6 0.000000 0.000000 0.000000 0.000000 0.000000 0.044757
#
#
# Mechanical properties :
#
#
# Convention : Reuss Voigt Hill
#
# Bulk Modulus (GPa) = 30.36066 33.30008 31.83037
# Shear Modulus (GPa) = 25.67174 27.13070 26.40122
#
# Velocity S-wave (km/s) = 3.30572 3.39836 3.35236
# Velocity P-wave (km/s) = 5.24348 5.43814 5.34170
#
# Compressibility (1/GPa) = 0.03293736
#
# Stress axis : x y z
#
# Youngs Moduli (GPa) = 63.18327 61.96442 70.70549
#
# Poissons Ratio (x) = -0.14426 0.41982
# Poissons Ratio (y) = -0.14710 0.21043
# Poissons Ratio (z) = 0.37516 0.18441
#
# Static dielectric constant tensor:
#      x y z
#    x 1.925440 0.000000 0.000000 
#    y 0.000000 1.881930 0.000000 
#    z 0.000000 0.000000 1.896740 
# 
# From -- ./inp_files/9434.got.cif
#   From: 2010.05.17/outbox.cif.g08.bks.cpg/sg35_5_cif.got.tgz:9434.got - 2010.06.03 17:29:28.
