data_PCOD9349445
_publ_section_title
;
Structure prediction by ZEFSAII (Michael W. Deem and Ramdas Pophale) SiO2 
 PCOD9349445
Probable space group: C M M 2
;
_chemical_formula_sum "Si O2"
_cell_formula_units_Z 48
_cell_length_a 8.835755
_cell_length_b 15.226337
_cell_length_c 19.394743
_cell_angle_alpha 90.000000
_cell_angle_beta 90.000000
_cell_angle_gamma 90.000000
_cell_volume 2609.294699
_symmetry_space_group_name_H-M "C M M 2"
_symmetry_group_IT_number 35
_symmetry_cell_setting 'orthorhombic'
loop_
_space_group_symop_operation_xyz
x,y,z
-x,-y,z
-x,y,z
x,-y,z
1/2+x,1/2+y,z
1/2-x,1/2-y,z
1/2-x,1/2+y,z
1/2+x,1/2-y,z
loop_
_atom_site_type_symbol
_atom_site_label
_atom_site_fract_x
_atom_site_fract_y
_atom_site_fract_z
Si Si1 0.324208 0.394590 0.062270
Si Si2 0.180146 0.341563 0.918997
Si Si3 0.817205 0.500000 0.821460
Si Si4 0.317027 0.349509 0.560513
Si Si5 0.180213 0.500000 0.302153
Si Si6 0.181866 0.157780 0.215968
Si Si7 0.181279 0.000000 0.669950
Si Si8 0.681237 0.000000 0.465427
O O1 0.500000 0.368495 0.052800
O O2 0.317494 0.500000 0.064856
O O3 0.271588 0.359847 0.136380
O O4 0.231888 0.362252 0.996767
O O5 0.250000 0.250000 0.897486
O O6 0.232026 0.416531 0.866453
O O7 0.000000 0.338001 0.917639
O O8 0.754263 0.500000 0.744796
O O9 0.000000 0.500000 0.818490
O O10 0.500000 0.343942 0.555714
O O11 0.250000 0.250000 0.562041
O O12 0.278335 0.411421 0.626927
O O13 0.253063 0.411999 0.499285
O O14 0.253325 0.416754 0.264941
O O15 0.208511 0.500000 0.383756
O O16 0.000000 0.500000 0.291215
O O17 0.250000 0.250000 0.237827
O O18 0.000000 0.157019 0.217835
O O19 0.000000 0.000000 0.675980
O O20 0.500000 0.000000 0.478101
#
# Coordination Sequence:
#
# PCOD9349445 Si02
#       8
#     8   8   4   8   4   8   4   4
#     4  10  20  37  60  85 111 146 193 244 297 349
#     4  11  23  39  57  83 113 150 196 242 293 348
#     4  10  23  40  57  81 117 154 193 236 288 346
#     4  10  21  39  64  94 123 155 195 236 284 342
#     4  11  24  41  61  87 119 157 198 241 292 348
#     4  11  23  40  60  86 117 153 198 246 298 355
#     4   9  21  39  60  88 120 153 193 235 284 340
#     4  10  22  40  62  90 122 156 196 240 288 342
#
# _framework density 18.395776000000001
#
# number of rings (size 3 to 8) (size 9 to 14) (size 15 to 20)
#    0.000    1.667    1.667    3.000    0.000    8.667 
#    0.000    3.333    0.000    0.000    0.000    0.000 
#    0.000    0.000    0.000    0.000    0.000    0.000 
#
# Total GULP energy -134036.456236 kJ/mol
# GULP energy per Si atom -5584.852343 kJ/mol
# Density = 1.835391 g / cm^3
# Si number density = 18.395776 Si / 1000 Ang^3
#
#
#
# Elastic Constant Matrix: (Units=GPa)
#
#
# Indices 1 2 3 4 5 6 
#
# 1 64.3034 65.5435 65.7737 0.0000 0.0000 0.0000
# 2 65.5435 193.7885 96.6971 0.0000 0.0000 0.0000
# 3 65.7737 96.6971 148.5126 0.0000 0.0000 0.0000
# 4 0.0000 0.0000 0.0000 104.9585 0.0000 0.0000
# 5 0.0000 0.0000 0.0000 0.0000 35.1750 0.0000
# 6 0.0000 0.0000 0.0000 0.0000 0.0000 31.7386
#
#
#
# Elastic Compliance Matrix: (Units=1/GPa)
#
#
# Indices 1 2 3 4 5 6 
#
# 1 0.032022 -0.005561 -0.010562 0.000000 0.000000 0.000000
# 2 -0.005561 0.008609 -0.003143 0.000000 0.000000 0.000000
# 3 -0.010562 -0.003143 0.013457 0.000000 0.000000 0.000000
# 4 0.000000 0.000000 0.000000 0.009528 0.000000 0.000000
# 5 0.000000 0.000000 0.000000 0.000000 0.028429 0.000000
# 6 0.000000 0.000000 0.000000 0.000000 0.000000 0.031507
#
#
# Mechanical properties :
#
#
# Convention : Reuss Voigt Hill
#
# Bulk Modulus (GPa) = 64.27259 95.84812 80.06035
# Shear Modulus (GPa) = 29.89203 46.28044 38.08623
#
# Velocity S-wave (km/s) = 4.03543 5.02124 4.55508
# Velocity P-wave (km/s) = 7.53177 9.26464 8.44278
#
# Compressibility (1/GPa) = 0.01555873
#
# Stress axis : x y z
#
# Youngs Moduli (GPa) = 31.22848 116.15546 74.30945
#
# Poissons Ratio (x) = 0.64589 0.78482
# Poissons Ratio (y) = 0.17365 0.23354
# Poissons Ratio (z) = 0.32982 0.36505
#
# Static dielectric constant tensor:
#      x y z
#    x 1.618550 0.000000 0.000000 
#    y 0.000000 1.615630 0.000000 
#    z 0.000000 0.000000 1.612940 
# 
# From -- ./inp_files/17964.got.cif
#   From: 2010.05.17/outbox.cif.g08.bks.cpg/sg35_9_cif.got.tgz:17964.got - 2010.06.03 17:29:28.
