data_PCOD9349274
_publ_section_title
;
Structure prediction by ZEFSAII (Michael W. Deem and Ramdas Pophale) SiO2 
 PCOD9349274
Probable space group: C M M 2
;
_chemical_formula_sum "Si O2"
_cell_formula_units_Z 32
_cell_length_a 15.911974
_cell_length_b 19.075802
_cell_length_c 4.919344
_cell_angle_alpha 90.000000
_cell_angle_beta 90.000000
_cell_angle_gamma 90.000000
_cell_volume 1493.186516
_symmetry_space_group_name_H-M "C M M 2"
_symmetry_group_IT_number 35
_symmetry_cell_setting 'orthorhombic'
loop_
_space_group_symop_operation_xyz
x,y,z
-x,-y,z
-x,y,z
x,-y,z
1/2+x,1/2+y,z
1/2-x,1/2-y,z
1/2-x,1/2+y,z
1/2+x,1/2-y,z
loop_
_atom_site_type_symbol
_atom_site_label
_atom_site_fract_x
_atom_site_fract_y
_atom_site_fract_z
Si Si1 0.299843 0.363679 0.267520
Si Si2 0.904036 0.826280 0.793496
Si Si3 0.636702 0.920754 0.481225
Si Si4 0.367394 0.172986 0.011140
O O1 0.347143 0.329205 0.522733
O O2 0.235891 0.420930 0.392442
O O3 0.366876 0.376937 0.029154
O O4 0.228952 0.319205 0.108539
O O5 0.901190 0.747771 0.919510
O O6 0.000000 0.843728 0.725792
O O7 0.630212 0.882507 0.767751
O O8 0.605526 0.000000 0.480579
O O9 0.594095 0.867684 0.267701
#
# Coordination Sequence:
#
# PCOD9349274 Si02
#       4
#     8   8   8   8
#     4  10  21  36  57  84 113 146 191 234 278 335
#     4  12  23  36  56  88 122 146 177 233 299 348
#     4  10  20  35  60  85 107 142 200 242 267 318
#     4  10  21  34  60  82 115 144 192 233 278 333
#
# _framework density 21.430679999999999
#
# number of rings (size 3 to 8) (size 9 to 14) (size 15 to 20)
#    1.500    0.000    2.500    3.750    3.500    0.000 
#    0.000    0.000    0.000    9.000    0.000    0.000 
#    0.000    0.000    0.000    0.000    0.000    0.000 
#
# Total GULP energy -89082.308917 kJ/mol
# GULP energy per Si atom -5567.644307 kJ/mol
# Density = 2.138190 g / cm^3
# Si number density = 21.430680 Si / 1000 Ang^3
#
#
#
# Elastic Constant Matrix: (Units=GPa)
#
#
# Indices 1 2 3 4 5 6 
#
# 1 110.3835 -1.1220 26.4417 0.0000 0.0000 0.0000
# 2 -1.1220 30.9302 3.0392 0.0000 0.0000 0.0000
# 3 26.4417 3.0392 144.9979 0.0000 0.0000 0.0000
# 4 0.0000 0.0000 0.0000 -31.6239 0.0000 0.0000
# 5 0.0000 0.0000 0.0000 0.0000 -15.4862 0.0000
# 6 0.0000 0.0000 0.0000 0.0000 0.0000 -15.5844
#
#
#
# Elastic Compliance Matrix: (Units=1/GPa)
#
#
# Indices 1 2 3 4 5 6 
#
# 1 0.009481 0.000515 -0.001740 0.000000 0.000000 0.000000
# 2 0.000515 0.032426 -0.000774 0.000000 0.000000 0.000000
# 3 -0.001740 -0.000774 0.007230 0.000000 0.000000 0.000000
# 4 0.000000 0.000000 0.000000 -0.031622 0.000000 0.000000
# 5 0.000000 0.000000 0.000000 0.000000 -0.064574 0.000000
# 6 0.000000 0.000000 0.000000 0.000000 0.000000 -0.064167
#
#
# Mechanical properties :
#
#
# Convention : Reuss Voigt Hill
#
# Bulk Modulus (GPa) = 22.15322 38.11437 30.13379
# Shear Modulus (GPa) = -54.24095 4.65794 -24.79150
#
# Velocity S-wave (km/s) = -5.03636 1.47588 -3.40490
# Velocity P-wave (km/s) = 4.84358 4.55278 1.16885
#
# Compressibility (1/GPa) = 0.04514017
#
# Stress axis : x y z
#
# Youngs Moduli (GPa) = 105.47061 30.83983 138.31003
#
# Poissons Ratio (x) = -0.01588 0.24063
# Poissons Ratio (y) = -0.05431 0.10699
# Poissons Ratio (z) = 0.18350 0.02386
#
# Static dielectric constant tensor:
#      x y z
#    x 1.923600 0.000000 0.000000 
#    y 0.000000 1.754140 0.000000 
#    z 0.000000 0.000000 1.767860 
# 
# From -- ./inp_files/1604.got.cif
#   From: 2010.05.17/outbox.cif.g08.bks.cpg/sg35_1_cif.got.tgz:1604.got - 2010.06.03 17:29:28.
