data_PCOD9349151
_publ_section_title
;
Structure prediction by ZEFSAII (Michael W. Deem and Ramdas Pophale) SiO2 
 PCOD9349151
Probable space group: C M M 2
;
_chemical_formula_sum "Si O2"
_cell_formula_units_Z 48
_cell_length_a 8.727794
_cell_length_b 31.197220
_cell_length_c 9.645731
_cell_angle_alpha 90.000000
_cell_angle_beta 90.000000
_cell_angle_gamma 90.000000
_cell_volume 2626.367701
_symmetry_space_group_name_H-M "C M M 2"
_symmetry_group_IT_number 35
_symmetry_cell_setting 'orthorhombic'
loop_
_space_group_symop_operation_xyz
x,y,z
-x,-y,z
-x,y,z
x,-y,z
1/2+x,1/2+y,z
1/2-x,1/2-y,z
1/2-x,1/2+y,z
1/2+x,1/2-y,z
loop_
_atom_site_type_symbol
_atom_site_label
_atom_site_fract_x
_atom_site_fract_y
_atom_site_fract_z
Si Si1 0.816351 0.868972 0.909250
Si Si2 0.682110 0.405527 0.204657
Si Si3 0.179419 0.500000 0.237504
Si Si4 0.172189 0.000000 0.530205
Si Si5 0.328466 0.929100 0.696516
Si Si6 0.814169 0.297487 0.704409
Si Si7 0.672243 0.856236 0.463563
O O1 0.737200 0.909553 0.836066
O O2 0.748896 0.827973 0.827744
O O3 0.000000 0.869551 0.889318
O O4 0.783878 0.875688 0.071493
O O5 0.500000 0.411246 0.214161
O O6 0.751813 0.453757 0.191002
O O7 0.739090 0.379822 0.340251
O O8 0.210765 0.500000 0.402954
O O9 0.000000 0.500000 0.207059
O O10 0.207677 0.039589 0.627906
O O11 0.000000 0.000000 0.474967
O O12 0.500000 0.947342 0.713447
O O13 0.340382 0.890863 0.586355
O O14 0.750000 0.250000 0.722184
O O15 0.764532 0.316091 0.552456
O O16 0.000000 0.298561 0.707206
O O17 0.500000 0.846078 0.413460
#
# Coordination Sequence:
#
# PCOD9349151 Si02
#       7
#     8   8   4   4   8   8   8
#     4  10  22  39  58  84 118 155 193 238 292 350
#     4  11  23  38  58  85 118 157 200 242 289 345
#     4  12  24  37  56  81 116 158 200 246 292 343
#     4  12  22  33  54  81 110 148 194 246 292 337
#     4  10  20  35  55  80 109 146 192 238 286 341
#     4  10  21  39  64  91 117 148 190 240 294 357
#     4   9  19  35  57  83 113 146 185 234 287 344
#
# _framework density 18.27619
#
# number of rings (size 3 to 8) (size 9 to 14) (size 15 to 20)
#    0.000    1.667    1.667    4.500    0.000    6.667 
#    0.000    1.667    0.000    2.000    0.000    0.000 
#    0.000    0.000    0.000    0.000    0.000    0.000 
#
# Total GULP energy -133755.708549 kJ/mol
# GULP energy per Si atom -5573.154523 kJ/mol
# Density = 1.823459 g / cm^3
# Si number density = 18.276190 Si / 1000 Ang^3
#
#
#
# Elastic Constant Matrix: (Units=GPa)
#
#
# Indices 1 2 3 4 5 6 
#
# 1 77.6422 30.7059 44.7750 0.0000 0.0000 0.0000
# 2 30.7059 101.4867 39.8980 0.0000 0.0000 0.0000
# 3 44.7750 39.8980 106.2111 0.0000 0.0000 0.0000
# 4 0.0000 0.0000 0.0000 28.4045 0.0000 0.0000
# 5 0.0000 0.0000 0.0000 0.0000 56.1767 0.0000
# 6 0.0000 0.0000 0.0000 0.0000 0.0000 74.6490
#
#
#
# Elastic Compliance Matrix: (Units=1/GPa)
#
#
# Indices 1 2 3 4 5 6 
#
# 1 0.017687 -0.002839 -0.006390 0.000000 0.000000 0.000000
# 2 -0.002839 0.012017 -0.003317 0.000000 0.000000 0.000000
# 3 -0.006390 -0.003317 0.013355 0.000000 0.000000 0.000000
# 4 0.000000 0.000000 0.000000 0.035206 0.000000 0.000000
# 5 0.000000 0.000000 0.000000 0.000000 0.017801 0.000000
# 6 0.000000 0.000000 0.000000 0.000000 0.000000 0.013396
#
#
# Mechanical properties :
#
#
# Convention : Reuss Voigt Hill
#
# Bulk Modulus (GPa) = 55.65909 57.34420 56.50164
# Shear Modulus (GPa) = 35.57630 43.17679 39.37655
#
# Velocity S-wave (km/s) = 4.41681 4.86579 4.64672
# Velocity P-wave (km/s) = 7.51874 7.93804 7.73123
#
# Compressibility (1/GPa) = 0.01796652
#
# Stress axis : x y z
#
# Youngs Moduli (GPa) = 56.53738 83.21786 74.87856
#
# Poissons Ratio (x) = 0.23629 0.47846
# Poissons Ratio (y) = 0.16054 0.24837
# Poissons Ratio (z) = 0.36126 0.27603
#
# Static dielectric constant tensor:
#      x y z
#    x 1.631290 0.000000 0.000000 
#    y 0.000000 1.613130 0.000000 
#    z 0.000000 0.000000 1.605590 
# 
# From -- ./inp_files/5395.got.cif
#   From: 2010.05.17/outbox.cif.g08.bks.cpg/sg35_3_cif.got.tgz:5395.got - 2010.06.03 17:29:28.
