data_PCOD9349751
_publ_section_title
;
Structure prediction by ZEFSAII (Michael W. Deem and Ramdas Pophale) SiO2 
 PCOD9349751
Probable space group: C M M 2
;
_chemical_formula_sum "Si O2"
_cell_formula_units_Z 48
_cell_length_a 15.631743
_cell_length_b 9.870527
_cell_length_c 15.999338
_cell_angle_alpha 90.000000
_cell_angle_beta 90.000000
_cell_angle_gamma 90.000000
_cell_volume 2468.594519
_symmetry_space_group_name_H-M "C M M 2"
_symmetry_group_IT_number 35
_symmetry_cell_setting 'orthorhombic'
loop_
_space_group_symop_operation_xyz
x,y,z
-x,-y,z
-x,y,z
x,-y,z
1/2+x,1/2+y,z
1/2-x,1/2-y,z
1/2-x,1/2+y,z
1/2+x,1/2-y,z
loop_
_atom_site_type_symbol
_atom_site_label
_atom_site_fract_x
_atom_site_fract_y
_atom_site_fract_z
Si Si1 0.166366 0.159887 0.997240
Si Si2 0.253363 0.500000 0.573926
Si Si3 0.094263 0.000000 0.704982
Si Si4 0.606036 0.000000 0.705747
Si Si5 0.250000 0.750000 0.452029
Si Si6 0.903778 0.739450 0.821940
Si Si7 0.161207 0.162629 0.183109
Si Si8 0.403150 0.839934 0.330545
O O1 0.250000 0.250000 0.006893
O O2 0.125394 0.220940 0.914086
O O3 0.183398 0.000000 0.983800
O O4 0.123495 0.170726 0.088784
O O5 0.327127 0.500000 0.642964
O O6 0.160671 0.500000 0.620330
O O7 0.265855 0.626478 0.513705
O O8 0.098077 0.872128 0.765632
O O9 0.000000 0.000000 0.662941
O O10 0.636715 0.874313 0.763156
O O11 0.500000 0.000000 0.691952
O O12 0.330556 0.789501 0.394238
O O13 0.000000 0.689018 0.832733
O O14 0.250000 0.250000 0.185818
O O15 0.104673 0.240740 0.250877
O O16 0.174274 0.000000 0.200451
O O17 0.500000 0.830782 0.364434
O O18 0.387981 0.000000 0.309947
#
# Coordination Sequence:
#
# PCOD9349751 Si02
#       8
#     8   4   4   4   4   8   8   8
#     4  10  22  36  58  94 130 170 217 264 309 371
#     4  12  26  42  70  94 122 168 210 266 336 390
#     4  10  22  40  62  91 125 162 209 263 318 378
#     4  10  24  42  62  93 129 168 217 269 322 386
#     4  12  26  46  68 100 126 166 216 268 334 402
#     4  10  21  38  59  86 127 173 211 261 316 367
#     4  10  21  39  65  96 134 174 219 270 319 380
#     4  11  25  46  71  99 135 176 214 266 336 401
#
# _framework density 19.444264
#
# number of rings (size 3 to 8) (size 9 to 14) (size 15 to 20)
#    0.000    1.500    2.500    1.500    4.667    3.000 
#    0.000    1.667    0.000    0.000    0.000    0.000 
#    0.000    0.000    0.000    0.000    0.000    0.000 
#
# Total GULP energy -133736.732719 kJ/mol
# GULP energy per Si atom -5572.363863 kJ/mol
# Density = 1.940001 g / cm^3
# Si number density = 19.444264 Si / 1000 Ang^3
#
#
#
# Elastic Constant Matrix: (Units=GPa)
#
#
# Indices 1 2 3 4 5 6 
#
# 1 90.2219 24.0593 51.1929 0.0000 0.0000 0.0000
# 2 24.0593 133.1450 39.8645 0.0000 0.0000 0.0000
# 3 51.1929 39.8645 108.4952 0.0000 0.0000 0.0000
# 4 0.0000 0.0000 0.0000 -2.3138 0.0000 0.0000
# 5 0.0000 0.0000 0.0000 0.0000 -12.4560 0.0000
# 6 0.0000 0.0000 0.0000 0.0000 0.0000 20.6923
#
#
#
# Elastic Compliance Matrix: (Units=1/GPa)
#
#
# Indices 1 2 3 4 5 6 
#
# 1 0.015190 -0.000673 -0.006920 0.000000 0.000000 0.000000
# 2 -0.000673 0.008469 -0.002794 0.000000 0.000000 0.000000
# 3 -0.006920 -0.002794 0.013509 0.000000 0.000000 0.000000
# 4 0.000000 0.000000 0.000000 -0.432194 0.000000 0.000000
# 5 0.000000 0.000000 0.000000 0.000000 -0.080283 0.000000
# 6 0.000000 0.000000 0.000000 0.000000 0.000000 0.048327
#
#
# Mechanical properties :
#
#
# Convention : Reuss Voigt Hill
#
# Bulk Modulus (GPa) = 61.00079 62.45507 61.72793
# Shear Modulus (GPa) = -12.47679 15.63420 1.57871
#
# Velocity S-wave (km/s) = -2.53587 2.83866 0.90204
# Velocity P-wave (km/s) = 4.78185 6.55238 5.73584
#
# Compressibility (1/GPa) = 0.01639323
#
# Stress axis : x y z
#
# Youngs Moduli (GPa) = 65.83418 118.08047 74.02581
#
# Poissons Ratio (x) = 0.07946 0.51225
# Poissons Ratio (y) = 0.04430 0.20684
# Poissons Ratio (z) = 0.45557 0.32994
#
# Static dielectric constant tensor:
#      x y z
#    x 1.692480 0.000000 0.000000 
#    y 0.000000 1.791020 0.000000 
#    z 0.000000 0.000000 1.706720 
# 
# From -- ./inp_files/17155.got.cif
#   From: 2010.05.17/outbox.cif.g08.bks.cpg/sg35_9_cif.got.tgz:17155.got - 2010.06.03 17:29:28.
