data_PCOD9349017
_publ_section_title
;
Structure prediction by ZEFSAII (Michael W. Deem and Ramdas Pophale) SiO2 
 PCOD9349017
Probable space group: C M M 2
;
_chemical_formula_sum "Si O2"
_cell_formula_units_Z 40
_cell_length_a 8.434429
_cell_length_b 18.771011
_cell_length_c 13.263606
_cell_angle_alpha 90.000000
_cell_angle_beta 90.000000
_cell_angle_gamma 90.000000
_cell_volume 2099.930703
_symmetry_space_group_name_H-M "C M M 2"
_symmetry_group_IT_number 35
_symmetry_cell_setting 'orthorhombic'
loop_
_space_group_symop_operation_xyz
x,y,z
-x,-y,z
-x,y,z
x,-y,z
1/2+x,1/2+y,z
1/2-x,1/2-y,z
1/2-x,1/2+y,z
1/2+x,1/2-y,z
loop_
_atom_site_type_symbol
_atom_site_label
_atom_site_fract_x
_atom_site_fract_y
_atom_site_fract_z
Si Si1 0.810310 0.669528 0.884420
Si Si2 0.310388 0.582277 0.074592
Si Si3 0.193673 0.582052 0.688038
Si Si4 0.191433 0.582553 0.294993
Si Si5 0.308186 0.169428 0.490699
O O1 0.750000 0.750000 0.878470
O O2 0.753963 0.623821 0.787987
O O3 0.000000 0.670370 0.882314
O O4 0.755470 0.631571 0.986660
O O5 0.500000 0.583212 0.071099
O O6 0.256076 0.500000 0.060140
O O7 0.255196 0.604989 0.185939
O O8 0.245850 0.500000 0.688187
O O9 0.244069 0.623724 0.587608
O O10 0.000000 0.581500 0.688175
O O11 0.239099 0.500000 0.311896
O O12 0.245118 0.631507 0.387383
O O13 0.000000 0.584277 0.291862
O O14 0.500000 0.169328 0.490578
O O15 0.250000 0.250000 0.497339
#
# Coordination Sequence:
#
# PCOD9349017 Si02
#       5
#     8   8   8   8   8
#     4  11  22  36  56  81 111 145 181 223 271 324
#     4  10  21  37  57  81 110 143 181 227 274 321
#     4   9  18  34  57  82 106 137 179 222 264 316
#     4   9  18  34  56  79 104 140 185 225 262 312
#     4  10  20  34  54  80 110 141 174 217 267 319
#
# _framework density 19.048245000000001
#
# number of rings (size 3 to 8) (size 9 to 14) (size 15 to 20)
#    0.000    2.200    0.000    3.000    0.000    6.000 
#    0.000    3.000    0.000    4.200    0.000    0.000 
#    0.000    0.000    0.000    0.000    0.000    0.000 
#
# Total GULP energy -111707.461491 kJ/mol
# GULP energy per Si atom -5585.373075 kJ/mol
# Density = 1.900489 g / cm^3
# Si number density = 19.048245 Si / 1000 Ang^3
#
#
#
# Elastic Constant Matrix: (Units=GPa)
#
#
# Indices 1 2 3 4 5 6 
#
# 1 18.1242 25.0024 32.1435 0.0000 0.0000 0.0000
# 2 25.0024 176.6142 143.7678 0.0000 0.0000 0.0000
# 3 32.1435 143.7678 213.4480 0.0000 0.0000 0.0000
# 4 0.0000 0.0000 0.0000 -24.1120 0.0000 0.0000
# 5 0.0000 0.0000 0.0000 0.0000 -0.4601 0.0000
# 6 0.0000 0.0000 0.0000 0.0000 0.0000 26.0607
#
#
#
# Elastic Compliance Matrix: (Units=1/GPa)
#
#
# Indices 1 2 3 4 5 6 
#
# 1 0.076087 -0.003197 -0.009305 0.000000 0.000000 0.000000
# 2 -0.003197 0.012669 -0.008052 0.000000 0.000000 0.000000
# 3 -0.009305 -0.008052 0.011509 0.000000 0.000000 0.000000
# 4 0.000000 0.000000 0.000000 -0.041473 0.000000 0.000000
# 5 0.000000 0.000000 0.000000 0.000000 -2.173464 0.000000
# 6 0.000000 0.000000 0.000000 0.000000 0.000000 0.038372
#
#
# Mechanical properties :
#
#
# Convention : Reuss Voigt Hill
#
# Bulk Modulus (GPa) = 16.90371 90.00151 53.45261
# Shear Modulus (GPa) = -2.48081 14.11591 5.81755
#
# Velocity S-wave (km/s) = -1.14246 2.72520 1.74950
# Velocity P-wave (km/s) = 2.67454 7.56664 5.67482
#
# Compressibility (1/GPa) = 0.05915859
#
# Stress axis : x y z
#
# Youngs Moduli (GPa) = 13.14282 78.93362 86.88554
#
# Poissons Ratio (x) = 0.25235 0.80845
# Poissons Ratio (y) = 0.04202 0.69957
# Poissons Ratio (z) = 0.12229 0.63555
#
# Static dielectric constant tensor:
#      x y z
#    x 1.659400 0.000000 0.000000 
#    y 0.000000 1.633790 0.000000 
#    z 0.000000 0.000000 1.639800 
# 
# From -- ./inp_files/10999.got.cif
#   From: 2010.05.17/outbox.cif.g08.bks.cpg/sg35_6_cif.got.tgz:10999.got - 2010.06.03 17:29:28.
