data_PCOD9349838
_publ_section_title
;
Structure prediction by ZEFSAII (Michael W. Deem and Ramdas Pophale) SiO2 
 PCOD9349838
Probable space group: C M M 2
;
_chemical_formula_sum "Si O2"
_cell_formula_units_Z 40
_cell_length_a 29.588822
_cell_length_b 8.770223
_cell_length_c 7.914417
_cell_angle_alpha 90.000000
_cell_angle_beta 90.000000
_cell_angle_gamma 90.000000
_cell_volume 2053.795701
_symmetry_space_group_name_H-M "C M M 2"
_symmetry_group_IT_number 35
_symmetry_cell_setting 'orthorhombic'
loop_
_space_group_symop_operation_xyz
x,y,z
-x,-y,z
-x,y,z
x,-y,z
1/2+x,1/2+y,z
1/2-x,1/2-y,z
1/2-x,1/2+y,z
1/2+x,1/2-y,z
loop_
_atom_site_type_symbol
_atom_site_label
_atom_site_fract_x
_atom_site_fract_y
_atom_site_fract_z
Si Si1 0.950501 0.184322 0.030220
Si Si2 0.051076 0.182532 0.628097
Si Si3 0.854721 0.815808 0.167296
Si Si4 0.800005 0.817274 0.829425
Si Si5 0.856458 0.680462 0.519994
O O1 0.905958 0.237610 0.125894
O O2 0.000000 0.241001 0.085978
O O3 0.951138 0.000000 0.046822
O O4 0.945796 0.213871 0.829524
O O5 0.091324 0.268478 0.537151
O O6 0.000000 0.221138 0.573473
O O7 0.056947 0.000000 0.605181
O O8 0.838920 0.742751 0.341305
O O9 0.855190 0.000000 0.183829
O O10 0.824069 0.776502 0.006386
O O11 0.750000 0.750000 0.822176
O O12 0.829710 0.754935 0.675198
O O13 0.798613 0.000000 0.818768
O O14 0.852450 0.500000 0.528523
#
# Coordination Sequence:
#
# PCOD9349838 Si02
#       5
#     8   8   8   8   8
#     4   8  14  29  57  89 117 152 201 251 297 348
#     4   9  17  34  61  89 120 163 213 257 300 356
#     4  10  21  39  64  91 122 160 206 256 301 359
#     4  11  24  45  70  93 119 155 202 257 314 369
#     4  12  25  39  60  92 132 168 202 248 304 369
#
# _framework density 19.476133000000001
#
# number of rings (size 3 to 8) (size 9 to 14) (size 15 to 20)
#    0.000    2.000    2.000    3.600    0.000    3.600 
#    0.000    4.000    0.000    0.000    0.000    0.000 
#    0.000    0.000    0.000    0.000    0.000    0.000 
#
# Total GULP energy -111722.998742 kJ/mol
# GULP energy per Si atom -5586.149937 kJ/mol
# Density = 1.943180 g / cm^3
# Si number density = 19.476133 Si / 1000 Ang^3
#
#
#
# Elastic Constant Matrix: (Units=GPa)
#
#
# Indices 1 2 3 4 5 6 
#
# 1 117.1607 46.0597 68.7115 0.0000 0.0000 0.0000
# 2 46.0597 52.1824 57.4244 0.0000 0.0000 0.0000
# 3 68.7115 57.4244 140.8920 0.0000 0.0000 0.0000
# 4 0.0000 0.0000 0.0000 3.3792 0.0000 0.0000
# 5 0.0000 0.0000 0.0000 0.0000 -4.4790 0.0000
# 6 0.0000 0.0000 0.0000 0.0000 0.0000 23.6438
#
#
#
# Elastic Compliance Matrix: (Units=1/GPa)
#
#
# Indices 1 2 3 4 5 6 
#
# 1 0.013827 -0.008675 -0.003208 0.000000 0.000000 0.000000
# 2 -0.008675 0.040192 -0.012151 0.000000 0.000000 0.000000
# 3 -0.003208 -0.012151 0.013614 0.000000 0.000000 0.000000
# 4 0.000000 0.000000 0.000000 0.295925 0.000000 0.000000
# 5 0.000000 0.000000 0.000000 0.000000 -0.223266 0.000000
# 6 0.000000 0.000000 0.000000 0.000000 0.000000 0.042294
#
#
# Mechanical properties :
#
#
# Convention : Reuss Voigt Hill
#
# Bulk Modulus (GPa) = 51.10670 72.73624 61.92147
# Shear Modulus (GPa) = 21.08155 13.71146 17.39651
#
# Velocity S-wave (km/s) = 3.29360 2.65620 2.99192
# Velocity P-wave (km/s) = 6.38446 6.84358 6.61801
#
# Compressibility (1/GPa) = 0.01956691
#
# Stress axis : x y z
#
# Youngs Moduli (GPa) = 72.32389 24.88082 73.45237
#
# Poissons Ratio (x) = 0.21583 0.23560
# Poissons Ratio (y) = 0.62738 0.89250
# Poissons Ratio (z) = 0.23198 0.30232
#
# Static dielectric constant tensor:
#      x y z
#    x 1.684200 0.000000 0.000000 
#    y 0.000000 1.649440 0.000000 
#    z 0.000000 0.000000 1.681700 
# 
# From -- ./inp_files/4983.got.cif
#   From: 2010.05.17/outbox.cif.g08.bks.cpg/sg35_3_cif.got.tgz:4983.got - 2010.06.03 17:29:28.
