data_PCOD9349774
_publ_section_title
;
Structure prediction by ZEFSAII (Michael W. Deem and Ramdas Pophale) SiO2 
 PCOD9349774
Probable space group: C M M 2
;
_chemical_formula_sum "Si O2"
_cell_formula_units_Z 64
_cell_length_a 29.561906
_cell_length_b 8.772674
_cell_length_c 12.601011
_cell_angle_alpha 90.000000
_cell_angle_beta 90.000000
_cell_angle_gamma 90.000000
_cell_volume 3267.907938
_symmetry_space_group_name_H-M "C M M 2"
_symmetry_group_IT_number 35
_symmetry_cell_setting 'orthorhombic'
loop_
_space_group_symop_operation_xyz
x,y,z
-x,-y,z
-x,y,z
x,-y,z
1/2+x,1/2+y,z
1/2-x,1/2-y,z
1/2-x,1/2+y,z
1/2+x,1/2-y,z
loop_
_atom_site_type_symbol
_atom_site_label
_atom_site_fract_x
_atom_site_fract_y
_atom_site_fract_z
Si Si1 0.800790 0.317613 0.780920
Si Si2 0.372864 0.819514 0.155666
Si Si3 0.554029 0.678346 0.007061
Si Si4 0.374064 0.682854 0.389709
Si Si5 0.447372 0.317336 0.563275
Si Si6 0.055021 0.327478 0.785362
Si Si7 0.300618 0.318122 0.998081
Si Si8 0.800519 0.317025 0.544998
O O1 0.799226 0.500000 0.793851
O O2 0.750000 0.250000 0.777759
O O3 0.819553 0.283043 0.663802
O O4 0.821022 0.243238 0.886388
O O5 0.417878 0.775290 0.090863
O O6 0.375967 0.757901 0.274815
O O7 0.331809 0.739233 0.093232
O O8 0.366068 0.000000 0.154974
O O9 0.500000 0.700309 0.018804
O O10 0.564184 0.500000 0.022306
O O11 0.566793 0.728448 0.887825
O O12 0.372597 0.500000 0.379224
O O13 0.417078 0.724665 0.462842
O O14 0.331094 0.741939 0.455524
O O15 0.500000 0.276919 0.546395
O O16 0.444831 0.500000 0.577208
O O17 0.431294 0.240204 0.672275
O O18 0.072014 0.500000 0.797999
O O19 0.000000 0.331285 0.783302
O O20 0.298154 0.500000 0.995132
O O21 0.250000 0.250000 0.008377
O O22 0.799096 0.500000 0.533757
O O23 0.750000 0.250000 0.539242
#
# Coordination Sequence:
#
# PCOD9349774 Si02
#       8
#     8   8   8   8   8   8   8   8
#     4   9  17  32  56  87 120 152 189 234 287 347
#     4  12  26  43  61  84 116 153 199 248 293 345
#     4  10  21  39  63  89 119 155 194 238 291 349
#     4  11  24  41  60  84 114 151 199 246 289 343
#     4   9  19  37  60  85 116 154 193 236 287 343
#     4   9  17  31  55  88 122 153 189 235 287 343
#     4  11  22  39  63  90 121 155 194 239 292 349
#     4  10  21  38  61  88 119 154 191 235 288 344
#
# _framework density 19.584395000000001
#
# number of rings (size 3 to 8) (size 9 to 14) (size 15 to 20)
#    0.000    1.875    0.000    4.875    0.000    6.750 
#    0.000    6.250    0.000    0.000    0.000    0.000 
#    0.000    0.000    0.000    0.000    0.000    0.000 
#
# Total GULP energy -178829.134389 kJ/mol
# GULP energy per Si atom -5588.410450 kJ/mol
# Density = 1.953982 g / cm^3
# Si number density = 19.584395 Si / 1000 Ang^3
#
#
#
# Elastic Constant Matrix: (Units=GPa)
#
#
# Indices 1 2 3 4 5 6 
#
# 1 72.8357 34.6309 46.2516 0.0000 0.0000 0.0000
# 2 34.6309 110.2843 65.3724 0.0000 0.0000 0.0000
# 3 46.2516 65.3724 167.6441 0.0000 0.0000 0.0000
# 4 0.0000 0.0000 0.0000 38.2852 0.0000 0.0000
# 5 0.0000 0.0000 0.0000 0.0000 33.9701 0.0000
# 6 0.0000 0.0000 0.0000 0.0000 0.0000 23.7356
#
#
#
# Elastic Compliance Matrix: (Units=1/GPa)
#
#
# Indices 1 2 3 4 5 6 
#
# 1 0.017597 -0.003444 -0.003512 0.000000 0.000000 0.000000
# 2 -0.003444 0.012468 -0.003912 0.000000 0.000000 0.000000
# 3 -0.003512 -0.003912 0.008459 0.000000 0.000000 0.000000
# 4 0.000000 0.000000 0.000000 0.026120 0.000000 0.000000
# 5 0.000000 0.000000 0.000000 0.000000 0.029438 0.000000
# 6 0.000000 0.000000 0.000000 0.000000 0.000000 0.042131
#
#
# Mechanical properties :
#
#
# Convention : Reuss Voigt Hill
#
# Bulk Modulus (GPa) = 59.56278 71.47486 65.51882
# Shear Modulus (GPa) = 30.57294 32.83214 31.70254
#
# Velocity S-wave (km/s) = 3.95535 4.09888 4.02775
# Velocity P-wave (km/s) = 7.16513 7.67959 7.42682
#
# Compressibility (1/GPa) = 0.01678901
#
# Stress axis : x y z
#
# Youngs Moduli (GPa) = 56.82734 80.20829 118.21440
#
# Poissons Ratio (x) = 0.27624 0.41516
# Poissons Ratio (y) = 0.19572 0.46240
# Poissons Ratio (z) = 0.19957 0.31374
#
# Static dielectric constant tensor:
#      x y z
#    x 1.698220 0.000000 0.000000 
#    y 0.000000 1.656340 0.000000 
#    z 0.000000 0.000000 1.662170 
# 
# From -- ./inp_files/14605.got.cif
#   From: 2010.05.17/outbox.cif.g08.bks.cpg/sg35_8_cif.got.tgz:14605.got - 2010.06.03 17:29:28.
