data_PCOD9349584
_publ_section_title
;
Structure prediction by ZEFSAII (Michael W. Deem and Ramdas Pophale) SiO2 
 PCOD9349584
Probable space group: C M M 2
;
_chemical_formula_sum "Si O2"
_cell_formula_units_Z 48
_cell_length_a 32.768460
_cell_length_b 14.610654
_cell_length_c 5.084614
_cell_angle_alpha 90.000000
_cell_angle_beta 90.000000
_cell_angle_gamma 90.000000
_cell_volume 2434.353685
_symmetry_space_group_name_H-M "C M M 2"
_symmetry_group_IT_number 35
_symmetry_cell_setting 'orthorhombic'
loop_
_space_group_symop_operation_xyz
x,y,z
-x,-y,z
-x,y,z
x,-y,z
1/2+x,1/2+y,z
1/2-x,1/2-y,z
1/2-x,1/2+y,z
1/2+x,1/2-y,z
loop_
_atom_site_type_symbol
_atom_site_label
_atom_site_fract_x
_atom_site_fract_y
_atom_site_fract_z
Si Si1 0.633840 0.229241 0.932190
Si Si2 0.841530 0.392854 0.433311
Si Si3 0.252773 0.358926 0.342942
Si Si4 0.547692 0.099521 0.282480
Si Si5 0.305482 0.398735 0.852834
Si Si6 0.952165 0.712063 0.777109
O O1 0.645629 0.159510 0.698097
O O2 0.664168 0.315623 0.920353
O O3 0.587389 0.265724 0.885846
O O4 0.640018 0.167913 0.193888
O O5 0.852492 0.500000 0.432054
O O6 0.792528 0.391121 0.407377
O O7 0.250000 0.250000 0.328141
O O8 0.284924 0.384836 0.568936
O O9 0.269341 0.394398 0.066395
O O10 0.500000 0.092467 0.344092
O O11 0.559345 0.178849 0.485400
O O12 0.565675 0.000000 0.330598
O O13 0.549875 0.126234 0.977907
O O14 0.324597 0.500000 0.864780
O O15 0.000000 0.745200 0.787048
#
# Coordination Sequence:
#
# PCOD9349584 Si02
#       6
#     8   8   8   8   8   8
#     4  12  24  40  58  85 121 152 197 251 285 343
#     4  12  25  39  59  88 123 159 190 232 293 349
#     4  12  22  43  64  87 123 157 193 241 285 346
#     4   9  17  30  49  73 100 136 185 230 271 336
#     4  12  24  41  65  89 117 158 200 242 291 341
#     4  10  21  35  53  75 105 148 189 234 294 339
#
# _framework density 19.717759000000001
#
# number of rings (size 3 to 8) (size 9 to 14) (size 15 to 20)
#    0.000    0.833    3.333    5.000    0.000    6.000 
#    0.000    0.000    0.000    0.500    0.000    0.000 
#    0.000    9.333    0.000    0.000    0.000    1.333 
#
# Total GULP energy -133922.849767 kJ/mol
# GULP energy per Si atom -5580.118740 kJ/mol
# Density = 1.967288 g / cm^3
# Si number density = 19.717759 Si / 1000 Ang^3
#
#
#
# Elastic Constant Matrix: (Units=GPa)
#
#
# Indices 1 2 3 4 5 6 
#
# 1 111.1957 24.1189 -9.8207 0.0000 0.0000 0.0000
# 2 24.1189 115.5722 20.9507 0.0000 0.0000 0.0000
# 3 -9.8207 20.9507 92.9391 0.0000 0.0000 0.0000
# 4 0.0000 0.0000 0.0000 62.2353 0.0000 0.0000
# 5 0.0000 0.0000 0.0000 0.0000 24.3335 0.0000
# 6 0.0000 0.0000 0.0000 0.0000 0.0000 -22.0262
#
#
#
# Elastic Compliance Matrix: (Units=1/GPa)
#
#
# Indices 1 2 3 4 5 6 
#
# 1 0.009624 -0.002286 0.001532 0.000000 0.000000 0.000000
# 2 -0.002286 0.009564 -0.002398 0.000000 0.000000 0.000000
# 3 0.001532 -0.002398 0.011462 0.000000 0.000000 0.000000
# 4 0.000000 0.000000 0.000000 0.016068 0.000000 0.000000
# 5 0.000000 0.000000 0.000000 0.000000 0.041096 0.000000
# 6 0.000000 0.000000 0.000000 0.000000 0.000000 -0.045400
#
#
# Mechanical properties :
#
#
# Convention : Reuss Voigt Hill
#
# Bulk Modulus (GPa) = 41.07147 43.35607 42.21377
# Shear Modulus (GPa) = 87.97677 31.87238 59.92457
#
# Velocity S-wave (km/s) = 6.68692 4.02485 5.51880
# Velocity P-wave (km/s) = 8.97189 6.60570 7.87814
#
# Compressibility (1/GPa) = 0.02434780
#
# Stress axis : x y z
#
# Youngs Moduli (GPa) = 103.90245 104.55467 87.24373
#
# Poissons Ratio (x) = 0.23905 -0.13369
# Poissons Ratio (y) = 0.23755 0.20918
# Poissons Ratio (z) = -0.15922 0.25068
#
# Static dielectric constant tensor:
#      x y z
#    x 1.773120 0.000000 0.000000 
#    y 0.000000 1.672050 0.000000 
#    z 0.000000 0.000000 1.683080 
# 
# From -- ./inp_files/3997.got.cif
#   From: 2010.05.17/outbox.cif.g08.bks.cpg/sg35_2_cif.got.tgz:3997.got - 2010.06.03 17:29:28.
