data_PCOD9349024
_publ_section_title
;
Structure prediction by ZEFSAII (Michael W. Deem and Ramdas Pophale) SiO2 
 PCOD9349024
Probable space group: C M M 2
;
_chemical_formula_sum "Si O2"
_cell_formula_units_Z 40
_cell_length_a 8.834205
_cell_length_b 18.991278
_cell_length_c 13.278821
_cell_angle_alpha 90.000000
_cell_angle_beta 90.000000
_cell_angle_gamma 90.000000
_cell_volume 2227.825552
_symmetry_space_group_name_H-M "C M M 2"
_symmetry_group_IT_number 35
_symmetry_cell_setting 'orthorhombic'
loop_
_space_group_symop_operation_xyz
x,y,z
-x,-y,z
-x,y,z
x,-y,z
1/2+x,1/2+y,z
1/2-x,1/2-y,z
1/2-x,1/2+y,z
1/2+x,1/2-y,z
loop_
_atom_site_type_symbol
_atom_site_label
_atom_site_fract_x
_atom_site_fract_y
_atom_site_fract_z
Si Si1 0.319300 0.172097 0.150650
Si Si2 0.819902 0.172346 0.361095
Si Si3 0.674956 0.414452 0.745889
Si Si4 0.318029 0.583532 0.970624
Si Si5 0.176822 0.584475 0.538038
O O1 0.500000 0.176043 0.156987
O O2 0.250000 0.250000 0.137348
O O3 0.251775 0.144907 0.256552
O O4 0.266451 0.124790 0.057823
O O5 0.750000 0.250000 0.377229
O O6 0.773982 0.123313 0.453763
O O7 0.000000 0.177620 0.350805
O O8 0.500000 0.393058 0.731182
O O9 0.676179 0.500000 0.748520
O O10 0.772905 0.392777 0.650164
O O11 0.725782 0.392190 0.857517
O O12 0.500000 0.593050 0.979429
O O13 0.288080 0.500000 0.978687
O O14 0.198459 0.500000 0.531437
O O15 0.000000 0.599726 0.522179
#
# Coordination Sequence:
#
# PCOD9349024 Si02
#       5
#     8   8   8   8   8
#     4  11  22  37  56  77 105 139 176 217 263 315
#     4  11  22  38  58  77 103 138 176 217 264 317
#     4   8  15  30  52  77 106 140 175 212 258 309
#     4   9  18  34  56  81 109 140 175 215 259 309
#     4  10  20  34  54  81 111 140 174 216 259 307
#
# _framework density 17.954726999999998
#
# number of rings (size 3 to 8) (size 9 to 14) (size 15 to 20)
#    0.000    2.200    0.000    6.600    0.000    3.200 
#    0.000    3.000    0.000    4.800    0.000    0.000 
#    0.000    0.000    0.000    0.000    0.000    0.000 
#
# Total GULP energy -111611.604497 kJ/mol
# GULP energy per Si atom -5580.580225 kJ/mol
# Density = 1.791386 g / cm^3
# Si number density = 17.954727 Si / 1000 Ang^3
#
#
#
# Elastic Constant Matrix: (Units=GPa)
#
#
# Indices 1 2 3 4 5 6 
#
# 1 124.7505 39.3796 81.2624 0.0000 0.0000 0.0000
# 2 39.3796 23.0588 44.9964 0.0000 0.0000 0.0000
# 3 81.2624 44.9964 156.4932 0.0000 0.0000 0.0000
# 4 0.0000 0.0000 0.0000 188.6870 0.0000 0.0000
# 5 0.0000 0.0000 0.0000 0.0000 34.1131 0.0000
# 6 0.0000 0.0000 0.0000 0.0000 0.0000 24.1030
#
#
#
# Elastic Compliance Matrix: (Units=1/GPa)
#
#
# Indices 1 2 3 4 5 6 
#
# 1 0.017478 -0.027655 -0.001124 0.000000 0.000000 0.000000
# 2 -0.027655 0.142563 -0.026630 0.000000 0.000000 0.000000
# 3 -0.001124 -0.026630 0.014631 0.000000 0.000000 0.000000
# 4 0.000000 0.000000 0.000000 0.005300 0.000000 0.000000
# 5 0.000000 0.000000 0.000000 0.000000 0.029314 0.000000
# 6 0.000000 0.000000 0.000000 0.000000 0.000000 0.041489
#
#
# Mechanical properties :
#
#
# Convention : Reuss Voigt Hill
#
# Bulk Modulus (GPa) = 15.66122 70.61992 43.14057
# Shear Modulus (GPa) = 13.05898 58.62489 35.84194
#
# Velocity S-wave (km/s) = 2.69983 5.72035 4.47278
# Velocity P-wave (km/s) = 4.29655 9.11304 7.12418
#
# Compressibility (1/GPa) = 0.06385198
#
# Stress axis : x y z
#
# Youngs Moduli (GPa) = 57.21414 7.01445 68.34894
#
# Poissons Ratio (x) = 0.19399 0.07684
# Poissons Ratio (y) = 1.58228 1.82015
# Poissons Ratio (z) = 0.06432 0.18680
#
# Static dielectric constant tensor:
#      x y z
#    x 1.599400 0.000000 0.000000 
#    y 0.000000 1.590710 0.000000 
#    z 0.000000 0.000000 1.620300 
# 
# From -- ./inp_files/9649.got.cif
#   From: 2010.05.17/outbox.cif.g08.bks.cpg/sg35_5_cif.got.tgz:9649.got - 2010.06.03 17:29:28.
