data_PCOD9349668
_publ_section_title
;
Structure prediction by ZEFSAII (Michael W. Deem and Ramdas Pophale) SiO2 
 PCOD9349668
Probable space group: C M M 2
;
_chemical_formula_sum "Si O2"
_cell_formula_units_Z 56
_cell_length_a 7.898745
_cell_length_b 19.092827
_cell_length_c 18.943132
_cell_angle_alpha 90.000000
_cell_angle_beta 90.000000
_cell_angle_gamma 90.000000
_cell_volume 2856.801837
_symmetry_space_group_name_H-M "C M M 2"
_symmetry_group_IT_number 35
_symmetry_cell_setting 'orthorhombic'
loop_
_space_group_symop_operation_xyz
x,y,z
-x,-y,z
-x,y,z
x,-y,z
1/2+x,1/2+y,z
1/2-x,1/2-y,z
1/2-x,1/2+y,z
1/2+x,1/2-y,z
loop_
_atom_site_type_symbol
_atom_site_label
_atom_site_fract_x
_atom_site_fract_y
_atom_site_fract_z
Si Si1 0.295135 0.080562 0.844940
Si Si2 0.798365 0.578971 0.115831
Si Si3 0.796059 0.669087 0.404349
Si Si4 0.803067 0.414742 0.691064
Si Si5 0.199161 0.831182 0.981182
Si Si6 0.295424 0.168800 0.247006
Si Si7 0.292307 0.081349 0.537974
O O1 0.500000 0.078438 0.840716
O O2 0.229793 0.104319 0.767548
O O3 0.247692 0.131518 0.908003
O O4 0.239055 0.000000 0.858235
O O5 0.730244 0.500000 0.107987
O O6 0.729752 0.619905 0.184264
O O7 0.000000 0.573151 0.126245
O O8 0.774307 0.625092 0.046119
O O9 0.750000 0.750000 0.414120
O O10 0.735282 0.648497 0.325787
O O11 0.732791 0.624547 0.470534
O O12 0.000000 0.662642 0.403797
O O13 0.801982 0.500000 0.690094
O O14 0.731074 0.392685 0.615131
O O15 0.000000 0.392582 0.691509
O O16 0.250000 0.750000 0.982360
O O17 0.000000 0.834785 0.989295
O O18 0.500000 0.164871 0.247461
O O19 0.250000 0.250000 0.234603
O O20 0.500000 0.083820 0.539896
O O21 0.245929 0.000000 0.530261
#
# Coordination Sequence:
#
# PCOD9349668 Si02
#       7
#     8   8   8   8   8   8   8
#     4   9  17  32  55  79 103 132 166 205 250 299
#     4  10  21  37  56  78 104 131 161 201 249 299
#     4   9  17  29  46  69  98 131 165 202 243 287
#     4   7  11  22  43  71  99 127 160 198 241 288
#     4  12  25  39  55  75 101 132 167 205 247 297
#     4   9  18  32  50  72  98 131 167 201 242 291
#     4   8  13  23  43  71  98 125 163 207 243 279
#
# _framework density 19.602339000000001
#
# number of rings (size 3 to 8) (size 9 to 14) (size 15 to 20)
#    0.000    2.857    0.000    3.857    0.000    4.571 
#    0.000    3.571    0.000    3.000    0.000    6.000 
#    0.000    0.000    0.000    0.000    0.000    0.000 
#
# Total GULP energy -156067.806573 kJ/mol
# GULP energy per Si atom -5573.850235 kJ/mol
# Density = 1.955772 g / cm^3
# Si number density = 19.602339 Si / 1000 Ang^3
#
#
#
# Elastic Constant Matrix: (Units=GPa)
#
#
# Indices 1 2 3 4 5 6 
#
# 1 21.1415 1.8179 0.6846 0.0000 0.0000 0.0000
# 2 1.8179 106.4298 109.5105 0.0000 0.0000 0.0000
# 3 0.6846 109.5105 215.7853 0.0000 0.0000 0.0000
# 4 0.0000 0.0000 0.0000 84.5122 0.0000 0.0000
# 5 0.0000 0.0000 0.0000 0.0000 -21.5283 0.0000
# 6 0.0000 0.0000 0.0000 0.0000 0.0000 16.9321
#
#
#
# Elastic Compliance Matrix: (Units=1/GPa)
#
#
# Indices 1 2 3 4 5 6 
#
# 1 0.047401 -0.001371 0.000545 0.000000 0.000000 0.000000
# 2 -0.001371 0.019704 -0.009995 0.000000 0.000000 0.000000
# 3 0.000545 -0.009995 0.009705 0.000000 0.000000 0.000000
# 4 0.000000 0.000000 0.000000 0.011833 0.000000 0.000000
# 5 0.000000 0.000000 0.000000 0.000000 -0.046450 0.000000
# 6 0.000000 0.000000 0.000000 0.000000 0.000000 0.059059
#
#
# Mechanical properties :
#
#
# Convention : Reuss Voigt Hill
#
# Bulk Modulus (GPa) = 18.12642 63.04251 40.58447
# Shear Modulus (GPa) = 35.39018 31.40611 33.39814
#
# Velocity S-wave (km/s) = 4.25362 4.00704 4.13217
# Velocity P-wave (km/s) = 5.77854 7.32387 6.59661
#
# Compressibility (1/GPa) = 0.05516809
#
# Stress axis : x y z
#
# Youngs Moduli (GPa) = 21.09681 50.75119 103.03823
#
# Poissons Ratio (x) = 0.06956 -0.05617
# Poissons Ratio (y) = 0.02892 1.02991
# Poissons Ratio (z) = -0.01150 0.50728
#
# Static dielectric constant tensor:
#      x y z
#    x 1.718060 0.000000 0.000000 
#    y 0.000000 1.629790 0.000000 
#    z 0.000000 0.000000 1.740140 
# 
# From -- ./inp_files/18186.got.cif
#   From: 2010.05.17/outbox.cif.g08.bks.cpg/sg35_10_cif.got.tgz:18186.got - 2010.06.03 17:29:28.
