data_PCOD9349122
_publ_section_title
;
Structure prediction by ZEFSAII (Michael W. Deem and Ramdas Pophale) SiO2 
 PCOD9349122
Probable space group: C M M 2
;
_chemical_formula_sum "Si O2"
_cell_formula_units_Z 48
_cell_length_a 31.370795
_cell_length_b 8.630832
_cell_length_c 9.685948
_cell_angle_alpha 90.000000
_cell_angle_beta 90.000000
_cell_angle_gamma 90.000000
_cell_volume 2622.529131
_symmetry_space_group_name_H-M "C M M 2"
_symmetry_group_IT_number 35
_symmetry_cell_setting 'orthorhombic'
loop_
_space_group_symop_operation_xyz
x,y,z
-x,-y,z
-x,y,z
x,-y,z
1/2+x,1/2+y,z
1/2-x,1/2-y,z
1/2-x,1/2+y,z
1/2+x,1/2-y,z
loop_
_atom_site_type_symbol
_atom_site_label
_atom_site_fract_x
_atom_site_fract_y
_atom_site_fract_z
Si Si1 0.125274 0.811949 0.069310
Si Si2 0.548210 0.311368 0.262990
Si Si3 0.625975 0.815901 0.760498
Si Si4 0.296770 0.686068 0.579567
Si Si5 0.049525 0.813097 0.580432
Si Si6 0.203681 0.813455 0.260668
O O1 0.083491 0.760661 0.154329
O O2 0.166637 0.763203 0.157270
O O3 0.124963 0.000000 0.063636
O O4 0.125971 0.747796 0.915738
O O5 0.500000 0.260614 0.230494
O O6 0.548091 0.500000 0.262170
O O7 0.558375 0.267136 0.421100
O O8 0.666343 0.749147 0.677203
O O9 0.583182 0.762088 0.682368
O O10 0.628380 0.000000 0.761753
O O11 0.296270 0.500000 0.586024
O O12 0.250000 0.750000 0.616601
O O13 0.305222 0.732840 0.419689
O O14 0.000000 0.775141 0.610159
O O15 0.053657 0.000000 0.588670
O O16 0.250000 0.750000 0.221966
O O17 0.205086 0.000000 0.258610
#
# Coordination Sequence:
#
# PCOD9349122 Si02
#       6
#     8   8   8   8   8   8
#     4  10  20  35  54  78 109 144 180 221 270 322
#     4   8  15  31  58  86 105 128 173 228 276 325
#     4  12  25  37  51  78 116 154 187 222 268 321
#     4  10  20  38  62  86 110 139 180 227 275 326
#     4   9  18  36  62  86 107 138 182 230 278 327
#     4   9  19  35  58  83 106 135 175 224 272 321
#
# _framework density 18.302942999999999
#
# number of rings (size 3 to 8) (size 9 to 14) (size 15 to 20)
#    0.000    2.333    0.000    4.000    0.000    5.667 
#    0.000    5.833    0.000    1.000    0.000    0.000 
#    0.000    0.000    0.000    0.000    0.000    0.000 
#
# Total GULP energy -133989.786090 kJ/mol
# GULP energy per Si atom -5582.907754 kJ/mol
# Density = 1.826128 g / cm^3
# Si number density = 18.302943 Si / 1000 Ang^3
#
#
#
# Elastic Constant Matrix: (Units=GPa)
#
#
# Indices 1 2 3 4 5 6 
#
# 1 171.7780 50.7094 140.0582 0.0000 0.0000 0.0000
# 2 50.7094 41.5862 44.1699 0.0000 0.0000 0.0000
# 3 140.0582 44.1699 158.5682 0.0000 0.0000 0.0000
# 4 0.0000 0.0000 0.0000 11.1429 0.0000 0.0000
# 5 0.0000 0.0000 0.0000 0.0000 -9.9297 0.0000
# 6 0.0000 0.0000 0.0000 0.0000 0.0000 28.4794
#
#
#
# Elastic Compliance Matrix: (Units=1/GPa)
#
#
# Indices 1 2 3 4 5 6 
#
# 1 0.023043 -0.009203 -0.017789 0.000000 0.000000 0.000000
# 2 -0.009203 0.037826 -0.002408 0.000000 0.000000 0.000000
# 3 -0.017789 -0.002408 0.022690 0.000000 0.000000 0.000000
# 4 0.000000 0.000000 0.000000 0.089743 0.000000 0.000000
# 5 0.000000 0.000000 0.000000 0.000000 -0.100707 0.000000
# 6 0.000000 0.000000 0.000000 0.000000 0.000000 0.035113
#
#
# Mechanical properties :
#
#
# Convention : Reuss Voigt Hill
#
# Bulk Modulus (GPa) = 40.39083 93.53416 66.96250
# Shear Modulus (GPa) = 28.61070 15.07151 21.84110
#
# Velocity S-wave (km/s) = 3.95799 2.87269 3.45818
# Velocity P-wave (km/s) = 6.55770 7.88780 7.25330
#
# Compressibility (1/GPa) = 0.02475809
#
# Stress axis : x y z
#
# Youngs Moduli (GPa) = 43.39785 26.43686 44.07289
#
# Poissons Ratio (x) = 0.24331 0.78402
# Poissons Ratio (y) = 0.39940 0.10611
# Poissons Ratio (z) = 0.77201 0.06365
#
# Static dielectric constant tensor:
#      x y z
#    x 1.613980 0.000000 0.000000 
#    y 0.000000 1.620010 0.000000 
#    z 0.000000 0.000000 1.603520 
# 
# From -- ./inp_files/5279.got.cif
#   From: 2010.05.17/outbox.cif.g08.bks.cpg/sg35_3_cif.got.tgz:5279.got - 2010.06.03 17:29:28.
