data_PCOD9349943
_publ_section_title
;
Structure prediction by ZEFSAII (Michael W. Deem and Ramdas Pophale) SiO2 
 PCOD9349943
Probable space group: C M M 2
;
_chemical_formula_sum "Si O2"
_cell_formula_units_Z 64
_cell_length_a 23.617530
_cell_length_b 14.586870
_cell_length_c 9.052069
_cell_angle_alpha 90.000000
_cell_angle_beta 90.000000
_cell_angle_gamma 90.000000
_cell_volume 3118.490633
_symmetry_space_group_name_H-M "C M M 2"
_symmetry_group_IT_number 35
_symmetry_cell_setting 'orthorhombic'
loop_
_space_group_symop_operation_xyz
x,y,z
-x,-y,z
-x,y,z
x,-y,z
1/2+x,1/2+y,z
1/2-x,1/2-y,z
1/2-x,1/2+y,z
1/2+x,1/2-y,z
loop_
_atom_site_type_symbol
_atom_site_label
_atom_site_fract_x
_atom_site_fract_y
_atom_site_fract_z
Si Si1 0.756140 0.359142 0.446400
Si Si2 0.566743 0.227486 0.468151
Si Si3 0.763987 0.601055 0.102729
Si Si4 0.637242 0.893898 0.659710
Si Si5 0.136901 0.899866 0.588274
Si Si6 0.133920 0.697904 0.970090
Si Si7 0.432279 0.897920 0.203501
Si Si8 0.642373 0.601590 0.943421
O O1 0.750000 0.250000 0.442123
O O2 0.757295 0.393717 0.278555
O O3 0.811287 0.383589 0.542913
O O4 0.700001 0.395623 0.524813
O O5 0.500000 0.246380 0.462277
O O6 0.581373 0.146637 0.582983
O O7 0.601141 0.316720 0.519448
O O8 0.587015 0.182827 0.313661
O O9 0.788055 0.500000 0.064502
O O10 0.807751 0.678651 0.055669
O O11 0.705020 0.607056 0.014648
O O12 0.646758 0.830697 0.802512
O O13 0.632325 0.000000 0.700383
O O14 0.142411 0.893957 0.765538
O O15 0.111751 0.000000 0.552418
O O16 0.113894 0.802636 0.988892
O O17 0.088985 0.629420 0.042506
O O18 0.500000 0.899568 0.210581
O O19 0.411639 0.000000 0.246395
O O20 0.619491 0.500000 0.985059
#
# Coordination Sequence:
#
# PCOD9349943 Si02
#       8
#     8   8   8   8   8   8   8   8
#     4  12  22  39  62  95 133 170 212 261 317 379
#     4  11  24  44  66  92 123 165 215 269 324 380
#     4  11  23  36  57  93 131 169 207 250 307 380
#     4  12  24  39  63  96 131 166 207 264 321 385
#     4  11  23  43  66  93 128 170 213 265 321 376
#     4  12  22  40  61  92 127 167 211 251 310 382
#     4  10  23  43  66  91 124 164 207 261 323 383
#     4  10  22  40  60  87 126 168 208 253 309 367
#
# _framework density 20.522748
#
# number of rings (size 3 to 8) (size 9 to 14) (size 15 to 20)
#    0.000    0.875    2.500    5.250    1.750    2.500 
#    0.000    0.000    0.000    1.125    0.000    0.000 
#    0.000    0.000    0.000    0.000    0.000    0.000 
#
# Total GULP energy -178772.795695 kJ/mol
# GULP energy per Si atom -5586.649865 kJ/mol
# Density = 2.047604 g / cm^3
# Si number density = 20.522748 Si / 1000 Ang^3
#
#
#
# Elastic Constant Matrix: (Units=GPa)
#
#
# Indices 1 2 3 4 5 6 
#
# 1 29.0640 9.7184 24.9795 0.0000 0.0000 0.0000
# 2 9.7184 167.4352 26.6178 0.0000 0.0000 0.0000
# 3 24.9795 26.6178 73.3905 0.0000 0.0000 0.0000
# 4 0.0000 0.0000 0.0000 30.1196 0.0000 0.0000
# 5 0.0000 0.0000 0.0000 0.0000 17.3782 0.0000
# 6 0.0000 0.0000 0.0000 0.0000 0.0000 12.1170
#
#
#
# Elastic Compliance Matrix: (Units=1/GPa)
#
#
# Indices 1 2 3 4 5 6 
#
# 1 0.048640 -0.000203 -0.016482 0.000000 0.000000 0.000000
# 2 -0.000203 0.006339 -0.002230 0.000000 0.000000 0.000000
# 3 -0.016482 -0.002230 0.020044 0.000000 0.000000 0.000000
# 4 0.000000 0.000000 0.000000 0.033201 0.000000 0.000000
# 5 0.000000 0.000000 0.000000 0.000000 0.057543 0.000000
# 6 0.000000 0.000000 0.000000 0.000000 0.000000 0.082528
#
#
# Mechanical properties :
#
#
# Convention : Reuss Voigt Hill
#
# Bulk Modulus (GPa) = 26.88613 43.61347 35.24980
# Shear Modulus (GPa) = 16.74911 25.82789 21.28850
#
# Velocity S-wave (km/s) = 2.85989 3.55138 3.22423
# Velocity P-wave (km/s) = 4.90249 6.17364 5.57442
#
# Compressibility (1/GPa) = 0.03719390
#
# Stress axis : x y z
#
# Youngs Moduli (GPa) = 20.55910 157.76008 49.88949
#
# Poissons Ratio (x) = 0.03203 0.82227
# Poissons Ratio (y) = 0.00417 0.11125
# Poissons Ratio (z) = 0.33885 0.35178
#
# Static dielectric constant tensor:
#      x y z
#    x 1.699790 0.000000 0.000000 
#    y 0.000000 1.776910 0.000000 
#    z 0.000000 0.000000 1.743720 
# 
# From -- ./inp_files/9892.got.cif
#   From: 2010.05.17/outbox.cif.g08.bks.cpg/sg35_5_cif.got.tgz:9892.got - 2010.06.03 17:29:28.
