data_PCOD9349190
_publ_section_title
;
Structure prediction by ZEFSAII (Michael W. Deem and Ramdas Pophale) SiO2 
 PCOD9349190
Probable space group: C M M 2
;
_chemical_formula_sum "Si O2"
_cell_formula_units_Z 64
_cell_length_a 8.544047
_cell_length_b 19.031639
_cell_length_c 20.965329
_cell_angle_alpha 90.000000
_cell_angle_beta 90.000000
_cell_angle_gamma 90.000000
_cell_volume 3409.113825
_symmetry_space_group_name_H-M "C M M 2"
_symmetry_group_IT_number 35
_symmetry_cell_setting 'orthorhombic'
loop_
_space_group_symop_operation_xyz
x,y,z
-x,-y,z
-x,y,z
x,-y,z
1/2+x,1/2+y,z
1/2-x,1/2-y,z
1/2-x,1/2+y,z
1/2+x,1/2-y,z
loop_
_atom_site_type_symbol
_atom_site_label
_atom_site_fract_x
_atom_site_fract_y
_atom_site_fract_z
Si Si1 0.688247 0.671203 0.055230
Si Si2 0.312166 0.918422 0.700790
Si Si3 0.813550 0.170514 0.819977
Si Si4 0.311291 0.327889 0.200673
Si Si5 0.188709 0.827889 0.439282
Si Si6 0.312166 0.081579 0.939165
Si Si7 0.808530 0.919887 0.319977
Si Si8 0.688247 0.671204 0.584724
O O1 0.500000 0.671694 0.051171
O O2 0.750000 0.750000 0.041525
O O3 0.735329 0.653556 0.128196
O O4 0.756005 0.616565 0.004850
O O5 0.500000 0.916212 0.704021
O O6 0.244765 0.871925 0.758207
O O7 0.256004 0.883434 0.635105
O O8 0.262657 0.000000 0.705836
O O9 0.750000 0.250000 0.819977
O O10 0.755238 0.128076 0.881748
O O11 0.000000 0.173277 0.819977
O O12 0.500000 0.326517 0.201676
O O13 0.250000 0.250000 0.214190
O O14 0.257301 0.379911 0.256064
O O15 0.250000 0.750000 0.425765
O O16 0.242700 0.879911 0.383890
O O17 0.235330 0.846445 0.511758
O O18 0.000000 0.826518 0.438279
O O19 0.500000 0.083790 0.935933
O O20 0.262660 0.000000 0.934117
O O21 0.000000 0.919339 0.319977
O O22 0.756889 0.000000 0.319978
O O23 0.500000 0.671695 0.588782
O O24 0.750000 0.750000 0.598430
#
# Coordination Sequence:
#
# PCOD9349190 Si02
#       8
#     8   8   8   8   8   8   8   8
#     4  10  20  35  56  82 111 144 186 231 275 327
#     4  11  24  41  60  84 116 150 183 224 275 327
#     4  12  25  42  65  89 115 147 185 228 271 320
#     4   9  18  32  53  78 104 139 180 225 272 321
#     4   9  18  32  53  78 104 139 180 225 272 321
#     4  11  24  41  60  84 116 150 183 224 275 327
#     4   9  17  30  49  75 106 139 178 224 274 325
#     4  10  20  35  56  82 111 144 186 231 275 327
#
# _framework density 18.773208
#
# number of rings (size 3 to 8) (size 9 to 14) (size 15 to 20)
#    0.000    1.875    0.000    4.125    0.000    5.500 
#    0.000    2.500    0.000    1.500    0.000    0.000 
#    0.000    0.000    0.000    0.000    0.000    0.000 
#
# Total GULP energy -178776.626312 kJ/mol
# GULP energy per Si atom -5586.769572 kJ/mol
# Density = 1.873048 g / cm^3
# Si number density = 18.773208 Si / 1000 Ang^3
#
#
#
# Elastic Constant Matrix: (Units=GPa)
#
#
# Indices 1 2 3 4 5 6 
#
# 1 53.4631 48.9464 40.0157 0.0000 0.0000 0.0000
# 2 48.9464 189.8067 140.7908 0.0000 0.0000 0.0000
# 3 40.0157 140.7908 163.4419 0.0000 0.0000 0.0000
# 4 0.0000 0.0000 0.0000 -43.4877 0.0000 0.0000
# 5 0.0000 0.0000 0.0000 0.0000 15.6496 0.0000
# 6 0.0000 0.0000 0.0000 0.0000 0.0000 27.6663
#
#
#
# Elastic Compliance Matrix: (Units=1/GPa)
#
#
# Indices 1 2 3 4 5 6 
#
# 1 0.024626 -0.005202 -0.001548 0.000000 0.000000 0.000000
# 2 -0.005202 0.015692 -0.012243 0.000000 0.000000 0.000000
# 3 -0.001548 -0.012243 0.017044 0.000000 0.000000 0.000000
# 4 0.000000 0.000000 0.000000 -0.022995 0.000000 0.000000
# 5 0.000000 0.000000 0.000000 0.000000 0.063899 0.000000
# 6 0.000000 0.000000 0.000000 0.000000 0.000000 0.036145
#
#
# Mechanical properties :
#
#
# Convention : Reuss Voigt Hill
#
# Bulk Modulus (GPa) = 51.61437 96.24638 73.93037
# Shear Modulus (GPa) = 27.95554 11.76290 19.85922
#
# Velocity S-wave (km/s) = 3.86310 2.50587 3.25599
# Velocity P-wave (km/s) = 6.88849 7.72993 7.32131
#
# Compressibility (1/GPa) = 0.01937445
#
# Stress axis : x y z
#
# Youngs Moduli (GPa) = 40.60790 63.72853 58.67218
#
# Poissons Ratio (x) = 0.33153 0.09082
# Poissons Ratio (y) = 0.21125 0.71834
# Poissons Ratio (z) = 0.06286 0.78024
#
# Static dielectric constant tensor:
#      x y z
#    x 1.636520 0.000000 0.000000 
#    y 0.000000 1.618180 0.000000 
#    z 0.000000 0.000000 1.649130 
# 
# From -- ./inp_files/18384.got.cif
#   From: 2010.05.17/outbox.cif.g08.bks.cpg/sg35_10_cif.got.tgz:18384.got - 2010.06.03 17:29:28.
