data_PCOD9349098
_publ_section_title
;
Structure prediction by ZEFSAII (Michael W. Deem and Ramdas Pophale) SiO2 
 PCOD9349098
Probable space group: C M M 2
;
_chemical_formula_sum "Si O2"
_cell_formula_units_Z 52
_cell_length_a 9.533435
_cell_length_b 25.210380
_cell_length_c 9.887965
_cell_angle_alpha 90.000000
_cell_angle_beta 90.000000
_cell_angle_gamma 90.000000
_cell_volume 2376.488528
_symmetry_space_group_name_H-M "C M M 2"
_symmetry_group_IT_number 35
_symmetry_cell_setting 'orthorhombic'
loop_
_space_group_symop_operation_xyz
x,y,z
-x,-y,z
-x,y,z
x,-y,z
1/2+x,1/2+y,z
1/2-x,1/2-y,z
1/2-x,1/2+y,z
1/2+x,1/2-y,z
loop_
_atom_site_type_symbol
_atom_site_label
_atom_site_fract_x
_atom_site_fract_y
_atom_site_fract_z
Si Si1 0.164676 0.082198 0.203840
Si Si2 0.000000 0.751569 0.942747
Si Si3 0.741026 0.176045 0.865182
Si Si4 0.665528 0.298990 0.292398
Si Si5 0.341426 0.057502 0.462802
Si Si6 0.163847 0.672557 0.561619
Si Si7 0.831116 0.441200 0.937596
O O1 0.178871 0.146154 0.212127
O O2 0.226703 0.062230 0.345847
O O3 0.000000 0.069489 0.188019
O O4 0.261015 0.060156 0.085716
O O5 0.119354 0.797397 0.917547
O O6 0.119170 0.704625 0.947238
O O7 0.713606 0.190769 0.707597
O O8 0.730751 0.112312 0.872344
O O9 0.500000 0.286616 0.301342
O O10 0.750000 0.250000 0.230825
O O11 0.737363 0.308506 0.439167
O O12 0.500000 0.060851 0.402774
O O13 0.329802 0.108529 0.556765
O O14 0.329939 0.000000 0.529844
O O15 0.000000 0.687985 0.540351
O O16 0.800309 0.500000 0.878472
O O17 0.000000 0.435995 0.942696
#
# Coordination Sequence:
#
# PCOD9349098 Si02
#       7
#     8   4   8   8   8   8   8
#     4  10  22  40  58  85 116 155 202 248 307 362
#     4  10  24  42  66  84 126 162 206 256 294 368
#     4  11  23  43  62  96 120 165 206 249 311 361
#     4  10  22  37  56  84 119 156 196 247 302 359
#     4   9  18  34  57  85 116 154 197 244 297 356
#     4  10  20  34  58  86 121 155 199 243 293 363
#     4  11  24  43  66  90 123 161 206 257 306 369
#
# _framework density 21.881022999999999
#
# number of rings (size 3 to 8) (size 9 to 14) (size 15 to 20)
#    0.000    1.846    1.538    1.385    4.308    4.923 
#    2.769    1.538    0.000    0.000    0.000    0.000 
#    0.000    0.000    0.000    0.000    0.000    0.000 
#
# Total GULP energy -144759.776254 kJ/mol
# GULP energy per Si atom -5567.683702 kJ/mol
# Density = 2.183122 g / cm^3
# Si number density = 21.881023 Si / 1000 Ang^3
#
#
#
# Elastic Constant Matrix: (Units=GPa)
#
#
# Indices 1 2 3 4 5 6 
#
# 1 110.3619 38.2745 -6.9745 0.0000 0.0000 0.0000
# 2 38.2745 174.9490 2.8791 0.0000 0.0000 0.0000
# 3 -6.9745 2.8791 41.0748 0.0000 0.0000 0.0000
# 4 0.0000 0.0000 0.0000 -15.5595 0.0000 0.0000
# 5 0.0000 0.0000 0.0000 0.0000 -496.5105 0.0000
# 6 0.0000 0.0000 0.0000 0.0000 0.0000 -9.5477
#
#
#
# Elastic Compliance Matrix: (Units=1/GPa)
#
#
# Indices 1 2 3 4 5 6 
#
# 1 0.009942 -0.002205 0.001843 0.000000 0.000000 0.000000
# 2 -0.002205 0.006212 -0.000810 0.000000 0.000000 0.000000
# 3 0.001843 -0.000810 0.024715 0.000000 0.000000 0.000000
# 4 0.000000 0.000000 0.000000 -0.064270 0.000000 0.000000
# 5 0.000000 0.000000 0.000000 0.000000 -0.002014 0.000000
# 6 0.000000 0.000000 0.000000 0.000000 0.000000 -0.104737
#
#
# Mechanical properties :
#
#
# Convention : Reuss Voigt Hill
#
# Bulk Modulus (GPa) = 25.95748 43.86047 34.90897
# Shear Modulus (GPa) = -43.49166 -84.84310 -64.16738
#
# Velocity S-wave (km/s) = -4.46314 -6.23369 -5.42119
# Velocity P-wave (km/s) = 3.83023 5.63235 4.81633
#
# Compressibility (1/GPa) = 0.03852454
#
# Stress axis : x y z
#
# Youngs Moduli (GPa) = 100.57894 160.98430 40.46047
#
# Poissons Ratio (x) = 0.35505 -0.07456
# Poissons Ratio (y) = 0.22183 0.03277
# Poissons Ratio (z) = -0.18535 0.13038
#
# Static dielectric constant tensor:
#      x y z
#    x 1.755880 0.000000 0.000000 
#    y 0.000000 1.854130 0.000000 
#    z 0.000000 0.000000 1.824300 
# 
# From -- ./inp_files/11545.got.cif
#   From: 2010.05.17/outbox.cif.g08.bks.cpg/sg35_6_cif.got.tgz:11545.got - 2010.06.03 17:29:28.
