data_PCOD9349258
_publ_section_title
;
Structure prediction by ZEFSAII (Michael W. Deem and Ramdas Pophale) SiO2 
 PCOD9349258
Probable space group: C M M 2
;
_chemical_formula_sum "Si O2"
_cell_formula_units_Z 40
_cell_length_a 8.654743
_cell_length_b 15.827587
_cell_length_c 14.778833
_cell_angle_alpha 90.000000
_cell_angle_beta 90.000000
_cell_angle_gamma 90.000000
_cell_volume 2024.459193
_symmetry_space_group_name_H-M "C M M 2"
_symmetry_group_IT_number 35
_symmetry_cell_setting 'orthorhombic'
loop_
_space_group_symop_operation_xyz
x,y,z
-x,-y,z
-x,y,z
x,-y,z
1/2+x,1/2+y,z
1/2-x,1/2-y,z
1/2-x,1/2+y,z
1/2+x,1/2-y,z
loop_
_atom_site_type_symbol
_atom_site_label
_atom_site_fract_x
_atom_site_fract_y
_atom_site_fract_z
Si Si1 0.184604 0.500000 0.612320
Si Si2 0.813446 0.154378 0.495622
Si Si3 0.682017 0.839245 0.919081
Si Si4 0.681130 0.401814 0.097424
Si Si5 0.684071 0.500000 0.814345
Si Si6 0.685907 0.656041 0.292322
O O1 0.248676 0.584174 0.563199
O O2 0.241270 0.500000 0.715385
O O3 0.000000 0.500000 0.608151
O O4 0.750000 0.250000 0.510085
O O5 0.767550 0.127041 0.392771
O O6 0.000000 0.156720 0.501375
O O7 0.500000 0.842224 0.904569
O O8 0.750000 0.750000 0.887990
O O9 0.761316 0.916930 0.867862
O O10 0.720632 0.850281 0.025453
O O11 0.500000 0.376111 0.090751
O O12 0.690210 0.500000 0.072467
O O13 0.732477 0.392422 0.201517
O O14 0.500000 0.500000 0.807542
O O15 0.500000 0.656718 0.292957
O O16 0.750000 0.750000 0.282340
#
# Coordination Sequence:
#
# PCOD9349258 Si02
#       6
#     4   8   8   8   4   8
#     4  12  26  44  67  96 127 162 207 260 318 380
#     4  10  21  40  65  94 129 169 213 261 314 371
#     4  12  25  43  67  96 129 168 210 257 313 374
#     4  10  20  35  58  89 128 171 213 258 309 366
#     4  12  26  48  71  96 125 158 205 262 320 380
#     4   9  19  34  56  85 122 166 211 257 305 362
#
# _framework density 19.758365000000001
#
# number of rings (size 3 to 8) (size 9 to 14) (size 15 to 20)
#    0.000    1.400    1.000    4.800    1.400    4.000 
#    0.000    4.000    0.000    0.000    0.000    0.000 
#    0.000    0.000    0.000    0.000    0.000    0.000 
#
# Total GULP energy -111757.435600 kJ/mol
# GULP energy per Si atom -5587.871780 kJ/mol
# Density = 1.971339 g / cm^3
# Si number density = 19.758365 Si / 1000 Ang^3
#
#
#
# Elastic Constant Matrix: (Units=GPa)
#
#
# Indices 1 2 3 4 5 6 
#
# 1 95.4431 43.8874 38.8003 0.0000 0.0000 0.0000
# 2 43.8874 117.1713 67.5347 0.0000 0.0000 0.0000
# 3 38.8003 67.5347 125.9623 0.0000 0.0000 0.0000
# 4 0.0000 0.0000 0.0000 13.2274 0.0000 0.0000
# 5 0.0000 0.0000 0.0000 0.0000 30.1612 0.0000
# 6 0.0000 0.0000 0.0000 0.0000 0.0000 31.0067
#
#
#
# Elastic Compliance Matrix: (Units=1/GPa)
#
#
# Indices 1 2 3 4 5 6 
#
# 1 0.013002 -0.003707 -0.002017 0.000000 0.000000 0.000000
# 2 -0.003707 0.013408 -0.006047 0.000000 0.000000 0.000000
# 3 -0.002017 -0.006047 0.011802 0.000000 0.000000 0.000000
# 4 0.000000 0.000000 0.000000 0.075601 0.000000 0.000000
# 5 0.000000 0.000000 0.000000 0.000000 0.033155 0.000000
# 6 0.000000 0.000000 0.000000 0.000000 0.000000 0.032251
#
#
# Mechanical properties :
#
#
# Convention : Reuss Voigt Hill
#
# Bulk Modulus (GPa) = 68.16765 71.00237 69.58501
# Shear Modulus (GPa) = 24.07859 27.43602 25.75730
#
# Velocity S-wave (km/s) = 3.49471 3.73040 3.61448
# Velocity P-wave (km/s) = 7.13159 7.38701 7.26042
#
# Compressibility (1/GPa) = 0.01466971
#
# Stress axis : x y z
#
# Youngs Moduli (GPa) = 76.90940 74.57991 84.72852
#
# Poissons Ratio (x) = 0.27649 0.17094
# Poissons Ratio (y) = 0.28513 0.51235
# Poissons Ratio (z) = 0.15516 0.45098
#
# Static dielectric constant tensor:
#      x y z
#    x 1.664440 0.000000 0.000000 
#    y 0.000000 1.664820 0.000000 
#    z 0.000000 0.000000 1.711930 
# 
# From -- ./inp_files/14778.got.cif
#   From: 2010.05.17/outbox.cif.g08.bks.cpg/sg35_8_cif.got.tgz:14778.got - 2010.06.03 17:29:28.
