data_PCOD9349311
_publ_section_title
;
Structure prediction by ZEFSAII (Michael W. Deem and Ramdas Pophale) SiO2 
 PCOD9349311
Probable space group: C M M 2
;
_chemical_formula_sum "Si O2"
_cell_formula_units_Z 56
_cell_length_a 8.818445
_cell_length_b 18.728973
_cell_length_c 18.683929
_cell_angle_alpha 90.000000
_cell_angle_beta 90.000000
_cell_angle_gamma 90.000000
_cell_volume 3085.845529
_symmetry_space_group_name_H-M "C M M 2"
_symmetry_group_IT_number 35
_symmetry_cell_setting 'orthorhombic'
loop_
_space_group_symop_operation_xyz
x,y,z
-x,-y,z
-x,y,z
x,-y,z
1/2+x,1/2+y,z
1/2-x,1/2-y,z
1/2-x,1/2+y,z
1/2+x,1/2-y,z
loop_
_atom_site_type_symbol
_atom_site_label
_atom_site_fract_x
_atom_site_fract_y
_atom_site_fract_z
Si Si1 0.682320 0.916715 0.935200
Si Si2 0.682199 0.328960 0.803810
Si Si3 0.682002 0.170939 0.077698
Si Si4 0.317829 0.417497 0.664922
Si Si5 0.180811 0.829016 0.227540
Si Si6 0.818117 0.585106 0.358071
Si Si7 0.823448 0.586666 0.516406
O O1 0.500000 0.911795 0.925774
O O2 0.762137 0.874864 0.871161
O O3 0.724456 0.000000 0.935280
O O4 0.718648 0.879296 0.010708
O O5 0.500000 0.325126 0.804185
O O6 0.750000 0.250000 0.807471
O O7 0.732434 0.368926 0.730986
O O8 0.500000 0.176227 0.084531
O O9 0.750000 0.250000 0.065427
O O10 0.751490 0.143510 0.152258
O O11 0.500000 0.418672 0.664904
O O12 0.265411 0.500000 0.674360
O O13 0.262882 0.390428 0.587621
O O14 0.250000 0.750000 0.236542
O O15 0.233581 0.875843 0.294316
O O16 0.000000 0.825071 0.223031
O O17 0.793468 0.500000 0.353378
O O18 0.768865 0.610032 0.437770
O O19 0.000000 0.596894 0.352768
O O20 0.815319 0.500000 0.514939
O O21 0.000000 0.606016 0.523067
#
# Coordination Sequence:
#
# PCOD9349311 Si02
#       7
#     8   8   8   8   8   8   8
#     4  10  22  39  59  84 111 140 176 217 263 316
#     4  11  23  38  56  79 109 145 182 220 266 317
#     4  10  20  36  57  79 106 141 179 219 266 318
#     4   9  18  33  53  77 105 137 175 220 268 316
#     4  11  22  36  55  79 108 143 183 222 265 318
#     4   9  18  34  55  79 109 143 179 221 269 319
#     4   8  15  29  51  78 105 136 174 215 263 318
#
# _framework density 18.147376000000001
#
# number of rings (size 3 to 8) (size 9 to 14) (size 15 to 20)
#    0.000    2.286    0.000    4.714    0.000    5.714 
#    0.000    5.000    0.000    1.714    0.000    0.000 
#    0.000    0.000    0.000    0.000    0.000    0.000 
#
# Total GULP energy -156253.655953 kJ/mol
# GULP energy per Si atom -5580.487713 kJ/mol
# Density = 1.810607 g / cm^3
# Si number density = 18.147376 Si / 1000 Ang^3
#
#
#
# Elastic Constant Matrix: (Units=GPa)
#
#
# Indices 1 2 3 4 5 6 
#
# 1 59.7974 43.7869 73.3423 0.0000 0.0000 0.0000
# 2 43.7869 82.1856 89.7487 0.0000 0.0000 0.0000
# 3 73.3423 89.7487 205.0918 0.0000 0.0000 0.0000
# 4 0.0000 0.0000 0.0000 88.8266 0.0000 0.0000
# 5 0.0000 0.0000 0.0000 0.0000 44.5184 0.0000
# 6 0.0000 0.0000 0.0000 0.0000 0.0000 21.4571
#
#
#
# Elastic Compliance Matrix: (Units=1/GPa)
#
#
# Indices 1 2 3 4 5 6 
#
# 1 0.032912 -0.008968 -0.007845 0.000000 0.000000 0.000000
# 2 -0.008968 0.025747 -0.008060 0.000000 0.000000 0.000000
# 3 -0.007845 -0.008060 0.011209 0.000000 0.000000 0.000000
# 4 0.000000 0.000000 0.000000 0.011258 0.000000 0.000000
# 5 0.000000 0.000000 0.000000 0.000000 0.022463 0.000000
# 6 0.000000 0.000000 0.000000 0.000000 0.000000 0.046605
#
#
# Mechanical properties :
#
#
# Convention : Reuss Voigt Hill
#
# Bulk Modulus (GPa) = 49.69764 84.53671 67.11718
# Shear Modulus (GPa) = 24.19587 40.30687 32.25137
#
# Velocity S-wave (km/s) = 3.65540 4.71795 4.22025
# Velocity P-wave (km/s) = 6.72762 8.73861 7.79821
#
# Compressibility (1/GPa) = 0.02012168
#
# Stress axis : x y z
#
# Youngs Moduli (GPa) = 30.38388 38.83904 89.21732
#
# Poissons Ratio (x) = 0.34829 0.69994
# Poissons Ratio (y) = 0.27247 0.71911
# Poissons Ratio (z) = 0.23837 0.31305
#
# Static dielectric constant tensor:
#      x y z
#    x 1.609710 0.000000 0.000000 
#    y 0.000000 1.601510 0.000000 
#    z 0.000000 0.000000 1.624410 
# 
# From -- ./inp_files/15657.got.cif
#   From: 2010.05.17/outbox.cif.g08.bks.cpg/sg35_8_cif.got.tgz:15657.got - 2010.06.03 17:29:28.
