data_PCOD9349688
_publ_section_title
;
Structure prediction by ZEFSAII (Michael W. Deem and Ramdas Pophale) SiO2 
 PCOD9349688
Probable space group: C M M 2
;
_chemical_formula_sum "Si O2"
_cell_formula_units_Z 56
_cell_length_a 8.216597
_cell_length_b 23.032721
_cell_length_c 15.332573
_cell_angle_alpha 90.000000
_cell_angle_beta 90.000000
_cell_angle_gamma 90.000000
_cell_volume 2901.698429
_symmetry_space_group_name_H-M "C M M 2"
_symmetry_group_IT_number 35
_symmetry_cell_setting 'orthorhombic'
loop_
_space_group_symop_operation_xyz
x,y,z
-x,-y,z
-x,y,z
x,-y,z
1/2+x,1/2+y,z
1/2-x,1/2-y,z
1/2-x,1/2+y,z
1/2+x,1/2-y,z
loop_
_atom_site_type_symbol
_atom_site_label
_atom_site_fract_x
_atom_site_fract_y
_atom_site_fract_z
Si Si1 0.197452 0.682215 0.050570
Si Si2 0.197785 0.619529 0.678956
Si Si3 0.194373 0.315367 0.501129
Si Si4 0.304607 0.184771 0.852632
Si Si5 0.812970 0.500000 0.446619
Si Si6 0.687914 0.391264 0.347683
Si Si7 0.185144 0.000000 0.631232
Si Si8 0.692346 0.068417 0.161425
O O1 0.250000 0.750000 0.072298
O O2 0.253600 0.625024 0.105703
O O3 0.000000 0.683448 0.055719
O O4 0.250425 0.669490 0.950630
O O5 0.249185 0.648212 0.586483
O O6 0.251252 0.651866 0.766434
O O7 0.275844 0.556889 0.684091
O O8 0.000000 0.616868 0.677656
O O9 0.250000 0.250000 0.515002
O O10 0.257408 0.337596 0.407462
O O11 0.000000 0.319718 0.498517
O O12 0.500000 0.180418 0.854230
O O13 0.250000 0.250000 0.839716
O O14 0.719546 0.444456 0.412481
O O15 0.806893 0.500000 0.549858
O O16 0.000000 0.500000 0.415891
O O17 0.500000 0.385005 0.324346
O O18 0.781789 0.409812 0.260555
O O19 0.000000 0.000000 0.599065
O O20 0.500000 0.064461 0.143079
O O21 0.754260 0.000000 0.152123
#
# Coordination Sequence:
#
# PCOD9349688 Si02
#       8
#     8   8   8   8   4   8   4   8
#     4   9  19  37  61  89 117 151 197 243 300 359
#     4  10  21  37  57  82 116 155 192 236 290 342
#     4  11  23  38  57  82 117 156 195 240 288 340
#     4   9  18  35  59  87 114 149 194 237 286 347
#     4  12  22  38  60  81 110 149 190 233 282 338
#     4  12  24  38  59  86 114 149 194 239 285 346
#     4  12  24  36  56  83 114 153 198 239 282 338
#     4  10  21  38  60  85 117 156 198 248 302 358
#
# _framework density 19.299040999999999
#
# number of rings (size 3 to 8) (size 9 to 14) (size 15 to 20)
#    0.000    1.571    2.143    3.429    0.000    2.286 
#    1.286    1.429    0.000    0.000    0.000    0.000 
#    0.000    0.000    0.000    0.000    0.000    0.000 
#
# Total GULP energy -156002.352791 kJ/mol
# GULP energy per Si atom -5571.512600 kJ/mol
# Density = 1.925512 g / cm^3
# Si number density = 19.299041 Si / 1000 Ang^3
#
#
#
# Elastic Constant Matrix: (Units=GPa)
#
#
# Indices 1 2 3 4 5 6 
#
# 1 15.3580 7.9474 4.1265 0.0000 0.0000 0.0000
# 2 7.9474 134.5167 77.9377 0.0000 0.0000 0.0000
# 3 4.1265 77.9377 112.6028 0.0000 0.0000 0.0000
# 4 0.0000 0.0000 0.0000 25.7455 0.0000 0.0000
# 5 0.0000 0.0000 0.0000 0.0000 9.0031 0.0000
# 6 0.0000 0.0000 0.0000 0.0000 0.0000 24.9433
#
#
#
# Elastic Compliance Matrix: (Units=1/GPa)
#
#
# Indices 1 2 3 4 5 6 
#
# 1 0.067182 -0.004245 0.000476 0.000000 0.000000 0.000000
# 2 -0.004245 0.012679 -0.008620 0.000000 0.000000 0.000000
# 3 0.000476 -0.008620 0.014830 0.000000 0.000000 0.000000
# 4 0.000000 0.000000 0.000000 0.038842 0.000000 0.000000
# 5 0.000000 0.000000 0.000000 0.000000 0.111072 0.000000
# 6 0.000000 0.000000 0.000000 0.000000 0.000000 0.040091
#
#
# Mechanical properties :
#
#
# Convention : Reuss Voigt Hill
#
# Bulk Modulus (GPa) = 14.30362 49.16675 31.73519
# Shear Modulus (GPa) = 15.02499 23.43612 19.23056
#
# Velocity S-wave (km/s) = 2.79325 3.48856 3.16009
# Velocity P-wave (km/s) = 4.22264 6.46207 5.45843
#
# Compressibility (1/GPa) = 0.06991237
#
# Stress axis : x y z
#
# Youngs Moduli (GPa) = 14.88502 78.86780 67.43110
#
# Poissons Ratio (x) = 0.33480 -0.03211
# Poissons Ratio (y) = 0.06319 0.58129
# Poissons Ratio (z) = -0.00709 0.67988
#
# Static dielectric constant tensor:
#      x y z
#    x 1.683660 0.000000 0.000000 
#    y 0.000000 1.707540 0.000000 
#    z 0.000000 0.000000 1.679880 
# 
# From -- ./inp_files/15686.got.cif
#   From: 2010.05.17/outbox.cif.g08.bks.cpg/sg35_8_cif.got.tgz:15686.got - 2010.06.03 17:29:28.
