data_PCOD9349065
_publ_section_title
;
Structure prediction by ZEFSAII (Michael W. Deem and Ramdas Pophale) SiO2 
 PCOD9349065
Probable space group: C M M 2
;
_chemical_formula_sum "Si O2"
_cell_formula_units_Z 56
_cell_length_a 22.634621
_cell_length_b 8.428962
_cell_length_c 14.816437
_cell_angle_alpha 90.000000
_cell_angle_beta 90.000000
_cell_angle_gamma 90.000000
_cell_volume 2826.774088
_symmetry_space_group_name_H-M "C M M 2"
_symmetry_group_IT_number 35
_symmetry_cell_setting 'orthorhombic'
loop_
_space_group_symop_operation_xyz
x,y,z
-x,-y,z
-x,y,z
x,-y,z
1/2+x,1/2+y,z
1/2-x,1/2-y,z
1/2-x,1/2+y,z
1/2+x,1/2-y,z
loop_
_atom_site_type_symbol
_atom_site_label
_atom_site_fract_x
_atom_site_fract_y
_atom_site_fract_z
Si Si1 0.685776 0.191829 0.027960
Si Si2 0.128464 0.691580 0.847889
Si Si3 0.000000 0.307272 0.831662
Si Si4 0.067498 0.812088 0.331051
Si Si5 0.884965 0.689375 0.510701
Si Si6 0.000000 0.306789 0.622328
Si Si7 0.186049 0.187871 0.670091
Si Si8 0.933102 0.310610 0.130172
O O1 0.750000 0.250000 0.059721
O O2 0.626344 0.247335 0.080115
O O3 0.686321 0.000000 0.031740
O O4 0.674486 0.242432 0.924119
O O5 0.129649 0.500000 0.843661
O O6 0.061936 0.741794 0.874554
O O7 0.142572 0.754218 0.748869
O O8 0.000000 0.500000 0.833155
O O9 0.000000 0.256759 0.726532
O O10 0.110479 0.760468 0.411182
O O11 0.075828 0.724652 0.236215
O O12 0.000000 0.775218 0.361101
O O13 0.071742 0.000000 0.315782
O O14 0.887061 0.500000 0.503686
O O15 0.942250 0.744996 0.567964
O O16 0.831051 0.740484 0.573366
O O17 0.000000 0.500000 0.623683
O O18 0.250000 0.250000 0.697170
O O19 0.185024 0.000000 0.664864
O O20 0.935119 0.500000 0.114659
O O21 0.000000 0.249974 0.106673
#
# Coordination Sequence:
#
# PCOD9349065 Si02
#       8
#     8   8   4   8   8   4   8   8
#     4  10  22  38  60  87 115 151 197 245 295 352
#     4  10  20  36  59  86 116 153 193 238 289 346
#     4   9  16  30  54  85 116 147 189 234 280 336
#     4  10  20  34  55  87 121 151 185 231 290 350
#     4  11  20  35  58  85 115 151 191 233 280 337
#     4   9  16  28  52  83 110 143 183 222 270 324
#     4  12  25  40  56  78 111 154 199 244 288 342
#     4   9  19  37  60  87 115 147 193 246 298 354
#
# _framework density 19.810568
#
# number of rings (size 3 to 8) (size 9 to 14) (size 15 to 20)
#    0.000    1.857    2.143    2.571    1.000    2.857 
#    0.000    1.786    0.000    1.714    0.000    0.000 
#    0.000    0.000    0.000    0.000    0.000    0.000 
#
# Total GULP energy -156250.046298 kJ/mol
# GULP energy per Si atom -5580.358796 kJ/mol
# Density = 1.976548 g / cm^3
# Si number density = 19.810568 Si / 1000 Ang^3
#
#
#
# Elastic Constant Matrix: (Units=GPa)
#
#
# Indices 1 2 3 4 5 6 
#
# 1 118.0055 10.4863 37.4629 0.0000 0.0000 0.0000
# 2 10.4863 16.0052 1.7261 0.0000 0.0000 0.0000
# 3 37.4629 1.7261 65.2312 0.0000 0.0000 0.0000
# 4 0.0000 0.0000 0.0000 11.6562 0.0000 0.0000
# 5 0.0000 0.0000 0.0000 0.0000 28.8715 0.0000
# 6 0.0000 0.0000 0.0000 0.0000 0.0000 21.6822
#
#
#
# Elastic Compliance Matrix: (Units=1/GPa)
#
#
# Indices 1 2 3 4 5 6 
#
# 1 0.011008 -0.006549 -0.006149 0.000000 0.000000 0.000000
# 2 -0.006549 0.066555 0.002000 0.000000 0.000000 0.000000
# 3 -0.006149 0.002000 0.018808 0.000000 0.000000 0.000000
# 4 0.000000 0.000000 0.000000 0.085792 0.000000 0.000000
# 5 0.000000 0.000000 0.000000 0.000000 0.034636 0.000000
# 6 0.000000 0.000000 0.000000 0.000000 0.000000 0.046121
#
#
# Mechanical properties :
#
#
# Convention : Reuss Voigt Hill
#
# Bulk Modulus (GPa) = 13.33766 33.17695 23.25730
# Shear Modulus (GPa) = 16.16513 22.41309 19.28911
#
# Velocity S-wave (km/s) = 2.85964 3.36723 3.12377
# Velocity P-wave (km/s) = 4.20127 5.64811 4.97754
#
# Compressibility (1/GPa) = 0.07497569
#
# Stress axis : x y z
#
# Youngs Moduli (GPa) = 90.84122 15.02522 53.16749
#
# Poissons Ratio (x) = 0.09840 0.32692
# Poissons Ratio (y) = 0.59494 -0.10634
# Poissons Ratio (z) = 0.55857 -0.03005
#
# Static dielectric constant tensor:
#      x y z
#    x 1.710500 0.000000 0.000000 
#    y 0.000000 1.685630 0.000000 
#    z 0.000000 0.000000 1.674380 
# 
# From -- ./inp_files/15666.got.cif
#   From: 2010.05.17/outbox.cif.g08.bks.cpg/sg35_8_cif.got.tgz:15666.got - 2010.06.03 17:29:28.
