data_PCOD9349858
_publ_section_title
;
Structure prediction by ZEFSAII (Michael W. Deem and Ramdas Pophale) SiO2 
 PCOD9349858
Probable space group: C M M 2
;
_chemical_formula_sum "Si O2"
_cell_formula_units_Z 32
_cell_length_a 19.558419
_cell_length_b 9.934138
_cell_length_c 7.546445
_cell_angle_alpha 90.000000
_cell_angle_beta 90.000000
_cell_angle_gamma 90.000000
_cell_volume 1466.244330
_symmetry_space_group_name_H-M "C M M 2"
_symmetry_group_IT_number 35
_symmetry_cell_setting 'orthorhombic'
loop_
_space_group_symop_operation_xyz
x,y,z
-x,-y,z
-x,y,z
x,-y,z
1/2+x,1/2+y,z
1/2-x,1/2-y,z
1/2-x,1/2+y,z
1/2+x,1/2-y,z
loop_
_atom_site_type_symbol
_atom_site_label
_atom_site_fract_x
_atom_site_fract_y
_atom_site_fract_z
Si Si1 0.000000 0.208886 0.746201
Si Si2 0.750000 0.250000 0.635354
Si Si3 0.644216 0.000000 0.042156
Si Si4 0.147065 0.795815 0.915874
Si Si5 0.784261 0.500000 0.419901
Si Si6 0.000000 0.500000 0.868931
Si Si7 0.856269 0.000000 0.227963
Si Si8 0.500000 0.500000 0.431391
O O1 0.930491 0.177649 0.852872
O O2 0.000000 0.128983 0.562708
O O3 0.000000 0.370583 0.742822
O O4 0.802478 0.166899 0.757757
O O5 0.793150 0.359758 0.524373
O O6 0.670259 0.000000 0.242683
O O7 0.665295 0.860459 0.951325
O O8 0.563675 0.000000 0.001850
O O9 0.155411 0.873627 0.098583
O O10 0.704166 0.500000 0.368501
O O11 0.931216 0.000000 0.314145
#
# Coordination Sequence:
#
# PCOD9349858 Si02
#       8
#     4   4   4   8   4   2   4   2
#     4  10  21  40  64  92 121 156 202 246 297 358
#     4  12  24  40  62  88 122 162 204 252 300 354
#     4  10  21  40  64  90 121 157 203 251 297 355
#     4  11  22  42  64  87 120 167 204 238 297 374
#     4  12  24  39  59  94 125 154 202 260 302 341
#     4   8  20  40  68  90 120 164 204 236 294 374
#     4  12  24  40  62  90 124 161 200 247 302 361
#     4  12  24  40  62  96 126 152 194 260 306 344
#
# _framework density 21.824466000000001
#
# number of rings (size 3 to 8) (size 9 to 14) (size 15 to 20)
#    0.000    1.000    0.000    7.500    0.000    0.000 
#    0.000    2.500    0.000    0.000    0.000    0.000 
#    0.000    0.000    0.000    0.000    0.000    0.000 
#
# Total GULP energy -89444.191391 kJ/mol
# GULP energy per Si atom -5590.261962 kJ/mol
# Density = 2.177479 g / cm^3
# Si number density = 21.824466 Si / 1000 Ang^3
#
#
#
# Elastic Constant Matrix: (Units=GPa)
#
#
# Indices 1 2 3 4 5 6 
#
# 1 86.4428 31.9685 46.5051 0.0000 0.0000 0.0000
# 2 31.9685 100.1278 43.1511 0.0000 0.0000 0.0000
# 3 46.5051 43.1511 115.3326 0.0000 0.0000 0.0000
# 4 0.0000 0.0000 0.0000 -180.5787 0.0000 0.0000
# 5 0.0000 0.0000 0.0000 0.0000 47.7284 0.0000
# 6 0.0000 0.0000 0.0000 0.0000 0.0000 9.8715
#
#
#
# Elastic Compliance Matrix: (Units=1/GPa)
#
#
# Indices 1 2 3 4 5 6 
#
# 1 0.015346 -0.002662 -0.005192 0.000000 0.000000 0.000000
# 2 -0.002662 0.012369 -0.003554 0.000000 0.000000 0.000000
# 3 -0.005192 -0.003554 0.012094 0.000000 0.000000 0.000000
# 4 0.000000 0.000000 0.000000 -0.005538 0.000000 0.000000
# 5 0.000000 0.000000 0.000000 0.000000 0.020952 0.000000
# 6 0.000000 0.000000 0.000000 0.000000 0.000000 0.101302
#
#
# Mechanical properties :
#
#
# Convention : Reuss Voigt Hill
#
# Bulk Modulus (GPa) = 58.85062 60.57252 59.71157
# Shear Modulus (GPa) = 27.02620 -12.57719 7.22450
#
# Velocity S-wave (km/s) = 3.52283 -2.40321 1.82139
# Velocity P-wave (km/s) = 6.60084 4.48488 5.64292
#
# Compressibility (1/GPa) = 0.01699218
#
# Stress axis : x y z
#
# Youngs Moduli (GPa) = 65.16346 80.84743 82.68613
#
# Poissons Ratio (x) = 0.21523 0.42930
# Poissons Ratio (y) = 0.17347 0.29390
# Poissons Ratio (z) = 0.33832 0.28736
#
# Static dielectric constant tensor:
#      x y z
#    x 1.789130 0.000000 0.000000 
#    y 0.000000 2.891660 0.000000 
#    z 0.000000 0.000000 1.740030 
# 
# From -- ./inp_files/1054.got.cif
#   From: 2010.05.17/outbox.cif.g08.bks.cpg/sg35_1_cif.got.tgz:1054.got - 2010.06.03 17:29:28.
