data_PCOD9349604
_publ_section_title
;
Structure prediction by ZEFSAII (Michael W. Deem and Ramdas Pophale) SiO2 
 PCOD9349604
Probable space group: C M M 2
;
_chemical_formula_sum "Si O2"
_cell_formula_units_Z 56
_cell_length_a 14.454448
_cell_length_b 27.454957
_cell_length_c 7.156787
_cell_angle_alpha 90.000000
_cell_angle_beta 90.000000
_cell_angle_gamma 90.000000
_cell_volume 2840.144071
_symmetry_space_group_name_H-M "C M M 2"
_symmetry_group_IT_number 35
_symmetry_cell_setting 'orthorhombic'
loop_
_space_group_symop_operation_xyz
x,y,z
-x,-y,z
-x,y,z
x,-y,z
1/2+x,1/2+y,z
1/2-x,1/2-y,z
1/2-x,1/2+y,z
1/2+x,1/2-y,z
loop_
_atom_site_type_symbol
_atom_site_label
_atom_site_fract_x
_atom_site_fract_y
_atom_site_fract_z
Si Si1 0.611456 0.612994 0.027350
Si Si2 0.757221 0.603479 0.725578
Si Si3 0.388283 0.089201 0.059141
Si Si4 0.316431 0.789292 0.629678
Si Si5 0.734814 0.444404 0.320813
Si Si6 0.389272 0.726754 0.980835
Si Si7 0.607807 0.190821 0.244285
O O1 0.500000 0.607023 0.025043
O O2 0.659610 0.587068 0.204283
O O3 0.664673 0.592479 0.844771
O O4 0.634875 0.670749 0.019986
O O5 0.767653 0.661929 0.702545
O O6 0.753216 0.579420 0.522519
O O7 0.844010 0.586114 0.852690
O O8 0.500000 0.083416 0.061576
O O9 0.329634 0.055713 0.199061
O O10 0.359148 0.142465 0.140307
O O11 0.250000 0.750000 0.533996
O O12 0.357599 0.756562 0.796865
O O13 0.381610 0.808517 0.465869
O O14 0.703034 0.500000 0.341691
O O15 0.500000 0.725737 0.969354
O O16 0.355627 0.760531 0.149305
O O17 0.500000 0.190834 0.201693
#
# Coordination Sequence:
#
# PCOD9349604 Si02
#       7
#     8   8   8   8   8   8   8
#     4  10  24  45  68  94 128 169 219 277 335 392
#     4  11  23  40  64  98 132 170 214 270 324 394
#     4  10  22  41  67  96 130 171 215 263 318 392
#     4  12  22  32  56  92 130 173 209 247 311 384
#     4  11  26  47  67  92 127 169 222 285 341 385
#     4  10  21  37  58  89 130 169 207 256 312 383
#     4  10  21  35  56  88 128 174 212 246 300 379
#
# _framework density 19.717309
#
# number of rings (size 3 to 8) (size 9 to 14) (size 15 to 20)
#    0.000    1.429    4.286    0.429    2.000    5.143 
#    0.000    0.000    0.000    0.000    0.000    0.000 
#    0.000    0.000    0.000    0.000    0.000    0.000 
#
# Total GULP energy -156083.433620 kJ/mol
# GULP energy per Si atom -5574.408344 kJ/mol
# Density = 1.967243 g / cm^3
# Si number density = 19.717309 Si / 1000 Ang^3
#
#
#
# Elastic Constant Matrix: (Units=GPa)
#
#
# Indices 1 2 3 4 5 6 
#
# 1 96.5272 44.5125 42.4061 0.0000 0.0000 0.0000
# 2 44.5125 112.5247 67.1454 0.0000 0.0000 0.0000
# 3 42.4061 67.1454 147.5743 0.0000 0.0000 0.0000
# 4 0.0000 0.0000 0.0000 -20.2431 0.0000 0.0000
# 5 0.0000 0.0000 0.0000 0.0000 25.4506 0.0000
# 6 0.0000 0.0000 0.0000 0.0000 0.0000 19.7831
#
#
#
# Elastic Compliance Matrix: (Units=1/GPa)
#
#
# Indices 1 2 3 4 5 6 
#
# 1 0.013058 -0.004017 -0.001924 0.000000 0.000000 0.000000
# 2 -0.004017 0.013435 -0.004958 0.000000 0.000000 0.000000
# 3 -0.001924 -0.004958 0.009585 0.000000 0.000000 0.000000
# 4 0.000000 0.000000 0.000000 -0.049399 0.000000 0.000000
# 5 0.000000 0.000000 0.000000 0.000000 0.039292 0.000000
# 6 0.000000 0.000000 0.000000 0.000000 0.000000 0.050548
#
#
# Mechanical properties :
#
#
# Convention : Reuss Voigt Hill
#
# Bulk Modulus (GPa) = 70.03814 73.86157 71.94986
# Shear Modulus (GPa) = 48.50728 18.50225 33.50477
#
# Velocity S-wave (km/s) = 4.96536 3.06662 4.12668
# Velocity P-wave (km/s) = 8.27474 7.07675 7.69908
#
# Compressibility (1/GPa) = 0.01427793
#
# Stress axis : x y z
#
# Youngs Moduli (GPa) = 76.58373 74.43384 104.32631
#
# Poissons Ratio (x) = 0.29900 0.20077
# Poissons Ratio (y) = 0.30763 0.51730
# Poissons Ratio (z) = 0.14738 0.36908
#
# Static dielectric constant tensor:
#      x y z
#    x 1.713000 0.000000 0.000000 
#    y 0.000000 1.726300 0.000000 
#    z 0.000000 0.000000 1.685370 
# 
# From -- ./inp_files/2070.got.cif
#   From: 2010.05.17/outbox.cif.g08.bks.cpg/sg35_2_cif.got.tgz:2070.got - 2010.06.03 17:29:28.
