data_PCOD9349525
_publ_section_title
;
Structure prediction by ZEFSAII (Michael W. Deem and Ramdas Pophale) SiO2 
 PCOD9349525
Probable space group: C M M 2
;
_chemical_formula_sum "Si O2"
_cell_formula_units_Z 56
_cell_length_a 22.798471
_cell_length_b 8.600715
_cell_length_c 15.162215
_cell_angle_alpha 90.000000
_cell_angle_beta 90.000000
_cell_angle_gamma 90.000000
_cell_volume 2973.054901
_symmetry_space_group_name_H-M "C M M 2"
_symmetry_group_IT_number 35
_symmetry_cell_setting 'orthorhombic'
loop_
_space_group_symop_operation_xyz
x,y,z
-x,-y,z
-x,y,z
x,-y,z
1/2+x,1/2+y,z
1/2-x,1/2-y,z
1/2-x,1/2+y,z
1/2+x,1/2-y,z
loop_
_atom_site_type_symbol
_atom_site_label
_atom_site_fract_x
_atom_site_fract_y
_atom_site_fract_z
Si Si1 0.500000 0.677998 0.186741
Si Si2 0.890226 0.684388 0.282231
Si Si3 0.685381 0.684521 0.789207
Si Si4 0.685357 0.315081 0.134655
Si Si5 0.069197 0.689138 0.478555
Si Si6 0.000000 0.178513 0.976613
Si Si7 0.682390 0.813419 0.598539
Si Si8 0.875824 0.316858 0.960745
O O1 0.500000 0.500000 0.221008
O O2 0.555663 0.770908 0.220415
O O3 0.500000 0.668574 0.082297
O O4 0.880077 0.500000 0.284285
O O5 0.836611 0.764725 0.231707
O O6 0.910188 0.734368 0.379807
O O7 0.685281 0.500000 0.777451
O O8 0.750000 0.750000 0.801484
O O9 0.665499 0.762798 0.697791
O O10 0.653271 0.731408 0.878279
O O11 0.683323 0.500000 0.128053
O O12 0.750000 0.250000 0.120766
O O13 0.646525 0.245849 0.055111
O O14 0.067053 0.500000 0.482210
O O15 0.125468 0.736061 0.539443
O O16 0.000000 0.739202 0.494775
O O17 0.056627 0.274296 0.951175
O O18 0.000000 0.000000 0.942854
O O19 0.750000 0.750000 0.580324
O O20 0.687031 0.000000 0.592187
O O21 0.864450 0.500000 0.956461
#
# Coordination Sequence:
#
# PCOD9349525 Si02
#       8
#     4   8   8   8   8   4   8   8
#     4  11  21  35  57  84 116 155 198 244 289 341
#     4  11  21  37  62  87 116 157 202 245 296 355
#     4  11  22  40  64  89 120 155 198 247 299 360
#     4  12  25  41  58  85 122 159 201 250 300 351
#     4   9  19  37  62  92 121 157 203 255 307 365
#     4  11  23  39  59  86 122 159 200 248 297 347
#     4  10  20  38  64  90 121 156 201 252 308 371
#     4  12  24  40  62  89 119 158 202 243 298 358
#
# _framework density 18.835844999999999
#
# number of rings (size 3 to 8) (size 9 to 14) (size 15 to 20)
#    0.000    1.143    2.143    6.429    0.000    1.143 
#    1.286    4.286    0.000    0.000    0.000    0.000 
#    0.000    0.000    0.000    0.000    0.000    0.000 
#
# Total GULP energy -156159.809588 kJ/mol
# GULP energy per Si atom -5577.136057 kJ/mol
# Density = 1.879297 g / cm^3
# Si number density = 18.835845 Si / 1000 Ang^3
#
#
#
# Elastic Constant Matrix: (Units=GPa)
#
#
# Indices 1 2 3 4 5 6 
#
# 1 90.1482 20.6034 53.7134 0.0000 0.0000 0.0000
# 2 20.6034 65.5628 8.1554 0.0000 0.0000 0.0000
# 3 53.7134 8.1554 95.5224 0.0000 0.0000 0.0000
# 4 0.0000 0.0000 0.0000 18.3233 0.0000 0.0000
# 5 0.0000 0.0000 0.0000 0.0000 6.8319 0.0000
# 6 0.0000 0.0000 0.0000 0.0000 0.0000 14.8272
#
#
#
# Elastic Compliance Matrix: (Units=1/GPa)
#
#
# Indices 1 2 3 4 5 6 
#
# 1 0.017861 -0.004410 -0.009667 0.000000 0.000000 0.000000
# 2 -0.004410 0.016505 0.001071 0.000000 0.000000 0.000000
# 3 -0.009667 0.001071 0.015813 0.000000 0.000000 0.000000
# 4 0.000000 0.000000 0.000000 0.054575 0.000000 0.000000
# 5 0.000000 0.000000 0.000000 0.000000 0.146373 0.000000
# 6 0.000000 0.000000 0.000000 0.000000 0.000000 0.067444
#
#
# Mechanical properties :
#
#
# Convention : Reuss Voigt Hill
#
# Bulk Modulus (GPa) = 41.37959 46.24200 43.81080
# Shear Modulus (GPa) = 14.17883 19.24722 16.71303
#
# Velocity S-wave (km/s) = 2.74662 3.20009 2.98199
# Velocity P-wave (km/s) = 5.66346 6.18526 5.93010
#
# Compressibility (1/GPa) = 0.02416650
#
# Stress axis : x y z
#
# Youngs Moduli (GPa) = 55.98933 60.58656 63.23908
#
# Poissons Ratio (x) = 0.26721 0.61131
# Poissons Ratio (y) = 0.24693 -0.06772
# Poissons Ratio (z) = 0.54123 -0.06488
#
# Static dielectric constant tensor:
#      x y z
#    x 1.642680 0.000000 0.000000 
#    y 0.000000 1.641520 0.000000 
#    z 0.000000 0.000000 1.663460 
# 
# From -- ./inp_files/17423.got.cif
#   From: 2010.05.17/outbox.cif.g08.bks.cpg/sg35_9_cif.got.tgz:17423.got - 2010.06.03 17:29:28.
