data_PCOD9349251
_publ_section_title
;
Structure prediction by ZEFSAII (Michael W. Deem and Ramdas Pophale) SiO2 
 PCOD9349251
Probable space group: C M M 2
;
_chemical_formula_sum "Si O2"
_cell_formula_units_Z 48
_cell_length_a 18.246212
_cell_length_b 7.909721
_cell_length_c 17.723174
_cell_angle_alpha 90.000000
_cell_angle_beta 90.000000
_cell_angle_gamma 90.000000
_cell_volume 2557.851827
_symmetry_space_group_name_H-M "C M M 2"
_symmetry_group_IT_number 35
_symmetry_cell_setting 'orthorhombic'
loop_
_space_group_symop_operation_xyz
x,y,z
-x,-y,z
-x,y,z
x,-y,z
1/2+x,1/2+y,z
1/2-x,1/2-y,z
1/2-x,1/2+y,z
1/2+x,1/2-y,z
loop_
_atom_site_type_symbol
_atom_site_label
_atom_site_fract_x
_atom_site_fract_y
_atom_site_fract_z
Si Si1 0.588325 0.698181 0.845630
Si Si2 0.917282 0.702095 0.538197
Si Si3 0.412210 0.690887 0.234502
Si Si4 0.335063 0.796721 0.387974
Si Si5 0.410768 0.000000 0.128399
Si Si6 0.665120 0.298967 0.690249
Si Si7 0.589132 0.000000 0.955900
O O1 0.500000 0.705463 0.837778
O O2 0.607238 0.500000 0.860545
O O3 0.624871 0.755266 0.767107
O O4 0.610556 0.830590 0.910433
O O5 0.921956 0.500000 0.529492
O O6 0.874485 0.765257 0.464410
O O7 0.874123 0.734148 0.615165
O O8 0.000000 0.770421 0.542199
O O9 0.500000 0.708668 0.245568
O O10 0.397846 0.500000 0.207764
O O11 0.372997 0.721103 0.314038
O O12 0.388617 0.833585 0.175010
O O13 0.250000 0.750000 0.390406
O O14 0.342113 0.000000 0.383533
O O15 0.500000 0.000000 0.126367
O O16 0.384926 0.000000 0.042175
O O17 0.659499 0.500000 0.688298
O O18 0.750000 0.250000 0.691290
O O19 0.500000 0.000000 0.957540
#
# Coordination Sequence:
#
# PCOD9349251 Si02
#       7
#     8   8   8   8   4   8   4
#     4   9  19  35  55  83 114 146 191 239 286 343
#     4  10  22  38  58  83 114 151 191 236 285 333
#     4  10  20  35  58  86 115 151 193 237 288 342
#     4  11  22  37  56  82 115 153 193 241 283 340
#     4   9  18  34  56  87 119 145 183 237 291 345
#     4  11  23  37  55  81 112 152 191 239 283 335
#     4   9  18  32  58  87 113 149 183 231 295 341
#
# _framework density 18.765747000000001
#
# number of rings (size 3 to 8) (size 9 to 14) (size 15 to 20)
#    0.000    2.000    0.833    2.500    2.333    5.000 
#    0.000    3.333    0.000    1.000    0.000    0.000 
#    0.000    0.000    0.000    0.000    0.000    0.000 
#
# Total GULP energy -133994.207388 kJ/mol
# GULP energy per Si atom -5583.091975 kJ/mol
# Density = 1.872304 g / cm^3
# Si number density = 18.765747 Si / 1000 Ang^3
#
#
#
# Elastic Constant Matrix: (Units=GPa)
#
#
# Indices 1 2 3 4 5 6 
#
# 1 66.0402 38.5374 62.2217 0.0000 0.0000 0.0000
# 2 38.5374 94.3526 76.2678 0.0000 0.0000 0.0000
# 3 62.2217 76.2678 195.6492 0.0000 0.0000 0.0000
# 4 0.0000 0.0000 0.0000 5.5001 0.0000 0.0000
# 5 0.0000 0.0000 0.0000 0.0000 -13.2830 0.0000
# 6 0.0000 0.0000 0.0000 0.0000 0.0000 16.4417
#
#
#
# Elastic Compliance Matrix: (Units=1/GPa)
#
#
# Indices 1 2 3 4 5 6 
#
# 1 0.023204 -0.005128 -0.005380 0.000000 0.000000 0.000000
# 2 -0.005128 0.016608 -0.004843 0.000000 0.000000 0.000000
# 3 -0.005380 -0.004843 0.008710 0.000000 0.000000 0.000000
# 4 0.000000 0.000000 0.000000 0.181816 0.000000 0.000000
# 5 0.000000 0.000000 0.000000 0.000000 -0.075284 0.000000
# 6 0.000000 0.000000 0.000000 0.000000 0.000000 0.060821
#
#
# Mechanical properties :
#
#
# Convention : Reuss Voigt Hill
#
# Bulk Modulus (GPa) = 56.12114 78.89954 67.51034
# Shear Modulus (GPa) = 19.80047 13.66608 16.73327
#
# Velocity S-wave (km/s) = 3.25181 2.70153 2.98936
# Velocity P-wave (km/s) = 6.63853 7.20186 6.92593
#
# Compressibility (1/GPa) = 0.01781860
#
# Stress axis : x y z
#
# Youngs Moduli (GPa) = 43.09548 60.21174 114.80694
#
# Poissons Ratio (x) = 0.30879 0.61771
# Poissons Ratio (y) = 0.22101 0.55603
# Poissons Ratio (z) = 0.23187 0.29162
#
# Static dielectric constant tensor:
#      x y z
#    x 1.619170 0.000000 0.000000 
#    y 0.000000 1.668120 0.000000 
#    z 0.000000 0.000000 1.624400 
# 
# From -- ./inp_files/15183.got.cif
#   From: 2010.05.17/outbox.cif.g08.bks.cpg/sg35_8_cif.got.tgz:15183.got - 2010.06.03 17:29:28.
