data_PCOD9349500
_publ_section_title
;
Structure prediction by ZEFSAII (Michael W. Deem and Ramdas Pophale) SiO2 
 PCOD9349500
Probable space group: C M M 2
;
_chemical_formula_sum "Si O2"
_cell_formula_units_Z 56
_cell_length_a 8.175910
_cell_length_b 22.977981
_cell_length_c 15.391185
_cell_angle_alpha 90.000000
_cell_angle_beta 90.000000
_cell_angle_gamma 90.000000
_cell_volume 2891.478893
_symmetry_space_group_name_H-M "C M M 2"
_symmetry_group_IT_number 35
_symmetry_cell_setting 'orthorhombic'
loop_
_space_group_symop_operation_xyz
x,y,z
-x,-y,z
-x,y,z
x,-y,z
1/2+x,1/2+y,z
1/2-x,1/2-y,z
1/2-x,1/2+y,z
1/2+x,1/2-y,z
loop_
_atom_site_type_symbol
_atom_site_label
_atom_site_fract_x
_atom_site_fract_y
_atom_site_fract_z
Si Si1 0.698166 0.684158 0.507680
Si Si2 0.688243 0.000000 0.360641
Si Si3 0.302814 0.817081 0.963426
Si Si4 0.189209 0.500000 0.567571
Si Si5 0.189644 0.124747 0.330473
Si Si6 0.308849 0.389442 0.663494
Si Si7 0.198284 0.068846 0.851860
Si Si8 0.307264 0.813672 0.160163
O O1 0.500000 0.678478 0.510071
O O2 0.750000 0.750000 0.496287
O O3 0.758719 0.649784 0.421847
O O4 0.761252 0.660991 0.601280
O O5 0.684593 0.000000 0.464639
O O6 0.782718 0.943365 0.332052
O O7 0.500000 0.000000 0.329472
O O8 0.500000 0.816708 0.959724
O O9 0.250000 0.750000 0.936472
O O10 0.240434 0.824890 0.063105
O O11 0.246488 0.875923 0.912916
O O12 0.285966 0.444818 0.602102
O O13 0.000000 0.500000 0.598851
O O14 0.263742 0.146494 0.240741
O O15 0.000000 0.141039 0.329177
O O16 0.500000 0.376368 0.678891
O O17 0.241160 0.409644 0.756532
O O18 0.000000 0.066210 0.851228
O O19 0.250629 0.000000 0.868293
O O20 0.500000 0.814176 0.149751
O O21 0.250000 0.750000 0.186335
#
# Coordination Sequence:
#
# PCOD9349500 Si02
#       8
#     8   4   8   4   8   8   8   8
#     4  10  22  36  54  80 114 152 191 234 282 335
#     4  11  23  37  55  82 117 154 193 243 290 338
#     4  10  22  41  65  90 120 157 197 249 305 363
#     4  11  21  33  55  84 109 146 193 237 276 324
#     4  11  22  37  59  85 113 154 197 238 287 345
#     4  10  20  38  59  80 113 155 192 232 285 343
#     4  10  21  38  63  91 120 158 202 249 303 361
#     4  10  21  39  62  87 115 152 193 240 294 350
#
# _framework density 19.367252000000001
#
# number of rings (size 3 to 8) (size 9 to 14) (size 15 to 20)
#    0.000    1.714    2.143    2.143    0.000    6.571 
#    1.286    1.429    0.000    0.000    0.000    0.000 
#    0.000    0.000    0.000    0.000    0.000    0.000 
#
# Total GULP energy -155933.404350 kJ/mol
# GULP energy per Si atom -5569.050155 kJ/mol
# Density = 1.932317 g / cm^3
# Si number density = 19.367252 Si / 1000 Ang^3
#
#
#
# Elastic Constant Matrix: (Units=GPa)
#
#
# Indices 1 2 3 4 5 6 
#
# 1 16.1763 -0.8883 9.3342 0.0000 0.0000 0.0000
# 2 -0.8883 156.5031 78.3969 0.0000 0.0000 0.0000
# 3 9.3342 78.3969 96.1784 0.0000 0.0000 0.0000
# 4 0.0000 0.0000 0.0000 20.2775 0.0000 0.0000
# 5 0.0000 0.0000 0.0000 0.0000 -10.0182 0.0000
# 6 0.0000 0.0000 0.0000 0.0000 0.0000 28.0041
#
#
#
# Elastic Compliance Matrix: (Units=1/GPa)
#
#
# Indices 1 2 3 4 5 6 
#
# 1 0.069009 0.006332 -0.011859 0.000000 0.000000 0.000000
# 2 0.006332 0.011380 -0.009891 0.000000 0.000000 0.000000
# 3 -0.011859 -0.009891 0.019610 0.000000 0.000000 0.000000
# 4 0.000000 0.000000 0.000000 0.049316 0.000000 0.000000
# 5 0.000000 0.000000 0.000000 0.000000 -0.099819 0.000000
# 6 0.000000 0.000000 0.000000 0.000000 0.000000 0.035709
#
#
# Mechanical properties :
#
#
# Convention : Reuss Voigt Hill
#
# Bulk Modulus (GPa) = 14.45818 49.17150 31.81484
# Shear Modulus (GPa) = 35.94645 19.78703 27.86674
#
# Velocity S-wave (km/s) = 4.31286 3.19983 3.79734
# Velocity P-wave (km/s) = 5.68176 6.25268 5.97405
#
# Compressibility (1/GPa) = 0.06916502
#
# Stress axis : x y z
#
# Youngs Moduli (GPa) = 14.49078 87.87249 50.99344
#
# Poissons Ratio (x) = -0.55642 0.60473
# Poissons Ratio (y) = -0.09176 0.50436
# Poissons Ratio (z) = 0.17184 0.86912
#
# Static dielectric constant tensor:
#      x y z
#    x 1.712470 0.000000 0.000000 
#    y 0.000000 1.682790 0.000000 
#    z 0.000000 0.000000 1.709550 
# 
# From -- ./inp_files/15663.got.cif
#   From: 2010.05.17/outbox.cif.g08.bks.cpg/sg35_8_cif.got.tgz:15663.got - 2010.06.03 17:29:28.
