data_PCOD9349302
_publ_section_title
;
Structure prediction by ZEFSAII (Michael W. Deem and Ramdas Pophale) SiO2 
 PCOD9349302
Probable space group: C M M 2
;
_chemical_formula_sum "Si O2"
_cell_formula_units_Z 56
_cell_length_a 8.815670
_cell_length_b 22.463043
_cell_length_c 14.833969
_cell_angle_alpha 90.000000
_cell_angle_beta 90.000000
_cell_angle_gamma 90.000000
_cell_volume 2937.523031
_symmetry_space_group_name_H-M "C M M 2"
_symmetry_group_IT_number 35
_symmetry_cell_setting 'orthorhombic'
loop_
_space_group_symop_operation_xyz
x,y,z
-x,-y,z
-x,y,z
x,-y,z
1/2+x,1/2+y,z
1/2-x,1/2-y,z
1/2-x,1/2+y,z
1/2+x,1/2-y,z
loop_
_atom_site_type_symbol
_atom_site_label
_atom_site_fract_x
_atom_site_fract_y
_atom_site_fract_z
Si Si1 0.180284 0.000000 0.803890
Si Si2 0.681010 0.606729 0.491361
Si Si3 0.819309 0.622617 0.819575
Si Si4 0.679203 0.000000 0.604062
Si Si5 0.817553 0.313739 0.998473
Si Si6 0.320917 0.313736 0.653097
Si Si7 0.317978 0.932486 0.104524
Si Si8 0.322514 0.430369 0.299158
O O1 0.248710 0.940494 0.846650
O O2 0.233559 0.000000 0.699210
O O3 0.000000 0.000000 0.808306
O O4 0.500000 0.592268 0.494377
O O5 0.771406 0.556269 0.544686
O O6 0.704299 0.665515 0.550448
O O7 0.724183 0.607351 0.386545
O O8 0.754654 0.640939 0.723001
O O9 0.000000 0.616570 0.815253
O O10 0.781164 0.672199 0.893930
O O11 0.500000 0.000000 0.622078
O O12 0.750000 0.250000 0.026204
O O13 0.764795 0.373612 0.050966
O O14 0.000000 0.310485 0.007507
O O15 0.500000 0.313312 0.670048
O O16 0.250000 0.250000 0.669320
O O17 0.500000 0.934056 0.094501
O O18 0.273261 0.922955 0.208890
O O19 0.262032 0.000000 0.079812
O O20 0.500000 0.418673 0.278771
O O21 0.311063 0.500000 0.326598
#
# Coordination Sequence:
#
# PCOD9349302 Si02
#       8
#     4   8   8   4   8   8   8   8
#     4  12  24  38  56  85 122 157 190 235 296 348
#     4  10  20  36  56  79 114 154 188 231 287 340
#     4  11  23  39  61  87 115 150 196 243 292 353
#     4  12  22  32  54  85 114 147 188 231 276 328
#     4  10  23  41  63  87 116 155 196 244 300 355
#     4  11  23  38  57  78 111 156 198 240 289 343
#     4   9  19  37  60  86 117 151 189 239 299 355
#     4   9  17  32  56  84 114 149 187 231 288 347
#
# _framework density 19.063679
#
# number of rings (size 3 to 8) (size 9 to 14) (size 15 to 20)
#    0.000    1.714    2.143    2.571    1.000    4.000 
#    0.000    0.714    0.000    3.429    0.000    0.000 
#    0.000    0.000    0.000    0.000    0.000    0.000 
#
# Total GULP energy -156284.613806 kJ/mol
# GULP energy per Si atom -5581.593350 kJ/mol
# Density = 1.902029 g / cm^3
# Si number density = 19.063679 Si / 1000 Ang^3
#
#
#
# Elastic Constant Matrix: (Units=GPa)
#
#
# Indices 1 2 3 4 5 6 
#
# 1 36.4302 31.8446 15.3643 0.0000 0.0000 0.0000
# 2 31.8446 123.3303 39.9862 0.0000 0.0000 0.0000
# 3 15.3643 39.9862 74.0167 0.0000 0.0000 0.0000
# 4 0.0000 0.0000 0.0000 20.4913 0.0000 0.0000
# 5 0.0000 0.0000 0.0000 0.0000 23.4889 0.0000
# 6 0.0000 0.0000 0.0000 0.0000 0.0000 26.8797
#
#
#
# Elastic Compliance Matrix: (Units=1/GPa)
#
#
# Indices 1 2 3 4 5 6 
#
# 1 0.035982 -0.008328 -0.002970 0.000000 0.000000 0.000000
# 2 -0.008328 0.011757 -0.004623 0.000000 0.000000 0.000000
# 3 -0.002970 -0.004623 0.016625 0.000000 0.000000 0.000000
# 4 0.000000 0.000000 0.000000 0.048801 0.000000 0.000000
# 5 0.000000 0.000000 0.000000 0.000000 0.042573 0.000000
# 6 0.000000 0.000000 0.000000 0.000000 0.000000 0.037203
#
#
# Mechanical properties :
#
#
# Convention : Reuss Voigt Hill
#
# Bulk Modulus (GPa) = 30.74849 45.35193 38.05021
# Shear Modulus (GPa) = 21.22026 23.94413 22.58220
#
# Velocity S-wave (km/s) = 3.33997 3.54786 3.44549
# Velocity P-wave (km/s) = 5.57120 6.37373 5.98593
#
# Compressibility (1/GPa) = 0.03252192
#
# Stress axis : x y z
#
# Youngs Moduli (GPa) = 27.79177 85.05223 60.15194
#
# Poissons Ratio (x) = 0.70829 0.17866
# Poissons Ratio (y) = 0.23144 0.27809
# Poissons Ratio (z) = 0.08255 0.39321
#
# Static dielectric constant tensor:
#      x y z
#    x 1.643210 0.000000 0.000000 
#    y 0.000000 1.655290 0.000000 
#    z 0.000000 0.000000 1.659840 
# 
# From -- ./inp_files/15740.got.cif
#   From: 2010.05.17/outbox.cif.g08.bks.cpg/sg35_8_cif.got.tgz:15740.got - 2010.06.03 17:29:28.
