data_PCOD9349382
_publ_section_title
;
Structure prediction by ZEFSAII (Michael W. Deem and Ramdas Pophale) SiO2 
 PCOD9349382
Probable space group: C M M 2
;
_chemical_formula_sum "Si O2"
_cell_formula_units_Z 48
_cell_length_a 16.921676
_cell_length_b 15.423140
_cell_length_c 8.524190
_cell_angle_alpha 90.000000
_cell_angle_beta 90.000000
_cell_angle_gamma 90.000000
_cell_volume 2224.688949
_symmetry_space_group_name_H-M "C M M 2"
_symmetry_group_IT_number 35
_symmetry_cell_setting 'orthorhombic'
loop_
_space_group_symop_operation_xyz
x,y,z
-x,-y,z
-x,y,z
x,-y,z
1/2+x,1/2+y,z
1/2-x,1/2-y,z
1/2-x,1/2+y,z
1/2+x,1/2-y,z
loop_
_atom_site_type_symbol
_atom_site_label
_atom_site_fract_x
_atom_site_fract_y
_atom_site_fract_z
Si Si1 0.880870 0.401650 0.372340
Si Si2 0.744149 0.350859 0.961382
Si Si3 0.586198 0.103104 0.000912
Si Si4 0.915115 0.783947 0.448167
Si Si5 0.703726 0.406584 0.300385
Si Si6 0.088829 0.897004 0.762436
O O1 0.908990 0.500000 0.405425
O O2 0.901381 0.381180 0.188811
O O3 0.909653 0.319186 0.469118
O O4 0.786413 0.402772 0.390627
O O5 0.750000 0.250000 0.000423
O O6 0.668011 0.370769 0.855624
O O7 0.834215 0.371053 0.909055
O O8 0.727922 0.403639 0.119410
O O9 0.500000 0.140310 0.954808
O O10 0.581863 0.000000 0.985530
O O11 0.847641 0.823403 0.339604
O O12 0.910046 0.837885 0.607906
O O13 0.000000 0.802824 0.373582
O O14 0.664501 0.500000 0.334878
O O15 0.000000 0.884180 0.835689
O O16 0.094328 0.000000 0.727781
#
# Coordination Sequence:
#
# PCOD9349382 Si02
#       6
#     8   8   8   8   8   8
#     4   9  18  33  56  87 121 154 188 235 298 360
#     4  11  22  36  59  88 117 154 197 244 296 354
#     4   9  17  32  56  86 119 150 183 231 291 351
#     4  11  22  36  58  88 120 154 196 246 296 349
#     4  10  20  36  59  86 117 152 195 243 288 345
#     4  10  23  43  61  80 116 164 207 248 299 356
#
# _framework density 21.576051
#
# number of rings (size 3 to 8) (size 9 to 14) (size 15 to 20)
#    0.000    2.000    0.000    6.000    0.000    4.667 
#    0.000    0.000    0.000    2.000    0.000    1.167 
#    0.000    5.333    0.000    0.000    0.000    0.000 
#
# Total GULP energy -133804.695597 kJ/mol
# GULP energy per Si atom -5575.195650 kJ/mol
# Density = 2.152694 g / cm^3
# Si number density = 21.576051 Si / 1000 Ang^3
#
#
#
# Elastic Constant Matrix: (Units=GPa)
#
#
# Indices 1 2 3 4 5 6 
#
# 1 175.4402 52.2830 29.9075 0.0000 0.0000 0.0000
# 2 52.2830 136.8062 19.8874 0.0000 0.0000 0.0000
# 3 29.9075 19.8874 16.3364 0.0000 0.0000 0.0000
# 4 0.0000 0.0000 0.0000 2.8022 0.0000 0.0000
# 5 0.0000 0.0000 0.0000 0.0000 40.0205 0.0000
# 6 0.0000 0.0000 0.0000 0.0000 0.0000 -76.5509
#
#
#
# Elastic Compliance Matrix: (Units=1/GPa)
#
#
# Indices 1 2 3 4 5 6 
#
# 1 0.008442 -0.001190 -0.014007 0.000000 0.000000 0.000000
# 2 -0.001190 0.009049 -0.008837 0.000000 0.000000 0.000000
# 3 -0.014007 -0.008837 0.097613 0.000000 0.000000 0.000000
# 4 0.000000 0.000000 0.000000 0.356867 0.000000 0.000000
# 5 0.000000 0.000000 0.000000 0.000000 0.024987 0.000000
# 6 0.000000 0.000000 0.000000 0.000000 0.000000 -0.013063
#
#
# Mechanical properties :
#
#
# Convention : Reuss Voigt Hill
#
# Bulk Modulus (GPa) = 14.91717 59.19317 37.05517
# Shear Modulus (GPa) = 9.02023 8.35468 8.68746
#
# Velocity S-wave (km/s) = 2.04689 1.96993 2.00877
# Velocity P-wave (km/s) = 3.53767 5.71562 4.75308
#
# Compressibility (1/GPa) = 0.06703686
#
# Stress axis : x y z
#
# Youngs Moduli (GPa) = 118.44947 110.50799 10.24449
#
# Poissons Ratio (x) = 0.13153 0.14349
# Poissons Ratio (y) = 0.14099 0.09053
# Poissons Ratio (z) = 1.65910 0.97656
#
# Static dielectric constant tensor:
#      x y z
#    x 1.855400 0.000000 0.000000 
#    y 0.000000 1.801550 0.000000 
#    z 0.000000 0.000000 1.766020 
# 
# From -- ./inp_files/8372.got.cif
#   From: 2010.05.17/outbox.cif.g08.bks.cpg/sg35_5_cif.got.tgz:8372.got - 2010.06.03 17:29:28.
