data_PCOD9349882
_publ_section_title
;
Structure prediction by ZEFSAII (Michael W. Deem and Ramdas Pophale) SiO2 
 PCOD9349882
Probable space group: C M M 2
;
_chemical_formula_sum "Si O2"
_cell_formula_units_Z 26
_cell_length_a 7.691476
_cell_length_b 21.565870
_cell_length_c 7.044659
_cell_angle_alpha 90.000000
_cell_angle_beta 90.000000
_cell_angle_gamma 90.000000
_cell_volume 1168.521340
_symmetry_space_group_name_H-M "C M M 2"
_symmetry_group_IT_number 35
_symmetry_cell_setting 'orthorhombic'
loop_
_space_group_symop_operation_xyz
x,y,z
-x,-y,z
-x,y,z
x,-y,z
1/2+x,1/2+y,z
1/2-x,1/2-y,z
1/2-x,1/2+y,z
1/2+x,1/2-y,z
loop_
_atom_site_type_symbol
_atom_site_label
_atom_site_fract_x
_atom_site_fract_y
_atom_site_fract_z
Si Si1 0.803598 0.091928 0.481820
Si Si2 0.788299 0.570482 0.920236
Si Si3 0.500000 0.000000 0.362980
Si Si4 0.706868 0.180273 0.195338
O O1 0.766563 0.083488 0.704406
O O2 0.653185 0.053014 0.378657
O O3 0.782427 0.161091 0.399984
O O4 0.000000 0.071398 0.443391
O O5 0.732305 0.500000 0.970972
O O6 0.000000 0.568858 0.927321
O O7 0.726928 0.626907 0.051132
O O8 0.500000 0.176209 0.201485
O O9 0.750000 0.250000 0.138551
#
# Coordination Sequence:
#
# PCOD9349882 Si02
#       4
#     8   8   2   8
#     4  12  24  42  71 101 137 177 221 274 339 400
#     4  10  21  41  69  98 132 173 220 282 340 391
#     4  12  22  44  66 106 140 166 224 276 334 402
#     4  11  25  44  68  96 138 183 227 277 333 400
#
# _framework density 22.250343000000001
#
# number of rings (size 3 to 8) (size 9 to 14) (size 15 to 20)
#    0.000    0.923    4.615    1.385    2.154    3.692 
#    0.000    3.077    0.000    0.000    0.000    0.000 
#    0.000    0.000    0.000    0.000    0.000    0.000 
#
# Total GULP energy -72428.535433 kJ/mol
# GULP energy per Si atom -5571.425803 kJ/mol
# Density = 2.219970 g / cm^3
# Si number density = 22.250343 Si / 1000 Ang^3
#
#
#
# Elastic Constant Matrix: (Units=GPa)
#
#
# Indices 1 2 3 4 5 6 
#
# 1 127.0430 41.0583 13.6122 0.0000 0.0000 0.0000
# 2 41.0583 203.1937 82.6231 0.0000 0.0000 0.0000
# 3 13.6122 82.6231 91.8990 0.0000 0.0000 0.0000
# 4 0.0000 0.0000 0.0000 19.2904 0.0000 0.0000
# 5 0.0000 0.0000 0.0000 0.0000 13.0458 0.0000
# 6 0.0000 0.0000 0.0000 0.0000 0.0000 30.3703
#
#
#
# Elastic Compliance Matrix: (Units=1/GPa)
#
#
# Indices 1 2 3 4 5 6 
#
# 1 0.008433 -0.001885 0.000446 0.000000 0.000000 0.000000
# 2 -0.001885 0.008179 -0.007074 0.000000 0.000000 0.000000
# 3 0.000446 -0.007074 0.017175 0.000000 0.000000 0.000000
# 4 0.000000 0.000000 0.000000 0.051839 0.000000 0.000000
# 5 0.000000 0.000000 0.000000 0.000000 0.076653 0.000000
# 6 0.000000 0.000000 0.000000 0.000000 0.000000 0.032927
#
#
# Mechanical properties :
#
#
# Convention : Reuss Voigt Hill
#
# Bulk Modulus (GPa) = 59.66471 77.41367 68.53919
# Shear Modulus (GPa) = 22.95470 31.53077 27.24273
#
# Velocity S-wave (km/s) = 3.21543 3.76851 3.50290
# Velocity P-wave (km/s) = 6.37642 7.33507 6.87248
#
# Compressibility (1/GPa) = 0.01676033
#
# Stress axis : x y z
#
# Youngs Moduli (GPa) = 118.58358 122.26682 58.22252
#
# Poissons Ratio (x) = 0.23051 -0.02596
# Poissons Ratio (y) = 0.22357 0.41187
# Poissons Ratio (z) = -0.05288 0.86492
#
# Static dielectric constant tensor:
#      x y z
#    x 1.804300 0.000000 0.000000 
#    y 0.000000 1.921850 0.000000 
#    z 0.000000 0.000000 1.879520 
# 
# From -- ./inp_files/4423.got.cif
#   From: 2010.05.17/outbox.cif.g08.bks.cpg/sg35_3_cif.got.tgz:4423.got - 2010.06.03 17:29:28.
