data_PCOD9349637
_publ_section_title
;
Structure prediction by ZEFSAII (Michael W. Deem and Ramdas Pophale) SiO2 
 PCOD9349637
Probable space group: C M M 2
;
_chemical_formula_sum "Si O2"
_cell_formula_units_Z 64
_cell_length_a 29.055991
_cell_length_b 8.573340
_cell_length_c 13.329050
_cell_angle_alpha 90.000000
_cell_angle_beta 90.000000
_cell_angle_gamma 90.000000
_cell_volume 3320.358191
_symmetry_space_group_name_H-M "C M M 2"
_symmetry_group_IT_number 35
_symmetry_cell_setting 'orthorhombic'
loop_
_space_group_symop_operation_xyz
x,y,z
-x,-y,z
-x,y,z
x,-y,z
1/2+x,1/2+y,z
1/2-x,1/2-y,z
1/2-x,1/2+y,z
1/2+x,1/2-y,z
loop_
_atom_site_type_symbol
_atom_site_label
_atom_site_fract_x
_atom_site_fract_y
_atom_site_fract_z
Si Si1 0.447120 0.188699 0.177270
Si Si2 0.055871 0.322830 0.399570
Si Si3 0.802015 0.686996 0.504935
Si Si4 0.641737 0.686520 0.092418
Si Si5 0.948195 0.186878 0.613295
Si Si6 0.644556 0.688514 0.697055
Si Si7 0.302106 0.187201 0.281052
Si Si8 0.301900 0.688911 0.895918
O O1 0.500000 0.237003 0.159225
O O2 0.432042 0.241152 0.289774
O O3 0.410088 0.250029 0.099205
O O4 0.446329 0.000000 0.180006
O O5 0.073836 0.500000 0.409267
O O6 0.066803 0.229992 0.499947
O O7 0.000000 0.331143 0.396283
O O8 0.801595 0.500000 0.512096
O O9 0.750000 0.750000 0.511870
O O10 0.830481 0.756325 0.596252
O O11 0.819483 0.729647 0.393069
O O12 0.640648 0.500000 0.092533
O O13 0.668159 0.745483 0.191031
O O14 0.669594 0.738757 0.994034
O O15 0.908484 0.241930 0.688372
O O16 0.000000 0.249038 0.630027
O O17 0.950491 0.000000 0.619814
O O18 0.644694 0.500000 0.698673
O O19 0.671897 0.742128 0.795229
O O20 0.250000 0.250000 0.272644
O O21 0.301699 0.000000 0.274239
O O22 0.300504 0.500000 0.895283
O O23 0.250000 0.750000 0.898692
#
# Coordination Sequence:
#
# PCOD9349637 Si02
#       8
#     8   8   8   8   8   8   8   8
#     4   9  19  36  56  80 114 154 192 232 282 335
#     4   8  15  29  49  73 105 145 183 221 266 316
#     4  10  21  36  55  81 112 144 180 224 280 343
#     4  11  23  37  57  84 113 147 192 238 284 338
#     4   9  18  32  51  78 111 147 186 226 270 322
#     4  10  21  37  57  81 112 147 187 232 281 334
#     4  10  21  37  56  81 114 148 183 228 286 348
#     4  10  23  42  61  83 110 143 186 237 288 338
#
# _framework density 19.275029
#
# number of rings (size 3 to 8) (size 9 to 14) (size 15 to 20)
#    0.000    2.375    0.000    2.625    1.750    6.250 
#    0.000    1.875    0.000    2.250    0.000    1.750 
#    0.000    0.000    0.000    0.000    0.000    0.000 
#
# Total GULP energy -178616.406646 kJ/mol
# GULP energy per Si atom -5581.762708 kJ/mol
# Density = 1.923116 g / cm^3
# Si number density = 19.275029 Si / 1000 Ang^3
#
#
#
# Elastic Constant Matrix: (Units=GPa)
#
#
# Indices 1 2 3 4 5 6 
#
# 1 145.0694 23.4087 99.3932 0.0000 0.0000 0.0000
# 2 23.4087 14.1716 25.5551 0.0000 0.0000 0.0000
# 3 99.3932 25.5551 140.2671 0.0000 0.0000 0.0000
# 4 0.0000 0.0000 0.0000 20.5582 0.0000 0.0000
# 5 0.0000 0.0000 0.0000 0.0000 40.6239 0.0000
# 6 0.0000 0.0000 0.0000 0.0000 0.0000 23.2714
#
#
#
# Elastic Compliance Matrix: (Units=1/GPa)
#
#
# Indices 1 2 3 4 5 6 
#
# 1 0.013950 -0.007770 -0.008469 0.000000 0.000000 0.000000
# 2 -0.007770 0.109417 -0.014429 0.000000 0.000000 0.000000
# 3 -0.008469 -0.014429 0.015759 0.000000 0.000000 0.000000
# 4 0.000000 0.000000 0.000000 0.048642 0.000000 0.000000
# 5 0.000000 0.000000 0.000000 0.000000 0.024616 0.000000
# 6 0.000000 0.000000 0.000000 0.000000 0.000000 0.042971
#
#
# Mechanical properties :
#
#
# Convention : Reuss Voigt Hill
#
# Bulk Modulus (GPa) = 12.85506 66.24689 39.55098
# Shear Modulus (GPa) = 14.59336 26.96743 20.78039
#
# Velocity S-wave (km/s) = 2.75455 3.74449 3.28700
# Velocity P-wave (km/s) = 4.09884 7.28964 5.91352
#
# Compressibility (1/GPa) = 0.07779039
#
# Stress axis : x y z
#
# Youngs Moduli (GPa) = 71.68707 9.13931 63.45506
#
# Poissons Ratio (x) = 0.07101 0.53740
# Poissons Ratio (y) = 0.55701 0.91559
# Poissons Ratio (z) = 0.60712 0.13187
#
# Static dielectric constant tensor:
#      x y z
#    x 1.703660 0.000000 0.000000 
#    y 0.000000 1.659250 0.000000 
#    z 0.000000 0.000000 1.661650 
# 
# From -- ./inp_files/14538.got.cif
#   From: 2010.05.17/outbox.cif.g08.bks.cpg/sg35_8_cif.got.tgz:14538.got - 2010.06.03 17:29:28.
