data_PCOD9349164
_publ_section_title
;
Structure prediction by ZEFSAII (Michael W. Deem and Ramdas Pophale) SiO2 
 PCOD9349164
Probable space group: C M M 2
;
_chemical_formula_sum "Si O2"
_cell_formula_units_Z 64
_cell_length_a 9.701331
_cell_length_b 28.882504
_cell_length_c 12.533197
_cell_angle_alpha 90.000000
_cell_angle_beta 90.000000
_cell_angle_gamma 90.000000
_cell_volume 3511.785900
_symmetry_space_group_name_H-M "C M M 2"
_symmetry_group_IT_number 35
_symmetry_cell_setting 'orthorhombic'
loop_
_space_group_symop_operation_xyz
x,y,z
-x,-y,z
-x,y,z
x,-y,z
1/2+x,1/2+y,z
1/2-x,1/2-y,z
1/2-x,1/2+y,z
1/2+x,1/2-y,z
loop_
_atom_site_type_symbol
_atom_site_label
_atom_site_fract_x
_atom_site_fract_y
_atom_site_fract_z
Si Si1 0.658687 0.948276 0.256060
Si Si2 0.665416 0.297963 0.502569
Si Si3 0.660612 0.639327 0.296575
Si Si4 0.152166 0.846309 0.054833
Si Si5 0.233944 0.051851 0.021530
Si Si6 0.335075 0.949239 0.779594
Si Si7 0.659093 0.795529 0.887891
Si Si8 0.161331 0.644491 0.672117
O O1 0.500000 0.943340 0.287081
O O2 0.747341 0.906634 0.303401
O O3 0.669227 0.946434 0.126411
O O4 0.707138 0.000000 0.286629
O O5 0.500000 0.291328 0.521082
O O6 0.750000 0.250000 0.504833
O O7 0.683654 0.323717 0.389305
O O8 0.736899 0.331314 0.589328
O O9 0.500000 0.625417 0.299681
O O10 0.684411 0.660752 0.179358
O O11 0.147261 0.901666 0.036138
O O12 0.000000 0.827107 0.030355
O O13 0.268578 0.824665 0.981206
O O14 0.169771 0.000000 0.024281
O O15 0.302618 0.056360 0.905301
O O16 0.500000 0.949217 0.770561
O O17 0.288166 0.906456 0.707792
O O18 0.282037 0.000000 0.747056
O O19 0.500000 0.784981 0.913001
O O20 0.750000 0.750000 0.871989
O O21 0.661417 0.825462 0.780204
O O22 0.000000 0.642639 0.634896
#
# Coordination Sequence:
#
# PCOD9349164 Si02
#       8
#     8   8   8   8   8   8   8   8
#     4   9  17  29  51  85 119 152 193 234 272 323
#     4  11  24  43  65  85 106 139 188 243 295 341
#     4   9  21  39  57  81 113 149 188 232 285 340
#     4  10  20  35  55  82 117 152 186 228 277 335
#     4   9  16  28  49  80 118 157 191 225 269 323
#     4   9  16  29  52  82 117 153 186 222 268 323
#     4  11  23  38  56  81 112 147 184 227 282 343
#     4  10  21  38  60  87 115 146 187 230 279 335
#
# _framework density 18.224346000000001
#
# number of rings (size 3 to 8) (size 9 to 14) (size 15 to 20)
#    0.000    2.250    1.250    1.500    0.000    7.500 
#    0.000    4.375    0.000    2.625    0.000    0.000 
#    0.000    0.000    0.000    0.000    0.000    0.000 
#
# Total GULP energy -178344.469440 kJ/mol
# GULP energy per Si atom -5573.264670 kJ/mol
# Density = 1.818287 g / cm^3
# Si number density = 18.224346 Si / 1000 Ang^3
#
#
#
# Elastic Constant Matrix: (Units=GPa)
#
#
# Indices 1 2 3 4 5 6 
#
# 1 84.5662 51.7848 45.0930 0.0000 0.0000 0.0000
# 2 51.7848 124.2241 56.3333 0.0000 0.0000 0.0000
# 3 45.0930 56.3333 79.0424 0.0000 0.0000 0.0000
# 4 0.0000 0.0000 0.0000 17.9558 0.0000 0.0000
# 5 0.0000 0.0000 0.0000 0.0000 10.9981 0.0000
# 6 0.0000 0.0000 0.0000 0.0000 0.0000 6.1340
#
#
#
# Elastic Compliance Matrix: (Units=1/GPa)
#
#
# Indices 1 2 3 4 5 6 
#
# 1 0.018433 -0.004308 -0.007446 0.000000 0.000000 0.000000
# 2 -0.004308 0.012901 -0.006737 0.000000 0.000000 0.000000
# 3 -0.007446 -0.006737 0.021701 0.000000 0.000000 0.000000
# 4 0.000000 0.000000 0.000000 0.055692 0.000000 0.000000
# 5 0.000000 0.000000 0.000000 0.000000 0.090925 0.000000
# 6 0.000000 0.000000 0.000000 0.000000 0.000000 0.163025
#
#
# Mechanical properties :
#
#
# Convention : Reuss Voigt Hill
#
# Bulk Modulus (GPa) = 62.29085 66.02832 64.15958
# Shear Modulus (GPa) = 12.34539 15.99234 14.16886
#
# Velocity S-wave (km/s) = 2.60554 2.96552 2.79134
# Velocity P-wave (km/s) = 6.58073 6.93075 6.75800
#
# Compressibility (1/GPa) = 0.01605372
#
# Stress axis : x y z
#
# Youngs Moduli (GPa) = 54.24980 77.51523 46.08148
#
# Poissons Ratio (x) = 0.33390 0.34312
# Poissons Ratio (y) = 0.23368 0.31044
# Poissons Ratio (z) = 0.40395 0.52221
#
# Static dielectric constant tensor:
#      x y z
#    x 1.634280 0.000000 0.000000 
#    y 0.000000 1.651020 0.000000 
#    z 0.000000 0.000000 1.614280 
# 
# From -- ./inp_files/11955.got.cif
#   From: 2010.05.17/outbox.cif.g08.bks.cpg/sg35_6_cif.got.tgz:11955.got - 2010.06.03 17:29:28.
