data_PCOD9349296
_publ_section_title
;
Structure prediction by ZEFSAII (Michael W. Deem and Ramdas Pophale) SiO2 
 PCOD9349296
Probable space group: C M M 2
;
_chemical_formula_sum "Si O2"
_cell_formula_units_Z 44
_cell_length_a 10.963000
_cell_length_b 14.714959
_cell_length_c 14.627284
_cell_angle_alpha 90.000000
_cell_angle_beta 90.000000
_cell_angle_gamma 90.000000
_cell_volume 2359.674852
_symmetry_space_group_name_H-M "C M M 2"
_symmetry_group_IT_number 35
_symmetry_cell_setting 'orthorhombic'
loop_
_space_group_symop_operation_xyz
x,y,z
-x,-y,z
-x,y,z
x,-y,z
1/2+x,1/2+y,z
1/2-x,1/2-y,z
1/2-x,1/2+y,z
1/2+x,1/2-y,z
loop_
_atom_site_type_symbol
_atom_site_label
_atom_site_fract_x
_atom_site_fract_y
_atom_site_fract_z
Si Si1 0.141069 0.822168 0.612510
Si Si2 0.854305 0.603124 0.078041
Si Si3 0.859973 0.610512 0.286140
Si Si4 0.356069 0.402253 0.808958
Si Si5 0.750000 0.750000 0.939285
Si Si6 0.634763 0.608350 0.407842
O O1 0.250000 0.750000 0.611416
O O2 0.164928 0.883068 0.701806
O O3 0.145776 0.872969 0.515704
O O4 0.000000 0.786782 0.621664
O O5 0.806119 0.500000 0.060019
O O6 0.821415 0.630746 0.181825
O O7 0.000000 0.596314 0.078169
O O8 0.818682 0.679670 0.005866
O O9 0.864906 0.500000 0.291650
O O10 0.754294 0.642835 0.354585
O O11 0.000000 0.641699 0.303499
O O12 0.500000 0.409367 0.820137
O O13 0.299284 0.500000 0.834544
O O14 0.318774 0.318027 0.871026
O O15 0.500000 0.643286 0.378291
O O16 0.632846 0.500000 0.393589
#
# Coordination Sequence:
#
# PCOD9349296 Si02
#       6
#     8   8   8   8   4   8
#     4  10  20  36  55  79 113 148 183 226 277 334
#     4   9  19  36  56  79 110 148 186 229 285 338
#     4   8  15  31  54  77 106 146 187 225 270 328
#     4  10  21  37  57  81 111 148 187 229 283 341
#     4  12  20  34  58  84 108 140 186 242 282 330
#     4   9  17  31  54  81 108 142 183 225 271 325
#
# _framework density 18.646636999999998
#
# number of rings (size 3 to 8) (size 9 to 14) (size 15 to 20)
#    0.000    2.545    0.909    2.727    0.000    2.909 
#    1.636    1.818    0.000    7.091    0.000    0.000 
#    0.000    0.000    0.000    0.000    0.000    0.000 
#
# Total GULP energy -122482.419517 kJ/mol
# GULP energy per Si atom -5567.382705 kJ/mol
# Density = 1.860420 g / cm^3
# Si number density = 18.646637 Si / 1000 Ang^3
#
#
#
# Elastic Constant Matrix: (Units=GPa)
#
#
# Indices 1 2 3 4 5 6 
#
# 1 81.6016 34.8980 63.6174 0.0000 0.0000 0.0000
# 2 34.8980 89.4388 48.0935 0.0000 0.0000 0.0000
# 3 63.6174 48.0935 130.5921 0.0000 0.0000 0.0000
# 4 0.0000 0.0000 0.0000 13.9524 0.0000 0.0000
# 5 0.0000 0.0000 0.0000 0.0000 4.9742 0.0000
# 6 0.0000 0.0000 0.0000 0.0000 0.0000 15.2462
#
#
#
# Elastic Compliance Matrix: (Units=1/GPa)
#
#
# Indices 1 2 3 4 5 6 
#
# 1 0.020502 -0.003278 -0.008780 0.000000 0.000000 0.000000
# 2 -0.003278 0.014466 -0.003730 0.000000 0.000000 0.000000
# 3 -0.008780 -0.003730 0.013308 0.000000 0.000000 0.000000
# 4 0.000000 0.000000 0.000000 0.071673 0.000000 0.000000
# 5 0.000000 0.000000 0.000000 0.000000 0.201036 0.000000
# 6 0.000000 0.000000 0.000000 0.000000 0.000000 0.065590
#
#
# Mechanical properties :
#
#
# Convention : Reuss Voigt Hill
#
# Bulk Modulus (GPa) = 59.88536 66.09450 62.98993
# Shear Modulus (GPa) = 11.80030 17.16946 14.48488
#
# Velocity S-wave (km/s) = 2.51836 3.03773 2.79015
# Velocity P-wave (km/s) = 6.37509 6.91567 6.65087
#
# Compressibility (1/GPa) = 0.01669857
#
# Stress axis : x y z
#
# Youngs Moduli (GPa) = 48.77658 69.12804 75.14066
#
# Poissons Ratio (x) = 0.22662 0.65973
# Poissons Ratio (y) = 0.15990 0.28030
# Poissons Ratio (z) = 0.42826 0.25788
#
# Static dielectric constant tensor:
#      x y z
#    x 1.648750 0.000000 0.000000 
#    y 0.000000 1.644300 0.000000 
#    z 0.000000 0.000000 1.653690 
# 
# From -- ./inp_files/16284.got.cif
#   From: 2010.05.17/outbox.cif.g08.bks.cpg/sg35_9_cif.got.tgz:16284.got - 2010.06.03 17:29:28.
