data_PCOD9349256
_publ_section_title
;
Structure prediction by ZEFSAII (Michael W. Deem and Ramdas Pophale) SiO2 
 PCOD9349256
Probable space group: C M M 2
;
_chemical_formula_sum "Si O2"
_cell_formula_units_Z 64
_cell_length_a 19.911973
_cell_length_b 15.862165
_cell_length_c 9.476598
_cell_angle_alpha 90.000000
_cell_angle_beta 90.000000
_cell_angle_gamma 90.000000
_cell_volume 2993.155060
_symmetry_space_group_name_H-M "C M M 2"
_symmetry_group_IT_number 35
_symmetry_cell_setting 'orthorhombic'
loop_
_space_group_symop_operation_xyz
x,y,z
-x,-y,z
-x,y,z
x,-y,z
1/2+x,1/2+y,z
1/2-x,1/2-y,z
1/2-x,1/2+y,z
1/2+x,1/2-y,z
loop_
_atom_site_type_symbol
_atom_site_label
_atom_site_fract_x
_atom_site_fract_y
_atom_site_fract_z
Si Si1 0.924939 0.170256 0.900450
Si Si2 0.672604 0.095310 0.251811
Si Si3 0.292379 0.337257 0.723116
Si Si4 0.206112 0.162445 0.392362
Si Si5 0.920796 0.600553 0.498949
Si Si6 0.574620 0.860211 0.809200
Si Si7 0.700389 0.911194 0.960384
Si Si8 0.920254 0.102116 0.217307
O O1 0.866216 0.154061 0.789435
O O2 0.927639 0.271861 0.890913
O O3 0.000000 0.139387 0.861487
O O4 0.909484 0.134330 0.055814
O O5 0.744066 0.094232 0.325936
O O6 0.621100 0.132983 0.365724
O O7 0.645171 0.000000 0.227230
O O8 0.687119 0.141188 0.103024
O O9 0.250000 0.250000 0.730956
O O10 0.297971 0.355718 0.558525
O O11 0.248290 0.389269 0.833163
O O12 0.250000 0.250000 0.373561
O O13 0.134057 0.150588 0.315927
O O14 0.906474 0.500000 0.520794
O O15 0.903820 0.648041 0.644900
O O16 0.000000 0.609234 0.472685
O O17 0.500000 0.896562 0.804567
O O18 0.628053 0.914485 0.889672
O O19 0.726771 0.000000 0.015843
O O20 0.000000 0.118621 0.250405
O O21 0.910643 0.000000 0.224950
#
# Coordination Sequence:
#
# PCOD9349256 Si02
#       8
#     8   8   8   8   8   8   8   8
#     4  10  22  40  66  94 123 163 207 258 317 377
#     4  10  22  38  57  85 124 165 208 257 312 378
#     4  11  23  41  62  89 129 168 210 264 320 382
#     4  11  25  39  63  96 127 165 211 263 328 387
#     4   9  18  34  56  83 122 171 214 255 309 375
#     4  10  20  35  58  88 123 164 205 252 310 372
#     4  11  23  37  60  91 121 163 210 255 311 375
#     4  10  23  46  72  97 129 171 220 273 330 392
#
# _framework density 21.38212
#
# number of rings (size 3 to 8) (size 9 to 14) (size 15 to 20)
#    0.000    1.750    1.250    2.250    3.500    6.250 
#    0.000    1.875    0.000    1.500    0.000    0.000 
#    0.000    0.000    0.000    0.000    0.000    0.000 
#
# Total GULP energy -178222.894280 kJ/mol
# GULP energy per Si atom -5569.465446 kJ/mol
# Density = 2.133345 g / cm^3
# Si number density = 21.382120 Si / 1000 Ang^3
#
#
#
# Elastic Constant Matrix: (Units=GPa)
#
#
# Indices 1 2 3 4 5 6 
#
# 1 134.3781 21.6776 101.7108 0.0000 0.0000 0.0000
# 2 21.6776 50.4613 40.2072 0.0000 0.0000 0.0000
# 3 101.7108 40.2072 177.9292 0.0000 0.0000 0.0000
# 4 0.0000 0.0000 0.0000 6.4241 0.0000 0.0000
# 5 0.0000 0.0000 0.0000 0.0000 46.1405 0.0000
# 6 0.0000 0.0000 0.0000 0.0000 0.0000 39.5263
#
#
#
# Elastic Compliance Matrix: (Units=1/GPa)
#
#
# Indices 1 2 3 4 5 6 
#
# 1 0.013124 0.000414 -0.007596 0.000000 0.000000 0.000000
# 2 0.000414 0.024182 -0.005701 0.000000 0.000000 0.000000
# 3 -0.007596 -0.005701 0.011251 0.000000 0.000000 0.000000
# 4 0.000000 0.000000 0.000000 0.155664 0.000000 0.000000
# 5 0.000000 0.000000 0.000000 0.000000 0.021673 0.000000
# 6 0.000000 0.000000 0.000000 0.000000 0.000000 0.025300
#
#
# Mechanical properties :
#
#
# Convention : Reuss Voigt Hill
#
# Bulk Modulus (GPa) = 43.87692 76.66222 60.26957
# Shear Modulus (GPa) = 17.57121 31.69637 24.63379
#
# Velocity S-wave (km/s) = 2.86977 3.85434 3.39790
# Velocity P-wave (km/s) = 5.61655 7.46587 6.60624
#
# Compressibility (1/GPa) = 0.02279102
#
# Stress axis : x y z
#
# Youngs Moduli (GPa) = 76.19519 41.35320 88.88379
#
# Poissons Ratio (x) = -0.01713 0.67515
# Poissons Ratio (y) = -0.03157 0.50675
# Poissons Ratio (z) = 0.57877 0.23577
#
# Static dielectric constant tensor:
#      x y z
#    x 1.789930 0.000000 0.000000 
#    y 0.000000 1.894860 0.000000 
#    z 0.000000 0.000000 1.809790 
# 
# From -- ./inp_files/9423.got.cif
#   From: 2010.05.17/outbox.cif.g08.bks.cpg/sg35_5_cif.got.tgz:9423.got - 2010.06.03 17:29:28.
