data_PCOD9349001
_publ_section_title
;
Structure prediction by ZEFSAII (Michael W. Deem and Ramdas Pophale) SiO2 
 PCOD9349001
Probable space group: C M M 2
;
_chemical_formula_sum "Si O2"
_cell_formula_units_Z 48
_cell_length_a 39.440332
_cell_length_b 7.625829
_cell_length_c 7.789666
_cell_angle_alpha 90.000000
_cell_angle_beta 90.000000
_cell_angle_gamma 90.000000
_cell_volume 2342.860667
_symmetry_space_group_name_H-M "C M M 2"
_symmetry_group_IT_number 35
_symmetry_cell_setting 'orthorhombic'
loop_
_space_group_symop_operation_xyz
x,y,z
-x,-y,z
-x,y,z
x,-y,z
1/2+x,1/2+y,z
1/2-x,1/2-y,z
1/2-x,1/2+y,z
1/2+x,1/2-y,z
loop_
_atom_site_type_symbol
_atom_site_label
_atom_site_fract_x
_atom_site_fract_y
_atom_site_fract_z
Si Si1 0.538446 0.288966 0.572730
Si Si2 0.336501 0.715705 0.243780
Si Si3 0.461476 0.791265 0.966307
Si Si4 0.913010 0.794415 0.275809
Si Si5 0.288607 0.710528 0.938620
Si Si6 0.788554 0.210287 0.550076
O O1 0.500000 0.222733 0.542880
O O2 0.537157 0.500000 0.555571
O O3 0.547707 0.249176 0.769330
O O4 0.564926 0.219512 0.433159
O O5 0.336345 0.500000 0.240542
O O6 0.375260 0.777180 0.250723
O O7 0.315569 0.772892 0.411360
O O8 0.315943 0.774522 0.075561
O O9 0.500000 0.723946 0.995180
O O10 0.462171 0.000000 0.986589
O O11 0.435233 0.719646 0.104033
O O12 0.908345 0.000000 0.315073
O O13 0.291630 0.500000 0.931663
O O14 0.250000 0.750000 0.992687
O O15 0.293270 0.778599 0.744253
O O16 0.750000 0.250000 0.496372
O O17 0.791748 0.000000 0.557201
#
# Coordination Sequence:
#
# PCOD9349001 Si02
#       6
#     8   8   8   8   8   8
#     4   9  18  33  54  78 101 129 169 214 255 298
#     4   9  18  31  48  72  99 127 159 197 245 297
#     4  10  21  36  54  76 103 136 171 208 253 305
#     4  10  20  34  54  79 105 134 170 212 256 302
#     4   9  17  30  49  71  95 125 161 200 240 285
#     4   9  17  30  48  69  93 123 161 201 240 285
#
# _framework density 20.487774999999999
#
# number of rings (size 3 to 8) (size 9 to 14) (size 15 to 20)
#    0.000    2.667    0.000    1.500    0.000    3.667 
#    0.000    8.333    0.000    4.000    0.000    0.000 
#    0.000    0.000    0.000    0.000    0.000    0.000 
#
# Total GULP energy -133968.745512 kJ/mol
# GULP energy per Si atom -5582.031063 kJ/mol
# Density = 2.044114 g / cm^3
# Si number density = 20.487775 Si / 1000 Ang^3
#
#
#
# Elastic Constant Matrix: (Units=GPa)
#
#
# Indices 1 2 3 4 5 6 
#
# 1 182.0905 -4.4777 130.9849 0.0000 0.0000 0.0000
# 2 -4.4777 38.5412 -8.3688 0.0000 0.0000 0.0000
# 3 130.9849 -8.3688 135.7185 0.0000 0.0000 0.0000
# 4 0.0000 0.0000 0.0000 18.1695 0.0000 0.0000
# 5 0.0000 0.0000 0.0000 0.0000 -36.0783 0.0000
# 6 0.0000 0.0000 0.0000 0.0000 0.0000 -24.0389
#
#
#
# Elastic Compliance Matrix: (Units=1/GPa)
#
#
# Indices 1 2 3 4 5 6 
#
# 1 0.018072 -0.001711 -0.017547 0.000000 0.000000 0.000000
# 2 -0.001711 0.026460 0.003283 0.000000 0.000000 0.000000
# 3 -0.017547 0.003283 0.024506 0.000000 0.000000 0.000000
# 4 0.000000 0.000000 0.000000 0.055037 0.000000 0.000000
# 5 0.000000 0.000000 0.000000 0.000000 -0.027717 0.000000
# 6 0.000000 0.000000 0.000000 0.000000 0.000000 -0.041599
#
#
# Mechanical properties :
#
#
# Convention : Reuss Voigt Hill
#
# Bulk Modulus (GPa) = 26.96320 65.84747 46.40534
# Shear Modulus (GPa) = 50.46800 7.49124 28.97962
#
# Velocity S-wave (km/s) = 4.96857 1.91426 3.76504
# Velocity P-wave (km/s) = 6.79005 6.09061 6.44982
#
# Compressibility (1/GPa) = 0.03708758
#
# Stress axis : x y z
#
# Youngs Moduli (GPa) = 55.33338 37.79253 40.80629
#
# Poissons Ratio (x) = 0.06465 0.71605
# Poissons Ratio (y) = 0.09465 -0.13395
# Poissons Ratio (z) = 0.97096 -0.12406
#
# Static dielectric constant tensor:
#      x y z
#    x 1.707640 0.000000 0.000000 
#    y 0.000000 1.748810 0.000000 
#    z 0.000000 0.000000 1.713080 
# 
# From -- ./inp_files/10479.got.cif
#   From: 2010.05.17/outbox.cif.g08.bks.cpg/sg35_6_cif.got.tgz:10479.got - 2010.06.03 17:29:28.
