data_PCOD9349719
_publ_section_title
;
Structure prediction by ZEFSAII (Michael W. Deem and Ramdas Pophale) SiO2 
 PCOD9349719
Probable space group: C M M 2
;
_chemical_formula_sum "Si O2"
_cell_formula_units_Z 48
_cell_length_a 8.794137
_cell_length_b 38.678764
_cell_length_c 7.677613
_cell_angle_alpha 90.000000
_cell_angle_beta 90.000000
_cell_angle_gamma 90.000000
_cell_volume 2611.512036
_symmetry_space_group_name_H-M "C M M 2"
_symmetry_group_IT_number 35
_symmetry_cell_setting 'orthorhombic'
loop_
_space_group_symop_operation_xyz
x,y,z
-x,-y,z
-x,y,z
x,-y,z
1/2+x,1/2+y,z
1/2-x,1/2-y,z
1/2-x,1/2+y,z
1/2+x,1/2-y,z
loop_
_atom_site_type_symbol
_atom_site_label
_atom_site_fract_x
_atom_site_fract_y
_atom_site_fract_z
Si Si1 0.818681 0.040209 0.490390
Si Si2 0.182082 0.460163 0.112727
Si Si3 0.181435 0.164182 0.788656
Si Si4 0.681623 0.787829 0.084432
Si Si5 0.182114 0.587818 0.787526
Si Si6 0.181617 0.712171 0.492843
O O1 0.766385 0.047256 0.293083
O O2 0.735922 0.065541 0.622898
O O3 0.000000 0.043938 0.505622
O O4 0.778914 0.000000 0.527746
O O5 0.216029 0.500000 0.062077
O O6 0.000000 0.457865 0.141115
O O7 0.223935 0.434008 0.959806
O O8 0.240967 0.125117 0.788251
O O9 0.244847 0.184351 0.620181
O O10 0.000000 0.165088 0.788499
O O11 0.244991 0.184325 0.957098
O O12 0.500000 0.787031 0.059203
O O13 0.750000 0.750000 0.045614
O O14 0.712101 0.795242 0.288633
O O15 0.000000 0.591756 0.784251
O O16 0.250000 0.750000 0.531605
O O17 0.000000 0.712969 0.518109
#
# Coordination Sequence:
#
# PCOD9349719 Si02
#       6
#     8   8   8   8   8   8
#     4  10  21  37  59  87 117 149 186 231 283 338
#     4   9  19  37  61  86 111 145 190 236 281 332
#     4  12  25  39  57  83 118 155 190 233 285 341
#     4  10  21  39  63  88 114 147 189 235 282 334
#     4  11  23  39  59  83 114 152 193 236 283 336
#     4  10  21  39  63  88 115 149 191 237 282 333
#
# _framework density 18.380154999999998
#
# number of rings (size 3 to 8) (size 9 to 14) (size 15 to 20)
#    0.000    1.667    0.000    4.500    0.000    6.333 
#    0.000    3.333    0.000    0.000    0.000    0.000 
#    0.000    0.000    0.000    0.000    0.000    0.000 
#
# Total GULP energy -134176.203290 kJ/mol
# GULP energy per Si atom -5590.675137 kJ/mol
# Density = 1.833832 g / cm^3
# Si number density = 18.380155 Si / 1000 Ang^3
#
#
#
# Elastic Constant Matrix: (Units=GPa)
#
#
# Indices 1 2 3 4 5 6 
#
# 1 99.6287 82.3987 75.0451 0.0000 0.0000 0.0000
# 2 82.3987 155.3954 112.5493 0.0000 0.0000 0.0000
# 3 75.0451 112.5493 119.6586 0.0000 0.0000 0.0000
# 4 0.0000 0.0000 0.0000 -29.4759 0.0000 0.0000
# 5 0.0000 0.0000 0.0000 0.0000 11.1768 0.0000
# 6 0.0000 0.0000 0.0000 0.0000 0.0000 18.7794
#
#
#
# Elastic Compliance Matrix: (Units=1/GPa)
#
#
# Indices 1 2 3 4 5 6 
#
# 1 0.020102 -0.004794 -0.008098 0.000000 0.000000 0.000000
# 2 -0.004794 0.021332 -0.017058 0.000000 0.000000 0.000000
# 3 -0.008098 -0.017058 0.029480 0.000000 0.000000 0.000000
# 4 0.000000 0.000000 0.000000 -0.033926 0.000000 0.000000
# 5 0.000000 0.000000 0.000000 0.000000 0.089471 0.000000
# 6 0.000000 0.000000 0.000000 0.000000 0.000000 0.053250
#
#
# Mechanical properties :
#
#
# Convention : Reuss Voigt Hill
#
# Bulk Modulus (GPa) = 90.79029 101.62986 96.21007
# Shear Modulus (GPa) = 20.55246 7.07538 13.81392
#
# Velocity S-wave (km/s) = 3.34756 1.96413 2.74445
# Velocity P-wave (km/s) = 8.02774 7.78184 7.90575
#
# Compressibility (1/GPa) = 0.01101439
#
# Stress axis : x y z
#
# Youngs Moduli (GPa) = 49.74651 46.87841 33.92081
#
# Poissons Ratio (x) = 0.22472 0.27470
# Poissons Ratio (y) = 0.23847 0.57862
# Poissons Ratio (z) = 0.40285 0.79965
#
# Static dielectric constant tensor:
#      x y z
#    x 1.617810 0.000000 0.000000 
#    y 0.000000 1.596230 0.000000 
#    z 0.000000 0.000000 1.613630 
# 
# From -- ./inp_files/5337.got.cif
#   From: 2010.05.17/outbox.cif.g08.bks.cpg/sg35_3_cif.got.tgz:5337.got - 2010.06.03 17:29:28.
