data_PCOD9349799
_publ_section_title
;
Structure prediction by ZEFSAII (Michael W. Deem and Ramdas Pophale) SiO2 
 PCOD9349799
Probable space group: C M M 2
;
_chemical_formula_sum "Si O2"
_cell_formula_units_Z 42
_cell_length_a 16.737360
_cell_length_b 16.287668
_cell_length_c 7.663826
_cell_angle_alpha 90.000000
_cell_angle_beta 90.000000
_cell_angle_gamma 90.000000
_cell_volume 2089.255247
_symmetry_space_group_name_H-M "C M M 2"
_symmetry_group_IT_number 35
_symmetry_cell_setting 'orthorhombic'
loop_
_space_group_symop_operation_xyz
x,y,z
-x,-y,z
-x,y,z
x,-y,z
1/2+x,1/2+y,z
1/2-x,1/2-y,z
1/2-x,1/2+y,z
1/2+x,1/2-y,z
loop_
_atom_site_type_symbol
_atom_site_label
_atom_site_fract_x
_atom_site_fract_y
_atom_site_fract_z
Si Si1 0.409939 0.724512 0.397550
Si Si2 0.700567 0.593272 0.544796
Si Si3 0.905929 0.909551 0.893324
Si Si4 0.000000 0.500000 0.688144
Si Si5 0.128323 0.649007 0.693472
Si Si6 0.655404 0.242527 0.052034
O O1 0.500000 0.692075 0.377310
O O2 0.343100 0.654009 0.411424
O O3 0.404542 0.777712 0.572906
O O4 0.387234 0.781049 0.232378
O O5 0.708666 0.500000 0.480182
O O6 0.642786 0.592824 0.713420
O O7 0.785435 0.626226 0.612279
O O8 0.000000 0.902545 0.857564
O O9 0.891480 0.000000 0.974017
O O10 0.878588 0.832331 0.004798
O O11 0.930293 0.427874 0.688446
O O12 0.138144 0.682670 0.890035
O O13 0.750000 0.250000 0.074249
#
# Coordination Sequence:
#
# PCOD9349799 Si02
#       6
#     8   8   8   2   8   8
#     4  12  26  42  69 103 139 182 231 282 345 411
#     4  11  22  42  71  98 136 180 227 280 345 412
#     4  10  21  38  64  98 133 173 220 277 339 402
#     4  12  28  44  82  96 136 186 228 288 354 396
#     4  12  24  49  69  99 136 182 231 291 342 406
#     4  12  24  43  71 100 137 186 229 280 345 414
#
# _framework density 20.102855999999999
#
# number of rings (size 3 to 8) (size 9 to 14) (size 15 to 20)
#    0.000    0.571    5.714    2.857    2.667    1.905 
#    0.000    1.905    0.000    0.000    0.000    0.000 
#    0.000    0.000    0.000    0.000    0.000    0.000 
#
# Total GULP energy -117150.718353 kJ/mol
# GULP energy per Si atom -5578.605636 kJ/mol
# Density = 2.005710 g / cm^3
# Si number density = 20.102856 Si / 1000 Ang^3
#
#
#
# Elastic Constant Matrix: (Units=GPa)
#
#
# Indices 1 2 3 4 5 6 
#
# 1 168.8612 49.2325 27.2793 0.0000 0.0000 0.0000
# 2 49.2325 98.1149 9.3577 0.0000 0.0000 0.0000
# 3 27.2793 9.3577 76.0535 0.0000 0.0000 0.0000
# 4 0.0000 0.0000 0.0000 21.6181 0.0000 0.0000
# 5 0.0000 0.0000 0.0000 0.0000 13.2838 0.0000
# 6 0.0000 0.0000 0.0000 0.0000 0.0000 33.4415
#
#
#
# Elastic Compliance Matrix: (Units=1/GPa)
#
#
# Indices 1 2 3 4 5 6 
#
# 1 0.007280 -0.003444 -0.002187 0.000000 0.000000 0.000000
# 2 -0.003444 0.011943 -0.000234 0.000000 0.000000 0.000000
# 3 -0.002187 -0.000234 0.013962 0.000000 0.000000 0.000000
# 4 0.000000 0.000000 0.000000 0.046258 0.000000 0.000000
# 5 0.000000 0.000000 0.000000 0.000000 0.075280 0.000000
# 6 0.000000 0.000000 0.000000 0.000000 0.000000 0.029903
#
#
# Mechanical properties :
#
#
# Convention : Reuss Voigt Hill
#
# Bulk Modulus (GPa) = 46.61316 57.19652 51.90484
# Shear Modulus (GPa) = 24.56926 30.81269 27.69098
#
# Velocity S-wave (km/s) = 3.49976 3.91929 3.71545
# Velocity P-wave (km/s) = 6.29037 6.99963 6.65445
#
# Compressibility (1/GPa) = 0.02145317
#
# Stress axis : x y z
#
# Youngs Moduli (GPa) = 137.37135 83.73335 71.62304
#
# Poissons Ratio (x) = 0.28839 0.15666
# Poissons Ratio (y) = 0.47313 0.01677
# Poissons Ratio (z) = 0.30047 0.01960
#
# Static dielectric constant tensor:
#      x y z
#    x 1.697600 0.000000 0.000000 
#    y 0.000000 1.711450 0.000000 
#    z 0.000000 0.000000 1.734430 
# 
# From -- ./inp_files/7020.got.cif
#   From: 2010.05.17/outbox.cif.g08.bks.cpg/sg35_4_cif.got.tgz:7020.got - 2010.06.03 17:29:28.
