data_PCOD9349459
_publ_section_title
;
Structure prediction by ZEFSAII (Michael W. Deem and Ramdas Pophale) SiO2 
 PCOD9349459
Probable space group: C M M 2
;
_chemical_formula_sum "Si O2"
_cell_formula_units_Z 64
_cell_length_a 8.425294
_cell_length_b 30.036731
_cell_length_c 12.879185
_cell_angle_alpha 90.000000
_cell_angle_beta 90.000000
_cell_angle_gamma 90.000000
_cell_volume 3259.313318
_symmetry_space_group_name_H-M "C M M 2"
_symmetry_group_IT_number 35
_symmetry_cell_setting 'orthorhombic'
loop_
_space_group_symop_operation_xyz
x,y,z
-x,-y,z
-x,y,z
x,-y,z
1/2+x,1/2+y,z
1/2-x,1/2-y,z
1/2-x,1/2+y,z
1/2+x,1/2-y,z
loop_
_atom_site_type_symbol
_atom_site_label
_atom_site_fract_x
_atom_site_fract_y
_atom_site_fract_z
Si Si1 0.309306 0.199269 0.118680
Si Si2 0.808836 0.300995 0.345428
Si Si3 0.318025 0.054280 0.345428
Si Si4 0.309306 0.800731 0.572176
Si Si5 0.307558 0.051395 0.572033
Si Si6 0.310234 0.625615 0.964070
Si Si7 0.310234 0.374385 0.726786
Si Si8 0.192442 0.551395 0.118823
O O1 0.500000 0.198921 0.115675
O O2 0.250000 0.250000 0.110009
O O3 0.257992 0.180873 0.233032
O O4 0.244716 0.168866 0.027282
O O5 0.750000 0.250000 0.345428
O O6 0.757992 0.319127 0.457824
O O7 0.000000 0.301612 0.345428
O O8 0.500000 0.071320 0.345428
O O9 0.247610 0.066181 0.457292
O O10 0.247610 0.066181 0.233563
O O11 0.325472 0.000000 0.345428
O O12 0.500000 0.801079 0.575181
O O13 0.250000 0.750000 0.580847
O O14 0.244716 0.831134 0.663574
O O15 0.500000 0.052560 0.567351
O O16 0.250783 0.083386 0.662221
O O17 0.260715 0.000000 0.588848
O O18 0.500000 0.624635 0.962313
O O19 0.249217 0.583386 0.028635
O O20 0.251614 0.625660 0.845428
O O21 0.500000 0.375365 0.728543
O O22 0.239285 0.500000 0.102008
O O23 0.000000 0.552560 0.123505
#
# Coordination Sequence:
#
# PCOD9349459 Si02
#       8
#     8   8   8   8   8   8   8   8
#     4  10  20  37  61  86 113 143 177 220 271 326
#     4   8  16  31  54  85 114 139 169 211 266 326
#     4   7  12  27  53  84 113 138 168 212 269 330
#     4  10  20  37  61  86 113 143 177 220 271 326
#     4   9  18  35  60  86 111 141 178 222 273 328
#     4  11  25  41  54  74 108 149 192 232 270 317
#     4  11  25  41  54  74 108 149 192 232 270 317
#     4   9  18  35  60  86 111 141 178 222 273 328
#
# _framework density 19.636037999999999
#
# number of rings (size 3 to 8) (size 9 to 14) (size 15 to 20)
#    0.000    2.625    0.000    3.000    0.000    5.500 
#    0.000    8.125    0.000    2.250    0.000    0.000 
#    0.000    0.000    0.000    0.000    0.000    0.000 
#
# Total GULP energy -178477.293519 kJ/mol
# GULP energy per Si atom -5577.415422 kJ/mol
# Density = 1.959135 g / cm^3
# Si number density = 19.636038 Si / 1000 Ang^3
#
#
#
# Elastic Constant Matrix: (Units=GPa)
#
#
# Indices 1 2 3 4 5 6 
#
# 1 21.6687 19.7105 32.7251 0.0000 0.0000 0.0000
# 2 19.7105 106.3952 94.4379 0.0000 0.0000 0.0000
# 3 32.7251 94.4379 238.6574 0.0000 0.0000 0.0000
# 4 0.0000 0.0000 0.0000 36.7660 0.0000 0.0000
# 5 0.0000 0.0000 0.0000 0.0000 12.0226 0.0000
# 6 0.0000 0.0000 0.0000 0.0000 0.0000 26.1518
#
#
#
# Elastic Compliance Matrix: (Units=1/GPa)
#
#
# Indices 1 2 3 4 5 6 
#
# 1 0.060536 -0.005929 -0.005954 0.000000 0.000000 0.000000
# 2 -0.005929 0.015068 -0.005149 0.000000 0.000000 0.000000
# 3 -0.005954 -0.005149 0.007044 0.000000 0.000000 0.000000
# 4 0.000000 0.000000 0.000000 0.027199 0.000000 0.000000
# 5 0.000000 0.000000 0.000000 0.000000 0.083177 0.000000
# 6 0.000000 0.000000 0.000000 0.000000 0.000000 0.038238
#
#
# Mechanical properties :
#
#
# Convention : Reuss Voigt Hill
#
# Bulk Modulus (GPa) = 20.58399 73.38535 46.98467
# Shear Modulus (GPa) = 17.76054 29.64460 23.70257
#
# Velocity S-wave (km/s) = 3.01073 3.88971 3.47810
# Velocity P-wave (km/s) = 4.75305 7.59125 6.33319
#
# Compressibility (1/GPa) = 0.04858144
#
# Stress axis : x y z
#
# Youngs Moduli (GPa) = 16.51916 66.36513 141.95942
#
# Poissons Ratio (x) = 0.39351 0.84529
# Poissons Ratio (y) = 0.09795 0.73102
# Poissons Ratio (z) = 0.09836 0.34175
#
# Static dielectric constant tensor:
#      x y z
#    x 1.676060 0.000000 0.000000 
#    y 0.000000 1.673850 0.000000 
#    z 0.000000 0.000000 1.718550 
# 
# From -- ./inp_files/11869.got.cif
#   From: 2010.05.17/outbox.cif.g08.bks.cpg/sg35_6_cif.got.tgz:11869.got - 2010.06.03 17:29:28.
