data_PCOD9349658
_publ_section_title
;
Structure prediction by ZEFSAII (Michael W. Deem and Ramdas Pophale) SiO2 
 PCOD9349658
Probable space group: C M M 2
;
_chemical_formula_sum "Si O2"
_cell_formula_units_Z 64
_cell_length_a 18.080107
_cell_length_b 19.839907
_cell_length_c 9.093289
_cell_angle_alpha 90.000000
_cell_angle_beta 90.000000
_cell_angle_gamma 90.000000
_cell_volume 3261.832250
_symmetry_space_group_name_H-M "C M M 2"
_symmetry_group_IT_number 35
_symmetry_cell_setting 'orthorhombic'
loop_
_space_group_symop_operation_xyz
x,y,z
-x,-y,z
-x,y,z
x,-y,z
1/2+x,1/2+y,z
1/2-x,1/2-y,z
1/2-x,1/2+y,z
1/2+x,1/2-y,z
loop_
_atom_site_type_symbol
_atom_site_label
_atom_site_fract_x
_atom_site_fract_y
_atom_site_fract_z
Si Si1 0.289096 0.819719 0.873240
Si Si2 0.738688 0.426519 0.645354
Si Si3 0.585495 0.237448 0.670933
Si Si4 0.914275 0.158761 0.206327
Si Si5 0.173635 0.573639 0.348818
Si Si6 0.088810 0.704710 0.337976
Si Si7 0.418185 0.614045 0.550398
Si Si8 0.281020 0.578426 0.090034
O O1 0.250000 0.750000 0.915831
O O2 0.248085 0.860423 0.743068
O O3 0.366273 0.795507 0.800157
O O4 0.277198 0.875505 0.999806
O O5 0.752226 0.500000 0.717114
O O6 0.798114 0.420740 0.514997
O O7 0.655148 0.426393 0.586389
O O8 0.500000 0.216312 0.686580
O O9 0.613022 0.216713 0.507270
O O10 0.585584 0.318472 0.651677
O O11 0.886734 0.235828 0.228183
O O12 0.914807 0.133065 0.376524
O O13 0.859920 0.115838 0.103841
O O14 0.000000 0.157542 0.155928
O O15 0.139613 0.500000 0.326503
O O16 0.119736 0.632369 0.299908
O O17 0.247714 0.577281 0.253117
O O18 0.000000 0.707903 0.338600
O O19 0.500000 0.583911 0.574607
O O20 0.287708 0.500000 0.042722
#
# Coordination Sequence:
#
# PCOD9349658 Si02
#       8
#     8   8   8   8   8   8   8   8
#     4  12  24  39  61  89 114 162 205 242 298 360
#     4  11  21  36  58  88 121 154 197 249 303 359
#     4   9  18  36  60  88 120 150 192 253 304 348
#     4   9  19  36  62  90 117 155 198 244 302 360
#     4  10  21  36  58  85 118 158 198 248 304 352
#     4   9  18  34  60  93 120 145 192 255 305 353
#     4   9  17  33  58  91 122 149 192 248 302 357
#     4  11  25  42  57  85 127 161 196 245 296 360
#
# _framework density 19.620873
#
# number of rings (size 3 to 8) (size 9 to 14) (size 15 to 20)
#    0.000    2.000    3.750    1.875    1.750    0.750 
#    0.000    3.125    0.000    3.750    0.000    0.000 
#    0.000    0.000    0.000    0.000    0.000    0.000 
#
# Total GULP energy -178212.828082 kJ/mol
# GULP energy per Si atom -5569.150878 kJ/mol
# Density = 1.957622 g / cm^3
# Si number density = 19.620873 Si / 1000 Ang^3
#
#
#
# Elastic Constant Matrix: (Units=GPa)
#
#
# Indices 1 2 3 4 5 6 
#
# 1 27.2484 23.5985 4.6657 0.0000 0.0000 0.0000
# 2 23.5985 130.7211 14.5422 0.0000 0.0000 0.0000
# 3 4.6657 14.5422 33.5138 0.0000 0.0000 0.0000
# 4 0.0000 0.0000 0.0000 13.4425 0.0000 0.0000
# 5 0.0000 0.0000 0.0000 0.0000 21.6271 0.0000
# 6 0.0000 0.0000 0.0000 0.0000 0.0000 12.9670
#
#
#
# Elastic Compliance Matrix: (Units=1/GPa)
#
#
# Indices 1 2 3 4 5 6 
#
# 1 0.043749 -0.007586 -0.002799 0.000000 0.000000 0.000000
# 2 -0.007586 0.009353 -0.003002 0.000000 0.000000 0.000000
# 3 -0.002799 -0.003002 0.031531 0.000000 0.000000 0.000000
# 4 0.000000 0.000000 0.000000 0.074391 0.000000 0.000000
# 5 0.000000 0.000000 0.000000 0.000000 0.046238 0.000000
# 6 0.000000 0.000000 0.000000 0.000000 0.000000 0.077119
#
#
# Mechanical properties :
#
#
# Convention : Reuss Voigt Hill
#
# Bulk Modulus (GPa) = 17.28370 30.78845 24.03608
# Shear Modulus (GPa) = 15.22339 19.51913 17.37126
#
# Velocity S-wave (km/s) = 2.78848 3.15749 2.97870
# Velocity P-wave (km/s) = 4.38126 5.38690 4.90990
#
# Compressibility (1/GPa) = 0.05785798
#
# Stress axis : x y z
#
# Youngs Moduli (GPa) = 22.85775 106.91269 31.71496
#
# Poissons Ratio (x) = 0.81109 0.08876
# Poissons Ratio (y) = 0.17341 0.09522
# Poissons Ratio (z) = 0.06397 0.32100
#
# Static dielectric constant tensor:
#      x y z
#    x 1.677070 0.000000 0.000000 
#    y 0.000000 1.715250 0.000000 
#    z 0.000000 0.000000 1.723200 
# 
# From -- ./inp_files/8763.got.cif
#   From: 2010.05.17/outbox.cif.g08.bks.cpg/sg35_5_cif.got.tgz:8763.got - 2010.06.03 17:29:28.
