data_PCOD9349953
_publ_section_title
;
Structure prediction by ZEFSAII (Michael W. Deem and Ramdas Pophale) SiO2 
 PCOD9349953
Probable space group: C M M 2
;
_chemical_formula_sum "Si O2"
_cell_formula_units_Z 56
_cell_length_a 8.630587
_cell_length_b 20.980077
_cell_length_c 14.744049
_cell_angle_alpha 90.000000
_cell_angle_beta 90.000000
_cell_angle_gamma 90.000000
_cell_volume 2669.710552
_symmetry_space_group_name_H-M "C M M 2"
_symmetry_group_IT_number 35
_symmetry_cell_setting 'orthorhombic'
loop_
_space_group_symop_operation_xyz
x,y,z
-x,-y,z
-x,y,z
x,-y,z
1/2+x,1/2+y,z
1/2-x,1/2-y,z
1/2-x,1/2+y,z
1/2+x,1/2-y,z
loop_
_atom_site_type_symbol
_atom_site_label
_atom_site_fract_x
_atom_site_fract_y
_atom_site_fract_z
Si Si1 0.816133 0.000000 0.065100
Si Si2 0.811795 0.574636 0.618188
Si Si3 0.812952 0.678002 0.774439
Si Si4 0.819380 0.127872 0.312133
Si Si5 0.185323 0.134063 0.968353
Si Si6 0.183761 0.500000 0.270376
Si Si7 0.681875 0.183684 0.145695
Si Si8 0.183745 0.683175 0.482393
O O1 0.733342 0.000000 0.163380
O O2 0.782091 0.937942 0.003364
O O3 0.000000 0.000000 0.084760
O O4 0.758011 0.500000 0.621886
O O5 0.772457 0.621936 0.702302
O O6 0.760368 0.618878 0.533332
O O7 0.000000 0.571115 0.615451
O O8 0.750000 0.750000 0.755099
O O9 0.744627 0.653340 0.869793
O O10 0.000000 0.682108 0.778269
O O11 0.749957 0.058904 0.326168
O O12 0.780924 0.136239 0.206213
O O13 0.731057 0.175860 0.377722
O O14 0.000000 0.132990 0.328553
O O15 0.000000 0.144584 0.974705
O O16 0.277224 0.175802 0.041355
O O17 0.000000 0.500000 0.271377
O O18 0.500000 0.176549 0.162182
O O19 0.750000 0.250000 0.177651
O O20 0.250000 0.750000 0.518784
O O21 0.000000 0.685929 0.491693
#
# Coordination Sequence:
#
# PCOD9349953 Si02
#       8
#     4   8   8   8   8   4   8   8
#     4  10  22  40  62  87 126 171 212 265 328 382
#     4   9  21  42  68  99 130 166 213 269 326 386
#     4  11  23  41  67  96 130 170 216 268 326 389
#     4  12  25  42  63  92 131 169 214 268 324 383
#     4  11  23  40  62  91 128 168 213 264 324 385
#     4  12  24  40  64  93 126 171 222 265 322 390
#     4  12  24  40  61  89 123 166 216 265 321 381
#     4  11  23  42  69  98 131 171 218 269 329 394
#
# _framework density 20.976057000000001
#
# number of rings (size 3 to 8) (size 9 to 14) (size 15 to 20)
#    0.000    1.000    1.429    5.786    2.000    0.571 
#    0.000    2.143    0.000    3.429    0.000    0.000 
#    0.000    0.000    0.000    0.000    0.000    0.000 
#
# Total GULP energy -156311.112415 kJ/mol
# GULP energy per Si atom -5582.539729 kJ/mol
# Density = 2.092831 g / cm^3
# Si number density = 20.976057 Si / 1000 Ang^3
#
#
#
# Elastic Constant Matrix: (Units=GPa)
#
#
# Indices 1 2 3 4 5 6 
#
# 1 72.7327 29.2036 3.0255 0.0000 0.0000 0.0000
# 2 29.2036 155.1325 28.5293 0.0000 0.0000 0.0000
# 3 3.0255 28.5293 85.2744 0.0000 0.0000 0.0000
# 4 0.0000 0.0000 0.0000 29.7767 0.0000 0.0000
# 5 0.0000 0.0000 0.0000 0.0000 14.6045 0.0000
# 6 0.0000 0.0000 0.0000 0.0000 0.0000 25.2873
#
#
#
# Elastic Compliance Matrix: (Units=1/GPa)
#
#
# Indices 1 2 3 4 5 6 
#
# 1 0.014888 -0.002883 0.000436 0.000000 0.000000 0.000000
# 2 -0.002883 0.007427 -0.002382 0.000000 0.000000 0.000000
# 3 0.000436 -0.002382 0.012508 0.000000 0.000000 0.000000
# 4 0.000000 0.000000 0.000000 0.033583 0.000000 0.000000
# 5 0.000000 0.000000 0.000000 0.000000 0.068472 0.000000
# 6 0.000000 0.000000 0.000000 0.000000 0.000000 0.039546
#
#
# Mechanical properties :
#
#
# Convention : Reuss Voigt Hill
#
# Bulk Modulus (GPa) = 39.73696 48.29516 44.01606
# Shear Modulus (GPa) = 25.71068 30.75910 28.23489
#
# Velocity S-wave (km/s) = 3.50482 3.83350 3.67284
# Velocity P-wave (km/s) = 5.94672 6.53209 6.24627
#
# Compressibility (1/GPa) = 0.02516549
#
# Stress axis : x y z
#
# Youngs Moduli (GPa) = 67.16646 134.64455 79.94601
#
# Poissons Ratio (x) = 0.38818 -0.03488
# Poissons Ratio (y) = 0.19364 0.19047
# Poissons Ratio (z) = -0.02930 0.32079
#
# Static dielectric constant tensor:
#      x y z
#    x 1.694550 0.000000 0.000000 
#    y 0.000000 1.859790 0.000000 
#    z 0.000000 0.000000 1.730200 
# 
# From -- ./inp_files/15796.got.cif
#   From: 2010.05.17/outbox.cif.g08.bks.cpg/sg35_8_cif.got.tgz:15796.got - 2010.06.03 17:29:28.
