data_PCOD9349078
_publ_section_title
;
Structure prediction by ZEFSAII (Michael W. Deem and Ramdas Pophale) SiO2 
 PCOD9349078
Probable space group: C M M 2
;
_chemical_formula_sum "Si O2"
_cell_formula_units_Z 64
_cell_length_a 18.880614
_cell_length_b 14.380263
_cell_length_c 11.093455
_cell_angle_alpha 90.000000
_cell_angle_beta 90.000000
_cell_angle_gamma 90.000000
_cell_volume 3011.963942
_symmetry_space_group_name_H-M "C M M 2"
_symmetry_group_IT_number 35
_symmetry_cell_setting 'orthorhombic'
loop_
_space_group_symop_operation_xyz
x,y,z
-x,-y,z
-x,y,z
x,-y,z
1/2+x,1/2+y,z
1/2-x,1/2-y,z
1/2-x,1/2+y,z
1/2+x,1/2-y,z
loop_
_atom_site_type_symbol
_atom_site_label
_atom_site_fract_x
_atom_site_fract_y
_atom_site_fract_z
Si Si1 0.080197 0.191793 0.509410
Si Si2 0.078015 0.887514 0.240301
Si Si3 0.874771 0.604762 0.466869
Si Si4 0.924567 0.612283 0.938810
Si Si5 0.270641 0.856625 0.846808
Si Si6 0.268418 0.359395 0.586132
Si Si7 0.216459 0.892809 0.108911
Si Si8 0.365660 0.111997 0.189883
O O1 0.083267 0.164759 0.367768
O O2 0.094024 0.302758 0.529749
O O3 0.147838 0.136131 0.561743
O O4 0.000000 0.168891 0.550687
O O5 0.141695 0.855472 0.154217
O O6 0.000000 0.869023 0.188484
O O7 0.081722 0.000000 0.260964
O O8 0.901060 0.500000 0.497958
O O9 0.789703 0.602741 0.491649
O O10 0.889676 0.623992 0.325955
O O11 0.926432 0.500000 0.937864
O O12 0.913049 0.643180 0.077668
O O13 0.000000 0.647225 0.892548
O O14 0.854568 0.637290 0.866298
O O15 0.250000 0.750000 0.843128
O O16 0.249270 0.897354 0.718493
O O17 0.231670 0.893042 0.966349
O O18 0.250000 0.250000 0.585352
O O19 0.286408 0.849740 0.169088
O O20 0.215098 0.000000 0.148209
O O21 0.361474 0.000000 0.174713
#
# Coordination Sequence:
#
# PCOD9349078 Si02
#       8
#     8   8   8   8   8   8   8   8
#     4  10  21  37  57  81 111 147 187 233 284 337
#     4   9  18  33  53  78 109 145 186 232 281 333
#     4  10  20  34  56  85 114 146 183 227 282 338
#     4   9  18  34  56  80 108 141 174 214 267 328
#     4  10  20  35  53  76 106 143 187 230 273 324
#     4   9  20  38  54  71 103 147 191 230 270 325
#     4   9  17  31  51  75 104 138 179 229 278 325
#     4   8  15  28  48  76 107 138 171 209 264 334
#
# _framework density 21.248595000000002
#
# number of rings (size 3 to 8) (size 9 to 14) (size 15 to 20)
#    0.000    2.750    0.000    1.875    0.000    5.250 
#    0.000   10.000    0.000    0.000    0.000    0.000 
#    0.000    0.000    0.000    0.000    0.000    0.000 
#
# Total GULP energy -178333.138854 kJ/mol
# GULP energy per Si atom -5572.910589 kJ/mol
# Density = 2.120023 g / cm^3
# Si number density = 21.248595 Si / 1000 Ang^3
#
#
#
# Elastic Constant Matrix: (Units=GPa)
#
#
# Indices 1 2 3 4 5 6 
#
# 1 175.7028 17.6550 41.0290 0.0000 0.0000 0.0000
# 2 17.6550 72.6881 -7.6443 0.0000 0.0000 0.0000
# 3 41.0290 -7.6443 42.2546 0.0000 0.0000 0.0000
# 4 0.0000 0.0000 0.0000 23.5558 0.0000 0.0000
# 5 0.0000 0.0000 0.0000 0.0000 13.1471 0.0000
# 6 0.0000 0.0000 0.0000 0.0000 0.0000 17.9375
#
#
#
# Elastic Compliance Matrix: (Units=1/GPa)
#
#
# Indices 1 2 3 4 5 6 
#
# 1 0.007871 -0.002768 -0.008144 0.000000 0.000000 0.000000
# 2 -0.002768 0.014998 0.005401 0.000000 0.000000 0.000000
# 3 -0.008144 0.005401 0.032551 0.000000 0.000000 0.000000
# 4 0.000000 0.000000 0.000000 0.042452 0.000000 0.000000
# 5 0.000000 0.000000 0.000000 0.000000 0.076063 0.000000
# 6 0.000000 0.000000 0.000000 0.000000 0.000000 0.055749
#
#
# Mechanical properties :
#
#
# Convention : Reuss Voigt Hill
#
# Bulk Modulus (GPa) = 22.52344 43.63612 33.07978
# Shear Modulus (GPa) = 19.56908 26.90178 23.23543
#
# Velocity S-wave (km/s) = 3.03802 3.56202 3.31041
# Velocity P-wave (km/s) = 4.78843 6.12355 5.49668
#
# Compressibility (1/GPa) = 0.04439820
#
# Stress axis : x y z
#
# Youngs Moduli (GPa) = 127.04415 66.67636 30.72124
#
# Poissons Ratio (x) = 0.18458 0.25019
# Poissons Ratio (y) = 0.35169 -0.16593
# Poissons Ratio (z) = 1.03462 -0.36013
#
# Static dielectric constant tensor:
#      x y z
#    x 1.780540 0.000000 0.000000 
#    y 0.000000 1.793470 0.000000 
#    z 0.000000 0.000000 1.771610 
# 
# From -- ./inp_files/13581.got.cif
#   From: 2010.05.17/outbox.cif.g08.bks.cpg/sg35_7_cif.got.tgz:13581.got - 2010.06.03 17:29:28.
