data_PCOD9349827
_publ_section_title
;
Structure prediction by ZEFSAII (Michael W. Deem and Ramdas Pophale) SiO2 
 PCOD9349827
Probable space group: C M M 2
;
_chemical_formula_sum "Si O2"
_cell_formula_units_Z 48
_cell_length_a 8.880716
_cell_length_b 38.830847
_cell_length_c 7.521617
_cell_angle_alpha 90.000000
_cell_angle_beta 90.000000
_cell_angle_gamma 90.000000
_cell_volume 2593.797462
_symmetry_space_group_name_H-M "C M M 2"
_symmetry_group_IT_number 35
_symmetry_cell_setting 'orthorhombic'
loop_
_space_group_symop_operation_xyz
x,y,z
-x,-y,z
-x,y,z
x,-y,z
1/2+x,1/2+y,z
1/2-x,1/2-y,z
1/2-x,1/2+y,z
1/2+x,1/2-y,z
loop_
_atom_site_type_symbol
_atom_site_label
_atom_site_fract_x
_atom_site_fract_y
_atom_site_fract_z
Si Si1 0.821029 0.539894 0.397300
Si Si2 0.178971 0.539894 0.976487
Si Si3 0.678872 0.712814 0.397371
Si Si4 0.677940 0.411720 0.686893
Si Si5 0.820294 0.336385 0.686893
Si Si6 0.821128 0.787186 0.976415
O O1 0.784425 0.500000 0.439480
O O2 0.796128 0.544941 0.186893
O O3 0.728692 0.565976 0.516876
O O4 0.000000 0.544417 0.431030
O O5 0.215577 0.500000 0.934307
O O6 0.000000 0.544416 0.942757
O O7 0.271308 0.565976 0.856910
O O8 0.500000 0.713603 0.431328
O O9 0.750000 0.750000 0.440754
O O10 0.756169 0.683911 0.516368
O O11 0.702416 0.706742 0.186893
O O12 0.500000 0.406183 0.686893
O O13 0.761635 0.375284 0.686893
O O14 0.000000 0.335454 0.686893
O O15 0.756169 0.316089 0.857418
O O16 0.750000 0.750000 0.933032
O O17 0.000000 0.786397 0.942458
#
# Coordination Sequence:
#
# PCOD9349827 Si02
#       6
#     8   8   8   8   8   8
#     4   9  19  38  63  87 112 147 191 235 279 333
#     4   9  19  38  63  87 112 147 191 235 279 333
#     4  10  21  39  63  89 117 149 188 234 282 335
#     4  12  25  38  55  83 119 154 188 232 287 342
#     4  12  25  40  59  82 114 155 195 236 283 338
#     4  10  21  39  63  89 117 149 188 234 282 335
#
# _framework density 18.505687000000002
#
# number of rings (size 3 to 8) (size 9 to 14) (size 15 to 20)
#    0.000    1.667    0.000    6.000    0.000    6.667 
#    0.000    1.667    0.000    0.000    0.000    0.000 
#    0.000    0.000    0.000    0.000    0.000    0.000 
#
# Total GULP energy -134199.576750 kJ/mol
# GULP energy per Si atom -5591.649031 kJ/mol
# Density = 1.846357 g / cm^3
# Si number density = 18.505687 Si / 1000 Ang^3
#
#
#
# Elastic Constant Matrix: (Units=GPa)
#
#
# Indices 1 2 3 4 5 6 
#
# 1 140.4554 87.8935 70.5763 0.0000 0.0000 0.0000
# 2 87.8935 138.6979 74.3124 0.0000 0.0000 0.0000
# 3 70.5763 74.3124 80.3451 0.0000 0.0000 0.0000
# 4 0.0000 0.0000 0.0000 -243.2456 0.0000 0.0000
# 5 0.0000 0.0000 0.0000 0.0000 59.1905 0.0000
# 6 0.0000 0.0000 0.0000 0.0000 0.0000 35.4998
#
#
#
# Elastic Compliance Matrix: (Units=1/GPa)
#
#
# Indices 1 2 3 4 5 6 
#
# 1 0.014055 -0.004543 -0.008144 0.000000 0.000000 0.000000
# 2 -0.004543 0.015761 -0.010587 0.000000 0.000000 0.000000
# 3 -0.008144 -0.010587 0.029392 0.000000 0.000000 0.000000
# 4 0.000000 0.000000 0.000000 -0.004111 0.000000 0.000000
# 5 0.000000 0.000000 0.000000 0.000000 0.016895 0.000000
# 6 0.000000 0.000000 0.000000 0.000000 0.000000 0.028169
#
#
# Mechanical properties :
#
#
# Convention : Reuss Voigt Hill
#
# Bulk Modulus (GPa) = 78.98901 91.67364 85.33132
# Shear Modulus (GPa) = 33.12796 -21.26330 5.93233
#
# Velocity S-wave (km/s) = 4.23561 -3.39339 1.79238
# Velocity P-wave (km/s) = 8.16681 5.85595 7.10595
#
# Compressibility (1/GPa) = 0.01265999
#
# Stress axis : x y z
#
# Youngs Moduli (GPa) = 71.14940 63.44597 34.02261
#
# Poissons Ratio (x) = 0.28825 0.27708
# Poissons Ratio (y) = 0.32325 0.36020
# Poissons Ratio (z) = 0.57943 0.67171
#
# Static dielectric constant tensor:
#      x y z
#    x 1.614420 0.000000 0.000000 
#    y 0.000000 1.596060 0.000000 
#    z 0.000000 0.000000 1.637740 
# 
# From -- ./inp_files/5297.got.cif
#   From: 2010.05.17/outbox.cif.g08.bks.cpg/sg35_3_cif.got.tgz:5297.got - 2010.06.03 17:29:28.
