data_PCOD9349555
_publ_section_title
;
Structure prediction by ZEFSAII (Michael W. Deem and Ramdas Pophale) SiO2 
 PCOD9349555
Probable space group: C M M 2
;
_chemical_formula_sum "Si O2"
_cell_formula_units_Z 64
_cell_length_a 8.551510
_cell_length_b 29.330947
_cell_length_c 16.151625
_cell_angle_alpha 90.000000
_cell_angle_beta 90.000000
_cell_angle_gamma 90.000000
_cell_volume 4051.213357
_symmetry_space_group_name_H-M "C M M 2"
_symmetry_group_IT_number 35
_symmetry_cell_setting 'orthorhombic'
loop_
_space_group_symop_operation_xyz
x,y,z
-x,-y,z
-x,y,z
x,-y,z
1/2+x,1/2+y,z
1/2-x,1/2-y,z
1/2-x,1/2+y,z
1/2+x,1/2-y,z
loop_
_atom_site_type_symbol
_atom_site_label
_atom_site_fract_x
_atom_site_fract_y
_atom_site_fract_z
Si Si1 0.813803 0.200845 0.942660
Si Si2 0.188937 0.053114 0.031743
Si Si3 0.691397 0.052801 0.714219
Si Si4 0.680957 0.055388 0.533606
Si Si5 0.189833 0.553141 0.352160
Si Si6 0.687493 0.391419 0.196519
Si Si7 0.813700 0.299259 0.129169
Si Si8 0.687520 0.891134 0.874743
O O1 0.750000 0.250000 0.915164
O O2 0.757217 0.158981 0.887310
O O3 0.000000 0.202089 0.946553
O O4 0.750015 0.193061 0.035879
O O5 0.260122 0.078411 0.952774
O O6 0.000000 0.055598 0.025866
O O7 0.234120 0.000000 0.034069
O O8 0.235776 0.078757 0.116125
O O9 0.500000 0.052930 0.711452
O O10 0.748743 0.068289 0.623119
O O11 0.739827 0.084324 0.790193
O O12 0.737623 0.000000 0.728068
O O13 0.500000 0.070692 0.533458
O O14 0.747746 0.068018 0.443885
O O15 0.678763 0.000000 0.534067
O O16 0.234151 0.500000 0.339178
O O17 0.253382 0.583963 0.278871
O O18 0.000000 0.554646 0.353012
O O19 0.500000 0.389198 0.196971
O O20 0.755590 0.341026 0.184418
O O21 0.750000 0.250000 0.156422
O O22 0.000000 0.298025 0.126085
O O23 0.500000 0.888210 0.874337
#
# Coordination Sequence:
#
# PCOD9349555 Si02
#       8
#     8   8   8   8   8   8   8   8
#     4  11  21  35  52  70  93 123 158 199 243 286
#     4  10  21  34  45  60  91 134 170 197 230 275
#     4   8  14  25  43  69  99 128 160 198 238 281
#     4   7  11  23  43  66  93 124 158 199 243 282
#     4   9  17  29  47  71  97 127 165 205 242 284
#     4  11  21  33  48  68  96 132 165 196 237 285
#     4  11  21  35  54  74  94 120 156 200 243 285
#     4  11  20  30  47  72  97 126 162 200 239 284
#
# _framework density 15.797736
#
# number of rings (size 3 to 8) (size 9 to 14) (size 15 to 20)
#    0.000    2.250    1.250    6.000    0.000    2.000 
#    0.000    0.000    0.000    1.500    0.000    4.375 
#    0.000    4.000    0.000    0.000    0.000    0.000 
#
# Total GULP energy -178442.872696 kJ/mol
# GULP energy per Si atom -5576.339772 kJ/mol
# Density = 1.576178 g / cm^3
# Si number density = 15.797736 Si / 1000 Ang^3
#
#
#
# Elastic Constant Matrix: (Units=GPa)
#
#
# Indices 1 2 3 4 5 6 
#
# 1 50.7300 38.0472 37.0457 0.0000 0.0000 0.0000
# 2 38.0472 124.8353 83.7712 0.0000 0.0000 0.0000
# 3 37.0457 83.7712 153.1603 0.0000 0.0000 0.0000
# 4 0.0000 0.0000 0.0000 8.5327 0.0000 0.0000
# 5 0.0000 0.0000 0.0000 0.0000 4.7021 0.0000
# 6 0.0000 0.0000 0.0000 0.0000 0.0000 22.5077
#
#
#
# Elastic Compliance Matrix: (Units=1/GPa)
#
#
# Indices 1 2 3 4 5 6 
#
# 1 0.026478 -0.005960 -0.003145 0.000000 0.000000 0.000000
# 2 -0.005960 0.013997 -0.006214 0.000000 0.000000 0.000000
# 3 -0.003145 -0.006214 0.010689 0.000000 0.000000 0.000000
# 4 0.000000 0.000000 0.000000 0.117196 0.000000 0.000000
# 5 0.000000 0.000000 0.000000 0.000000 0.212671 0.000000
# 6 0.000000 0.000000 0.000000 0.000000 0.000000 0.044429
#
#
# Mechanical properties :
#
#
# Convention : Reuss Voigt Hill
#
# Bulk Modulus (GPa) = 48.71718 71.82821 60.27270
# Shear Modulus (GPa) = 10.80055 18.47260 14.63658
#
# Velocity S-wave (km/s) = 2.61756 3.42324 3.04715
# Velocity P-wave (km/s) = 6.32776 7.82246 7.11447
#
# Compressibility (1/GPa) = 0.02052664
#
# Stress axis : x y z
#
# Youngs Moduli (GPa) = 37.76656 71.44391 93.55760
#
# Poissons Ratio (x) = 0.42579 0.29422
# Poissons Ratio (y) = 0.22508 0.58138
# Poissons Ratio (z) = 0.11877 0.44396
#
# Static dielectric constant tensor:
#      x y z
#    x 1.536400 0.000000 0.000000 
#    y 0.000000 1.511290 0.000000 
#    z 0.000000 0.000000 1.536820 
# 
# From -- ./inp_files/16229.got.cif
#   From: 2010.05.17/outbox.cif.g08.bks.cpg/sg35_9_cif.got.tgz:16229.got - 2010.06.03 17:29:28.
