data_PCOD9349849
_publ_section_title
;
Structure prediction by ZEFSAII (Michael W. Deem and Ramdas Pophale) SiO2 
 PCOD9349849
Probable space group: C M M 2
;
_chemical_formula_sum "Si O2"
_cell_formula_units_Z 42
_cell_length_a 15.535423
_cell_length_b 16.855972
_cell_length_c 7.804494
_cell_angle_alpha 90.000000
_cell_angle_beta 90.000000
_cell_angle_gamma 90.000000
_cell_volume 2043.721130
_symmetry_space_group_name_H-M "C M M 2"
_symmetry_group_IT_number 35
_symmetry_cell_setting 'orthorhombic'
loop_
_space_group_symop_operation_xyz
x,y,z
-x,-y,z
-x,y,z
x,-y,z
1/2+x,1/2+y,z
1/2-x,1/2-y,z
1/2-x,1/2+y,z
1/2+x,1/2-y,z
loop_
_atom_site_type_symbol
_atom_site_label
_atom_site_fract_x
_atom_site_fract_y
_atom_site_fract_z
Si Si1 0.398341 0.740658 0.372240
Si Si2 0.671059 0.588033 0.528798
Si Si3 0.900149 0.913507 0.895463
Si Si4 0.000000 0.500000 0.680239
Si Si5 0.145893 0.637380 0.673911
Si Si6 0.604691 0.239494 0.994218
O O1 0.500000 0.723109 0.368590
O O2 0.348743 0.658539 0.399492
O O3 0.378451 0.797382 0.530929
O O4 0.376958 0.781129 0.191106
O O5 0.666157 0.500000 0.452995
O O6 0.605770 0.593060 0.689300
O O7 0.763026 0.602019 0.617524
O O8 0.000000 0.915847 0.947697
O O9 0.861012 0.000000 0.940935
O O10 0.865968 0.830608 0.967213
O O11 0.074842 0.569381 0.679314
O O12 0.147173 0.682534 0.855350
O O13 0.500000 0.235821 0.966735
#
# Coordination Sequence:
#
# PCOD9349849 Si02
#       6
#     8   8   8   2   8   8
#     4  11  23  41  67  97 130 171 216 268 338 402
#     4  11  23  39  64  95 133 171 213 267 328 393
#     4   9  18  35  60  92 127 166 207 253 317 388
#     4  12  24  44  82  84 128 186 220 280 334 368
#     4  12  23  46  65  94 129 173 226 276 322 386
#     4  10  21  39  67  94 124 172 221 267 326 395
#
# _framework density 20.550747999999999
#
# number of rings (size 3 to 8) (size 9 to 14) (size 15 to 20)
#    0.000    1.333    4.762    1.143    0.000    1.905 
#    6.857    3.810    0.000    0.000    0.000    0.000 
#    0.000    0.000    0.000    0.000    0.000    0.000 
#
# Total GULP energy -117046.458842 kJ/mol
# GULP energy per Si atom -5573.640897 kJ/mol
# Density = 2.050397 g / cm^3
# Si number density = 20.550748 Si / 1000 Ang^3
#
#
#
# Elastic Constant Matrix: (Units=GPa)
#
#
# Indices 1 2 3 4 5 6 
#
# 1 59.6801 30.7109 16.4544 0.0000 0.0000 0.0000
# 2 30.7109 142.0160 43.8760 0.0000 0.0000 0.0000
# 3 16.4544 43.8760 101.6602 0.0000 0.0000 0.0000
# 4 0.0000 0.0000 0.0000 -6.9572 0.0000 0.0000
# 5 0.0000 0.0000 0.0000 0.0000 7.6633 0.0000
# 6 0.0000 0.0000 0.0000 0.0000 0.0000 44.9443
#
#
#
# Elastic Compliance Matrix: (Units=1/GPa)
#
#
# Indices 1 2 3 4 5 6 
#
# 1 0.019052 -0.003655 -0.001506 0.000000 0.000000 0.000000
# 2 -0.003655 0.008826 -0.003218 0.000000 0.000000 0.000000
# 3 -0.001506 -0.003218 0.011469 0.000000 0.000000 0.000000
# 4 0.000000 0.000000 0.000000 -0.143736 0.000000 0.000000
# 5 0.000000 0.000000 0.000000 0.000000 0.130492 0.000000
# 6 0.000000 0.000000 0.000000 0.000000 0.000000 0.022250
#
#
# Mechanical properties :
#
#
# Convention : Reuss Voigt Hill
#
# Bulk Modulus (GPa) = 44.26785 53.93767 49.10276
# Shear Modulus (GPa) = 68.83208 23.28442 46.05825
#
# Velocity S-wave (km/s) = 5.79365 3.36969 4.73926
# Velocity P-wave (km/s) = 8.14511 6.43761 7.34117
#
# Compressibility (1/GPa) = 0.02258976
#
# Stress axis : x y z
#
# Youngs Moduli (GPa) = 52.48810 113.30333 87.18967
#
# Poissons Ratio (x) = 0.41407 0.13134
# Poissons Ratio (y) = 0.19182 0.28055
# Poissons Ratio (z) = 0.07907 0.36457
#
# Static dielectric constant tensor:
#      x y z
#    x 1.767960 0.000000 0.000000 
#    y 0.000000 1.723490 0.000000 
#    z 0.000000 0.000000 1.726230 
# 
# From -- ./inp_files/7019.got.cif
#   From: 2010.05.17/outbox.cif.g08.bks.cpg/sg35_4_cif.got.tgz:7019.got - 2010.06.03 17:29:28.
