data_PCOD9349878
_publ_section_title
;
Structure prediction by ZEFSAII (Michael W. Deem and Ramdas Pophale) SiO2 
 PCOD9349878
Probable space group: C M M 2
;
_chemical_formula_sum "Si O2"
_cell_formula_units_Z 32
_cell_length_a 17.322649
_cell_length_b 11.039695
_cell_length_c 7.708518
_cell_angle_alpha 90.000000
_cell_angle_beta 90.000000
_cell_angle_gamma 90.000000
_cell_volume 1474.152019
_symmetry_space_group_name_H-M "C M M 2"
_symmetry_group_IT_number 35
_symmetry_cell_setting 'orthorhombic'
loop_
_space_group_symop_operation_xyz
x,y,z
-x,-y,z
-x,y,z
x,-y,z
1/2+x,1/2+y,z
1/2-x,1/2-y,z
1/2-x,1/2+y,z
1/2+x,1/2-y,z
loop_
_atom_site_type_symbol
_atom_site_label
_atom_site_fract_x
_atom_site_fract_y
_atom_site_fract_z
Si Si1 0.804615 0.367860 0.450740
Si Si2 0.659183 0.244322 0.789662
Si Si3 0.912333 0.000000 0.180622
Si Si4 0.411848 0.500000 0.760087
Si Si5 0.407793 0.767487 0.167018
O O1 0.766311 0.500000 0.447859
O O2 0.750000 0.250000 0.443395
O O3 0.848384 0.350417 0.634121
O O4 0.863175 0.357617 0.291257
O O5 0.750000 0.250000 0.836101
O O6 0.631313 0.375319 0.718371
O O7 0.613480 0.215994 0.965276
O O8 0.879457 0.868491 0.222136
O O9 0.915482 0.000000 0.970500
O O10 0.000000 0.000000 0.247795
O O11 0.500000 0.500000 0.694955
O O12 0.500000 0.772372 0.186101
#
# Coordination Sequence:
#
# PCOD9349878 Si02
#       5
#     8   8   4   4   8
#     4  11  27  45  66  96 134 177 230 278 337 409
#     4  10  22  39  68  98 137 177 227 279 340 400
#     4   7  14  31  59  93 126 164 212 262 314 389
#     4   9  18  37  65  99 133 174 230 278 325 401
#     4  10  21  41  67  99 136 175 221 276 341 406
#
# _framework density 21.707394000000001
#
# number of rings (size 3 to 8) (size 9 to 14) (size 15 to 20)
#    0.000    2.250    0.000    3.000    8.750    3.500 
#    4.500    1.250    0.000    0.000    0.000    0.000 
#    0.000    0.000    0.000    0.000    0.000    0.000 
#
# Total GULP energy -89297.789907 kJ/mol
# GULP energy per Si atom -5581.111869 kJ/mol
# Density = 2.165799 g / cm^3
# Si number density = 21.707394 Si / 1000 Ang^3
#
#
#
# Elastic Constant Matrix: (Units=GPa)
#
#
# Indices 1 2 3 4 5 6 
#
# 1 76.5511 49.8240 24.3557 0.0000 0.0000 0.0000
# 2 49.8240 147.0296 42.9785 0.0000 0.0000 0.0000
# 3 24.3557 42.9785 96.0303 0.0000 0.0000 0.0000
# 4 0.0000 0.0000 0.0000 -484.5159 0.0000 0.0000
# 5 0.0000 0.0000 0.0000 0.0000 -241.9082 0.0000
# 6 0.0000 0.0000 0.0000 0.0000 0.0000 27.2004
#
#
#
# Elastic Compliance Matrix: (Units=1/GPa)
#
#
# Indices 1 2 3 4 5 6 
#
# 1 0.017089 -0.005205 -0.002005 0.000000 0.000000 0.000000
# 2 -0.005205 0.009410 -0.002892 0.000000 0.000000 0.000000
# 3 -0.002005 -0.002892 0.012216 0.000000 0.000000 0.000000
# 4 0.000000 0.000000 0.000000 -0.002064 0.000000 0.000000
# 5 0.000000 0.000000 0.000000 0.000000 -0.004134 0.000000
# 6 0.000000 0.000000 0.000000 0.000000 0.000000 0.036764
#
#
# Mechanical properties :
#
#
# Convention : Reuss Voigt Hill
#
# Bulk Modulus (GPa) = 54.01671 61.54749 57.78210
# Shear Modulus (GPa) = 52.27150 -126.34790 -37.03820
#
# Velocity S-wave (km/s) = 4.91247 -7.63750 -4.13516
# Velocity P-wave (km/s) = 7.55741 7.02569 1.96902
#
# Compressibility (1/GPa) = 0.01851279
#
# Stress axis : x y z
#
# Youngs Moduli (GPa) = 58.51851 106.26598 81.86032
#
# Poissons Ratio (x) = 0.55310 0.16410
# Poissons Ratio (y) = 0.30458 0.23670
# Poissons Ratio (z) = 0.11731 0.30727
#
# Static dielectric constant tensor:
#      x y z
#    x 1.893270 0.000000 0.000000 
#    y 0.000000 1.827540 0.000000 
#    z 0.000000 0.000000 1.789020 
# 
# From -- ./inp_files/6753.got.cif
#   From: 2010.05.17/outbox.cif.g08.bks.cpg/sg35_4_cif.got.tgz:6753.got - 2010.06.03 17:29:28.
