data_PCOD9349947
_publ_section_title
;
Structure prediction by ZEFSAII (Michael W. Deem and Ramdas Pophale) SiO2 
 PCOD9349947
Probable space group: C M M 2
;
_chemical_formula_sum "Si O2"
_cell_formula_units_Z 40
_cell_length_a 8.684463
_cell_length_b 18.630342
_cell_length_c 13.051097
_cell_angle_alpha 90.000000
_cell_angle_beta 90.000000
_cell_angle_gamma 90.000000
_cell_volume 2111.595919
_symmetry_space_group_name_H-M "C M M 2"
_symmetry_group_IT_number 35
_symmetry_cell_setting 'orthorhombic'
loop_
_space_group_symop_operation_xyz
x,y,z
-x,-y,z
-x,y,z
x,-y,z
1/2+x,1/2+y,z
1/2-x,1/2-y,z
1/2-x,1/2+y,z
1/2+x,1/2-y,z
loop_
_atom_site_type_symbol
_atom_site_label
_atom_site_fract_x
_atom_site_fract_y
_atom_site_fract_z
Si Si1 0.815895 0.829828 0.865360
Si Si2 0.314934 0.583776 0.275203
Si Si3 0.815033 0.830270 0.481289
Si Si4 0.683521 0.170696 0.087002
Si Si5 0.315513 0.915889 0.675257
O O1 0.750000 0.750000 0.844732
O O2 0.756853 0.882564 0.777627
O O3 0.000000 0.826791 0.866724
O O4 0.753720 0.851321 0.977367
O O5 0.500000 0.589719 0.261824
O O6 0.276890 0.500000 0.287607
O O7 0.273022 0.627927 0.377048
O O8 0.233634 0.617694 0.176877
O O9 0.750000 0.750000 0.478897
O O10 0.748412 0.872631 0.578234
O O11 0.000000 0.828123 0.488816
O O12 0.500000 0.175072 0.078655
O O13 0.750000 0.250000 0.110112
O O14 0.500000 0.908408 0.679697
O O15 0.277396 0.000000 0.665851
#
# Coordination Sequence:
#
# PCOD9349947 Si02
#       5
#     8   8   8   8   8
#     4  11  22  39  63  88 118 155 197 243 291 346
#     4  10  22  40  61  87 120 156 195 241 293 348
#     4  11  23  40  63  89 118 154 197 242 290 347
#     4  11  22  38  61  88 119 155 198 244 291 345
#     4  11  24  41  61  87 120 155 194 242 294 348
#
# _framework density 18.943017999999999
#
# number of rings (size 3 to 8) (size 9 to 14) (size 15 to 20)
#    0.000    1.200    0.000    7.800    0.000    6.800 
#    0.000    0.000    0.000    0.000    0.000    0.000 
#    0.000    0.000    0.000    0.000    0.000    0.000 
#
# Total GULP energy -111903.519609 kJ/mol
# GULP energy per Si atom -5595.175980 kJ/mol
# Density = 1.889990 g / cm^3
# Si number density = 18.943018 Si / 1000 Ang^3
#
#
#
# Elastic Constant Matrix: (Units=GPa)
#
#
# Indices 1 2 3 4 5 6 
#
# 1 118.3777 89.8941 83.8786 0.0000 0.0000 0.0000
# 2 89.8941 163.9275 130.1854 0.0000 0.0000 0.0000
# 3 83.8786 130.1854 159.8332 0.0000 0.0000 0.0000
# 4 0.0000 0.0000 0.0000 177.4650 0.0000 0.0000
# 5 0.0000 0.0000 0.0000 0.0000 4.3487 0.0000
# 6 0.0000 0.0000 0.0000 0.0000 0.0000 -27.8406
#
#
#
# Elastic Compliance Matrix: (Units=1/GPa)
#
#
# Indices 1 2 3 4 5 6 
#
# 1 0.015079 -0.005619 -0.003336 0.000000 0.000000 0.000000
# 2 -0.005619 0.019368 -0.012827 0.000000 0.000000 0.000000
# 3 -0.003336 -0.012827 0.018455 0.000000 0.000000 0.000000
# 4 0.000000 0.000000 0.000000 0.005635 0.000000 0.000000
# 5 0.000000 0.000000 0.000000 0.000000 0.229952 0.000000
# 6 0.000000 0.000000 0.000000 0.000000 0.000000 -0.035919
#
#
# Mechanical properties :
#
#
# Convention : Reuss Voigt Hill
#
# Bulk Modulus (GPa) = 107.09623 116.67275 111.88449
# Shear Modulus (GPa) = 16.70864 40.00664 28.35764
#
# Velocity S-wave (km/s) = 2.97315 4.60058 3.87330
# Velocity P-wave (km/s) = 8.27314 9.48396 8.89917
#
# Compressibility (1/GPa) = 0.00933740
#
# Stress axis : x y z
#
# Youngs Moduli (GPa) = 66.31895 51.63092 54.18711
#
# Poissons Ratio (x) = 0.29014 0.18077
# Poissons Ratio (y) = 0.37268 0.69503
# Poissons Ratio (z) = 0.22124 0.66225
#
# Static dielectric constant tensor:
#      x y z
#    x 1.634580 0.000000 0.000000 
#    y 0.000000 1.625350 0.000000 
#    z 0.000000 0.000000 1.625760 
# 
# From -- ./inp_files/11004.got.cif
#   From: 2010.05.17/outbox.cif.g08.bks.cpg/sg35_6_cif.got.tgz:11004.got - 2010.06.03 17:29:28.
