data_PCOD9349761
_publ_section_title
;
Structure prediction by ZEFSAII (Michael W. Deem and Ramdas Pophale) SiO2 
 PCOD9349761
Probable space group: C M M 2
;
_chemical_formula_sum "Si O2"
_cell_formula_units_Z 48
_cell_length_a 16.161103
_cell_length_b 8.738907
_cell_length_c 17.103501
_cell_angle_alpha 90.000000
_cell_angle_beta 90.000000
_cell_angle_gamma 90.000000
_cell_volume 2415.533879
_symmetry_space_group_name_H-M "C M M 2"
_symmetry_group_IT_number 35
_symmetry_cell_setting 'orthorhombic'
loop_
_space_group_symop_operation_xyz
x,y,z
-x,-y,z
-x,y,z
x,-y,z
1/2+x,1/2+y,z
1/2-x,1/2-y,z
1/2-x,1/2+y,z
1/2+x,1/2-y,z
loop_
_atom_site_type_symbol
_atom_site_label
_atom_site_fract_x
_atom_site_fract_y
_atom_site_fract_z
Si Si1 0.596806 0.178419 0.577300
Si Si2 0.903452 0.816972 0.245552
Si Si3 0.500000 0.185842 0.998396
Si Si4 0.662134 0.318301 0.731541
Si Si5 0.500000 0.815976 0.815812
Si Si6 0.157990 0.816173 0.418564
Si Si7 0.163382 0.682536 0.090157
O O1 0.500000 0.188732 0.598536
O O2 0.648491 0.271201 0.641051
O O3 0.609079 0.244878 0.491028
O O4 0.621223 0.000000 0.579399
O O5 0.879305 0.775575 0.333967
O O6 0.851076 0.732480 0.179731
O O7 0.000000 0.781809 0.232899
O O8 0.891772 0.000000 0.237134
O O9 0.500000 0.225430 0.907403
O O10 0.500000 0.000000 0.003416
O O11 0.583363 0.238783 0.041768
O O12 0.662781 0.500000 0.739529
O O13 0.750000 0.250000 0.758320
O O14 0.583254 0.248881 0.776621
O O15 0.500000 0.000000 0.807462
O O16 0.250000 0.750000 0.422530
O O17 0.158127 0.000000 0.425284
O O18 0.166685 0.500000 0.085403
O O19 0.250000 0.750000 0.061494
#
# Coordination Sequence:
#
# PCOD9349761 Si02
#       7
#     8   8   4   8   4   8   8
#     4  11  23  40  63  90 123 164 212 263 318 376
#     4  10  21  38  60  88 121 162 210 262 316 371
#     4   9  22  43  67  94 129 166 203 255 318 379
#     4  12  25  43  68  98 132 172 216 262 319 382
#     4  11  23  45  71  98 133 166 207 265 322 387
#     4  11  23  38  56  83 122 163 210 263 314 371
#     4  11  22  40  64  94 127 167 211 257 313 375
#
# _framework density 19.871383000000002
#
# number of rings (size 3 to 8) (size 9 to 14) (size 15 to 20)
#    0.000    1.167    1.667    4.750    0.000    5.000 
#    0.000    5.000    0.000    0.000    0.000    0.000 
#    0.000    0.000    0.000    0.000    0.000    0.000 
#
# Total GULP energy -134245.688236 kJ/mol
# GULP energy per Si atom -5593.570343 kJ/mol
# Density = 1.982615 g / cm^3
# Si number density = 19.871383 Si / 1000 Ang^3
#
#
#
# Elastic Constant Matrix: (Units=GPa)
#
#
# Indices 1 2 3 4 5 6 
#
# 1 155.0379 58.4789 61.3680 0.0000 0.0000 0.0000
# 2 58.4789 92.3016 41.1234 0.0000 0.0000 0.0000
# 3 61.3680 41.1234 112.6882 0.0000 0.0000 0.0000
# 4 0.0000 0.0000 0.0000 19.4001 0.0000 0.0000
# 5 0.0000 0.0000 0.0000 0.0000 26.2000 0.0000
# 6 0.0000 0.0000 0.0000 0.0000 0.0000 32.1395
#
#
#
# Elastic Compliance Matrix: (Units=1/GPa)
#
#
# Indices 1 2 3 4 5 6 
#
# 1 0.009544 -0.004456 -0.003572 0.000000 0.000000 0.000000
# 2 -0.004456 0.015018 -0.003054 0.000000 0.000000 0.000000
# 3 -0.003572 -0.003054 0.011934 0.000000 0.000000 0.000000
# 4 0.000000 0.000000 0.000000 0.051546 0.000000 0.000000
# 5 0.000000 0.000000 0.000000 0.000000 0.038168 0.000000
# 6 0.000000 0.000000 0.000000 0.000000 0.000000 0.031114
#
#
# Mechanical properties :
#
#
# Convention : Reuss Voigt Hill
#
# Bulk Modulus (GPa) = 69.76881 75.77424 72.77152
# Shear Modulus (GPa) = 27.13494 28.81843 27.97668
#
# Velocity S-wave (km/s) = 3.69931 3.81234 3.75625
# Velocity P-wave (km/s) = 7.30979 7.58905 7.45073
#
# Compressibility (1/GPa) = 0.01433305
#
# Stress axis : x y z
#
# Youngs Moduli (GPa) = 104.77272 66.58840 83.79700
#
# Poissons Ratio (x) = 0.29670 0.29930
# Poissons Ratio (y) = 0.46684 0.25591
# Poissons Ratio (z) = 0.37422 0.20335
#
# Static dielectric constant tensor:
#      x y z
#    x 1.655900 0.000000 0.000000 
#    y 0.000000 1.667270 0.000000 
#    z 0.000000 0.000000 1.688070 
# 
# From -- ./inp_files/17882.got.cif
#   From: 2010.05.17/outbox.cif.g08.bks.cpg/sg35_9_cif.got.tgz:17882.got - 2010.06.03 17:29:28.
