data_PCOD9349314
_publ_section_title
;
Structure prediction by ZEFSAII (Michael W. Deem and Ramdas Pophale) SiO2 
 PCOD9349314
Probable space group: C M M 2
;
_chemical_formula_sum "Si O2"
_cell_formula_units_Z 58
_cell_length_a 7.984058
_cell_length_b 21.338269
_cell_length_c 17.030762
_cell_angle_alpha 90.000000
_cell_angle_beta 90.000000
_cell_angle_gamma 90.000000
_cell_volume 2901.462413
_symmetry_space_group_name_H-M "C M M 2"
_symmetry_group_IT_number 35
_symmetry_cell_setting 'orthorhombic'
loop_
_space_group_symop_operation_xyz
x,y,z
-x,-y,z
-x,y,z
x,-y,z
1/2+x,1/2+y,z
1/2-x,1/2-y,z
1/2-x,1/2+y,z
1/2+x,1/2-y,z
loop_
_atom_site_type_symbol
_atom_site_label
_atom_site_fract_x
_atom_site_fract_y
_atom_site_fract_z
Si Si1 0.304477 0.592004 0.187090
Si Si2 0.000000 0.500000 0.143054
Si Si3 0.194804 0.681233 0.486122
Si Si4 0.700497 0.180631 0.068538
Si Si5 0.199788 0.929224 0.371899
Si Si6 0.701369 0.070100 0.954889
Si Si7 0.195293 0.179408 0.663061
Si Si8 0.703309 0.429603 0.774175
O O1 0.500000 0.572651 0.173654
O O2 0.281157 0.661070 0.151565
O O3 0.273187 0.585166 0.280006
O O4 0.151816 0.553323 0.147753
O O5 0.250000 0.750000 0.456501
O O6 0.227984 0.625230 0.426029
O O7 0.278586 0.668833 0.570392
O O8 0.000000 0.685894 0.503001
O O9 0.500000 0.178477 0.072846
O O10 0.750000 0.250000 0.043876
O O11 0.763040 0.127257 0.007750
O O12 0.000000 0.929837 0.384609
O O13 0.263878 0.000000 0.387874
O O14 0.500000 0.067231 0.964864
O O15 0.741146 0.081066 0.863716
O O16 0.765697 0.000000 0.975467
O O17 0.250000 0.250000 0.681699
O O18 0.270139 0.124204 0.716425
O O19 0.000000 0.177642 0.678543
O O20 0.500000 0.429775 0.773227
O O21 0.758117 0.500000 0.751271
#
# Coordination Sequence:
#
# PCOD9349314 Si02
#       8
#     8   2   8   8   8   8   8   8
#     4  11  24  41  65  94 124 164 206 252 311 365
#     4  12  22  40  68  94 128 156 202 268 292 374
#     4  11  23  38  59  84 116 155 197 243 297 355
#     4  11  24  41  62  87 124 162 203 256 307 363
#     4  10  22  40  62  89 120 152 196 244 295 357
#     4   9  20  37  60  86 115 152 194 244 300 355
#     4  10  20  36  57  80 111 150 193 238 289 351
#     4   9  19  36  57  83 113 147 188 236 292 352
#
# _framework density 19.989917999999999
#
# number of rings (size 3 to 8) (size 9 to 14) (size 15 to 20)
#    0.000    1.793    1.379    3.103    1.931    4.138 
#    0.000    4.138    0.000    0.000    0.000    0.000 
#    0.000    0.000    0.000    0.000    0.000    0.000 
#
# Total GULP energy -161597.862857 kJ/mol
# GULP energy per Si atom -5572.340099 kJ/mol
# Density = 1.994442 g / cm^3
# Si number density = 19.989918 Si / 1000 Ang^3
#
#
#
# Elastic Constant Matrix: (Units=GPa)
#
#
# Indices 1 2 3 4 5 6 
#
# 1 56.6787 23.9273 12.0361 0.0000 0.0000 0.0000
# 2 23.9273 176.7856 85.8890 0.0000 0.0000 0.0000
# 3 12.0361 85.8890 72.6993 0.0000 0.0000 0.0000
# 4 0.0000 0.0000 0.0000 37.6175 0.0000 0.0000
# 5 0.0000 0.0000 0.0000 0.0000 26.4109 0.0000
# 6 0.0000 0.0000 0.0000 0.0000 0.0000 30.6033
#
#
#
# Elastic Compliance Matrix: (Units=1/GPa)
#
#
# Indices 1 2 3 4 5 6 
#
# 1 0.018714 -0.002412 -0.000249 0.000000 0.000000 0.000000
# 2 -0.002412 0.013589 -0.015655 0.000000 0.000000 0.000000
# 3 -0.000249 -0.015655 0.032291 0.000000 0.000000 0.000000
# 4 0.000000 0.000000 0.000000 0.026583 0.000000 0.000000
# 5 0.000000 0.000000 0.000000 0.000000 0.037863 0.000000
# 6 0.000000 0.000000 0.000000 0.000000 0.000000 0.032676
#
#
# Mechanical properties :
#
#
# Convention : Reuss Voigt Hill
#
# Bulk Modulus (GPa) = 35.76081 61.09650 48.42865
# Shear Modulus (GPa) = 24.07679 31.21376 27.64527
#
# Velocity S-wave (km/s) = 3.47428 3.95584 3.72285
# Velocity P-wave (km/s) = 5.83287 7.17599 6.53901
#
# Compressibility (1/GPa) = 0.02796357
#
# Stress axis : x y z
#
# Youngs Moduli (GPa) = 53.43479 73.59087 30.96817
#
# Poissons Ratio (x) = 0.17751 0.00770
# Poissons Ratio (y) = 0.12889 0.48480
# Poissons Ratio (z) = 0.01328 1.15204
#
# Static dielectric constant tensor:
#      x y z
#    x 1.717480 0.000000 0.000000 
#    y 0.000000 1.737800 0.000000 
#    z 0.000000 0.000000 1.698720 
# 
# From -- ./inp_files/18172.got.cif
#   From: 2010.05.17/outbox.cif.g08.bks.cpg/sg35_10_cif.got.tgz:18172.got - 2010.06.03 17:29:28.
