data_PCOD9349476
_publ_section_title
;
Structure prediction by ZEFSAII (Michael W. Deem and Ramdas Pophale) SiO2 
 PCOD9349476
Probable space group: C M M 2
;
_chemical_formula_sum "Si O2"
_cell_formula_units_Z 64
_cell_length_a 31.773021
_cell_length_b 8.268943
_cell_length_c 12.275331
_cell_angle_alpha 90.000000
_cell_angle_beta 90.000000
_cell_angle_gamma 90.000000
_cell_volume 3225.089116
_symmetry_space_group_name_H-M "C M M 2"
_symmetry_group_IT_number 35
_symmetry_cell_setting 'orthorhombic'
loop_
_space_group_symop_operation_xyz
x,y,z
-x,-y,z
-x,y,z
x,-y,z
1/2+x,1/2+y,z
1/2-x,1/2-y,z
1/2-x,1/2+y,z
1/2+x,1/2-y,z
loop_
_atom_site_type_symbol
_atom_site_label
_atom_site_fract_x
_atom_site_fract_y
_atom_site_fract_z
Si Si1 0.915399 0.309463 0.681920
Si Si2 0.375994 0.306536 0.307154
Si Si3 0.820741 0.190689 0.674303
Si Si4 0.296029 0.811084 0.439969
Si Si5 0.547640 0.695816 0.909643
Si Si6 0.795650 0.804894 0.914147
Si Si7 0.125322 0.197889 0.059184
Si Si8 0.047349 0.196048 0.456495
O O1 0.906608 0.500000 0.680035
O O2 0.870937 0.216751 0.677663
O O3 0.939424 0.263088 0.792021
O O4 0.941959 0.261182 0.576118
O O5 0.380654 0.500000 0.300271
O O6 0.333853 0.271345 0.374417
O O7 0.373584 0.244949 0.183601
O O8 0.416502 0.245610 0.374015
O O9 0.802612 0.276782 0.568201
O O10 0.802789 0.251282 0.789578
O O11 0.811694 0.000000 0.663717
O O12 0.250000 0.750000 0.407392
O O13 0.298870 0.000000 0.419953
O O14 0.500000 0.743632 0.937894
O O15 0.548972 0.500000 0.903243
O O16 0.582823 0.746718 0.996736
O O17 0.750000 0.750000 0.953148
O O18 0.797055 0.000000 0.911917
O O19 0.834031 0.748959 0.990004
O O20 0.126042 0.000000 0.059787
O O21 0.000000 0.241884 0.424056
O O22 0.049226 0.000000 0.461052
#
# Coordination Sequence:
#
# PCOD9349476 Si02
#       8
#     8   8   8   8   8   8   8   8
#     4  12  23  35  57  88 122 157 194 242 299 360
#     4  10  21  39  63  86 118 158 202 252 298 347
#     4  11  21  38  63  88 119 154 192 243 300 356
#     4  12  25  41  62  90 123 157 199 243 296 357
#     4  10  20  37  62  88 118 157 199 243 294 355
#     4  10  21  37  59  85 118 150 186 235 287 345
#     4   9  19  38  60  86 116 153 199 248 294 340
#     4  10  21  37  59  87 119 157 199 244 298 357
#
# _framework density 19.844411999999998
#
# number of rings (size 3 to 8) (size 9 to 14) (size 15 to 20)
#    0.000    1.500    2.500    3.375    0.000    5.000 
#    0.000    5.000    0.000    0.000    0.000    1.750 
#    0.000    0.000    0.000    0.000    0.000    0.000 
#
# Total GULP energy -178869.300104 kJ/mol
# GULP energy per Si atom -5589.665628 kJ/mol
# Density = 1.979925 g / cm^3
# Si number density = 19.844412 Si / 1000 Ang^3
#
#
#
# Elastic Constant Matrix: (Units=GPa)
#
#
# Indices 1 2 3 4 5 6 
#
# 1 150.4863 -10.6408 67.8733 0.0000 0.0000 0.0000
# 2 -10.6408 4.0968 -0.3881 0.0000 0.0000 0.0000
# 3 67.8733 -0.3881 145.9923 0.0000 0.0000 0.0000
# 4 0.0000 0.0000 0.0000 -0.2048 0.0000 0.0000
# 5 0.0000 0.0000 0.0000 0.0000 0.9592 0.0000
# 6 0.0000 0.0000 0.0000 0.0000 0.0000 17.9546
#
#
#
# Elastic Compliance Matrix: (Units=1/GPa)
#
#
# Indices 1 2 3 4 5 6 
#
# 1 0.010844 0.027696 -0.004968 0.000000 0.000000 0.000000
# 2 0.027696 0.314891 -0.012039 0.000000 0.000000 0.000000
# 3 -0.004968 -0.012039 0.009127 0.000000 0.000000 0.000000
# 4 0.000000 0.000000 0.000000 -4.882984 0.000000 0.000000
# 5 0.000000 0.000000 0.000000 0.000000 1.042570 0.000000
# 6 0.000000 0.000000 0.000000 0.000000 0.000000 0.055696
#
#
# Mechanical properties :
#
#
# Convention : Reuss Voigt Hill
#
# Bulk Modulus (GPa) = 2.80710 46.02936 24.41823
# Shear Modulus (GPa) = -1.49143 19.99053 9.24955
#
# Velocity S-wave (km/s) = -0.86787 3.17734 2.16128
# Velocity P-wave (km/s) = 0.64294 6.05856 4.30810
#
# Compressibility (1/GPa) = 0.35623952
#
# Stress axis : x y z
#
# Youngs Moduli (GPa) = 92.21582 3.17571 109.56134
#
# Poissons Ratio (x) = -0.08795 0.54429
# Poissons Ratio (y) = -2.55397 1.31900
# Poissons Ratio (z) = 0.45812 0.03823
#
# Static dielectric constant tensor:
#      x y z
#    x 1.666030 0.000000 0.000000 
#    y 0.000000 1.683810 0.000000 
#    z 0.000000 0.000000 1.673900 
# 
# From -- ./inp_files/11834.got.cif
#   From: 2010.05.17/outbox.cif.g08.bks.cpg/sg35_6_cif.got.tgz:11834.got - 2010.06.03 17:29:28.
