data_PCOD9349068
_publ_section_title
;
Structure prediction by ZEFSAII (Michael W. Deem and Ramdas Pophale) SiO2 
 PCOD9349068
Probable space group: C M M 2
;
_chemical_formula_sum "Si O2"
_cell_formula_units_Z 64
_cell_length_a 13.844587
_cell_length_b 20.885858
_cell_length_c 10.038486
_cell_angle_alpha 90.000000
_cell_angle_beta 90.000000
_cell_angle_gamma 90.000000
_cell_volume 2902.689242
_symmetry_space_group_name_H-M "C M M 2"
_symmetry_group_IT_number 35
_symmetry_cell_setting 'orthorhombic'
loop_
_space_group_symop_operation_xyz
x,y,z
-x,-y,z
-x,y,z
x,-y,z
1/2+x,1/2+y,z
1/2-x,1/2-y,z
1/2-x,1/2+y,z
1/2+x,1/2-y,z
loop_
_atom_site_type_symbol
_atom_site_label
_atom_site_fract_x
_atom_site_fract_y
_atom_site_fract_z
Si Si1 0.390115 0.144348 0.654670
Si Si2 0.615207 0.236417 0.882989
Si Si3 0.616067 0.183893 0.157903
Si Si4 0.606743 0.573010 0.278136
Si Si5 0.113762 0.881064 0.820808
Si Si6 0.195176 0.114001 0.540748
Si Si7 0.254813 0.576018 0.058467
Si Si8 0.888410 0.753649 0.432775
O O1 0.500000 0.118008 0.665723
O O2 0.355581 0.175749 0.793640
O O3 0.304012 0.103100 0.592313
O O4 0.394164 0.203846 0.553447
O O5 0.500000 0.233371 0.875453
O O6 0.640210 0.305503 0.826582
O O7 0.641767 0.231252 0.036674
O O8 0.500000 0.175979 0.164535
O O9 0.662757 0.117687 0.104552
O O10 0.644470 0.215348 0.299622
O O11 0.500000 0.599156 0.296734
O O12 0.597490 0.500000 0.233825
O O13 0.665769 0.573851 0.413490
O O14 0.665844 0.604955 0.161263
O O15 0.127698 0.899770 0.667257
O O16 0.000000 0.889472 0.860063
O O17 0.190485 0.915213 0.917596
O O18 0.174057 0.186345 0.485084
O O19 0.235009 0.500000 0.075898
O O20 0.000000 0.774322 0.409046
#
# Coordination Sequence:
#
# PCOD9349068 Si02
#       8
#     8   8   8   8   8   8   8   8
#     4  10  20  35  55  84 125 163 197 244 309 380
#     4   9  19  37  58  87 125 161 196 246 315 379
#     4  10  22  40  63  92 125 161 208 262 313 373
#     4  10  23  43  62  84 119 161 210 268 318 369
#     4  11  23  39  62  93 129 164 205 261 318 383
#     4  12  22  36  63  92 123 166 210 257 318 388
#     4  11  25  43  63  89 123 171 220 259 314 375
#     4  10  20  34  55  89 125 155 198 254 316 379
#
# _framework density 22.048518000000001
#
# number of rings (size 3 to 8) (size 9 to 14) (size 15 to 20)
#    0.000    1.625    1.250    3.375    1.750    3.000 
#    0.000    0.000    0.000    1.125    0.000    0.000 
#    0.000    0.000    0.000    0.000    0.000    0.000 
#
# Total GULP energy -178546.280430 kJ/mol
# GULP energy per Si atom -5579.571263 kJ/mol
# Density = 2.199833 g / cm^3
# Si number density = 22.048518 Si / 1000 Ang^3
#
#
#
# Elastic Constant Matrix: (Units=GPa)
#
#
# Indices 1 2 3 4 5 6 
#
# 1 132.2086 10.3830 13.7075 0.0000 0.0000 0.0000
# 2 10.3830 21.1980 1.1087 0.0000 0.0000 0.0000
# 3 13.7075 1.1087 121.7777 0.0000 0.0000 0.0000
# 4 0.0000 0.0000 0.0000 32.0155 0.0000 0.0000
# 5 0.0000 0.0000 0.0000 0.0000 22.6796 0.0000
# 6 0.0000 0.0000 0.0000 0.0000 0.0000 18.5029
#
#
#
# Elastic Compliance Matrix: (Units=1/GPa)
#
#
# Indices 1 2 3 4 5 6 
#
# 1 0.007956 -0.003852 -0.000860 0.000000 0.000000 0.000000
# 2 -0.003852 0.049061 -0.000013 0.000000 0.000000 0.000000
# 3 -0.000860 -0.000013 0.008309 0.000000 0.000000 0.000000
# 4 0.000000 0.000000 0.000000 0.031235 0.000000 0.000000
# 5 0.000000 0.000000 0.000000 0.000000 0.044092 0.000000
# 6 0.000000 0.000000 0.000000 0.000000 0.000000 0.054046
#
#
# Mechanical properties :
#
#
# Convention : Reuss Voigt Hill
#
# Bulk Modulus (GPa) = 17.89704 36.17587 27.03645
# Shear Modulus (GPa) = 22.44427 31.30529 26.87478
#
# Velocity S-wave (km/s) = 3.19399 3.77216 3.49505
# Velocity P-wave (km/s) = 4.66228 5.95107 5.34566
#
# Compressibility (1/GPa) = 0.05587518
#
# Stress axis : x y z
#
# Youngs Moduli (GPa) = 125.69913 20.38260 120.35647
#
# Poissons Ratio (x) = 0.07851 0.10356
# Poissons Ratio (y) = 0.48415 0.00158
# Poissons Ratio (z) = 0.10815 0.00027
#
# Static dielectric constant tensor:
#      x y z
#    x 1.892890 0.000000 0.000000 
#    y 0.000000 1.803060 0.000000 
#    z 0.000000 0.000000 1.799250 
# 
# From -- ./inp_files/7884.got.cif
#   From: 2010.05.17/outbox.cif.g08.bks.cpg/sg35_4_cif.got.tgz:7884.got - 2010.06.03 17:29:28.
