data_PCOD9349539
_publ_section_title
;
Structure prediction by ZEFSAII (Michael W. Deem and Ramdas Pophale) SiO2 
 PCOD9349539
Probable space group: C M M 2
;
_chemical_formula_sum "Si O2"
_cell_formula_units_Z 48
_cell_length_a 15.354877
_cell_length_b 8.458472
_cell_length_c 19.455051
_cell_angle_alpha 90.000000
_cell_angle_beta 90.000000
_cell_angle_gamma 90.000000
_cell_volume 2526.798623
_symmetry_space_group_name_H-M "C M M 2"
_symmetry_group_IT_number 35
_symmetry_cell_setting 'orthorhombic'
loop_
_space_group_symop_operation_xyz
x,y,z
-x,-y,z
-x,y,z
x,-y,z
1/2+x,1/2+y,z
1/2-x,1/2-y,z
1/2-x,1/2+y,z
1/2+x,1/2-y,z
loop_
_atom_site_type_symbol
_atom_site_label
_atom_site_fract_x
_atom_site_fract_y
_atom_site_fract_z
Si Si1 0.500000 0.812509 0.203110
Si Si2 0.000000 0.189356 0.841244
Si Si3 0.898652 0.691998 0.599929
Si Si4 0.649616 0.310154 0.104128
Si Si5 0.000000 0.192394 0.998691
Si Si6 0.500000 0.687426 0.356965
Si Si7 0.842457 0.689273 0.749783
Si Si8 0.843010 0.690093 0.449413
O O1 0.412249 0.743870 0.167445
O O2 0.500000 0.769701 0.283051
O O3 0.500000 0.000000 0.193001
O O4 0.082787 0.249205 0.799205
O O5 0.000000 0.000000 0.842095
O O6 0.000000 0.246109 0.920048
O O7 0.894829 0.500000 0.600262
O O8 0.857331 0.747950 0.671270
O O9 0.856637 0.745170 0.528532
O O10 0.000000 0.736803 0.599580
O O11 0.653644 0.500000 0.104267
O O12 0.750000 0.250000 0.104251
O O13 0.588177 0.259063 0.039327
O O14 0.000000 0.000000 0.999543
O O15 0.500000 0.500000 0.347290
O O16 0.582634 0.740545 0.401496
O O17 0.845131 0.500000 0.748480
O O18 0.750000 0.750000 0.774366
O O19 0.848089 0.500000 0.448387
O O20 0.750000 0.750000 0.425294
#
# Coordination Sequence:
#
# PCOD9349539 Si02
#       8
#     4   4   8   8   4   4   8   8
#     4  11  23  41  64  92 122 157 195 237 286 340
#     4  11  22  39  59  85 119 157 198 243 294 350
#     4   9  17  34  59  82 110 149 194 247 302 353
#     4  10  20  39  65  94 123 155 192 236 285 341
#     4   8  19  38  60  86 122 158 194 240 288 340
#     4  12  25  42  61  87 121 158 197 240 290 348
#     4  11  22  38  58  83 115 154 199 248 301 355
#     4  11  22  39  61  86 116 153 196 246 300 354
#
# _framework density 18.996369000000001
#
# number of rings (size 3 to 8) (size 9 to 14) (size 15 to 20)
#    0.000    1.667    1.667    4.250    0.000    1.333 
#    0.000   13.333    0.000    0.000    0.000    0.000 
#    0.000    0.000    0.000    0.000    0.000    0.000 
#
# Total GULP energy -134022.037731 kJ/mol
# GULP energy per Si atom -5584.251572 kJ/mol
# Density = 1.895313 g / cm^3
# Si number density = 18.996369 Si / 1000 Ang^3
#
#
#
# Elastic Constant Matrix: (Units=GPa)
#
#
# Indices 1 2 3 4 5 6 
#
# 1 200.0572 33.2826 81.3456 0.0000 0.0000 0.0000
# 2 33.2826 60.2995 23.1357 0.0000 0.0000 0.0000
# 3 81.3456 23.1357 143.4464 0.0000 0.0000 0.0000
# 4 0.0000 0.0000 0.0000 20.4368 0.0000 0.0000
# 5 0.0000 0.0000 0.0000 0.0000 299.3133 0.0000
# 6 0.0000 0.0000 0.0000 0.0000 0.0000 31.7310
#
#
#
# Elastic Compliance Matrix: (Units=1/GPa)
#
#
# Indices 1 2 3 4 5 6 
#
# 1 0.006815 -0.002429 -0.003473 0.000000 0.000000 0.000000
# 2 -0.002429 0.018544 -0.001613 0.000000 0.000000 0.000000
# 3 -0.003473 -0.001613 0.009201 0.000000 0.000000 0.000000
# 4 0.000000 0.000000 0.000000 0.048931 0.000000 0.000000
# 5 0.000000 0.000000 0.000000 0.000000 0.003341 0.000000
# 6 0.000000 0.000000 0.000000 0.000000 0.000000 0.031515
#
#
# Mechanical properties :
#
#
# Convention : Reuss Voigt Hill
#
# Bulk Modulus (GPa) = 51.20612 75.48119 63.34366
# Shear Modulus (GPa) = 35.74335 88.03216 61.88776
#
# Velocity S-wave (km/s) = 4.34243 6.81485 5.71397
# Velocity P-wave (km/s) = 7.22195 10.08681 8.77212
#
# Compressibility (1/GPa) = 0.01952891
#
# Stress axis : x y z
#
# Youngs Moduli (GPa) = 146.74108 53.92694 108.68650
#
# Poissons Ratio (x) = 0.13099 0.37744
# Poissons Ratio (y) = 0.35643 0.17535
# Poissons Ratio (z) = 0.50959 0.08700
#
# Static dielectric constant tensor:
#      x y z
#    x 1.619330 0.000000 0.000000 
#    y 0.000000 1.654000 0.000000 
#    z 0.000000 0.000000 1.659600 
# 
# From -- ./inp_files/18839.got.cif
#   From: 2010.05.17/outbox.cif.g08.bks.cpg/sg35_10_cif.got.tgz:18839.got - 2010.06.03 17:29:28.
