data_PCOD9349747
_publ_section_title
;
Structure prediction by ZEFSAII (Michael W. Deem and Ramdas Pophale) SiO2 
 PCOD9349747
Probable space group: C M M 2
;
_chemical_formula_sum "Si O2"
_cell_formula_units_Z 64
_cell_length_a 7.650105
_cell_length_b 30.488264
_cell_length_c 12.679395
_cell_angle_alpha 90.000000
_cell_angle_beta 90.000000
_cell_angle_gamma 90.000000
_cell_volume 2957.322067
_symmetry_space_group_name_H-M "C M M 2"
_symmetry_group_IT_number 35
_symmetry_cell_setting 'orthorhombic'
loop_
_space_group_symop_operation_xyz
x,y,z
-x,-y,z
-x,y,z
x,-y,z
1/2+x,1/2+y,z
1/2-x,1/2-y,z
1/2-x,1/2+y,z
1/2+x,1/2-y,z
loop_
_atom_site_type_symbol
_atom_site_label
_atom_site_fract_x
_atom_site_fract_y
_atom_site_fract_z
Si Si1 0.709855 0.333816 0.820830
Si Si2 0.707719 0.067583 0.763547
Si Si3 0.785665 0.547923 0.528565
Si Si4 0.207167 0.853395 0.052718
Si Si5 0.201734 0.363397 0.433292
Si Si6 0.208415 0.797698 0.610069
Si Si7 0.301765 0.800591 0.257787
Si Si8 0.211659 0.547775 0.998005
O O1 0.500000 0.330294 0.828663
O O2 0.756963 0.380902 0.772405
O O3 0.771434 0.300333 0.731528
O O4 0.776249 0.334702 0.940563
O O5 0.500000 0.058841 0.763633
O O6 0.774290 0.051649 0.650648
O O7 0.774016 0.049548 0.875635
O O8 0.738185 0.500000 0.487204
O O9 0.721137 0.589120 0.460878
O O10 0.000000 0.550462 0.531655
O O11 0.289502 0.827354 0.149222
O O12 0.000000 0.845505 0.058354
O O13 0.233599 0.906235 0.050977
O O14 0.206286 0.335318 0.540358
O O15 0.287012 0.331881 0.345535
O O16 0.000000 0.372169 0.402099
O O17 0.250000 0.750000 0.565207
O O18 0.000000 0.804600 0.608145
O O19 0.500000 0.796990 0.294635
O O20 0.250000 0.750000 0.245398
O O21 0.265286 0.500000 0.042375
O O22 0.000000 0.548729 0.997464
#
# Coordination Sequence:
#
# PCOD9349747 Si02
#       8
#     8   8   8   8   8   8   8   8
#     4   9  19  34  51  77 113 149 181 224 278 335
#     4   9  15  26  49  78 111 151 191 229 268 320
#     4   9  16  28  51  83 115 147 185 226 269 322
#     4  10  21  38  59  83 114 149 191 238 287 341
#     4  10  21  38  59  84 114 147 187 232 280 334
#     4  11  22  35  54  80 112 146 182 225 280 343
#     4  11  24  42  63  85 108 140 189 242 293 346
#     4   9  17  30  51  83 120 156 195 236 278 328
#
# _framework density 21.641200000000001
#
# number of rings (size 3 to 8) (size 9 to 14) (size 15 to 20)
#    0.000    2.250    1.250    1.875    0.000    5.250 
#    0.000    1.875    0.000    4.500    0.000    0.000 
#    0.000    0.000    0.000    0.000    0.000    0.000 
#
# Total GULP energy -178458.106923 kJ/mol
# GULP energy per Si atom -5576.815841 kJ/mol
# Density = 2.159194 g / cm^3
# Si number density = 21.641200 Si / 1000 Ang^3
#
#
#
# Elastic Constant Matrix: (Units=GPa)
#
#
# Indices 1 2 3 4 5 6 
#
# 1 40.0334 -9.0692 -9.1453 0.0000 0.0000 0.0000
# 2 -9.0692 170.9914 62.0136 0.0000 0.0000 0.0000
# 3 -9.1453 62.0136 96.7212 0.0000 0.0000 0.0000
# 4 0.0000 0.0000 0.0000 8.5992 0.0000 0.0000
# 5 0.0000 0.0000 0.0000 0.0000 11.2731 0.0000
# 6 0.0000 0.0000 0.0000 0.0000 0.0000 7.4442
#
#
#
# Elastic Compliance Matrix: (Units=1/GPa)
#
#
# Indices 1 2 3 4 5 6 
#
# 1 0.025582 0.000625 0.002018 0.000000 0.000000 0.000000
# 2 0.000625 0.007635 -0.004836 0.000000 0.000000 0.000000
# 3 0.002018 -0.004836 0.013631 0.000000 0.000000 0.000000
# 4 0.000000 0.000000 0.000000 0.116290 0.000000 0.000000
# 5 0.000000 0.000000 0.000000 0.000000 0.088707 0.000000
# 6 0.000000 0.000000 0.000000 0.000000 0.000000 0.134333
#
#
# Mechanical properties :
#
#
# Convention : Reuss Voigt Hill
#
# Bulk Modulus (GPa) = 23.55089 43.92712 33.73901
# Shear Modulus (GPa) = 12.35427 23.05976 17.70701
#
# Velocity S-wave (km/s) = 2.39188 3.26782 2.86354
# Velocity P-wave (km/s) = 4.30513 5.88049 5.15336
#
# Compressibility (1/GPa) = 0.04246123
#
# Stress axis : x y z
#
# Youngs Moduli (GPa) = 39.09033 130.96857 73.36364
#
# Poissons Ratio (x) = -0.08184 -0.14806
# Poissons Ratio (y) = -0.02443 0.35482
# Poissons Ratio (z) = -0.07889 0.63342
#
# Static dielectric constant tensor:
#      x y z
#    x 1.824450 0.000000 0.000000 
#    y 0.000000 1.807390 0.000000 
#    z 0.000000 0.000000 1.793130 
# 
# From -- ./inp_files/11895.got.cif
#   From: 2010.05.17/outbox.cif.g08.bks.cpg/sg35_6_cif.got.tgz:11895.got - 2010.06.03 17:29:28.
