data_PCOD9349060
_publ_section_title
;
Structure prediction by ZEFSAII (Michael W. Deem and Ramdas Pophale) SiO2 
 PCOD9349060
Probable space group: C M M 2
;
_chemical_formula_sum "Si O2"
_cell_formula_units_Z 56
_cell_length_a 23.680071
_cell_length_b 13.667892
_cell_length_c 9.083533
_cell_angle_alpha 90.000000
_cell_angle_beta 90.000000
_cell_angle_gamma 90.000000
_cell_volume 2939.945888
_symmetry_space_group_name_H-M "C M M 2"
_symmetry_group_IT_number 35
_symmetry_cell_setting 'orthorhombic'
loop_
_space_group_symop_operation_xyz
x,y,z
-x,-y,z
-x,y,z
x,-y,z
1/2+x,1/2+y,z
1/2-x,1/2-y,z
1/2-x,1/2+y,z
1/2+x,1/2-y,z
loop_
_atom_site_type_symbol
_atom_site_label
_atom_site_fract_x
_atom_site_fract_y
_atom_site_fract_z
Si Si1 0.843578 0.117434 0.508860
Si Si2 0.000000 0.381009 0.191714
Si Si3 0.402248 0.219100 0.005201
Si Si4 0.816935 0.738407 0.259651
Si Si5 0.110663 0.383902 0.707930
Si Si6 0.213316 0.383815 0.526459
Si Si7 0.000000 0.381526 0.537901
Si Si8 0.566263 0.384028 0.770922
O O1 0.848336 0.177270 0.356127
O O2 0.778415 0.146093 0.548308
O O3 0.889771 0.137170 0.636530
O O4 0.845348 0.000000 0.483196
O O5 0.000000 0.360353 0.365672
O O6 0.000000 0.500000 0.170582
O O7 0.947635 0.327434 0.115337
O O8 0.394565 0.140646 0.876911
O O9 0.420053 0.316054 0.912671
O O10 0.347392 0.232151 0.104781
O O11 0.750000 0.750000 0.235595
O O12 0.815100 0.646527 0.371469
O O13 0.110728 0.500000 0.686557
O O14 0.169658 0.345063 0.646478
O O15 0.056230 0.345424 0.619604
O O16 0.214971 0.500000 0.533574
O O17 0.000000 0.500000 0.550891
O O18 0.500000 0.369005 0.730439
O O19 0.572952 0.500000 0.805061
#
# Coordination Sequence:
#
# PCOD9349060 Si02
#       8
#     8   4   8   8   8   8   4   8
#     4   9  19  39  64  85 109 149 203 253 294 339
#     4  11  23  39  58  85 120 155 193 232 284 353
#     4  12  23  37  56  87 121 160 186 235 298 358
#     4  10  22  38  57  86 122 156 194 242 294 354
#     4  10  20  34  55  85 119 154 194 234 279 341
#     4   9  18  35  59  86 116 154 200 246 286 337
#     4   9  19  35  55  77 110 155 196 232 267 323
#     4  10  22  41  61  83 113 151 198 254 304 348
#
# _framework density 19.047969999999999
#
# number of rings (size 3 to 8) (size 9 to 14) (size 15 to 20)
#    0.000    2.000    0.714    2.571    0.000    4.571 
#    1.286    0.000    0.000    0.000    0.000    0.000 
#    0.000    0.000    0.000    0.000    0.000    0.000 
#
# Total GULP energy -156070.166592 kJ/mol
# GULP energy per Si atom -5573.934521 kJ/mol
# Density = 1.900462 g / cm^3
# Si number density = 19.047970 Si / 1000 Ang^3
#
#
#
# Elastic Constant Matrix: (Units=GPa)
#
#
# Indices 1 2 3 4 5 6 
#
# 1 95.6714 26.2635 67.9507 0.0000 0.0000 0.0000
# 2 26.2635 57.4735 7.0876 0.0000 0.0000 0.0000
# 3 67.9507 7.0876 116.2239 0.0000 0.0000 0.0000
# 4 0.0000 0.0000 0.0000 28.4913 0.0000 0.0000
# 5 0.0000 0.0000 0.0000 0.0000 60.1472 0.0000
# 6 0.0000 0.0000 0.0000 0.0000 0.0000 23.6098
#
#
#
# Elastic Compliance Matrix: (Units=1/GPa)
#
#
# Indices 1 2 3 4 5 6 
#
# 1 0.021112 -0.008187 -0.011844 0.000000 0.000000 0.000000
# 2 -0.008187 0.020706 0.003524 0.000000 0.000000 0.000000
# 3 -0.011844 0.003524 0.015314 0.000000 0.000000 0.000000
# 4 0.000000 0.000000 0.000000 0.035098 0.000000 0.000000
# 5 0.000000 0.000000 0.000000 0.000000 0.016626 0.000000
# 6 0.000000 0.000000 0.000000 0.000000 0.000000 0.042355
#
#
# Mechanical properties :
#
#
# Convention : Reuss Voigt Hill
#
# Bulk Modulus (GPa) = 41.46346 52.44140 46.95243
# Shear Modulus (GPa) = 26.00576 33.65412 29.82994
#
# Velocity S-wave (km/s) = 3.69897 4.20790 3.96162
# Velocity P-wave (km/s) = 6.32917 7.15539 6.75492
#
# Compressibility (1/GPa) = 0.02411762
#
# Stress axis : x y z
#
# Youngs Moduli (GPa) = 47.36610 48.29528 65.30043
#
# Poissons Ratio (x) = 0.39539 0.77342
# Poissons Ratio (y) = 0.38778 -0.23011
# Poissons Ratio (z) = 0.56101 -0.17018
#
# Static dielectric constant tensor:
#      x y z
#    x 1.686500 0.000000 0.000000 
#    y 0.000000 1.758600 0.000000 
#    z 0.000000 0.000000 1.614860 
# 
# From -- ./inp_files/9335.got.cif
#   From: 2010.05.17/outbox.cif.g08.bks.cpg/sg35_5_cif.got.tgz:9335.got - 2010.06.03 17:29:28.
