data_PCOD9349569
_publ_section_title
;
Structure prediction by ZEFSAII (Michael W. Deem and Ramdas Pophale) SiO2 
 PCOD9349569
Probable space group: C M M 2
;
_chemical_formula_sum "Si O2"
_cell_formula_units_Z 48
_cell_length_a 38.855091
_cell_length_b 8.726390
_cell_length_c 7.805478
_cell_angle_alpha 90.000000
_cell_angle_beta 90.000000
_cell_angle_gamma 90.000000
_cell_volume 2646.561881
_symmetry_space_group_name_H-M "C M M 2"
_symmetry_group_IT_number 35
_symmetry_cell_setting 'orthorhombic'
loop_
_space_group_symop_operation_xyz
x,y,z
-x,-y,z
-x,y,z
x,-y,z
1/2+x,1/2+y,z
1/2-x,1/2-y,z
1/2-x,1/2+y,z
1/2+x,1/2-y,z
loop_
_atom_site_type_symbol
_atom_site_label
_atom_site_fract_x
_atom_site_fract_y
_atom_site_fract_z
Si Si1 0.539899 0.316667 0.613470
Si Si2 0.212499 0.815260 0.003448
Si Si3 0.039830 0.315574 0.985707
Si Si4 0.914567 0.316276 0.309487
Si Si5 0.787495 0.184739 0.610611
Si Si6 0.838094 0.814529 0.306983
O O1 0.500000 0.271202 0.580557
O O2 0.542016 0.500000 0.606893
O O3 0.548648 0.259594 0.804199
O O4 0.564743 0.245060 0.473034
O O5 0.250000 0.750000 0.049030
O O6 0.204759 0.768760 0.807028
O O7 0.214482 0.000000 0.007997
O O8 0.183766 0.767476 0.139571
O O9 0.041718 0.500000 0.968244
O O10 0.000000 0.276259 0.026556
O O11 0.064791 0.267240 0.138705
O O12 0.914301 0.500000 0.313731
O O13 0.875955 0.254076 0.307402
O O14 0.750000 0.250000 0.565017
O O15 0.816218 0.232455 0.474430
O O16 0.785512 0.000000 0.606176
O O17 0.840517 0.000000 0.307257
#
# Coordination Sequence:
#
# PCOD9349569 Si02
#       6
#     8   8   8   8   8   8
#     4  10  21  37  59  85 110 140 180 225 272 323
#     4   9  18  33  53  75  99 130 170 217 266 315
#     4   9  19  37  59  81 107 141 181 225 271 319
#     4  11  23  37  55  81 113 148 184 223 270 323
#     4   9  18  33  53  76 101 132 172 217 265 315
#     4  10  21  35  50  73 107 142 175 215 265 319
#
# _framework density 18.136737
#
# number of rings (size 3 to 8) (size 9 to 14) (size 15 to 20)
#    0.000    2.333    0.000    2.000    0.000    5.667 
#    0.000    3.333    0.000    0.000    0.000    0.000 
#    0.000    0.000    0.000    0.000    0.000    0.000 
#
# Total GULP energy -133991.937602 kJ/mol
# GULP energy per Si atom -5582.997400 kJ/mol
# Density = 1.809546 g / cm^3
# Si number density = 18.136737 Si / 1000 Ang^3
#
#
#
# Elastic Constant Matrix: (Units=GPa)
#
#
# Indices 1 2 3 4 5 6 
#
# 1 173.4444 45.1074 141.7682 0.0000 0.0000 0.0000
# 2 45.1074 19.2581 43.7693 0.0000 0.0000 0.0000
# 3 141.7682 43.7693 161.3746 0.0000 0.0000 0.0000
# 4 0.0000 0.0000 0.0000 -9.5726 0.0000 0.0000
# 5 0.0000 0.0000 0.0000 0.0000 -12.6349 0.0000
# 6 0.0000 0.0000 0.0000 0.0000 0.0000 30.4993
#
#
#
# Elastic Compliance Matrix: (Units=1/GPa)
#
#
# Indices 1 2 3 4 5 6 
#
# 1 0.023308 -0.021003 -0.014780 0.000000 0.000000 0.000000
# 2 -0.021003 0.154304 -0.023401 0.000000 0.000000 0.000000
# 3 -0.014780 -0.023401 0.025528 0.000000 0.000000 0.000000
# 4 0.000000 0.000000 0.000000 -0.104465 0.000000 0.000000
# 5 0.000000 0.000000 0.000000 0.000000 -0.079146 0.000000
# 6 0.000000 0.000000 0.000000 0.000000 0.000000 0.032788
#
#
# Mechanical properties :
#
#
# Convention : Reuss Voigt Hill
#
# Bulk Modulus (GPa) = 11.79608 90.59630 51.19619
# Shear Modulus (GPa) = 25.13295 9.88719 17.51007
#
# Velocity S-wave (km/s) = 3.72660 2.33737 3.11054
# Velocity P-wave (km/s) = 5.00348 7.57263 6.41792
#
# Compressibility (1/GPa) = 0.08477391
#
# Stress axis : x y z
#
# Youngs Moduli (GPa) = 42.90311 6.48071 39.17270
#
# Poissons Ratio (x) = 0.13611 0.57897
# Poissons Ratio (y) = 0.90107 0.91667
# Poissons Ratio (z) = 0.63411 0.15165
#
# Static dielectric constant tensor:
#      x y z
#    x 1.584400 0.000000 0.000000 
#    y 0.000000 1.610560 0.000000 
#    z 0.000000 0.000000 1.617830 
# 
# From -- ./inp_files/10484.got.cif
#   From: 2010.05.17/outbox.cif.g08.bks.cpg/sg35_6_cif.got.tgz:10484.got - 2010.06.03 17:29:28.
