data_PCOD9349638
_publ_section_title
;
Structure prediction by ZEFSAII (Michael W. Deem and Ramdas Pophale) SiO2 
 PCOD9349638
Probable space group: C M M 2
;
_chemical_formula_sum "Si O2"
_cell_formula_units_Z 56
_cell_length_a 8.653800
_cell_length_b 18.466091
_cell_length_c 18.510910
_cell_angle_alpha 90.000000
_cell_angle_beta 90.000000
_cell_angle_gamma 90.000000
_cell_volume 2958.077817
_symmetry_space_group_name_H-M "C M M 2"
_symmetry_group_IT_number 35
_symmetry_cell_setting 'orthorhombic'
loop_
_space_group_symop_operation_xyz
x,y,z
-x,-y,z
-x,y,z
x,-y,z
1/2+x,1/2+y,z
1/2-x,1/2-y,z
1/2-x,1/2+y,z
1/2+x,1/2-y,z
loop_
_atom_site_type_symbol
_atom_site_label
_atom_site_fract_x
_atom_site_fract_y
_atom_site_fract_z
Si Si1 0.686375 0.415887 0.676260
Si Si2 0.313322 0.330659 0.818413
Si Si3 0.814493 0.084850 0.240111
Si Si4 0.685992 0.830960 0.378161
Si Si5 0.313200 0.584615 0.963441
Si Si6 0.313894 0.083990 0.521553
Si Si7 0.315697 0.168814 0.101445
O O1 0.500000 0.414228 0.674391
O O2 0.733426 0.500000 0.686420
O O3 0.738945 0.368078 0.743854
O O4 0.748987 0.391290 0.598690
O O5 0.500000 0.328308 0.817171
O O6 0.250000 0.250000 0.825196
O O7 0.268431 0.378663 0.887616
O O8 0.748326 0.121503 0.312051
O O9 0.748526 0.126184 0.170724
O O10 0.000000 0.090766 0.239982
O O11 0.773018 0.000000 0.237389
O O12 0.500000 0.829717 0.375512
O O13 0.750000 0.750000 0.372554
O O14 0.734918 0.867541 0.453898
O O15 0.500000 0.589258 0.969926
O O16 0.271173 0.500000 0.964762
O O17 0.238711 0.627282 0.029657
O O18 0.500000 0.085151 0.524783
O O19 0.265515 0.000000 0.510684
O O20 0.500000 0.171464 0.104565
O O21 0.250000 0.250000 0.100985
#
# Coordination Sequence:
#
# PCOD9349638 Si02
#       7
#     8   8   8   8   8   8   8
#     4   9  18  34  56  80 107 143 188 234 280 335
#     4  10  21  36  55  81 113 149 188 232 284 338
#     4  11  24  42  64  89 117 150 190 234 282 338
#     4  11  23  39  59  84 117 153 191 236 286 339
#     4  10  21  39  62  86 115 151 191 236 286 340
#     4   9  19  36  57  81 110 146 187 232 284 339
#     4  12  25  41  62  88 120 154 190 233 282 336
#
# _framework density 18.931214000000001
#
# number of rings (size 3 to 8) (size 9 to 14) (size 15 to 20)
#    0.000    1.714    0.000    4.286    0.000    9.429 
#    0.000    4.286    0.000    2.571    0.000    0.000 
#    0.000    0.000    0.000    0.000    0.000    0.000 
#
# Total GULP energy -156519.692661 kJ/mol
# GULP energy per Si atom -5589.989024 kJ/mol
# Density = 1.888813 g / cm^3
# Si number density = 18.931214 Si / 1000 Ang^3
#
#
#
# Elastic Constant Matrix: (Units=GPa)
#
#
# Indices 1 2 3 4 5 6 
#
# 1 45.9597 58.3527 57.7441 0.0000 0.0000 0.0000
# 2 58.3527 180.8770 127.2288 0.0000 0.0000 0.0000
# 3 57.7441 127.2288 206.4603 0.0000 0.0000 0.0000
# 4 0.0000 0.0000 0.0000 41.4942 0.0000 0.0000
# 5 0.0000 0.0000 0.0000 0.0000 59.6205 0.0000
# 6 0.0000 0.0000 0.0000 0.0000 0.0000 24.2660
#
#
#
# Elastic Compliance Matrix: (Units=1/GPa)
#
#
# Indices 1 2 3 4 5 6 
#
# 1 0.040403 -0.008977 -0.005768 0.000000 0.000000 0.000000
# 2 -0.008977 0.011753 -0.004732 0.000000 0.000000 0.000000
# 3 -0.005768 -0.004732 0.009373 0.000000 0.000000 0.000000
# 4 0.000000 0.000000 0.000000 0.024100 0.000000 0.000000
# 5 0.000000 0.000000 0.000000 0.000000 0.016773 0.000000
# 6 0.000000 0.000000 0.000000 0.000000 0.000000 0.041210
#
#
# Mechanical properties :
#
#
# Convention : Reuss Voigt Hill
#
# Bulk Modulus (GPa) = 44.29742 102.21646 73.25694
# Shear Modulus (GPa) = 26.30317 37.74092 32.02204
#
# Velocity S-wave (km/s) = 3.73152 4.46980 4.11724
# Velocity P-wave (km/s) = 6.48194 8.98608 7.83471
#
# Compressibility (1/GPa) = 0.02257468
#
# Stress axis : x y z
#
# Youngs Moduli (GPa) = 24.75052 85.08301 106.69103
#
# Poissons Ratio (x) = 0.76380 0.61541
# Poissons Ratio (y) = 0.22219 0.50486
# Poissons Ratio (z) = 0.14276 0.40261
#
# Static dielectric constant tensor:
#      x y z
#    x 1.643210 0.000000 0.000000 
#    y 0.000000 1.626120 0.000000 
#    z 0.000000 0.000000 1.628850 
# 
# From -- ./inp_files/15630.got.cif
#   From: 2010.05.17/outbox.cif.g08.bks.cpg/sg35_8_cif.got.tgz:15630.got - 2010.06.03 17:29:28.
