data_PCOD9349869
_publ_section_title
;
Structure prediction by ZEFSAII (Michael W. Deem and Ramdas Pophale) SiO2 
 PCOD9349869
Probable space group: C M M 2
;
_chemical_formula_sum "Si O2"
_cell_formula_units_Z 56
_cell_length_a 22.789560
_cell_length_b 8.441962
_cell_length_c 15.206877
_cell_angle_alpha 90.000000
_cell_angle_beta 90.000000
_cell_angle_gamma 90.000000
_cell_volume 2925.629769
_symmetry_space_group_name_H-M "C M M 2"
_symmetry_group_IT_number 35
_symmetry_cell_setting 'orthorhombic'
loop_
_space_group_symop_operation_xyz
x,y,z
-x,-y,z
-x,y,z
x,-y,z
1/2+x,1/2+y,z
1/2-x,1/2-y,z
1/2-x,1/2+y,z
1/2+x,1/2-y,z
loop_
_atom_site_type_symbol
_atom_site_label
_atom_site_fract_x
_atom_site_fract_y
_atom_site_fract_z
Si Si1 0.000000 0.816762 0.951990
Si Si2 0.814839 0.189319 0.903257
Si Si3 0.184015 0.689779 0.557044
Si Si4 0.818187 0.808668 0.363236
Si Si5 0.000000 0.322620 0.769201
Si Si6 0.391410 0.185660 0.054024
Si Si7 0.569179 0.310522 0.242968
Si Si8 0.883667 0.811616 0.725169
O O1 0.000000 0.803139 0.847952
O O2 0.944107 0.727298 0.988512
O O3 0.000000 0.000000 0.979966
O O4 0.750000 0.250000 0.885286
O O5 0.854139 0.235732 0.818556
O O6 0.816767 0.000000 0.908005
O O7 0.836257 0.255053 0.997285
O O8 0.180124 0.500000 0.562252
O O9 0.250000 0.750000 0.562202
O O10 0.164941 0.748215 0.460563
O O11 0.153655 0.769937 0.640140
O O12 0.750000 0.750000 0.343219
O O13 0.874254 0.758105 0.302441
O O14 0.814977 0.000000 0.361602
O O15 0.942427 0.288166 0.715157
O O16 0.000000 0.500000 0.805590
O O17 0.409626 0.269361 0.144420
O O18 0.386336 0.000000 0.070543
O O19 0.500000 0.253403 0.256125
O O20 0.566016 0.500000 0.253124
O O21 0.894343 0.000000 0.728808
#
# Coordination Sequence:
#
# PCOD9349869 Si02
#       8
#     4   8   8   8   4   8   8   8
#     4  12  22  38  60  83 116 159 204 246 292 350
#     4  11  24  40  60  86 122 162 205 254 304 357
#     4  11  22  39  64  91 122 159 203 254 305 366
#     4  10  21  40  66  93 122 160 206 255 316 380
#     4  12  24  38  60  89 122 159 206 254 302 356
#     4  12  24  38  61  90 120 158 204 250 301 362
#     4  10  22  41  65  91 123 163 207 257 316 380
#     4  11  23  40  62  88 122 164 205 248 304 364
#
# _framework density 19.141178
#
# number of rings (size 3 to 8) (size 9 to 14) (size 15 to 20)
#    0.000    1.000    2.143    6.429    0.000    4.571 
#    1.286    1.429    0.000    0.000    0.000    0.000 
#    0.000    0.000    0.000    0.000    0.000    0.000 
#
# Total GULP energy -156171.061909 kJ/mol
# GULP energy per Si atom -5577.537925 kJ/mol
# Density = 1.909761 g / cm^3
# Si number density = 19.141178 Si / 1000 Ang^3
#
#
#
# Elastic Constant Matrix: (Units=GPa)
#
#
# Indices 1 2 3 4 5 6 
#
# 1 88.5241 19.7979 50.2199 0.0000 0.0000 0.0000
# 2 19.7979 52.4285 6.0036 0.0000 0.0000 0.0000
# 3 50.2199 6.0036 100.9251 0.0000 0.0000 0.0000
# 4 0.0000 0.0000 0.0000 26.8754 0.0000 0.0000
# 5 0.0000 0.0000 0.0000 0.0000 14.2918 0.0000
# 6 0.0000 0.0000 0.0000 0.0000 0.0000 27.1135
#
#
#
# Elastic Compliance Matrix: (Units=1/GPa)
#
#
# Indices 1 2 3 4 5 6 
#
# 1 0.017209 -0.005556 -0.008233 0.000000 0.000000 0.000000
# 2 -0.005556 0.020998 0.001515 0.000000 0.000000 0.000000
# 3 -0.008233 0.001515 0.013915 0.000000 0.000000 0.000000
# 4 0.000000 0.000000 0.000000 0.037209 0.000000 0.000000
# 5 0.000000 0.000000 0.000000 0.000000 0.069970 0.000000
# 6 0.000000 0.000000 0.000000 0.000000 0.000000 0.036882
#
#
# Mechanical properties :
#
#
# Convention : Reuss Voigt Hill
#
# Bulk Modulus (GPa) = 36.26358 43.76894 40.01626
# Shear Modulus (GPa) = 21.74656 24.71323 23.22989
#
# Velocity S-wave (km/s) = 3.37429 3.59709 3.48747
# Velocity P-wave (km/s) = 5.84530 6.33783 6.09654
#
# Compressibility (1/GPa) = 0.02757588
#
# Stress axis : x y z
#
# Youngs Moduli (GPa) = 58.10783 47.62352 71.86586
#
# Poissons Ratio (x) = 0.26459 0.59166
# Poissons Ratio (y) = 0.32284 -0.10891
# Poissons Ratio (z) = 0.47839 -0.07217
#
# Static dielectric constant tensor:
#      x y z
#    x 1.707360 0.000000 0.000000 
#    y 0.000000 1.649620 0.000000 
#    z 0.000000 0.000000 1.655600 
# 
# From -- ./inp_files/17456.got.cif
#   From: 2010.05.17/outbox.cif.g08.bks.cpg/sg35_9_cif.got.tgz:17456.got - 2010.06.03 17:29:28.
