data_PCOD9349470
_publ_section_title
;
Structure prediction by ZEFSAII (Michael W. Deem and Ramdas Pophale) SiO2 
 PCOD9349470
Probable space group: C M M 2
;
_chemical_formula_sum "Si O2"
_cell_formula_units_Z 48
_cell_length_a 7.980623
_cell_length_b 18.141261
_cell_length_c 17.305275
_cell_angle_alpha 90.000000
_cell_angle_beta 90.000000
_cell_angle_gamma 90.000000
_cell_volume 2505.432878
_symmetry_space_group_name_H-M "C M M 2"
_symmetry_group_IT_number 35
_symmetry_cell_setting 'orthorhombic'
loop_
_space_group_symop_operation_xyz
x,y,z
-x,-y,z
-x,y,z
x,-y,z
1/2+x,1/2+y,z
1/2-x,1/2-y,z
1/2-x,1/2+y,z
1/2+x,1/2-y,z
loop_
_atom_site_type_symbol
_atom_site_label
_atom_site_fract_x
_atom_site_fract_y
_atom_site_fract_z
Si Si1 0.814952 0.588736 0.683570
Si Si2 0.193393 0.334939 0.052750
Si Si3 0.303492 0.334663 0.531007
Si Si4 0.000000 0.088635 0.964503
Si Si5 0.801285 0.086502 0.203679
Si Si6 0.000000 0.089695 0.785034
Si Si7 0.798949 0.414620 0.375425
O O1 0.805258 0.500000 0.678406
O O2 0.790480 0.621274 0.598361
O O3 0.665585 0.614429 0.739207
O O4 0.000000 0.608539 0.712928
O O5 0.250000 0.250000 0.050925
O O6 0.207703 0.365755 0.139981
O O7 0.000000 0.342403 0.026483
O O8 0.331898 0.380204 0.004363
O O9 0.500000 0.341388 0.546702
O O10 0.250000 0.250000 0.533178
O O11 0.265376 0.367771 0.447032
O O12 0.000000 0.110801 0.874456
O O13 0.000000 0.000000 0.971124
O O14 0.765273 0.110031 0.291529
O O15 0.000000 0.091502 0.188794
O O16 0.752147 0.000000 0.197323
O O17 0.000000 0.000000 0.783586
O O18 0.745607 0.500000 0.385627
O O19 0.000000 0.412290 0.374720
#
# Coordination Sequence:
#
# PCOD9349470 Si02
#       7
#     8   8   8   4   8   4   8
#     4  10  20  38  65  93 122 157 202 252 307 369
#     4  12  24  42  67  94 133 176 216 264 325 391
#     4  12  24  38  57  82 120 161 207 256 308 370
#     4  11  24  44  70 101 134 166 213 271 324 388
#     4  10  20  37  61  91 125 162 211 264 314 373
#     4   9  20  40  66  95 125 158 201 255 309 368
#     4  10  21  37  57  86 121 160 209 258 307 365
#
# _framework density 19.158366999999998
#
# number of rings (size 3 to 8) (size 9 to 14) (size 15 to 20)
#    0.000    1.333    2.500    3.500    0.000    6.333 
#    0.000    5.833    0.000    0.000    0.000    0.000 
#    0.000    0.000    0.000    0.000    0.000    0.000 
#
# Total GULP energy -134133.007212 kJ/mol
# GULP energy per Si atom -5588.875301 kJ/mol
# Density = 1.911476 g / cm^3
# Si number density = 19.158367 Si / 1000 Ang^3
#
#
#
# Elastic Constant Matrix: (Units=GPa)
#
#
# Indices 1 2 3 4 5 6 
#
# 1 151.3651 43.9507 61.6698 0.0000 0.0000 0.0000
# 2 43.9507 56.2988 41.3874 0.0000 0.0000 0.0000
# 3 61.6698 41.3874 124.7264 0.0000 0.0000 0.0000
# 4 0.0000 0.0000 0.0000 -24.6415 0.0000 0.0000
# 5 0.0000 0.0000 0.0000 0.0000 14.1424 0.0000
# 6 0.0000 0.0000 0.0000 0.0000 0.0000 19.0301
#
#
#
# Elastic Compliance Matrix: (Units=1/GPa)
#
#
# Indices 1 2 3 4 5 6 
#
# 1 0.009267 -0.005113 -0.002885 0.000000 0.000000 0.000000
# 2 -0.005113 0.026315 -0.006204 0.000000 0.000000 0.000000
# 3 -0.002885 -0.006204 0.011503 0.000000 0.000000 0.000000
# 4 0.000000 0.000000 0.000000 -0.040582 0.000000 0.000000
# 5 0.000000 0.000000 0.000000 0.000000 0.070710 0.000000
# 6 0.000000 0.000000 0.000000 0.000000 0.000000 0.052548
#
#
# Mechanical properties :
#
#
# Convention : Reuss Voigt Hill
#
# Bulk Modulus (GPa) = 53.53355 69.60069 61.56712
# Shear Modulus (GPa) = 30.41533 14.06502 22.24017
#
# Velocity S-wave (km/s) = 3.98876 2.71245 3.41084
# Velocity P-wave (km/s) = 7.01548 6.79837 6.90778
#
# Compressibility (1/GPa) = 0.01867987
#
# Stress axis : x y z
#
# Youngs Moduli (GPa) = 107.91309 38.00156 86.93678
#
# Poissons Ratio (x) = 0.19431 0.25082
# Poissons Ratio (y) = 0.55179 0.53933
# Poissons Ratio (z) = 0.31134 0.23575
#
# Static dielectric constant tensor:
#      x y z
#    x 1.676280 0.000000 0.000000 
#    y 0.000000 1.637300 0.000000 
#    z 0.000000 0.000000 1.640590 
# 
# From -- ./inp_files/15280.got.cif
#   From: 2010.05.17/outbox.cif.g08.bks.cpg/sg35_8_cif.got.tgz:15280.got - 2010.06.03 17:29:28.
