data_PCOD9349083
_publ_section_title
;
Structure prediction by ZEFSAII (Michael W. Deem and Ramdas Pophale) SiO2 
 PCOD9349083
Probable space group: C M M 2
;
_chemical_formula_sum "Si O2"
_cell_formula_units_Z 64
_cell_length_a 30.039556
_cell_length_b 8.689287
_cell_length_c 12.623789
_cell_angle_alpha 90.000000
_cell_angle_beta 90.000000
_cell_angle_gamma 90.000000
_cell_volume 3295.090735
_symmetry_space_group_name_H-M "C M M 2"
_symmetry_group_IT_number 35
_symmetry_cell_setting 'orthorhombic'
loop_
_space_group_symop_operation_xyz
x,y,z
-x,-y,z
-x,y,z
x,-y,z
1/2+x,1/2+y,z
1/2-x,1/2-y,z
1/2-x,1/2+y,z
1/2+x,1/2-y,z
loop_
_atom_site_type_symbol
_atom_site_label
_atom_site_fract_x
_atom_site_fract_y
_atom_site_fract_z
Si Si1 0.895212 0.683705 0.875000
Si Si2 0.796433 0.317197 0.399297
Si Si3 0.951082 0.681001 0.325028
Si Si4 0.183142 0.819947 0.168186
Si Si5 0.908268 0.679872 0.113680
Si Si6 0.795898 0.315914 0.940152
Si Si7 0.114692 0.817877 0.485490
Si Si8 0.448548 0.685484 0.678047
O O1 0.895627 0.500000 0.856278
O O2 0.842942 0.731642 0.885858
O O3 0.923748 0.764365 0.784975
O O4 0.916508 0.712088 0.990983
O O5 0.794921 0.500000 0.394676
O O6 0.750000 0.250000 0.440302
O O7 0.802671 0.253610 0.279375
O O8 0.838098 0.263550 0.469790
O O9 0.943776 0.500000 0.350176
O O10 0.947257 0.693733 0.198285
O O11 0.913833 0.780230 0.381234
O O12 0.000000 0.726653 0.361986
O O13 0.130724 0.789369 0.154456
O O14 0.194129 0.000000 0.168526
O O15 0.201827 0.740975 0.062034
O O16 0.892350 0.500000 0.118620
O O17 0.794423 0.500000 0.938979
O O18 0.750000 0.250000 0.893201
O O19 0.083338 0.762364 0.581708
O O20 0.121977 0.000000 0.495776
O O21 0.500000 0.740897 0.671640
O O22 0.450134 0.500000 0.673065
#
# Coordination Sequence:
#
# PCOD9349083 Si02
#       8
#     8   8   8   8   8   8   8   8
#     4   9  20  37  59  87 118 153 198 247 294 349
#     4  12  24  39  59  86 120 157 198 243 293 353
#     4  10  20  34  56  86 119 157 196 238 297 361
#     4  11  20  32  53  83 119 161 202 240 286 345
#     4   9  18  34  54  81 121 160 194 242 297 348
#     4  10  20  35  55  84 121 159 200 244 291 345
#     4  11  23  41  62  86 117 154 198 249 303 354
#     4  10  23  43  65  88 116 152 196 249 302 353
#
# _framework density 19.422833000000001
#
# number of rings (size 3 to 8) (size 9 to 14) (size 15 to 20)
#    0.000    1.750    1.250    4.500    0.000    5.000 
#    0.000    1.875    0.000    1.500    0.000    0.000 
#    0.000    0.000    0.000    0.000    0.000    0.000 
#
# Total GULP energy -178613.954727 kJ/mol
# GULP energy per Si atom -5581.686085 kJ/mol
# Density = 1.937863 g / cm^3
# Si number density = 19.422833 Si / 1000 Ang^3
#
#
#
# Elastic Constant Matrix: (Units=GPa)
#
#
# Indices 1 2 3 4 5 6 
#
# 1 135.8751 41.0811 58.3881 0.0000 0.0000 0.0000
# 2 41.0811 63.4937 22.4034 0.0000 0.0000 0.0000
# 3 58.3881 22.4034 94.0669 0.0000 0.0000 0.0000
# 4 0.0000 0.0000 0.0000 25.5979 0.0000 0.0000
# 5 0.0000 0.0000 0.0000 0.0000 9.1390 0.0000
# 6 0.0000 0.0000 0.0000 0.0000 0.0000 27.4105
#
#
#
# Elastic Compliance Matrix: (Units=1/GPa)
#
#
# Indices 1 2 3 4 5 6 
#
# 1 0.011503 -0.005375 -0.005860 0.000000 0.000000 0.000000
# 2 -0.005375 0.019706 -0.001357 0.000000 0.000000 0.000000
# 3 -0.005860 -0.001357 0.014591 0.000000 0.000000 0.000000
# 4 0.000000 0.000000 0.000000 0.039066 0.000000 0.000000
# 5 0.000000 0.000000 0.000000 0.000000 0.109421 0.000000
# 6 0.000000 0.000000 0.000000 0.000000 0.000000 0.036482
#
#
# Mechanical properties :
#
#
# Convention : Reuss Voigt Hill
#
# Bulk Modulus (GPa) = 48.50465 59.68675 54.09570
# Shear Modulus (GPa) = 19.02410 23.86703 21.44556
#
# Velocity S-wave (km/s) = 3.13305 3.50925 3.32647
# Velocity P-wave (km/s) = 6.17375 6.87144 6.53192
#
# Compressibility (1/GPa) = 0.02061658
#
# Stress axis : x y z
#
# Youngs Moduli (GPa) = 86.93528 50.74597 68.53470
#
# Poissons Ratio (x) = 0.27275 0.40160
# Poissons Ratio (y) = 0.46726 0.09301
# Poissons Ratio (z) = 0.50942 0.06887
#
# Static dielectric constant tensor:
#      x y z
#    x 1.715350 0.000000 0.000000 
#    y 0.000000 1.682770 0.000000 
#    z 0.000000 0.000000 1.674600 
# 
# From -- ./inp_files/11898.got.cif
#   From: 2010.05.17/outbox.cif.g08.bks.cpg/sg35_6_cif.got.tgz:11898.got - 2010.06.03 17:29:28.
