data_PCOD9349797
_publ_section_title
;
Structure prediction by ZEFSAII (Michael W. Deem and Ramdas Pophale) SiO2 
 PCOD9349797
Probable space group: C M M 2
;
_chemical_formula_sum "Si O2"
_cell_formula_units_Z 56
_cell_length_a 20.248014
_cell_length_b 14.049918
_cell_length_c 9.455774
_cell_angle_alpha 90.000000
_cell_angle_beta 90.000000
_cell_angle_gamma 90.000000
_cell_volume 2690.006353
_symmetry_space_group_name_H-M "C M M 2"
_symmetry_group_IT_number 35
_symmetry_cell_setting 'orthorhombic'
loop_
_space_group_symop_operation_xyz
x,y,z
-x,-y,z
-x,y,z
x,-y,z
1/2+x,1/2+y,z
1/2-x,1/2-y,z
1/2-x,1/2+y,z
1/2+x,1/2-y,z
loop_
_atom_site_type_symbol
_atom_site_label
_atom_site_fract_x
_atom_site_fract_y
_atom_site_fract_z
Si Si1 0.923525 0.112559 0.469300
Si Si2 0.780689 0.613673 0.157669
Si Si3 0.621795 0.222738 0.948023
Si Si4 0.140423 0.613052 0.426919
Si Si5 0.877158 0.889352 0.146701
Si Si6 0.000000 0.615636 0.475422
Si Si7 0.172610 0.247833 0.646427
Si Si8 0.500000 0.114292 0.808454
O O1 0.905586 0.122380 0.304014
O O2 0.870575 0.172133 0.558804
O O3 0.000000 0.141423 0.494635
O O4 0.917940 0.000000 0.503150
O O5 0.791844 0.500000 0.148155
O O6 0.808264 0.647826 0.310046
O O7 0.702309 0.627744 0.147825
O O8 0.824870 0.664397 0.039785
O O9 0.657940 0.264098 0.810214
O O10 0.563639 0.156610 0.888063
O O11 0.595075 0.310200 0.041404
O O12 0.143493 0.500000 0.426533
O O13 0.151455 0.650220 0.584120
O O14 0.065926 0.645680 0.394576
O O15 0.888413 0.000000 0.104828
O O16 0.000000 0.643741 0.641409
O O17 0.000000 0.500000 0.476798
O O18 0.250000 0.250000 0.619120
O O19 0.500000 0.000000 0.813300
#
# Coordination Sequence:
#
# PCOD9349797 Si02
#       8
#     8   8   8   8   8   4   8   4
#     4  10  24  46  71  95 129 174 224 277 328 387
#     4  10  21  39  64  95 131 169 214 268 322 385
#     4  12  25  41  64  93 133 175 214 265 326 391
#     4  10  21  38  64  93 126 168 210 261 320 379
#     4  10  22  43  68  94 127 168 217 270 326 383
#     4   9  18  37  61  90 125 163 206 254 309 374
#     4  12  25  39  65  98 131 171 219 270 327 392
#     4  11  24  43  64  94 131 173 211 256 322 392
#
# _framework density 20.817795
#
# number of rings (size 3 to 8) (size 9 to 14) (size 15 to 20)
#    0.000    1.429    1.429    3.429    3.000    3.429 
#    0.000    1.429    0.000    0.000    0.000    0.000 
#    0.000    0.000    0.000    0.000    0.000    0.000 
#
# Total GULP energy -156479.896212 kJ/mol
# GULP energy per Si atom -5588.567722 kJ/mol
# Density = 2.077041 g / cm^3
# Si number density = 20.817795 Si / 1000 Ang^3
#
#
#
# Elastic Constant Matrix: (Units=GPa)
#
#
# Indices 1 2 3 4 5 6 
#
# 1 102.2472 44.6293 20.3043 0.0000 0.0000 0.0000
# 2 44.6293 98.9800 44.2881 0.0000 0.0000 0.0000
# 3 20.3043 44.2881 87.9271 0.0000 0.0000 0.0000
# 4 0.0000 0.0000 0.0000 24.3630 0.0000 0.0000
# 5 0.0000 0.0000 0.0000 0.0000 34.0609 0.0000
# 6 0.0000 0.0000 0.0000 0.0000 0.0000 29.4344
#
#
#
# Elastic Compliance Matrix: (Units=1/GPa)
#
#
# Indices 1 2 3 4 5 6 
#
# 1 0.012177 -0.005464 -0.000060 0.000000 0.000000 0.000000
# 2 -0.005464 0.015494 -0.006543 0.000000 0.000000 0.000000
# 3 -0.000060 -0.006543 0.014682 0.000000 0.000000 0.000000
# 4 0.000000 0.000000 0.000000 0.041046 0.000000 0.000000
# 5 0.000000 0.000000 0.000000 0.000000 0.029359 0.000000
# 6 0.000000 0.000000 0.000000 0.000000 0.000000 0.033974
#
#
# Mechanical properties :
#
#
# Convention : Reuss Voigt Hill
#
# Bulk Modulus (GPa) = 54.88166 56.39976 55.64071
# Shear Modulus (GPa) = 28.25849 29.56716 28.91282
#
# Velocity S-wave (km/s) = 3.68831 3.77275 3.73077
# Velocity P-wave (km/s) = 6.67520 6.79184 6.73377
#
# Compressibility (1/GPa) = 0.01822102
#
# Stress axis : x y z
#
# Youngs Moduli (GPa) = 82.12258 64.54114 68.10924
#
# Poissons Ratio (x) = 0.35263 0.00408
# Poissons Ratio (y) = 0.44869 0.44561
# Poissons Ratio (z) = 0.00492 0.42226
#
# Static dielectric constant tensor:
#      x y z
#    x 1.742200 0.000000 0.000000 
#    y 0.000000 1.760000 0.000000 
#    z 0.000000 0.000000 1.697790 
# 
# From -- ./inp_files/9313.got.cif
#   From: 2010.05.17/outbox.cif.g08.bks.cpg/sg35_5_cif.got.tgz:9313.got - 2010.06.03 17:29:28.
