data_PCOD9349013
_publ_section_title
;
Structure prediction by ZEFSAII (Michael W. Deem and Ramdas Pophale) SiO2 
 PCOD9349013
Probable space group: C M M 2
;
_chemical_formula_sum "Si O2"
_cell_formula_units_Z 56
_cell_length_a 8.013933
_cell_length_b 18.752556
_cell_length_c 18.567377
_cell_angle_alpha 90.000000
_cell_angle_beta 90.000000
_cell_angle_gamma 90.000000
_cell_volume 2790.337488
_symmetry_space_group_name_H-M "C M M 2"
_symmetry_group_IT_number 35
_symmetry_cell_setting 'orthorhombic'
loop_
_space_group_symop_operation_xyz
x,y,z
-x,-y,z
-x,y,z
x,-y,z
1/2+x,1/2+y,z
1/2-x,1/2-y,z
1/2-x,1/2+y,z
1/2+x,1/2-y,z
loop_
_atom_site_type_symbol
_atom_site_label
_atom_site_fract_x
_atom_site_fract_y
_atom_site_fract_z
Si Si1 0.799229 0.581401 0.757990
Si Si2 0.701703 0.167549 0.617850
Si Si3 0.699271 0.667594 0.899818
Si Si4 0.798691 0.831622 0.178911
Si Si5 0.700197 0.919230 0.479126
Si Si6 0.199491 0.168377 0.340784
Si Si7 0.295639 0.582010 0.040308
O O1 0.736082 0.500000 0.760520
O O2 0.737954 0.624176 0.687829
O O3 0.757759 0.624492 0.829961
O O4 0.000000 0.577962 0.752391
O O5 0.500000 0.164473 0.617826
O O6 0.750000 0.250000 0.620908
O O7 0.763040 0.129580 0.544844
O O8 0.500000 0.664601 0.901081
O O9 0.750000 0.750000 0.896851
O O10 0.761267 0.629098 0.972562
O O11 0.750000 0.750000 0.163311
O O12 0.738456 0.849037 0.259840
O O13 0.739487 0.882945 0.115344
O O14 0.000000 0.835361 0.180155
O O15 0.500000 0.922590 0.486620
O O16 0.737557 0.883210 0.402875
O O17 0.765271 0.000000 0.483295
O O18 0.250000 0.250000 0.356384
O O19 0.000000 0.164774 0.340035
O O20 0.500000 0.582776 0.040443
O O21 0.243462 0.500000 0.033292
#
# Coordination Sequence:
#
# PCOD9349013 Si02
#       7
#     8   8   8   8   8   8   8
#     4  10  21  38  59  82 110 142 176 217 265 316
#     4  10  21  37  57  80 106 140 180 218 260 313
#     4  11  22  36  56  81 109 142 181 222 264 314
#     4   9  18  33  54  77 103 137 175 216 261 312
#     4  10  21  37  56  78 107 142 178 219 268 318
#     4  10  20  34  54  80 108 140 179 221 265 316
#     4   9  18  33  53  77 105 138 176 218 265 315
#
# _framework density 20.069255999999999
#
# number of rings (size 3 to 8) (size 9 to 14) (size 15 to 20)
#    0.000    2.143    0.000    3.000    0.000    7.429 
#    0.000    2.143    0.000    4.714    0.000    0.000 
#    0.000    0.000    0.000    0.000    0.000    0.000 
#
# Total GULP energy -156405.738072 kJ/mol
# GULP energy per Si atom -5585.919217 kJ/mol
# Density = 2.002358 g / cm^3
# Si number density = 20.069256 Si / 1000 Ang^3
#
#
#
# Elastic Constant Matrix: (Units=GPa)
#
#
# Indices 1 2 3 4 5 6 
#
# 1 15.6688 8.4659 9.5656 0.0000 0.0000 0.0000
# 2 8.4659 207.6977 137.1932 0.0000 0.0000 0.0000
# 3 9.5656 137.1932 179.2086 0.0000 0.0000 0.0000
# 4 0.0000 0.0000 0.0000 26.8229 0.0000 0.0000
# 5 0.0000 0.0000 0.0000 0.0000 13.2536 0.0000
# 6 0.0000 0.0000 0.0000 0.0000 0.0000 20.7029
#
#
#
# Elastic Compliance Matrix: (Units=1/GPa)
#
#
# Indices 1 2 3 4 5 6 
#
# 1 0.066026 -0.000735 -0.002962 0.000000 0.000000 0.000000
# 2 -0.000735 0.009748 -0.007423 0.000000 0.000000 0.000000
# 3 -0.002962 -0.007423 0.011421 0.000000 0.000000 0.000000
# 4 0.000000 0.000000 0.000000 0.037282 0.000000 0.000000
# 5 0.000000 0.000000 0.000000 0.000000 0.075451 0.000000
# 6 0.000000 0.000000 0.000000 0.000000 0.000000 0.048302
#
#
# Mechanical properties :
#
#
# Convention : Reuss Voigt Hill
#
# Bulk Modulus (GPa) = 15.39520 79.22496 47.31008
# Shear Modulus (GPa) = 17.11610 28.64591 22.88100
#
# Velocity S-wave (km/s) = 2.92353 3.78213 3.38020
# Velocity P-wave (km/s) = 4.36849 7.65730 6.23369
#
# Compressibility (1/GPa) = 0.06495529
#
# Stress axis : x y z
#
# Youngs Moduli (GPa) = 15.14553 102.58319 87.55621
#
# Poissons Ratio (x) = 0.07540 0.25931
# Poissons Ratio (y) = 0.01113 0.64997
# Poissons Ratio (z) = 0.04486 0.76153
#
# Static dielectric constant tensor:
#      x y z
#    x 1.726210 0.000000 0.000000 
#    y 0.000000 1.659990 0.000000 
#    z 0.000000 0.000000 1.701620 
# 
# From -- ./inp_files/15647.got.cif
#   From: 2010.05.17/outbox.cif.g08.bks.cpg/sg35_8_cif.got.tgz:15647.got - 2010.06.03 17:29:28.
