data_PCOD9349107
_publ_section_title
;
Structure prediction by ZEFSAII (Michael W. Deem and Ramdas Pophale) SiO2 
 PCOD9349107
Probable space group: C M M 2
;
_chemical_formula_sum "Si O2"
_cell_formula_units_Z 58
_cell_length_a 7.672690
_cell_length_b 26.609123
_cell_length_c 13.399335
_cell_angle_alpha 90.000000
_cell_angle_beta 90.000000
_cell_angle_gamma 90.000000
_cell_volume 2735.655827
_symmetry_space_group_name_H-M "C M M 2"
_symmetry_group_IT_number 35
_symmetry_cell_setting 'orthorhombic'
loop_
_space_group_symop_operation_xyz
x,y,z
-x,-y,z
-x,y,z
x,-y,z
1/2+x,1/2+y,z
1/2-x,1/2-y,z
1/2-x,1/2+y,z
1/2+x,1/2-y,z
loop_
_atom_site_type_symbol
_atom_site_label
_atom_site_fract_x
_atom_site_fract_y
_atom_site_fract_z
Si Si1 0.500000 0.000000 0.496670
Si Si2 0.798394 0.055071 0.191926
Si Si3 0.202850 0.666210 0.249035
Si Si4 0.716084 0.412131 0.542716
Si Si5 0.707962 0.444547 0.757794
Si Si6 0.693389 0.693693 0.463228
Si Si7 0.708171 0.804286 0.032215
Si Si8 0.704160 0.088499 0.977291
O O1 0.342380 0.955684 0.500427
O O2 0.715789 0.105609 0.236708
O O3 0.000000 0.055863 0.222719
O O4 0.723780 0.000000 0.218681
O O5 0.790881 0.060897 0.071167
O O6 0.300447 0.687492 0.343861
O O7 0.273059 0.689298 0.145739
O O8 0.000000 0.679444 0.260506
O O9 0.500000 0.420497 0.526873
O O10 0.746405 0.410802 0.662505
O O11 0.776308 0.358191 0.500656
O O12 0.500000 0.445623 0.768186
O O13 0.771821 0.500000 0.728494
O O14 0.776700 0.432750 0.867241
O O15 0.500000 0.689807 0.503584
O O16 0.750000 0.750000 0.488488
O O17 0.500000 0.807438 0.037178
O O18 0.750000 0.750000 0.990113
O O19 0.769668 0.853931 0.975654
O O20 0.500000 0.087721 0.003634
#
# Coordination Sequence:
#
# PCOD9349107 Si02
#       8
#     2   8   8   8   8   8   8   8
#     4  12  22  40  76  94 128 166 214 254 336 390
#     4  10  20  35  52  77 115 157 194 237 300 361
#     4  10  21  37  58  84 113 146 199 248 298 363
#     4  10  24  43  64  98 132 162 210 270 319 379
#     4  10  20  37  58  83 117 152 190 242 299 358
#     4  11  24  43  66  91 126 163 207 262 314 376
#     4   9  19  34  51  76 107 142 182 238 286 338
#     4  10  21  33  51  80 113 145 193 240 285 353
#
# _framework density 21.201498999999998
#
# number of rings (size 3 to 8) (size 9 to 14) (size 15 to 20)
#    0.000    1.931    0.690    3.517    2.897    7.448 
#    1.241    0.690    0.000    3.310    0.000    0.000 
#    0.000    0.000    0.000    0.000    0.000    0.000 
#
# Total GULP energy -161461.936343 kJ/mol
# GULP energy per Si atom -5567.652977 kJ/mol
# Density = 2.115324 g / cm^3
# Si number density = 21.201499 Si / 1000 Ang^3
#
#
#
# Elastic Constant Matrix: (Units=GPa)
#
#
# Indices 1 2 3 4 5 6 
#
# 1 69.4022 22.3881 -1.1039 0.0000 0.0000 0.0000
# 2 22.3881 149.8629 12.5231 0.0000 0.0000 0.0000
# 3 -1.1039 12.5231 27.4869 0.0000 0.0000 0.0000
# 4 0.0000 0.0000 0.0000 14.7688 0.0000 0.0000
# 5 0.0000 0.0000 0.0000 0.0000 -9.5547 0.0000
# 6 0.0000 0.0000 0.0000 0.0000 0.0000 30.3891
#
#
#
# Elastic Compliance Matrix: (Units=1/GPa)
#
#
# Indices 1 2 3 4 5 6 
#
# 1 0.015215 -0.002416 0.001712 0.000000 0.000000 0.000000
# 2 -0.002416 0.007321 -0.003432 0.000000 0.000000 0.000000
# 3 0.001712 -0.003432 0.038013 0.000000 0.000000 0.000000
# 4 0.000000 0.000000 0.000000 0.067710 0.000000 0.000000
# 5 0.000000 0.000000 0.000000 0.000000 -0.104660 0.000000
# 6 0.000000 0.000000 0.000000 0.000000 0.000000 0.032906
#
#
# Mechanical properties :
#
#
# Convention : Reuss Voigt Hill
#
# Bulk Modulus (GPa) = 19.12914 34.92963 27.02938
# Shear Modulus (GPa) = 60.82366 21.31694 41.07030
#
# Velocity S-wave (km/s) = 5.36196 3.17431 4.40607
# Velocity P-wave (km/s) = 6.88305 5.47228 6.21781
#
# Compressibility (1/GPa) = 0.05227627
#
# Stress axis : x y z
#
# Youngs Moduli (GPa) = 65.72295 136.60228 26.30648
#
# Poissons Ratio (x) = 0.33004 -0.04503
# Poissons Ratio (y) = 0.15879 0.09029
# Poissons Ratio (z) = -0.11251 0.46886
#
# Static dielectric constant tensor:
#      x y z
#    x 1.824890 0.000000 0.000000 
#    y 0.000000 1.839700 0.000000 
#    z 0.000000 0.000000 1.743890 
# 
# From -- ./inp_files/11604.got.cif
#   From: 2010.05.17/outbox.cif.g08.bks.cpg/sg35_6_cif.got.tgz:11604.got - 2010.06.03 17:29:28.
