data_PCOD9349720
_publ_section_title
;
Structure prediction by ZEFSAII (Michael W. Deem and Ramdas Pophale) SiO2 
 PCOD9349720
Probable space group: C M M 2
;
_chemical_formula_sum "Si O2"
_cell_formula_units_Z 64
_cell_length_a 14.840925
_cell_length_b 18.627924
_cell_length_c 11.070437
_cell_angle_alpha 90.000000
_cell_angle_beta 90.000000
_cell_angle_gamma 90.000000
_cell_volume 3060.484558
_symmetry_space_group_name_H-M "C M M 2"
_symmetry_group_IT_number 35
_symmetry_cell_setting 'orthorhombic'
loop_
_space_group_symop_operation_xyz
x,y,z
-x,-y,z
-x,y,z
x,-y,z
1/2+x,1/2+y,z
1/2-x,1/2-y,z
1/2-x,1/2+y,z
1/2+x,1/2-y,z
loop_
_atom_site_type_symbol
_atom_site_label
_atom_site_fract_x
_atom_site_fract_y
_atom_site_fract_z
Si Si1 0.609281 0.077774 0.707980
Si Si2 0.208089 0.919654 0.121647
Si Si3 0.893305 0.365972 0.180585
Si Si4 0.349654 0.768402 0.812602
Si Si5 0.098724 0.215801 0.061570
Si Si6 0.108760 0.360990 0.457972
Si Si7 0.107972 0.081801 0.379451
Si Si8 0.891471 0.208876 0.553003
O O1 0.500000 0.078942 0.712181
O O2 0.640521 0.148622 0.776619
O O3 0.637526 0.088376 0.567740
O O4 0.639927 0.000000 0.752965
O O5 0.315968 0.910297 0.113949
O O6 0.164121 0.851749 0.056566
O O7 0.167004 0.911644 0.257848
O O8 0.182906 0.000000 0.080681
O O9 0.876666 0.281665 0.150597
O O10 0.874182 0.381728 0.321211
O O11 0.000000 0.379819 0.154932
O O12 0.250000 0.750000 0.851489
O O13 0.368478 0.720807 0.693250
O O14 0.406883 0.749986 0.929137
O O15 0.000000 0.189926 0.100406
O O16 0.142198 0.280796 0.486378
O O17 0.000000 0.357826 0.466606
O O18 0.138499 0.138829 0.480324
O O19 0.000000 0.092987 0.354352
O O20 0.117223 0.000000 0.423122
O O21 0.000000 0.208395 0.547343
#
# Coordination Sequence:
#
# PCOD9349720 Si02
#       8
#     8   8   8   8   8   8   8   8
#     4   9  18  35  60  86 113 148 188 229 273 327
#     4  11  23  38  59  87 118 152 193 243 299 358
#     4  10  21  37  59  87 119 156 193 233 288 353
#     4  11  22  37  57  84 116 150 191 238 290 350
#     4  11  23  42  65  83 107 149 202 254 295 339
#     4   8  15  29  52  82 112 145 185 225 272 333
#     4   9  18  33  54  82 116 154 199 251 302 348
#     4   9  17  32  53  78 111 150 192 238 287 341
#
# _framework density 20.911719999999999
#
# number of rings (size 3 to 8) (size 9 to 14) (size 15 to 20)
#    0.000    2.250    0.000    4.125    0.000    5.500 
#    0.000    6.250    0.000    2.250    0.000    0.000 
#    0.000    0.000    0.000    0.000    0.000    0.000 
#
# Total GULP energy -178539.526486 kJ/mol
# GULP energy per Si atom -5579.360203 kJ/mol
# Density = 2.086412 g / cm^3
# Si number density = 20.911720 Si / 1000 Ang^3
#
#
#
# Elastic Constant Matrix: (Units=GPa)
#
#
# Indices 1 2 3 4 5 6 
#
# 1 72.1667 37.7408 1.2348 0.0000 0.0000 0.0000
# 2 37.7408 130.8062 40.3608 0.0000 0.0000 0.0000
# 3 1.2348 40.3608 49.1308 0.0000 0.0000 0.0000
# 4 0.0000 0.0000 0.0000 17.5262 0.0000 0.0000
# 5 0.0000 0.0000 0.0000 0.0000 -2.4364 0.0000
# 6 0.0000 0.0000 0.0000 0.0000 0.0000 32.8031
#
#
#
# Elastic Compliance Matrix: (Units=1/GPa)
#
#
# Indices 1 2 3 4 5 6 
#
# 1 0.017146 -0.006449 0.004867 0.000000 0.000000 0.000000
# 2 -0.006449 0.012666 -0.010243 0.000000 0.000000 0.000000
# 3 0.004867 -0.010243 0.028646 0.000000 0.000000 0.000000
# 4 0.000000 0.000000 0.000000 0.057057 0.000000 0.000000
# 5 0.000000 0.000000 0.000000 0.000000 -0.410436 0.000000
# 6 0.000000 0.000000 0.000000 0.000000 0.000000 0.030485
#
#
# Mechanical properties :
#
#
# Convention : Reuss Voigt Hill
#
# Bulk Modulus (GPa) = 28.72905 45.64185 37.18545
# Shear Modulus (GPa) = -21.81662 21.09640 -0.36011
#
# Velocity S-wave (km/s) = -3.23348 3.17966 -0.41543
# Velocity P-wave (km/s) = 0.41523 5.94589 4.19412
#
# Compressibility (1/GPa) = 0.03480798
#
# Stress axis : x y z
#
# Youngs Moduli (GPa) = 58.32278 78.95148 34.90878
#
# Poissons Ratio (x) = 0.50913 -0.16989
# Poissons Ratio (y) = 0.37610 0.35757
# Poissons Ratio (z) = -0.28383 0.80870
#
# Static dielectric constant tensor:
#      x y z
#    x 1.820420 0.000000 0.000000 
#    y 0.000000 1.742740 0.000000 
#    z 0.000000 0.000000 1.769700 
# 
# From -- ./inp_files/13198.got.cif
#   From: 2010.05.17/outbox.cif.g08.bks.cpg/sg35_7_cif.got.tgz:13198.got - 2010.06.03 17:29:28.
