data_PCOD9349112
_publ_section_title
;
Structure prediction by ZEFSAII (Michael W. Deem and Ramdas Pophale) SiO2 
 PCOD9349112
Probable space group: C M M 2
;
_chemical_formula_sum "Si O2"
_cell_formula_units_Z 40
_cell_length_a 8.869036
_cell_length_b 19.006950
_cell_length_c 13.299163
_cell_angle_alpha 90.000000
_cell_angle_beta 90.000000
_cell_angle_gamma 90.000000
_cell_volume 2241.884111
_symmetry_space_group_name_H-M "C M M 2"
_symmetry_group_IT_number 35
_symmetry_cell_setting 'orthorhombic'
loop_
_space_group_symop_operation_xyz
x,y,z
-x,-y,z
-x,y,z
x,-y,z
1/2+x,1/2+y,z
1/2-x,1/2-y,z
1/2-x,1/2+y,z
1/2+x,1/2-y,z
loop_
_atom_site_type_symbol
_atom_site_label
_atom_site_fract_x
_atom_site_fract_y
_atom_site_fract_z
Si Si1 0.326440 0.585559 0.258130
Si Si2 0.180565 0.582345 0.049945
Si Si3 0.681495 0.172403 0.854155
Si Si4 0.179893 0.172241 0.644507
Si Si5 0.822919 0.415588 0.466895
O O1 0.500000 0.606951 0.268728
O O2 0.321170 0.500000 0.255921
O O3 0.258945 0.609084 0.151642
O O4 0.232452 0.606949 0.356085
O O5 0.219296 0.500000 0.036419
O O6 0.000000 0.586640 0.063747
O O7 0.220552 0.625236 0.950314
O O8 0.500000 0.176119 0.845224
O O9 0.750000 0.250000 0.868285
O O10 0.750940 0.144837 0.749723
O O11 0.250000 0.250000 0.629884
O O12 0.229637 0.123494 0.552616
O O13 0.000000 0.177268 0.651975
O O14 0.801817 0.500000 0.474493
O O15 0.000000 0.400527 0.478984
#
# Coordination Sequence:
#
# PCOD9349112 Si02
#       5
#     8   8   8   8   8
#     4   9  17  30  50  77 107 136 168 210 260 309
#     4   9  18  33  53  76 102 134 172 212 255 306
#     4  10  20  35  54  75 102 137 174 212 258 311
#     4  11  22  37  56  77 105 139 176 217 263 315
#     4  10  20  35  56  80 107 139 175 215 260 311
#
# _framework density 17.842137000000001
#
# number of rings (size 3 to 8) (size 9 to 14) (size 15 to 20)
#    0.000    2.200    0.000    4.800    0.000    6.000 
#    0.000    3.000    0.000    2.400    0.000    0.000 
#    0.000    0.000    0.000    0.000    0.000    0.000 
#
# Total GULP energy -111614.611214 kJ/mol
# GULP energy per Si atom -5580.730561 kJ/mol
# Density = 1.780153 g / cm^3
# Si number density = 17.842137 Si / 1000 Ang^3
#
#
#
# Elastic Constant Matrix: (Units=GPa)
#
#
# Indices 1 2 3 4 5 6 
#
# 1 104.5991 31.6961 74.3536 0.0000 0.0000 0.0000
# 2 31.6961 23.6767 45.3462 0.0000 0.0000 0.0000
# 3 74.3536 45.3462 163.3310 0.0000 0.0000 0.0000
# 4 0.0000 0.0000 0.0000-1150.9454 0.0000 0.0000
# 5 0.0000 0.0000 0.0000 0.0000 36.6437 0.0000
# 6 0.0000 0.0000 0.0000 0.0000 0.0000 22.7721
#
#
#
# Elastic Compliance Matrix: (Units=1/GPa)
#
#
# Indices 1 2 3 4 5 6 
#
# 1 0.016742 -0.016690 -0.002988 0.000000 0.000000 0.000000
# 2 -0.016690 0.106834 -0.022063 0.000000 0.000000 0.000000
# 3 -0.002988 -0.022063 0.013608 0.000000 0.000000 0.000000
# 4 0.000000 0.000000 0.000000 -0.000869 0.000000 0.000000
# 5 0.000000 0.000000 0.000000 0.000000 0.027290 0.000000
# 6 0.000000 0.000000 0.000000 0.000000 0.000000 0.043913
#
#
# Mechanical properties :
#
#
# Convention : Reuss Voigt Hill
#
# Bulk Modulus (GPa) = 18.62111 66.04431 42.33271
# Shear Modulus (GPa) = 16.18647 -208.95853 -96.38603
#
# Velocity S-wave (km/s) = 3.01525 -10.83372 -7.35791
# Velocity P-wave (km/s) = 4.75201 10.92686 6.95754
#
# Compressibility (1/GPa) = 0.05370250
#
# Stress axis : x y z
#
# Youngs Moduli (GPa) = 59.73175 9.36030 73.48638
#
# Poissons Ratio (x) = 0.15622 0.21954
# Poissons Ratio (y) = 0.99693 1.62132
# Poissons Ratio (z) = 0.17845 0.20652
#
# Static dielectric constant tensor:
#      x y z
#    x 1.597790 0.000000 0.000000 
#    y 0.000000 1.605240 0.000000 
#    z 0.000000 0.000000 1.601330 
# 
# From -- ./inp_files/9644.got.cif
#   From: 2010.05.17/outbox.cif.g08.bks.cpg/sg35_5_cif.got.tgz:9644.got - 2010.06.03 17:29:28.
