data_PCOD9349160
_publ_section_title
;
Structure prediction by ZEFSAII (Michael W. Deem and Ramdas Pophale) SiO2 
 PCOD9349160
Probable space group: C M M 2
;
_chemical_formula_sum "Si O2"
_cell_formula_units_Z 64
_cell_length_a 7.654633
_cell_length_b 28.732593
_cell_length_c 13.495794
_cell_angle_alpha 90.000000
_cell_angle_beta 90.000000
_cell_angle_gamma 90.000000
_cell_volume 2968.230580
_symmetry_space_group_name_H-M "C M M 2"
_symmetry_group_IT_number 35
_symmetry_cell_setting 'orthorhombic'
loop_
_space_group_symop_operation_xyz
x,y,z
-x,-y,z
-x,y,z
x,-y,z
1/2+x,1/2+y,z
1/2-x,1/2-y,z
1/2-x,1/2+y,z
1/2+x,1/2-y,z
loop_
_atom_site_type_symbol
_atom_site_label
_atom_site_fract_x
_atom_site_fract_y
_atom_site_fract_z
Si Si1 0.795633 0.889687 0.470100
Si Si2 0.709126 0.694923 0.146598
Si Si3 0.703717 0.898202 0.853150
Si Si4 0.289339 0.944905 0.272805
Si Si5 0.706002 0.447925 0.651920
Si Si6 0.791697 0.804311 0.930441
Si Si7 0.710730 0.695784 0.361271
Si Si8 0.712456 0.945190 0.053940
O O1 0.783769 0.918646 0.367968
O O2 0.717014 0.917954 0.561524
O O3 0.720675 0.838972 0.444491
O O4 0.000000 0.882413 0.493385
O O5 0.500000 0.688256 0.145233
O O6 0.750000 0.750000 0.148361
O O7 0.777491 0.678685 0.252986
O O8 0.779696 0.680345 0.039485
O O9 0.500000 0.909818 0.852752
O O10 0.779377 0.922045 0.756258
O O11 0.725281 0.842572 0.854237
O O12 0.777947 0.918375 0.956881
O O13 0.500000 0.940810 0.275943
O O14 0.228256 0.928422 0.163169
O O15 0.247630 0.000000 0.279148
O O16 0.500000 0.452694 0.630757
O O17 0.780537 0.500000 0.657339
O O18 0.750000 0.750000 0.913214
O O19 0.000000 0.807618 0.932934
O O20 0.500000 0.692087 0.357613
O O21 0.750000 0.750000 0.375338
O O22 0.500000 0.942204 0.055698
O O23 0.755924 0.000000 0.045202
#
# Coordination Sequence:
#
# PCOD9349160 Si02
#       8
#     8   8   8   8   8   8   8   8
#     4  10  21  36  57  82 111 146 187 232 284 338
#     4   8  15  28  47  72 105 144 181 219 263 315
#     4  11  22  36  58  85 111 146 192 237 287 341
#     4   9  18  33  53  79 111 144 178 221 277 342
#     4  10  22  41  61  81 109 147 190 237 289 342
#     4  10  20  35  55  81 116 153 190 234 281 333
#     4   9  18  33  52  78 111 147 185 226 270 324
#     4   8  16  32  52  77 111 145 177 221 280 342
#
# _framework density 21.561668999999998
#
# number of rings (size 3 to 8) (size 9 to 14) (size 15 to 20)
#    0.000    2.625    0.000    2.250    1.750    3.000 
#    0.000    1.250    0.000    3.000    0.000    0.000 
#    0.000    0.000    0.000    0.000    0.000    0.000 
#
# Total GULP energy -178556.289358 kJ/mol
# GULP energy per Si atom -5579.884042 kJ/mol
# Density = 2.151259 g / cm^3
# Si number density = 21.561669 Si / 1000 Ang^3
#
#
#
# Elastic Constant Matrix: (Units=GPa)
#
#
# Indices 1 2 3 4 5 6 
#
# 1 42.1530 -8.3985 -9.0873 0.0000 0.0000 0.0000
# 2 -8.3985 120.8733 79.7592 0.0000 0.0000 0.0000
# 3 -9.0873 79.7592 122.2567 0.0000 0.0000 0.0000
# 4 0.0000 0.0000 0.0000 33.5450 0.0000 0.0000
# 5 0.0000 0.0000 0.0000 0.0000 25.3453 0.0000
# 6 0.0000 0.0000 0.0000 0.0000 0.0000 13.1740
#
#
#
# Elastic Compliance Matrix: (Units=1/GPa)
#
#
# Indices 1 2 3 4 5 6 
#
# 1 0.024161 0.000867 0.001230 0.000000 0.000000 0.000000
# 2 0.000867 0.014558 -0.009433 0.000000 0.000000 0.000000
# 3 0.001230 -0.009433 0.014425 0.000000 0.000000 0.000000
# 4 0.000000 0.000000 0.000000 0.029811 0.000000 0.000000
# 5 0.000000 0.000000 0.000000 0.000000 0.039455 0.000000
# 6 0.000000 0.000000 0.000000 0.000000 0.000000 0.075907
#
#
# Mechanical properties :
#
#
# Convention : Reuss Voigt Hill
#
# Bulk Modulus (GPa) = 25.99269 45.53666 35.76468
# Shear Modulus (GPa) = 22.14234 29.28018 25.71126
#
# Velocity S-wave (km/s) = 3.20805 3.68907 3.45694
# Velocity P-wave (km/s) = 5.07970 6.26983 5.70588
#
# Compressibility (1/GPa) = 0.03847235
#
# Stress axis : x y z
#
# Youngs Moduli (GPa) = 41.38890 68.69194 69.32453
#
# Poissons Ratio (x) = -0.05955 -0.08529
# Poissons Ratio (y) = -0.03588 0.65393
# Poissons Ratio (z) = -0.05092 0.64797
#
# Static dielectric constant tensor:
#      x y z
#    x 1.767050 0.000000 0.000000 
#    y 0.000000 1.795710 0.000000 
#    z 0.000000 0.000000 1.794070 
# 
# From -- ./inp_files/11867.got.cif
#   From: 2010.05.17/outbox.cif.g08.bks.cpg/sg35_6_cif.got.tgz:11867.got - 2010.06.03 17:29:28.
