data_PCOD9349139
_publ_section_title
;
Structure prediction by ZEFSAII (Michael W. Deem and Ramdas Pophale) SiO2 
 PCOD9349139
Probable space group: C M M 2
;
_chemical_formula_sum "Si O2"
_cell_formula_units_Z 48
_cell_length_a 8.223046
_cell_length_b 19.213276
_cell_length_c 15.981151
_cell_angle_alpha 90.000000
_cell_angle_beta 90.000000
_cell_angle_gamma 90.000000
_cell_volume 2524.888453
_symmetry_space_group_name_H-M "C M M 2"
_symmetry_group_IT_number 35
_symmetry_cell_setting 'orthorhombic'
loop_
_space_group_symop_operation_xyz
x,y,z
-x,-y,z
-x,y,z
x,-y,z
1/2+x,1/2+y,z
1/2-x,1/2-y,z
1/2-x,1/2+y,z
1/2+x,1/2-y,z
loop_
_atom_site_type_symbol
_atom_site_label
_atom_site_fract_x
_atom_site_fract_y
_atom_site_fract_z
Si Si1 0.305996 0.829527 0.527710
Si Si2 0.805864 0.920427 0.685179
Si Si3 0.803534 0.670983 0.028705
Si Si4 0.804958 0.670388 0.840622
Si Si5 0.301471 0.080826 0.371019
Si Si6 0.801804 0.580520 0.184063
O O1 0.500000 0.828973 0.523225
O O2 0.250000 0.750000 0.533823
O O3 0.256799 0.874550 0.608073
O O4 0.243122 0.868706 0.444346
O O5 0.758707 0.881766 0.770700
O O6 0.000000 0.922663 0.679766
O O7 0.743414 0.000000 0.682070
O O8 0.750000 0.750000 0.041690
O O9 0.749553 0.650760 0.934839
O O10 0.000000 0.667720 0.028664
O O11 0.742487 0.624828 0.105619
O O12 0.750000 0.750000 0.824396
O O13 0.000000 0.669393 0.838656
O O14 0.500000 0.081244 0.371834
O O15 0.249933 0.102756 0.277393
O O16 0.253304 0.000000 0.384803
O O17 0.756289 0.500000 0.174043
O O18 0.000000 0.583428 0.183625
#
# Coordination Sequence:
#
# PCOD9349139 Si02
#       6
#     8   8   8   8   8   8
#     4  11  22  36  55  79 107 138 174 214 257 307
#     4  11  24  40  57  78 104 134 169 212 263 314
#     4   9  18  31  50  76 104 136 170 208 253 299
#     4  10  20  35  55  78 106 139 176 216 258 306
#     4   8  15  29  50  75 102 134 172 213 256 302
#     4   8  14  27  48  74 103 134 171 213 253 296
#
# _framework density 19.010742
#
# number of rings (size 3 to 8) (size 9 to 14) (size 15 to 20)
#    0.000    2.500    0.000    3.500    0.000    4.000 
#    0.000    1.667    0.000    1.500    0.000    4.667 
#    0.000    0.000    0.000    0.000    0.000    0.000 
#
# Total GULP energy -133905.755952 kJ/mol
# GULP energy per Si atom -5579.406498 kJ/mol
# Density = 1.896747 g / cm^3
# Si number density = 19.010742 Si / 1000 Ang^3
#
#
#
# Elastic Constant Matrix: (Units=GPa)
#
#
# Indices 1 2 3 4 5 6 
#
# 1 22.2678 17.5288 18.8396 0.0000 0.0000 0.0000
# 2 17.5288 143.0651 135.0914 0.0000 0.0000 0.0000
# 3 18.8396 135.0914 209.6343 0.0000 0.0000 0.0000
# 4 0.0000 0.0000 0.0000 44.0894 0.0000 0.0000
# 5 0.0000 0.0000 0.0000 0.0000 -5.3908 0.0000
# 6 0.0000 0.0000 0.0000 0.0000 0.0000 12.1701
#
#
#
# Elastic Compliance Matrix: (Units=1/GPa)
#
#
# Indices 1 2 3 4 5 6 
#
# 1 0.049860 -0.004797 -0.001390 0.000000 0.000000 0.000000
# 2 -0.004797 0.018315 -0.011372 0.000000 0.000000 0.000000
# 3 -0.001390 -0.011372 0.012223 0.000000 0.000000 0.000000
# 4 0.000000 0.000000 0.000000 0.022681 0.000000 0.000000
# 5 0.000000 0.000000 0.000000 0.000000 -0.185501 0.000000
# 6 0.000000 0.000000 0.000000 0.000000 0.000000 0.082168
#
#
# Mechanical properties :
#
#
# Convention : Reuss Voigt Hill
#
# Bulk Modulus (GPa) = 22.08383 79.76520 50.92452
# Shear Modulus (GPa) = 100.08665 23.74089 61.91377
#
# Velocity S-wave (km/s) = 7.26373 3.53769 5.71301
# Velocity P-wave (km/s) = 9.05487 7.66395 8.38829
#
# Compressibility (1/GPa) = 0.04528200
#
# Stress axis : x y z
#
# Youngs Moduli (GPa) = 20.05632 54.59904 81.81201
#
# Poissons Ratio (x) = 0.26189 0.11370
# Poissons Ratio (y) = 0.09620 0.93033
# Poissons Ratio (z) = 0.02787 0.62088
#
# Static dielectric constant tensor:
#      x y z
#    x 1.657750 0.000000 0.000000 
#    y 0.000000 1.629310 0.000000 
#    z 0.000000 0.000000 1.674800 
# 
# From -- ./inp_files/15077.got.cif
#   From: 2010.05.17/outbox.cif.g08.bks.cpg/sg35_8_cif.got.tgz:15077.got - 2010.06.03 17:29:28.
