data_PCOD9349592
_publ_section_title
;
Structure prediction by ZEFSAII (Michael W. Deem and Ramdas Pophale) SiO2 
 PCOD9349592
Probable space group: C M M 2
;
_chemical_formula_sum "Si O2"
_cell_formula_units_Z 58
_cell_length_a 7.878573
_cell_length_b 29.201057
_cell_length_c 12.311251
_cell_angle_alpha 90.000000
_cell_angle_beta 90.000000
_cell_angle_gamma 90.000000
_cell_volume 2832.359144
_symmetry_space_group_name_H-M "C M M 2"
_symmetry_group_IT_number 35
_symmetry_cell_setting 'orthorhombic'
loop_
_space_group_symop_operation_xyz
x,y,z
-x,-y,z
-x,y,z
x,-y,z
1/2+x,1/2+y,z
1/2-x,1/2-y,z
1/2-x,1/2+y,z
1/2+x,1/2-y,z
loop_
_atom_site_type_symbol
_atom_site_label
_atom_site_fract_x
_atom_site_fract_y
_atom_site_fract_z
Si Si1 0.700354 0.885215 0.630020
Si Si2 0.296852 0.303208 0.773496
Si Si3 0.695689 0.553164 0.068746
Si Si4 0.203884 0.446476 0.830171
Si Si5 0.309673 0.576517 0.401971
Si Si6 0.686299 0.868691 0.209948
Si Si7 0.500000 0.000000 0.381256
Si Si8 0.201857 0.803135 0.015578
O O1 0.500000 0.893738 0.615082
O O2 0.725683 0.834456 0.677334
O O3 0.762236 0.917268 0.728685
O O4 0.788709 0.900362 0.519907
O O5 0.500000 0.307642 0.772526
O O6 0.250000 0.250000 0.760985
O O7 0.232886 0.317675 0.895027
O O8 0.500000 0.558641 0.102633
O O9 0.743152 0.500000 0.076729
O O10 0.811507 0.584195 0.141907
O O11 0.712457 0.567086 0.943472
O O12 0.240019 0.500000 0.811652
O O13 0.000000 0.441524 0.842067
O O14 0.500000 0.556243 0.392320
O O15 0.295318 0.617485 0.313723
O O16 0.153951 0.540443 0.384964
O O17 0.500000 0.856305 0.249187
O O18 0.740507 0.831931 0.119569
O O19 0.250000 0.750000 0.028564
O O20 0.000000 0.807148 0.011043
#
# Coordination Sequence:
#
# PCOD9349592 Si02
#       8
#     8   8   8   8   8   8   2   8
#     4  11  22  39  63  90 128 166 214 272 324 389
#     4  10  21  38  63  96 130 169 217 269 332 402
#     4  10  21  35  53  82 118 157 204 256 316 385
#     4   9  19  34  55  82 117 159 200 249 313 384
#     4  12  27  46  70  97 130 175 228 277 332 388
#     4  12  24  41  62  89 126 166 216 273 325 388
#     4  12  26  52  68  98 130 176 230 284 324 392
#     4  10  21  39  65  98 132 169 216 267 331 403
#
# _framework density 20.477629
#
# number of rings (size 3 to 8) (size 9 to 14) (size 15 to 20)
#    0.000    1.379    1.379    3.931    1.931    5.793 
#    0.000    0.690    0.000    0.000    0.000    0.000 
#    0.000    0.000    0.000    0.000    0.000    0.000 
#
# Total GULP energy -161722.057085 kJ/mol
# GULP energy per Si atom -5576.622658 kJ/mol
# Density = 2.043102 g / cm^3
# Si number density = 20.477629 Si / 1000 Ang^3
#
#
#
# Elastic Constant Matrix: (Units=GPa)
#
#
# Indices 1 2 3 4 5 6 
#
# 1 90.2687 11.8842 14.6162 0.0000 0.0000 0.0000
# 2 11.8842 56.3109 32.4590 0.0000 0.0000 0.0000
# 3 14.6162 32.4590 88.9918 0.0000 0.0000 0.0000
# 4 0.0000 0.0000 0.0000 -33.6608 0.0000 0.0000
# 5 0.0000 0.0000 0.0000 0.0000 50.9467 0.0000
# 6 0.0000 0.0000 0.0000 0.0000 0.0000 23.0080
#
#
#
# Elastic Compliance Matrix: (Units=1/GPa)
#
#
# Indices 1 2 3 4 5 6 
#
# 1 0.011507 -0.001696 -0.001272 0.000000 0.000000 0.000000
# 2 -0.001696 0.022736 -0.008014 0.000000 0.000000 0.000000
# 3 -0.001272 -0.008014 0.014369 0.000000 0.000000 0.000000
# 4 0.000000 0.000000 0.000000 -0.029708 0.000000 0.000000
# 5 0.000000 0.000000 0.000000 0.000000 0.019628 0.000000
# 6 0.000000 0.000000 0.000000 0.000000 0.000000 0.043463
#
#
# Mechanical properties :
#
#
# Convention : Reuss Voigt Hill
#
# Bulk Modulus (GPa) = 37.52435 39.27669 38.40052
# Shear Modulus (GPa) = 44.30998 19.83291 32.07144
#
# Velocity S-wave (km/s) = 4.65674 3.11547 3.96178
# Velocity P-wave (km/s) = 6.87590 5.67129 6.30244
#
# Compressibility (1/GPa) = 0.02664936
#
# Stress axis : x y z
#
# Youngs Moduli (GPa) = 86.90252 43.98304 69.59440
#
# Poissons Ratio (x) = 0.07458 0.08849
# Poissons Ratio (y) = 0.14735 0.55775
# Poissons Ratio (z) = 0.11050 0.35249
#
# Static dielectric constant tensor:
#      x y z
#    x 1.678080 0.000000 0.000000 
#    y 0.000000 1.725930 0.000000 
#    z 0.000000 0.000000 1.738570 
# 
# From -- ./inp_files/11813.got.cif
#   From: 2010.05.17/outbox.cif.g08.bks.cpg/sg35_6_cif.got.tgz:11813.got - 2010.06.03 17:29:28.
