data_PCOD9349601
_publ_section_title
;
Structure prediction by ZEFSAII (Michael W. Deem and Ramdas Pophale) SiO2 
 PCOD9349601
Probable space group: C M M 2
;
_chemical_formula_sum "Si O2"
_cell_formula_units_Z 48
_cell_length_a 18.125949
_cell_length_b 7.806364
_cell_length_c 17.871514
_cell_angle_alpha 90.000000
_cell_angle_beta 90.000000
_cell_angle_gamma 90.000000
_cell_volume 2528.779123
_symmetry_space_group_name_H-M "C M M 2"
_symmetry_group_IT_number 35
_symmetry_cell_setting 'orthorhombic'
loop_
_space_group_symop_operation_xyz
x,y,z
-x,-y,z
-x,y,z
x,-y,z
1/2+x,1/2+y,z
1/2-x,1/2-y,z
1/2-x,1/2+y,z
1/2+x,1/2-y,z
loop_
_atom_site_type_symbol
_atom_site_label
_atom_site_fract_x
_atom_site_fract_y
_atom_site_fract_z
Si Si1 0.164692 0.797251 0.569360
Si Si2 0.089566 0.500000 0.306288
Si Si3 0.336301 0.706451 0.036078
Si Si4 0.583118 0.797445 0.720818
Si Si5 0.088910 0.500000 0.133034
Si Si6 0.083958 0.203774 0.883993
Si Si7 0.411078 0.299779 0.416898
O O1 0.250000 0.750000 0.565292
O O2 0.129990 0.741232 0.647719
O O3 0.121961 0.734770 0.495587
O O4 0.157309 0.000000 0.567274
O O5 0.112078 0.500000 0.220065
O O6 0.112732 0.329769 0.351522
O O7 0.000000 0.500000 0.306738
O O8 0.347283 0.500000 0.047043
O O9 0.250000 0.750000 0.041252
O O10 0.379715 0.829104 0.093368
O O11 0.366483 0.757887 0.953636
O O12 0.500000 0.723026 0.713190
O O13 0.613939 0.739848 0.801048
O O14 0.576962 0.000000 0.725506
O O15 0.000000 0.500000 0.128056
O O16 0.000000 0.275498 0.888496
O O17 0.078149 0.000000 0.890481
O O18 0.500000 0.295310 0.422096
O O19 0.390080 0.500000 0.404234
#
# Coordination Sequence:
#
# PCOD9349601 Si02
#       7
#     8   4   8   8   4   8   8
#     4  11  23  37  55  79 115 155 196 246 295 353
#     4   9  20  38  64  93 119 150 193 249 301 358
#     4  11  23  41  65  92 130 171 209 258 315 380
#     4  10  21  35  55  84 116 155 200 246 295 349
#     4  11  24  42  68  99 128 164 209 261 318 378
#     4   9  19  36  58  85 117 156 204 253 302 358
#     4   9  19  37  62  88 115 151 196 244 300 359
#
# _framework density 18.981493
#
# number of rings (size 3 to 8) (size 9 to 14) (size 15 to 20)
#    0.000    2.000    0.833    2.000    3.500    4.000 
#    0.000    4.167    0.000    0.000    0.000    0.000 
#    0.000    0.000    0.000    0.000    0.000    0.000 
#
# Total GULP energy -133897.640654 kJ/mol
# GULP energy per Si atom -5579.068361 kJ/mol
# Density = 1.893829 g / cm^3
# Si number density = 18.981493 Si / 1000 Ang^3
#
#
#
# Elastic Constant Matrix: (Units=GPa)
#
#
# Indices 1 2 3 4 5 6 
#
# 1 65.6687 31.2517 62.2511 0.0000 0.0000 0.0000
# 2 31.2517 89.1644 70.4082 0.0000 0.0000 0.0000
# 3 62.2511 70.4082 195.0387 0.0000 0.0000 0.0000
# 4 0.0000 0.0000 0.0000 33.1365 0.0000 0.0000
# 5 0.0000 0.0000 0.0000 0.0000 -29.2513 0.0000
# 6 0.0000 0.0000 0.0000 0.0000 0.0000 19.8243
#
#
#
# Elastic Compliance Matrix: (Units=1/GPa)
#
#
# Indices 1 2 3 4 5 6 
#
# 1 0.022426 -0.003089 -0.006043 0.000000 0.000000 0.000000
# 2 -0.003089 0.016112 -0.004831 0.000000 0.000000 0.000000
# 3 -0.006043 -0.004831 0.008800 0.000000 0.000000 0.000000
# 4 0.000000 0.000000 0.000000 0.030178 0.000000 0.000000
# 5 0.000000 0.000000 0.000000 0.000000 -0.034186 0.000000
# 6 0.000000 0.000000 0.000000 0.000000 0.000000 0.050443
#
#
# Mechanical properties :
#
#
# Convention : Reuss Voigt Hill
#
# Bulk Modulus (GPa) = 51.50919 75.29931 63.40425
# Shear Modulus (GPa) = 39.01107 17.13928 28.07517
#
# Velocity S-wave (km/s) = 4.53837 3.00817 3.85006
# Velocity P-wave (km/s) = 7.39309 7.19871 7.29655
#
# Compressibility (1/GPa) = 0.01941401
#
# Stress axis : x y z
#
# Youngs Moduli (GPa) = 44.59070 62.06444 113.63927
#
# Poissons Ratio (x) = 0.19169 0.68671
# Poissons Ratio (y) = 0.13772 0.54896
# Poissons Ratio (z) = 0.26946 0.29981
#
# Static dielectric constant tensor:
#      x y z
#    x 1.672580 0.000000 0.000000 
#    y 0.000000 1.670500 0.000000 
#    z 0.000000 0.000000 1.673380 
# 
# From -- ./inp_files/15172.got.cif
#   From: 2010.05.17/outbox.cif.g08.bks.cpg/sg35_8_cif.got.tgz:15172.got - 2010.06.03 17:29:28.
