data_PCOD9349295
_publ_section_title
;
Structure prediction by ZEFSAII (Michael W. Deem and Ramdas Pophale) SiO2 
 PCOD9349295
Probable space group: C M M 2
;
_chemical_formula_sum "Si O2"
_cell_formula_units_Z 40
_cell_length_a 8.728666
_cell_length_b 14.824555
_cell_length_c 17.092804
_cell_angle_alpha 90.000000
_cell_angle_beta 90.000000
_cell_angle_gamma 90.000000
_cell_volume 2211.784723
_symmetry_space_group_name_H-M "C M M 2"
_symmetry_group_IT_number 35
_symmetry_cell_setting 'orthorhombic'
loop_
_space_group_symop_operation_xyz
x,y,z
-x,-y,z
-x,y,z
x,-y,z
1/2+x,1/2+y,z
1/2-x,1/2-y,z
1/2-x,1/2+y,z
1/2+x,1/2-y,z
loop_
_atom_site_type_symbol
_atom_site_label
_atom_site_fract_x
_atom_site_fract_y
_atom_site_fract_z
Si Si1 0.684286 0.148781 0.462310
Si Si2 0.184106 0.650676 0.873362
Si Si3 0.181974 0.000000 0.161150
Si Si4 0.684035 0.149710 0.049177
Si Si5 0.185975 0.500000 0.750776
Si Si6 0.683552 0.000000 0.333727
Si Si7 0.683122 0.500000 0.577188
O O1 0.500000 0.152255 0.469002
O O2 0.750000 0.250000 0.459893
O O3 0.750878 0.088403 0.533060
O O4 0.722229 0.088616 0.385402
O O5 0.250000 0.750000 0.863259
O O6 0.231838 0.585439 0.803672
O O7 0.000000 0.654779 0.872273
O O8 0.226448 0.618099 0.960924
O O9 0.247990 0.085688 0.114861
O O10 0.235830 0.000000 0.250598
O O11 0.000000 0.000000 0.157216
O O12 0.500000 0.150578 0.054729
O O13 0.750000 0.250000 0.057442
O O14 0.261656 0.500000 0.666396
O O15 0.000000 0.500000 0.742512
O O16 0.500000 0.000000 0.322560
O O17 0.500000 0.500000 0.571750
#
# Coordination Sequence:
#
# PCOD9349295 Si02
#       7
#     8   8   4   8   4   4   4
#     4  10  21  40  65  88 112 145 182 224 277 333
#     4   9  19  35  56  79 106 144 187 232 280 329
#     4  12  24  36  55  84 116 151 188 229 278 329
#     4  10  20  37  58  81 111 148 191 236 282 331
#     4  10  20  36  55  78 112 149 184 227 280 331
#     4   9  21  40  59  83 115 147 183 228 275 328
#     4  11  23  38  57  85 117 149 187 228 273 328
#
# _framework density 18.084944
#
# number of rings (size 3 to 8) (size 9 to 14) (size 15 to 20)
#    0.000    2.000    0.000    4.200    0.000    7.200 
#    0.000    5.000    0.000    0.000    0.000    0.000 
#    0.000    0.000    0.000    0.000    0.000    0.000 
#
# Total GULP energy -111678.609445 kJ/mol
# GULP energy per Si atom -5583.930472 kJ/mol
# Density = 1.804378 g / cm^3
# Si number density = 18.084944 Si / 1000 Ang^3
#
#
#
# Elastic Constant Matrix: (Units=GPa)
#
#
# Indices 1 2 3 4 5 6 
#
# 1 79.1562 62.0866 80.3524 0.0000 0.0000 0.0000
# 2 62.0866 153.6273 105.2966 0.0000 0.0000 0.0000
# 3 80.3524 105.2966 191.7644 0.0000 0.0000 0.0000
# 4 0.0000 0.0000 0.0000 16.9863 0.0000 0.0000
# 5 0.0000 0.0000 0.0000 0.0000 26.2479 0.0000
# 6 0.0000 0.0000 0.0000 0.0000 0.0000 33.3215
#
#
#
# Elastic Compliance Matrix: (Units=1/GPa)
#
#
# Indices 1 2 3 4 5 6 
#
# 1 0.023743 -0.004452 -0.007504 0.000000 0.000000 0.000000
# 2 -0.004452 0.011272 -0.004324 0.000000 0.000000 0.000000
# 3 -0.007504 -0.004324 0.010733 0.000000 0.000000 0.000000
# 4 0.000000 0.000000 0.000000 0.058871 0.000000 0.000000
# 5 0.000000 0.000000 0.000000 0.000000 0.038098 0.000000
# 6 0.000000 0.000000 0.000000 0.000000 0.000000 0.030011
#
#
# Mechanical properties :
#
#
# Convention : Reuss Voigt Hill
#
# Bulk Modulus (GPa) = 75.82611 102.22434 89.02523
# Shear Modulus (GPa) = 23.84542 27.09864 25.47203
#
# Velocity S-wave (km/s) = 3.63509 3.87513 3.75703
# Velocity P-wave (km/s) = 7.72252 8.75611 8.25550
#
# Compressibility (1/GPa) = 0.01318807
#
# Stress axis : x y z
#
# Youngs Moduli (GPa) = 42.11843 88.71396 93.16809
#
# Poissons Ratio (x) = 0.39496 0.69913
# Poissons Ratio (y) = 0.18751 0.40286
# Poissons Ratio (z) = 0.31605 0.38360
#
# Static dielectric constant tensor:
#      x y z
#    x 1.602110 0.000000 0.000000 
#    y 0.000000 1.596180 0.000000 
#    z 0.000000 0.000000 1.603780 
# 
# From -- ./inp_files/14828.got.cif
#   From: 2010.05.17/outbox.cif.g08.bks.cpg/sg35_8_cif.got.tgz:14828.got - 2010.06.03 17:29:28.
