data_PCOD9349744
_publ_section_title
;
Structure prediction by ZEFSAII (Michael W. Deem and Ramdas Pophale) SiO2 
 PCOD9349744
Probable space group: C M M 2
;
_chemical_formula_sum "Si O2"
_cell_formula_units_Z 64
_cell_length_a 8.596791
_cell_length_b 18.738042
_cell_length_c 21.710233
_cell_angle_alpha 90.000000
_cell_angle_beta 90.000000
_cell_angle_gamma 90.000000
_cell_volume 3497.236972
_symmetry_space_group_name_H-M "C M M 2"
_symmetry_group_IT_number 35
_symmetry_cell_setting 'orthorhombic'
loop_
_space_group_symop_operation_xyz
x,y,z
-x,-y,z
-x,y,z
x,-y,z
1/2+x,1/2+y,z
1/2-x,1/2-y,z
1/2-x,1/2+y,z
1/2+x,1/2-y,z
loop_
_atom_site_type_symbol
_atom_site_label
_atom_site_fract_x
_atom_site_fract_y
_atom_site_fract_z
Si Si1 0.314667 0.584321 0.143610
Si Si2 0.687570 0.668997 0.520059
Si Si3 0.813278 0.830004 0.894814
Si Si4 0.810144 0.918067 0.774244
Si Si5 0.688352 0.669192 0.654710
Si Si6 0.315218 0.830485 0.259313
Si Si7 0.686313 0.083374 0.010573
Si Si8 0.686950 0.331460 0.386957
O O1 0.500000 0.594116 0.143885
O O2 0.280652 0.500000 0.149927
O O3 0.241132 0.626009 0.200373
O O4 0.247874 0.607132 0.077378
O O5 0.500000 0.670973 0.519558
O O6 0.750000 0.750000 0.520181
O O7 0.735322 0.639577 0.586971
O O8 0.733869 0.636543 0.453724
O O9 0.750000 0.750000 0.892242
O O10 0.754496 0.869869 0.955715
O O11 0.759020 0.878806 0.711768
O O12 0.000000 0.828387 0.895318
O O13 0.761438 0.873997 0.834396
O O14 0.000000 0.918503 0.773822
O O15 0.758347 0.000000 0.777024
O O16 0.500000 0.671962 0.656126
O O17 0.750000 0.750000 0.660916
O O18 0.500000 0.827327 0.261620
O O19 0.250000 0.750000 0.254628
O O20 0.253384 0.863016 0.323870
O O21 0.500000 0.087275 0.010018
O O22 0.732335 0.000000 0.002278
O O23 0.500000 0.330282 0.382913
O O24 0.750000 0.250000 0.388026
#
# Coordination Sequence:
#
# PCOD9349744 Si02
#       8
#     8   8   8   8   8   8   8   8
#     4  10  21  38  59  81 106 137 172 210 254 305
#     4   8  14  23  39  64  93 125 161 205 254 304
#     4  11  22  36  55  79 107 137 172 213 258 305
#     4   9  18  32  51  74 100 133 171 209 251 303
#     4   9  16  28  47  71  98 127 163 209 257 303
#     4  11  21  33  51  76 106 138 175 217 261 307
#     4  10  21  38  59  82 107 135 169 208 251 303
#     4   9  15  25  41  64  96 130 167 210 257 307
#
# _framework density 18.300162
#
# number of rings (size 3 to 8) (size 9 to 14) (size 15 to 20)
#    0.000    2.375    0.000    4.125    0.000    3.000 
#    0.000    3.125    0.000    2.625    0.000    3.500 
#    0.000    0.000    0.000    0.000    0.000    0.000 
#
# Total GULP energy -178418.913876 kJ/mol
# GULP energy per Si atom -5575.591059 kJ/mol
# Density = 1.825851 g / cm^3
# Si number density = 18.300162 Si / 1000 Ang^3
#
#
#
# Elastic Constant Matrix: (Units=GPa)
#
#
# Indices 1 2 3 4 5 6 
#
# 1 43.8085 29.1097 54.9009 0.0000 0.0000 0.0000
# 2 29.1097 73.7260 89.0294 0.0000 0.0000 0.0000
# 3 54.9009 89.0294 240.7882 0.0000 0.0000 0.0000
# 4 0.0000 0.0000 0.0000 -14.2746 0.0000 0.0000
# 5 0.0000 0.0000 0.0000 0.0000 20.6565 0.0000
# 6 0.0000 0.0000 0.0000 0.0000 0.0000 15.7799
#
#
#
# Elastic Compliance Matrix: (Units=1/GPa)
#
#
# Indices 1 2 3 4 5 6 
#
# 1 0.034027 -0.007346 -0.005042 0.000000 0.000000 0.000000
# 2 -0.007346 0.026091 -0.007972 0.000000 0.000000 0.000000
# 3 -0.005042 -0.007972 0.008250 0.000000 0.000000 0.000000
# 4 0.000000 0.000000 0.000000 -0.070055 0.000000 0.000000
# 5 0.000000 0.000000 0.000000 0.000000 0.048411 0.000000
# 6 0.000000 0.000000 0.000000 0.000000 0.000000 0.063372
#
#
# Mechanical properties :
#
#
# Convention : Reuss Voigt Hill
#
# Bulk Modulus (GPa) = 36.16991 78.26698 57.21845
# Shear Modulus (GPa) = 31.24367 16.78455 24.01411
#
# Velocity S-wave (km/s) = 4.13642 3.03178 3.62641
# Velocity P-wave (km/s) = 6.52848 7.42408 6.99063
#
# Compressibility (1/GPa) = 0.02764729
#
# Stress axis : x y z
#
# Youngs Moduli (GPa) = 29.38862 38.32733 121.20958
#
# Poissons Ratio (x) = 0.28157 0.61114
# Poissons Ratio (y) = 0.21590 0.96627
# Poissons Ratio (z) = 0.14818 0.30554
#
# Static dielectric constant tensor:
#      x y z
#    x 1.616640 0.000000 0.000000 
#    y 0.000000 1.598750 0.000000 
#    z 0.000000 0.000000 1.667080 
# 
# From -- ./inp_files/18486.got.cif
#   From: 2010.05.17/outbox.cif.g08.bks.cpg/sg35_10_cif.got.tgz:18486.got - 2010.06.03 17:29:28.
