data_PCOD9349224
_publ_section_title
;
Structure prediction by ZEFSAII (Michael W. Deem and Ramdas Pophale) SiO2 
 PCOD9349224
Probable space group: C M M 2
;
_chemical_formula_sum "Si O2"
_cell_formula_units_Z 64
_cell_length_a 8.898647
_cell_length_b 19.053840
_cell_length_c 21.089058
_cell_angle_alpha 90.000000
_cell_angle_beta 90.000000
_cell_angle_gamma 90.000000
_cell_volume 3575.721406
_symmetry_space_group_name_H-M "C M M 2"
_symmetry_group_IT_number 35
_symmetry_cell_setting 'orthorhombic'
loop_
_space_group_symop_operation_xyz
x,y,z
-x,-y,z
-x,y,z
x,-y,z
1/2+x,1/2+y,z
1/2-x,1/2-y,z
1/2-x,1/2+y,z
1/2+x,1/2-y,z
loop_
_atom_site_type_symbol
_atom_site_label
_atom_site_fract_x
_atom_site_fract_y
_atom_site_fract_z
Si Si1 0.679920 0.327412 0.699220
Si Si2 0.178029 0.916534 0.172489
Si Si3 0.679425 0.172512 0.060184
Si Si4 0.318635 0.082100 0.444199
Si Si5 0.679361 0.327051 0.555539
Si Si6 0.823605 0.416264 0.811254
Si Si7 0.179517 0.082990 0.946987
Si Si8 0.173332 0.585223 0.303762
O O1 0.500000 0.323704 0.706033
O O2 0.750000 0.250000 0.705699
O O3 0.714011 0.352294 0.627300
O O4 0.749663 0.376616 0.752566
O O5 0.267052 0.871245 0.121444
O O6 0.226861 0.895515 0.243593
O O7 0.000000 0.907123 0.163600
O O8 0.211007 0.000000 0.164774
O O9 0.500000 0.177029 0.058213
O O10 0.750000 0.250000 0.061642
O O11 0.740936 0.130218 0.999440
O O12 0.500000 0.086943 0.447081
O O13 0.245838 0.124319 0.501099
O O14 0.274521 0.108396 0.373633
O O15 0.278325 0.000000 0.449288
O O16 0.500000 0.322542 0.549658
O O17 0.750000 0.250000 0.549309
O O18 0.810167 0.500000 0.802190
O O19 0.740732 0.399066 0.877157
O O20 0.000000 0.398762 0.816205
O O21 0.000000 0.092443 0.949869
O O22 0.211221 0.000000 0.958310
O O23 0.172118 0.500000 0.306697
O O24 0.000000 0.607330 0.293811
#
# Coordination Sequence:
#
# PCOD9349224 Si02
#       8
#     8   8   8   8   8   8   8   8
#     4  10  21  37  56  78 106 142 183 225 271 322
#     4  10  20  35  57  84 112 143 180 221 267 321
#     4  12  25  40  58  81 112 146 182 225 270 317
#     4   9  18  33  54  80 110 142 177 221 271 321
#     4  10  21  36  54  76 105 142 183 226 270 322
#     4  10  21  37  58  85 114 143 178 220 266 317
#     4  10  21  39  62  86 113 144 179 220 265 316
#     4   8  15  30  52  78 107 140 179 221 266 317
#
# _framework density 17.898486999999999
#
# number of rings (size 3 to 8) (size 9 to 14) (size 15 to 20)
#    0.000    2.125    0.000    4.125    0.000    7.000 
#    0.000    6.875    0.000    3.000    0.000    0.000 
#    0.000    0.000    0.000    0.000    0.000    0.000 
#
# Total GULP energy -178651.375375 kJ/mol
# GULP energy per Si atom -5582.855480 kJ/mol
# Density = 1.785775 g / cm^3
# Si number density = 17.898487 Si / 1000 Ang^3
#
#
#
# Elastic Constant Matrix: (Units=GPa)
#
#
# Indices 1 2 3 4 5 6 
#
# 1 105.4921 61.5079 88.2003 0.0000 0.0000 0.0000
# 2 61.5079 67.6478 87.1135 0.0000 0.0000 0.0000
# 3 88.2003 87.1135 182.0678 0.0000 0.0000 0.0000
# 4 0.0000 0.0000 0.0000 -122.2562 0.0000 0.0000
# 5 0.0000 0.0000 0.0000 0.0000 37.9360 0.0000
# 6 0.0000 0.0000 0.0000 0.0000 0.0000 29.8962
#
#
#
# Elastic Compliance Matrix: (Units=1/GPa)
#
#
# Indices 1 2 3 4 5 6 
#
# 1 0.020657 -0.015359 -0.002658 0.000000 0.000000 0.000000
# 2 -0.015359 0.049930 -0.016450 0.000000 0.000000 0.000000
# 3 -0.002658 -0.016450 0.014651 0.000000 0.000000 0.000000
# 4 0.000000 0.000000 0.000000 -0.008180 0.000000 0.000000
# 5 0.000000 0.000000 0.000000 0.000000 0.026360 0.000000
# 6 0.000000 0.000000 0.000000 0.000000 0.000000 0.033449
#
#
# Mechanical properties :
#
#
# Convention : Reuss Voigt Hill
#
# Bulk Modulus (GPa) = 61.33256 92.09458 76.71357
# Shear Modulus (GPa) = 23.67012 -2.99241 10.33885
#
# Velocity S-wave (km/s) = 3.64052 -1.29442 2.40602
# Velocity P-wave (km/s) = 7.21196 7.02364 7.11843
#
# Compressibility (1/GPa) = 0.01630455
#
# Stress axis : x y z
#
# Youngs Moduli (GPa) = 48.40945 20.02787 68.25559
#
# Poissons Ratio (x) = 0.30761 0.18144
# Poissons Ratio (y) = 0.74352 1.12278
# Poissons Ratio (z) = 0.12869 0.32945
#
# Static dielectric constant tensor:
#      x y z
#    x 1.596230 0.000000 0.000000 
#    y 0.000000 1.587020 0.000000 
#    z 0.000000 0.000000 1.606070 
# 
# From -- ./inp_files/18442.got.cif
#   From: 2010.05.17/outbox.cif.g08.bks.cpg/sg35_10_cif.got.tgz:18442.got - 2010.06.03 17:29:28.
