data_PCOD9349782
_publ_section_title
;
Structure prediction by ZEFSAII (Michael W. Deem and Ramdas Pophale) SiO2 
 PCOD9349782
Probable space group: C M M 2
;
_chemical_formula_sum "Si O2"
_cell_formula_units_Z 64
_cell_length_a 18.890305
_cell_length_b 19.095376
_cell_length_c 9.054727
_cell_angle_alpha 90.000000
_cell_angle_beta 90.000000
_cell_angle_gamma 90.000000
_cell_volume 3266.198276
_symmetry_space_group_name_H-M "C M M 2"
_symmetry_group_IT_number 35
_symmetry_cell_setting 'orthorhombic'
loop_
_space_group_symop_operation_xyz
x,y,z
-x,-y,z
-x,y,z
x,-y,z
1/2+x,1/2+y,z
1/2-x,1/2-y,z
1/2-x,1/2+y,z
1/2+x,1/2-y,z
loop_
_atom_site_type_symbol
_atom_site_label
_atom_site_fract_x
_atom_site_fract_y
_atom_site_fract_z
Si Si1 0.580729 0.838545 0.269250
Si Si2 0.079145 0.340301 0.748030
Si Si3 0.670769 0.720935 0.435042
Si Si4 0.148860 0.421404 0.495221
Si Si5 0.868079 0.579236 0.997089
Si Si6 0.203382 0.921313 0.314162
Si Si7 0.707452 0.578847 0.958187
Si Si8 0.173150 0.783901 0.788937
O O1 0.500000 0.822986 0.232075
O O2 0.617660 0.775366 0.357816
O O3 0.587173 0.904588 0.379518
O O4 0.622926 0.864083 0.125679
O O5 0.135091 0.365911 0.624489
O O6 0.111375 0.271419 0.825001
O O7 0.000000 0.328364 0.688264
O O8 0.077972 0.401065 0.869263
O O9 0.750000 0.750000 0.402120
O O10 0.659157 0.644559 0.366871
O O11 0.666996 0.710132 0.611291
O O12 0.146049 0.500000 0.553880
O O13 0.221546 0.413880 0.401837
O O14 0.876355 0.500000 0.054368
O O15 0.790836 0.583679 0.923220
O O16 0.177675 0.000000 0.348180
O O17 0.208176 0.915939 0.136801
O O18 0.682541 0.500000 0.918977
O O19 0.669491 0.642398 0.874494
O O20 0.250000 0.750000 0.823252
#
# Coordination Sequence:
#
# PCOD9349782 Si02
#       8
#     8   8   8   8   8   8   8   8
#     4  12  24  38  59  90 125 165 209 255 307 374
#     4  12  25  40  57  87 127 169 212 257 310 377
#     4  11  21  38  60  87 119 158 202 255 307 364
#     4  11  21  38  61  87 123 167 207 246 301 368
#     4  11  23  40  59  86 125 168 211 255 306 373
#     4  10  21  38  62  90 117 151 202 256 308 365
#     4  10  21  38  62  90 118 153 203 254 306 364
#     4  11  22  38  60  87 118 159 204 254 309 365
#
# _framework density 19.594646000000001
#
# number of rings (size 3 to 8) (size 9 to 14) (size 15 to 20)
#    0.000    1.000    5.000    2.250    1.750    4.000 
#    0.000    0.000    0.000    0.750    0.000    3.500 
#    0.000    0.000    0.000    0.000    0.000    0.000 
#
# Total GULP energy -178526.005727 kJ/mol
# GULP energy per Si atom -5578.937679 kJ/mol
# Density = 1.955005 g / cm^3
# Si number density = 19.594646 Si / 1000 Ang^3
#
#
#
# Elastic Constant Matrix: (Units=GPa)
#
#
# Indices 1 2 3 4 5 6 
#
# 1 41.3838 37.0194 6.4482 0.0000 0.0000 0.0000
# 2 37.0194 163.5006 52.8459 0.0000 0.0000 0.0000
# 3 6.4482 52.8459 69.8837 0.0000 0.0000 0.0000
# 4 0.0000 0.0000 0.0000 43.0125 0.0000 0.0000
# 5 0.0000 0.0000 0.0000 0.0000 13.4532 0.0000
# 6 0.0000 0.0000 0.0000 0.0000 0.0000 15.3793
#
#
#
# Elastic Compliance Matrix: (Units=1/GPa)
#
#
# Indices 1 2 3 4 5 6 
#
# 1 0.030840 -0.008024 0.003222 0.000000 0.000000 0.000000
# 2 -0.008024 0.010182 -0.006960 0.000000 0.000000 0.000000
# 3 0.003222 -0.006960 0.019275 0.000000 0.000000 0.000000
# 4 0.000000 0.000000 0.000000 0.023249 0.000000 0.000000
# 5 0.000000 0.000000 0.000000 0.000000 0.074332 0.000000
# 6 0.000000 0.000000 0.000000 0.000000 0.000000 0.065022
#
#
# Mechanical properties :
#
#
# Convention : Reuss Voigt Hill
#
# Bulk Modulus (GPa) = 27.19286 51.93278 39.56282
# Shear Modulus (GPa) = 19.32878 26.26597 22.79738
#
# Velocity S-wave (km/s) = 3.14416 3.66521 3.41464
# Velocity P-wave (km/s) = 5.20469 6.66879 5.98171
#
# Compressibility (1/GPa) = 0.03677436
#
# Stress axis : x y z
#
# Youngs Moduli (GPa) = 32.42552 98.20849 51.88083
#
# Poissons Ratio (x) = 0.78804 -0.16717
# Poissons Ratio (y) = 0.26019 0.36107
# Poissons Ratio (z) = -0.10448 0.68348
#
# Static dielectric constant tensor:
#      x y z
#    x 1.685050 0.000000 0.000000 
#    y 0.000000 1.709930 0.000000 
#    z 0.000000 0.000000 1.739310 
# 
# From -- ./inp_files/9453.got.cif
#   From: 2010.05.17/outbox.cif.g08.bks.cpg/sg35_5_cif.got.tgz:9453.got - 2010.06.03 17:29:28.
