data_PCOD9349100
_publ_section_title
;
Structure prediction by ZEFSAII (Michael W. Deem and Ramdas Pophale) SiO2 
 PCOD9349100
Probable space group: C M M 2
;
_chemical_formula_sum "Si O2"
_cell_formula_units_Z 58
_cell_length_a 17.302375
_cell_length_b 17.006457
_cell_length_c 9.699521
_cell_angle_alpha 90.000000
_cell_angle_beta 90.000000
_cell_angle_gamma 90.000000
_cell_volume 2854.104389
_symmetry_space_group_name_H-M "C M M 2"
_symmetry_group_IT_number 35
_symmetry_cell_setting 'orthorhombic'
loop_
_space_group_symop_operation_xyz
x,y,z
-x,-y,z
-x,y,z
x,-y,z
1/2+x,1/2+y,z
1/2-x,1/2-y,z
1/2-x,1/2+y,z
1/2+x,1/2-y,z
loop_
_atom_site_type_symbol
_atom_site_label
_atom_site_fract_x
_atom_site_fract_y
_atom_site_fract_z
Si Si1 0.500000 0.000000 0.958750
Si Si2 0.590589 0.846659 0.340706
Si Si3 0.218597 0.410341 0.540021
Si Si4 0.414687 0.409184 0.172421
Si Si5 0.319153 0.303441 0.360678
Si Si6 0.253141 0.344168 0.819117
Si Si7 0.083998 0.187313 0.891314
Si Si8 0.623076 0.139847 0.013037
O O1 0.567724 0.069407 0.965973
O O2 0.500000 0.864149 0.353966
O O3 0.644529 0.898402 0.440767
O O4 0.611643 0.757455 0.384258
O O5 0.613140 0.854381 0.178852
O O6 0.245124 0.500000 0.528444
O O7 0.280842 0.346003 0.490090
O O8 0.206494 0.387818 0.698881
O O9 0.500000 0.402262 0.240003
O O10 0.400870 0.500000 0.143172
O O11 0.348627 0.371620 0.263697
O O12 0.418470 0.359514 0.034133
O O13 0.250000 0.250000 0.298605
O O14 0.250000 0.250000 0.804468
O O15 0.345297 0.354580 0.813416
O O16 0.211695 0.369128 0.961653
O O17 0.098866 0.277846 0.938535
O O18 0.000000 0.182857 0.822335
#
# Coordination Sequence:
#
# PCOD9349100 Si02
#       8
#     2   8   8   8   8   8   8   8
#     4  12  24  40  64 110 152 160 220 278 344 400
#     4  11  22  41  68  97 128 175 218 269 328 405
#     4  11  26  44  61  91 135 172 220 275 332 393
#     4  10  20  34  58  94 126 155 205 268 323 374
#     4  10  21  37  64  87 124 168 212 259 323 390
#     4  10  24  44  66  92 131 181 227 268 330 409
#     4  10  20  40  68  97 128 173 222 277 334 398
#     4  11  23  40  68 102 139 177 217 277 335 406
#
# _framework density 20.321611999999998
#
# number of rings (size 3 to 8) (size 9 to 14) (size 15 to 20)
#    0.000    1.517    2.759    2.069    5.793    0.828 
#    1.241    4.138    0.000    1.655    0.000    0.000 
#    0.000    0.000    0.000    0.000    0.000    0.000 
#
# Total GULP energy -161438.337591 kJ/mol
# GULP energy per Si atom -5566.839227 kJ/mol
# Density = 2.027536 g / cm^3
# Si number density = 20.321612 Si / 1000 Ang^3
#
#
#
# Elastic Constant Matrix: (Units=GPa)
#
#
# Indices 1 2 3 4 5 6 
#
# 1 100.1592 22.8239 37.7911 0.0000 0.0000 0.0000
# 2 22.8239 120.9202 12.7300 0.0000 0.0000 0.0000
# 3 37.7911 12.7300 60.3536 0.0000 0.0000 0.0000
# 4 0.0000 0.0000 0.0000 76.3874 0.0000 0.0000
# 5 0.0000 0.0000 0.0000 0.0000 -86.9943 0.0000
# 6 0.0000 0.0000 0.0000 0.0000 0.0000 29.6193
#
#
#
# Elastic Compliance Matrix: (Units=1/GPa)
#
#
# Indices 1 2 3 4 5 6 
#
# 1 0.013399 -0.001683 -0.008035 0.000000 0.000000 0.000000
# 2 -0.001683 0.008669 -0.000775 0.000000 0.000000 0.000000
# 3 -0.008035 -0.000775 0.021764 0.000000 0.000000 0.000000
# 4 0.000000 0.000000 0.000000 0.013091 0.000000 0.000000
# 5 0.000000 0.000000 0.000000 0.000000 -0.011495 0.000000
# 6 0.000000 0.000000 0.000000 0.000000 0.000000 0.033762
#
#
# Mechanical properties :
#
#
# Convention : Reuss Voigt Hill
#
# Bulk Modulus (GPa) = 43.77062 47.56923 45.66992
# Shear Modulus (GPa) = 46.38579 17.67502 32.03041
#
# Velocity S-wave (km/s) = 4.78282 2.95238 3.97441
# Velocity P-wave (km/s) = 7.21708 5.92293 6.60179
#
# Compressibility (1/GPa) = 0.02284638
#
# Stress axis : x y z
#
# Youngs Moduli (GPa) = 74.63008 115.35124 45.94805
#
# Poissons Ratio (x) = 0.19417 0.36920
# Poissons Ratio (y) = 0.12562 0.03559
# Poissons Ratio (z) = 0.59966 0.08934
#
# Static dielectric constant tensor:
#      x y z
#    x 1.866220 0.000000 0.000000 
#    y 0.000000 1.679550 0.000000 
#    z 0.000000 0.000000 1.721750 
# 
# From -- ./inp_files/8598.got.cif
#   From: 2010.05.17/outbox.cif.g08.bks.cpg/sg35_5_cif.got.tgz:8598.got - 2010.06.03 17:29:28.
