data_PCOD9349993
_publ_section_title
;
Structure prediction by ZEFSAII (Michael W. Deem and Ramdas Pophale) SiO2 
 PCOD9349993
Probable space group: C M M 2
;
_chemical_formula_sum "Si O2"
_cell_formula_units_Z 64
_cell_length_a 8.024915
_cell_length_b 29.779728
_cell_length_c 12.885449
_cell_angle_alpha 90.000000
_cell_angle_beta 90.000000
_cell_angle_gamma 90.000000
_cell_volume 3079.361844
_symmetry_space_group_name_H-M "C M M 2"
_symmetry_group_IT_number 35
_symmetry_cell_setting 'orthorhombic'
loop_
_space_group_symop_operation_xyz
x,y,z
-x,-y,z
-x,y,z
x,-y,z
1/2+x,1/2+y,z
1/2-x,1/2-y,z
1/2-x,1/2+y,z
1/2+x,1/2-y,z
loop_
_atom_site_type_symbol
_atom_site_label
_atom_site_fract_x
_atom_site_fract_y
_atom_site_fract_z
Si Si1 0.199558 0.949114 0.744100
Si Si2 0.692344 0.554841 0.967504
Si Si3 0.701369 0.802039 0.175076
Si Si4 0.300944 0.870898 0.345326
Si Si5 0.800349 0.302586 0.948642
Si Si6 0.305550 0.698132 0.725042
Si Si7 0.797538 0.052030 0.193276
Si Si8 0.693408 0.877480 0.577441
O O1 0.268773 0.932682 0.856221
O O2 0.231609 0.915917 0.650122
O O3 0.000000 0.951701 0.757825
O O4 0.260100 0.000000 0.724323
O O5 0.500000 0.570398 0.968958
O O6 0.689143 0.500000 0.967136
O O7 0.766624 0.567297 0.079117
O O8 0.500000 0.804141 0.173634
O O9 0.750000 0.750000 0.185335
O O10 0.765887 0.831581 0.270341
O O11 0.757251 0.819816 0.061260
O O12 0.500000 0.863618 0.353217
O O13 0.267938 0.916639 0.283725
O O14 0.232849 0.872823 0.462087
O O15 0.750000 0.250000 0.950922
O O16 0.725190 0.320374 0.841651
O O17 0.000000 0.306054 0.941099
O O18 0.500000 0.695389 0.702666
O O19 0.250000 0.750000 0.723165
O O20 0.211544 0.668628 0.640717
O O21 0.000000 0.053949 0.191264
O O22 0.751133 0.000000 0.208189
O O23 0.500000 0.888850 0.565929
#
# Coordination Sequence:
#
# PCOD9349993 Si02
#       8
#     8   8   8   8   8   8   8   8
#     4   9  18  35  59  84 111 143 180 225 276 328
#     4   7  12  27  52  81 110 137 168 212 268 327
#     4   9  19  36  57  81 109 140 175 218 268 321
#     4  10  23  40  54  74 107 145 185 226 268 316
#     4   9  16  30  54  83 113 140 170 212 264 324
#     4  11  22  38  60  84 112 143 178 221 271 325
#     4   9  18  34  57  83 109 138 175 219 266 320
#     4  11  24  40  55  75 108 148 191 232 269 317
#
# _framework density 20.783528
#
# number of rings (size 3 to 8) (size 9 to 14) (size 15 to 20)
#    0.000    2.625    0.000    4.125    0.000    4.500 
#    0.000    6.875    0.000    2.250    0.000    0.000 
#    0.000    0.000    0.000    0.000    0.000    0.000 
#
# Total GULP energy -178514.958116 kJ/mol
# GULP energy per Si atom -5578.592441 kJ/mol
# Density = 2.073622 g / cm^3
# Si number density = 20.783528 Si / 1000 Ang^3
#
#
#
# Elastic Constant Matrix: (Units=GPa)
#
#
# Indices 1 2 3 4 5 6 
#
# 1 12.3020 -18.6093 -8.7465 0.0000 0.0000 0.0000
# 2 -18.6093 76.6897 59.4131 0.0000 0.0000 0.0000
# 3 -8.7465 59.4131 202.3843 0.0000 0.0000 0.0000
# 4 0.0000 0.0000 0.0000 60.7838 0.0000 0.0000
# 5 0.0000 0.0000 0.0000 0.0000 22.0961 0.0000
# 6 0.0000 0.0000 0.0000 0.0000 0.0000 22.0787
#
#
#
# Elastic Compliance Matrix: (Units=1/GPa)
#
#
# Indices 1 2 3 4 5 6 
#
# 1 0.131915 0.035717 -0.004784 0.000000 0.000000 0.000000
# 2 0.035717 0.026549 -0.006250 0.000000 0.000000 0.000000
# 3 -0.004784 -0.006250 0.006569 0.000000 0.000000 0.000000
# 4 0.000000 0.000000 0.000000 0.016452 0.000000 0.000000
# 5 0.000000 0.000000 0.000000 0.000000 0.045257 0.000000
# 6 0.000000 0.000000 0.000000 0.000000 0.000000 0.045293
#
#
# Mechanical properties :
#
#
# Convention : Reuss Voigt Hill
#
# Bulk Modulus (GPa) = 4.66422 39.49895 22.08158
# Shear Modulus (GPa) = 16.99895 38.27964 27.63930
#
# Velocity S-wave (km/s) = 2.86301 4.29631 3.65069
# Velocity P-wave (km/s) = 3.63017 6.60736 5.33082
#
# Compressibility (1/GPa) = 0.21439803
#
# Stress axis : x y z
#
# Youngs Moduli (GPa) = 7.58061 37.66669 152.22597
#
# Poissons Ratio (x) = -1.34533 0.72827
# Poissons Ratio (y) = -0.27075 0.95144
# Poissons Ratio (z) = 0.03627 0.23542
#
# Static dielectric constant tensor:
#      x y z
#    x 1.741550 0.000000 0.000000 
#    y 0.000000 1.683250 0.000000 
#    z 0.000000 0.000000 1.784190 
# 
# From -- ./inp_files/11931.got.cif
#   From: 2010.05.17/outbox.cif.g08.bks.cpg/sg35_6_cif.got.tgz:11931.got - 2010.06.03 17:29:28.
