data_PCOD9349842
_publ_section_title
;
Structure prediction by ZEFSAII (Michael W. Deem and Ramdas Pophale) SiO2 
 PCOD9349842
Probable space group: C M M 2
;
_chemical_formula_sum "Si O2"
_cell_formula_units_Z 38
_cell_length_a 33.652229
_cell_length_b 10.705278
_cell_length_c 4.919511
_cell_angle_alpha 90.000000
_cell_angle_beta 90.000000
_cell_angle_gamma 90.000000
_cell_volume 1772.285651
_symmetry_space_group_name_H-M "C M M 2"
_symmetry_group_IT_number 35
_symmetry_cell_setting 'orthorhombic'
loop_
_space_group_symop_operation_xyz
x,y,z
-x,-y,z
-x,y,z
x,-y,z
1/2+x,1/2+y,z
1/2-x,1/2-y,z
1/2-x,1/2+y,z
1/2+x,1/2-y,z
loop_
_atom_site_type_symbol
_atom_site_label
_atom_site_fract_x
_atom_site_fract_y
_atom_site_fract_z
Si Si1 0.217517 0.356728 0.887610
Si Si2 0.500000 0.000000 0.328609
Si Si3 0.837087 0.356305 0.382404
Si Si4 0.938723 0.500000 0.829730
Si Si5 0.954733 0.143775 0.132403
Si Si6 0.910943 0.246516 0.638595
O O1 0.231342 0.500000 0.942496
O O2 0.250000 0.250000 0.930507
O O3 0.200575 0.352534 0.583321
O O4 0.179920 0.333290 0.084062
O O5 0.466230 0.000000 0.566697
O O6 0.465421 0.000000 0.093670
O O7 0.853176 0.500000 0.390130
O O8 0.868718 0.255533 0.488892
O O9 0.913530 0.375587 0.803253
O O10 0.941571 0.226545 0.388834
O O11 0.000000 0.180135 0.049833
O O12 0.955269 0.000000 0.224298
O O13 0.925304 0.153622 0.875619
#
# Coordination Sequence:
#
# PCOD9349842 Si02
#       6
#     8   2   8   4   8   8
#     4  10  21  39  65  90 126 161 202 242 302 371
#     4  10  24  34  48  86 130 150 180 254 304 368
#     4  10  21  40  60  92 125 158 189 244 313 373
#     4  11  24  36  58  92 124 148 198 248 334 348
#     4  11  26  44  61  82 118 172 219 257 304 359
#     4  12  23  40  65  89 121 157 205 255 308 378
#
# _framework density 21.441241999999999
#
# number of rings (size 3 to 8) (size 9 to 14) (size 15 to 20)
#    0.000    1.263    1.053    4.421    8.842    1.684 
#    0.000    6.316    0.000    0.000    0.000    0.000 
#    0.000    0.000    0.000    0.000    0.000    0.000 
#
# Total GULP energy -105874.772811 kJ/mol
# GULP energy per Si atom -5572.356464 kJ/mol
# Density = 2.139244 g / cm^3
# Si number density = 21.441242 Si / 1000 Ang^3
#
#
#
# Elastic Constant Matrix: (Units=GPa)
#
#
# Indices 1 2 3 4 5 6 
#
# 1 61.2188 31.3389 -6.1804 0.0000 0.0000 0.0000
# 2 31.3389 82.5539 -0.5969 0.0000 0.0000 0.0000
# 3 -6.1804 -0.5969 97.9067 0.0000 0.0000 0.0000
# 4 0.0000 0.0000 0.0000 27.4255 0.0000 0.0000
# 5 0.0000 0.0000 0.0000 0.0000 21.4469 0.0000
# 6 0.0000 0.0000 0.0000 0.0000 0.0000 29.7674
#
#
#
# Elastic Compliance Matrix: (Units=1/GPa)
#
#
# Indices 1 2 3 4 5 6 
#
# 1 0.020425 -0.007745 0.001242 0.000000 0.000000 0.000000
# 2 -0.007745 0.015050 -0.000397 0.000000 0.000000 0.000000
# 3 0.001242 -0.000397 0.010290 0.000000 0.000000 0.000000
# 4 0.000000 0.000000 0.000000 0.036462 0.000000 0.000000
# 5 0.000000 0.000000 0.000000 0.000000 0.046627 0.000000
# 6 0.000000 0.000000 0.000000 0.000000 0.000000 0.033594
#
#
# Mechanical properties :
#
#
# Convention : Reuss Voigt Hill
#
# Bulk Modulus (GPa) = 31.28346 32.31138 31.79742
# Shear Modulus (GPa) = 26.75189 30.20249 28.47719
#
# Velocity S-wave (km/s) = 3.53609 3.75723 3.64833
# Velocity P-wave (km/s) = 5.59409 5.82450 5.71046
#
# Compressibility (1/GPa) = 0.03196577
#
# Stress axis : x y z
#
# Youngs Moduli (GPa) = 48.95990 66.44328 97.18365
#
# Poissons Ratio (x) = 0.51458 -0.12071
# Poissons Ratio (y) = 0.37918 0.03859
# Poissons Ratio (z) = -0.06081 0.02639
#
# Static dielectric constant tensor:
#      x y z
#    x 1.782200 0.000000 0.000000 
#    y 0.000000 1.818850 0.000000 
#    z 0.000000 0.000000 1.733760 
# 
# From -- ./inp_files/3942.got.cif
#   From: 2010.05.17/outbox.cif.g08.bks.cpg/sg35_2_cif.got.tgz:3942.got - 2010.06.03 17:29:28.
