data_PCOD9349240
_publ_section_title
;
Structure prediction by ZEFSAII (Michael W. Deem and Ramdas Pophale) SiO2 
 PCOD9349240
Probable space group: C M M 2
;
_chemical_formula_sum "Si O2"
_cell_formula_units_Z 64
_cell_length_a 12.154892
_cell_length_b 29.497797
_cell_length_c 8.418416
_cell_angle_alpha 90.000000
_cell_angle_beta 90.000000
_cell_angle_gamma 90.000000
_cell_volume 3018.360228
_symmetry_space_group_name_H-M "C M M 2"
_symmetry_group_IT_number 35
_symmetry_cell_setting 'orthorhombic'
loop_
_space_group_symop_operation_xyz
x,y,z
-x,-y,z
-x,y,z
x,-y,z
1/2+x,1/2+y,z
1/2-x,1/2-y,z
1/2-x,1/2+y,z
1/2+x,1/2-y,z
loop_
_atom_site_type_symbol
_atom_site_label
_atom_site_fract_x
_atom_site_fract_y
_atom_site_fract_z
Si Si1 0.789758 0.948004 0.950670
Si Si2 0.378537 0.641318 0.061146
Si Si3 0.292548 0.622252 0.396352
Si Si4 0.879214 0.269309 0.241554
Si Si5 0.692414 0.200696 0.918657
Si Si6 0.622018 0.551801 0.624137
Si Si7 0.187069 0.701732 0.571655
Si Si8 0.369899 0.052637 0.230107
O O1 0.790198 0.938401 0.762849
O O2 0.826472 0.000000 0.966751
O O3 0.869972 0.912168 0.031343
O O4 0.677592 0.943147 0.050602
O O5 0.500000 0.658094 0.026592
O O6 0.344462 0.647410 0.244543
O O7 0.289558 0.665002 0.949447
O O8 0.369943 0.585724 0.479191
O O9 0.264796 0.659635 0.527952
O O10 0.191421 0.591244 0.332458
O O11 0.750000 0.250000 0.241389
O O12 0.882540 0.294372 0.410465
O O13 0.000000 0.244091 0.234628
O O14 0.877407 0.298707 0.080233
O O15 0.750000 0.250000 0.912622
O O16 0.637947 0.193855 0.746780
O O17 0.500000 0.555540 0.697312
O O18 0.636588 0.500000 0.571130
O O19 0.250000 0.750000 0.581285
O O20 0.500000 0.058617 0.235388
O O21 0.345097 0.000000 0.279850
#
# Coordination Sequence:
#
# PCOD9349240 Si02
#       8
#     8   8   8   8   8   8   8   8
#     4   9  19  36  58  86 122 163 209 265 325 391
#     4  11  22  37  61  94 129 169 221 271 327 398
#     4  11  21  37  59  89 126 167 215 263 326 391
#     4  10  22  43  68  98 130 169 215 272 331 395
#     4  10  22  42  64  91 127 175 219 272 328 385
#     4  10  20  35  57  89 129 167 204 256 324 393
#     4  10  22  42  63  91 130 171 220 270 330 390
#     4   9  19  37  60  84 114 158 210 266 324 382
#
# _framework density 21.203565999999999
#
# number of rings (size 3 to 8) (size 9 to 14) (size 15 to 20)
#    0.000    2.000    1.250    1.875    0.000    4.250 
#    0.000    6.875    0.000    3.750    0.000    0.000 
#    0.000    0.000    0.000    0.000    0.000    0.000 
#
# Total GULP energy -178162.958844 kJ/mol
# GULP energy per Si atom -5567.592464 kJ/mol
# Density = 2.115531 g / cm^3
# Si number density = 21.203566 Si / 1000 Ang^3
#
#
#
# Elastic Constant Matrix: (Units=GPa)
#
#
# Indices 1 2 3 4 5 6 
#
# 1 108.9257 27.8901 26.6461 0.0000 0.0000 0.0000
# 2 27.8901 75.4737 25.5887 0.0000 0.0000 0.0000
# 3 26.6461 25.5887 153.6736 0.0000 0.0000 0.0000
# 4 0.0000 0.0000 0.0000 -79.2417 0.0000 0.0000
# 5 0.0000 0.0000 0.0000 0.0000 26.2897 0.0000
# 6 0.0000 0.0000 0.0000 0.0000 0.0000 27.3260
#
#
#
# Elastic Compliance Matrix: (Units=1/GPa)
#
#
# Indices 1 2 3 4 5 6 
#
# 1 0.010354 -0.003410 -0.001228 0.000000 0.000000 0.000000
# 2 -0.003410 0.015165 -0.001934 0.000000 0.000000 0.000000
# 3 -0.001228 -0.001934 0.007042 0.000000 0.000000 0.000000
# 4 0.000000 0.000000 0.000000 -0.012620 0.000000 0.000000
# 5 0.000000 0.000000 0.000000 0.000000 0.038038 0.000000
# 6 0.000000 0.000000 0.000000 0.000000 0.000000 0.036595
#
#
# Mechanical properties :
#
#
# Convention : Reuss Voigt Hill
#
# Bulk Modulus (GPa) = 51.49685 55.36920 53.43302
# Shear Modulus (GPa) = 43.78638 12.07132 27.92885
#
# Velocity S-wave (km/s) = 4.54921 2.38860 3.63323
# Velocity P-wave (km/s) = 7.20648 5.81180 6.54639
#
# Compressibility (1/GPa) = 0.01941866
#
# Stress axis : x y z
#
# Youngs Moduli (GPa) = 96.58137 65.93938 142.00153
#
# Poissons Ratio (x) = 0.22485 0.17431
# Poissons Ratio (y) = 0.32934 0.27463
# Poissons Ratio (z) = 0.11855 0.12753
#
# Static dielectric constant tensor:
#      x y z
#    x 1.619070 0.000000 0.000000 
#    y 0.000000 1.830220 0.000000 
#    z 0.000000 0.000000 1.795440 
# 
# From -- ./inp_files/6559.got.cif
#   From: 2010.05.17/outbox.cif.g08.bks.cpg/sg35_4_cif.got.tgz:6559.got - 2010.06.03 17:29:28.
