data_PCOD9349072
_publ_section_title
;
Structure prediction by ZEFSAII (Michael W. Deem and Ramdas Pophale) SiO2 
 PCOD9349072
Probable space group: C M M 2
;
_chemical_formula_sum "Si O2"
_cell_formula_units_Z 56
_cell_length_a 8.843256
_cell_length_b 18.736458
_cell_length_c 18.623231
_cell_angle_alpha 90.000000
_cell_angle_beta 90.000000
_cell_angle_gamma 90.000000
_cell_volume 3085.707255
_symmetry_space_group_name_H-M "C M M 2"
_symmetry_group_IT_number 35
_symmetry_cell_setting 'orthorhombic'
loop_
_space_group_symop_operation_xyz
x,y,z
-x,-y,z
-x,y,z
x,-y,z
1/2+x,1/2+y,z
1/2-x,1/2-y,z
1/2-x,1/2+y,z
1/2+x,1/2-y,z
loop_
_atom_site_type_symbol
_atom_site_label
_atom_site_fract_x
_atom_site_fract_y
_atom_site_fract_z
Si Si1 0.180917 0.170309 0.371730
Si Si2 0.681228 0.171398 0.803936
Si Si3 0.317640 0.082831 0.662095
Si Si4 0.180906 0.829547 0.531386
Si Si5 0.817846 0.083507 0.934120
Si Si6 0.320622 0.170813 0.226928
Si Si7 0.678316 0.585407 0.098063
O O1 0.250000 0.250000 0.373693
O O2 0.215310 0.140812 0.451123
O O3 0.253101 0.137140 0.300408
O O4 0.000000 0.173598 0.363438
O O5 0.500000 0.175828 0.805767
O O6 0.750000 0.250000 0.798562
O O7 0.726006 0.125013 0.734261
O O8 0.740206 0.132100 0.875012
O O9 0.500000 0.086093 0.656249
O O10 0.246155 0.121015 0.593427
O O11 0.273057 0.000000 0.666749
O O12 0.250000 0.750000 0.537745
O O13 0.000000 0.823828 0.537508
O O14 0.000000 0.088825 0.928107
O O15 0.777721 0.000000 0.923516
O O16 0.778046 0.103802 0.016095
O O17 0.500000 0.176678 0.233377
O O18 0.250000 0.250000 0.219663
O O19 0.272823 0.125653 0.157978
O O20 0.500000 0.602447 0.107253
O O21 0.694021 0.500000 0.105062
#
# Coordination Sequence:
#
# PCOD9349072 Si02
#       7
#     8   8   8   8   8   8   8
#     4   9  17  31  51  76 106 139 177 221 269 318
#     4  11  23  38  57  82 111 142 178 220 266 315
#     4  10  22  39  57  79 109 143 178 219 268 318
#     4  10  20  34  56  83 108 139 179 222 268 318
#     4   9  19  37  60  83 107 139 178 219 267 321
#     4  11  21  33  53  80 109 142 182 224 267 317
#     4   9  19  37  58  79 107 142 178 219 269 321
#
# _framework density 18.148188999999999
#
# number of rings (size 3 to 8) (size 9 to 14) (size 15 to 20)
#    0.000    2.143    0.000    5.143    0.000    6.571 
#    0.000    2.143    0.000    0.857    0.000    0.000 
#    0.000    0.000    0.000    0.000    0.000    0.000 
#
# Total GULP energy -156281.776647 kJ/mol
# GULP energy per Si atom -5581.492023 kJ/mol
# Density = 1.810688 g / cm^3
# Si number density = 18.148189 Si / 1000 Ang^3
#
#
#
# Elastic Constant Matrix: (Units=GPa)
#
#
# Indices 1 2 3 4 5 6 
#
# 1 74.3048 45.3779 76.9788 0.0000 0.0000 0.0000
# 2 45.3779 88.4802 89.3652 0.0000 0.0000 0.0000
# 3 76.9788 89.3652 191.9225 0.0000 0.0000 0.0000
# 4 0.0000 0.0000 0.0000 82.5140 0.0000 0.0000
# 5 0.0000 0.0000 0.0000 0.0000 14.7288 0.0000
# 6 0.0000 0.0000 0.0000 0.0000 0.0000 19.5420
#
#
#
# Elastic Compliance Matrix: (Units=1/GPa)
#
#
# Indices 1 2 3 4 5 6 
#
# 1 0.024102 -0.004903 -0.007384 0.000000 0.000000 0.000000
# 2 -0.004903 0.022333 -0.008433 0.000000 0.000000 0.000000
# 3 -0.007384 -0.008433 0.012099 0.000000 0.000000 0.000000
# 4 0.000000 0.000000 0.000000 0.012119 0.000000 0.000000
# 5 0.000000 0.000000 0.000000 0.000000 0.067894 0.000000
# 6 0.000000 0.000000 0.000000 0.000000 0.000000 0.051172
#
#
# Mechanical properties :
#
#
# Convention : Reuss Voigt Hill
#
# Bulk Modulus (GPa) = 58.49741 86.46125 72.47933
# Shear Modulus (GPa) = 21.10967 32.88931 26.99949
#
# Velocity S-wave (km/s) = 3.41425 4.26169 3.86129
# Velocity P-wave (km/s) = 6.91708 8.48300 7.73974
#
# Compressibility (1/GPa) = 0.01709477
#
# Stress axis : x y z
#
# Youngs Moduli (GPa) = 41.48961 44.77585 82.65321
#
# Poissons Ratio (x) = 0.21953 0.61034
# Poissons Ratio (y) = 0.20342 0.69698
# Poissons Ratio (z) = 0.30637 0.37758
#
# Static dielectric constant tensor:
#      x y z
#    x 1.606380 0.000000 0.000000 
#    y 0.000000 1.594350 0.000000 
#    z 0.000000 0.000000 1.636700 
# 
# From -- ./inp_files/15626.got.cif
#   From: 2010.05.17/outbox.cif.g08.bks.cpg/sg35_8_cif.got.tgz:15626.got - 2010.06.03 17:29:28.
