data_PCOD9349598
_publ_section_title
;
Structure prediction by ZEFSAII (Michael W. Deem and Ramdas Pophale) SiO2 
 PCOD9349598
Probable space group: C M M 2
;
_chemical_formula_sum "Si O2"
_cell_formula_units_Z 48
_cell_length_a 18.548570
_cell_length_b 7.790305
_cell_length_c 17.512993
_cell_angle_alpha 90.000000
_cell_angle_beta 90.000000
_cell_angle_gamma 90.000000
_cell_volume 2530.610284
_symmetry_space_group_name_H-M "C M M 2"
_symmetry_group_IT_number 35
_symmetry_cell_setting 'orthorhombic'
loop_
_space_group_symop_operation_xyz
x,y,z
-x,-y,z
-x,y,z
x,-y,z
1/2+x,1/2+y,z
1/2-x,1/2-y,z
1/2-x,1/2+y,z
1/2+x,1/2-y,z
loop_
_atom_site_type_symbol
_atom_site_label
_atom_site_fract_x
_atom_site_fract_y
_atom_site_fract_z
Si Si1 0.166141 0.294095 0.849630
Si Si2 0.831550 0.200028 0.549346
Si Si3 0.666081 0.194676 0.381103
Si Si4 0.917264 0.708041 0.699876
Si Si5 0.586725 0.500000 0.295270
Si Si6 0.586747 0.201698 0.004448
Si Si7 0.912668 0.000000 0.119089
O O1 0.159296 0.500000 0.848013
O O2 0.250000 0.250000 0.851964
O O3 0.128729 0.228694 0.772315
O O4 0.125022 0.239561 0.926380
O O5 0.750000 0.250000 0.571505
O O6 0.851172 0.297192 0.471577
O O7 0.882848 0.234233 0.620430
O O8 0.832005 0.000000 0.529418
O O9 0.750000 0.250000 0.374672
O O10 0.618217 0.332187 0.336741
O O11 0.656994 0.000000 0.353649
O O12 0.915852 0.500000 0.700420
O O13 0.000000 0.763117 0.706756
O O14 0.500000 0.500000 0.298916
O O15 0.610667 0.500000 0.206728
O O16 0.500000 0.212765 0.994791
O O17 0.608887 0.329672 0.072285
O O18 0.603786 0.000000 0.018851
O O19 0.000000 0.000000 0.120175
#
# Coordination Sequence:
#
# PCOD9349598 Si02
#       7
#     8   8   8   8   4   8   4
#     4  10  21  35  55  80 113 153 192 247 295 348
#     4  11  21  37  59  86 117 156 203 252 296 358
#     4  11  21  41  69  92 125 171 212 254 316 382
#     4  10  21  37  55  80 116 156 200 246 298 352
#     4  11  24  42  64  99 134 160 207 267 314 378
#     4   9  18  36  61  85 112 152 200 242 293 360
#     4   9  20  38  62  89 121 156 191 243 305 362
#
# _framework density 18.967758
#
# number of rings (size 3 to 8) (size 9 to 14) (size 15 to 20)
#    0.000    1.833    1.667    3.500    1.167    6.000 
#    0.000    2.500    0.000    0.000    0.000    0.000 
#    0.000    0.000    0.000    0.000    0.000    0.000 
#
# Total GULP energy -134043.681217 kJ/mol
# GULP energy per Si atom -5585.153384 kJ/mol
# Density = 1.892459 g / cm^3
# Si number density = 18.967758 Si / 1000 Ang^3
#
#
#
# Elastic Constant Matrix: (Units=GPa)
#
#
# Indices 1 2 3 4 5 6 
#
# 1 79.6510 36.0407 69.7039 0.0000 0.0000 0.0000
# 2 36.0407 109.4954 52.4641 0.0000 0.0000 0.0000
# 3 69.7039 52.4641 139.0284 0.0000 0.0000 0.0000
# 4 0.0000 0.0000 0.0000 37.1873 0.0000 0.0000
# 5 0.0000 0.0000 0.0000 0.0000 63.4670 0.0000
# 6 0.0000 0.0000 0.0000 0.0000 0.0000 18.0464
#
#
#
# Elastic Compliance Matrix: (Units=1/GPa)
#
#
# Indices 1 2 3 4 5 6 
#
# 1 0.022911 -0.002487 -0.010548 0.000000 0.000000 0.000000
# 2 -0.002487 0.011419 -0.003062 0.000000 0.000000 0.000000
# 3 -0.010548 -0.003062 0.013637 0.000000 0.000000 0.000000
# 4 0.000000 0.000000 0.000000 0.026891 0.000000 0.000000
# 5 0.000000 0.000000 0.000000 0.000000 0.015756 0.000000
# 6 0.000000 0.000000 0.000000 0.000000 0.000000 0.055413
#
#
# Mechanical properties :
#
#
# Convention : Reuss Voigt Hill
#
# Bulk Modulus (GPa) = 63.40463 71.62136 67.51299
# Shear Modulus (GPa) = 27.25119 35.07121 31.16120
#
# Velocity S-wave (km/s) = 3.79451 4.30465 4.05761
# Velocity P-wave (km/s) = 7.25933 7.90874 7.59099
#
# Compressibility (1/GPa) = 0.01577172
#
# Stress axis : x y z
#
# Youngs Moduli (GPa) = 43.64691 87.57654 73.33099
#
# Poissons Ratio (x) = 0.21781 0.77352
# Poissons Ratio (y) = 0.10855 0.22454
# Poissons Ratio (z) = 0.46040 0.26816
#
# Static dielectric constant tensor:
#      x y z
#    x 1.634600 0.000000 0.000000 
#    y 0.000000 1.677730 0.000000 
#    z 0.000000 0.000000 1.638410 
# 
# From -- ./inp_files/17131.got.cif
#   From: 2010.05.17/outbox.cif.g08.bks.cpg/sg35_9_cif.got.tgz:17131.got - 2010.06.03 17:29:28.
