data_PCOD9349787
_publ_section_title
;
Structure prediction by ZEFSAII (Michael W. Deem and Ramdas Pophale) SiO2 
 PCOD9349787
Probable space group: C M M 2
;
_chemical_formula_sum "Si O2"
_cell_formula_units_Z 40
_cell_length_a 16.103731
_cell_length_b 8.306169
_cell_length_c 14.976127
_cell_angle_alpha 90.000000
_cell_angle_beta 90.000000
_cell_angle_gamma 90.000000
_cell_volume 2003.211408
_symmetry_space_group_name_H-M "C M M 2"
_symmetry_group_IT_number 35
_symmetry_cell_setting 'orthorhombic'
loop_
_space_group_symop_operation_xyz
x,y,z
-x,-y,z
-x,y,z
x,-y,z
1/2+x,1/2+y,z
1/2-x,1/2-y,z
1/2-x,1/2+y,z
1/2+x,1/2-y,z
loop_
_atom_site_type_symbol
_atom_site_label
_atom_site_fract_x
_atom_site_fract_y
_atom_site_fract_z
Si Si1 0.500000 0.692741 0.834731
Si Si2 0.345289 0.806752 0.951807
Si Si3 0.162002 0.692356 0.524224
Si Si4 0.000000 0.192833 0.629745
Si Si5 0.344415 0.194445 0.151578
Si Si6 0.593523 0.195728 0.341342
O O1 0.500000 0.500000 0.834884
O O2 0.416161 0.749263 0.884406
O O3 0.500000 0.750135 0.732288
O O4 0.250000 0.750000 0.934944
O O5 0.343765 0.000000 0.950969
O O6 0.370870 0.751886 0.052549
O O7 0.161229 0.500000 0.522393
O O8 0.250000 0.750000 0.561075
O O9 0.151580 0.753040 0.421674
O O10 0.082724 0.748764 0.579887
O O11 0.000000 0.000000 0.629313
O O12 0.250000 0.250000 0.160767
O O13 0.389267 0.253775 0.241038
O O14 0.349630 0.000000 0.151536
O O15 0.500000 0.237469 0.367236
O O16 0.599211 0.000000 0.338418
#
# Coordination Sequence:
#
# PCOD9349787 Si02
#       6
#     4   8   8   4   8   8
#     4  11  25  43  64  87 116 152 195 251 306 357
#     4  10  21  38  62  91 122 159 199 242 293 349
#     4  11  22  39  64  91 121 159 197 241 295 350
#     4  11  25  45  64  87 116 150 197 251 304 359
#     4   9  18  32  54  81 116 155 194 235 279 338
#     4   9  17  31  54  84 119 157 196 236 282 340
#
# _framework density 19.967938
#
# number of rings (size 3 to 8) (size 9 to 14) (size 15 to 20)
#    0.000    2.000    1.000    2.400    1.400    3.200 
#    0.000    1.000    0.000    0.000    0.000    0.000 
#    0.000    0.000    0.000    0.000    0.000    0.000 
#
# Total GULP energy -111602.701375 kJ/mol
# GULP energy per Si atom -5580.135069 kJ/mol
# Density = 1.992249 g / cm^3
# Si number density = 19.967938 Si / 1000 Ang^3
#
#
#
# Elastic Constant Matrix: (Units=GPa)
#
#
# Indices 1 2 3 4 5 6 
#
# 1 144.7854 22.3901 93.4033 0.0000 0.0000 0.0000
# 2 22.3901 32.2312 28.7324 0.0000 0.0000 0.0000
# 3 93.4033 28.7324 151.2693 0.0000 0.0000 0.0000
# 4 0.0000 0.0000 0.0000 16.8713 0.0000 0.0000
# 5 0.0000 0.0000 0.0000 0.0000 17.8902 0.0000
# 6 0.0000 0.0000 0.0000 0.0000 0.0000 33.2532
#
#
#
# Elastic Compliance Matrix: (Units=1/GPa)
#
#
# Indices 1 2 3 4 5 6 
#
# 1 0.011587 -0.002012 -0.006772 0.000000 0.000000 0.000000
# 2 -0.002012 0.037699 -0.005918 0.000000 0.000000 0.000000
# 3 -0.006772 -0.005918 0.011917 0.000000 0.000000 0.000000
# 4 0.000000 0.000000 0.000000 0.059272 0.000000 0.000000
# 5 0.000000 0.000000 0.000000 0.000000 0.055896 0.000000
# 6 0.000000 0.000000 0.000000 0.000000 0.000000 0.030072
#
#
# Mechanical properties :
#
#
# Convention : Reuss Voigt Hill
#
# Bulk Modulus (GPa) = 31.44903 68.59307 50.02105
# Shear Modulus (GPa) = 20.28825 25.85361 23.07093
#
# Velocity S-wave (km/s) = 3.19100 3.60218 3.40280
# Velocity P-wave (km/s) = 5.41854 7.19215 6.36740
#
# Compressibility (1/GPa) = 0.03179749
#
# Stress axis : x y z
#
# Youngs Moduli (GPa) = 86.30506 26.52563 83.91708
#
# Poissons Ratio (x) = 0.05337 0.56831
# Poissons Ratio (y) = 0.17364 0.49666
# Poissons Ratio (z) = 0.58448 0.15699
#
# Static dielectric constant tensor:
#      x y z
#    x 1.670370 0.000000 0.000000 
#    y 0.000000 1.706820 0.000000 
#    z 0.000000 0.000000 1.741780 
# 
# From -- ./inp_files/14752.got.cif
#   From: 2010.05.17/outbox.cif.g08.bks.cpg/sg35_8_cif.got.tgz:14752.got - 2010.06.03 17:29:28.
