data_PCOD9349452
_publ_section_title
;
Structure prediction by ZEFSAII (Michael W. Deem and Ramdas Pophale) SiO2 
 PCOD9349452
Probable space group: C M M 2
;
_chemical_formula_sum "Si O2"
_cell_formula_units_Z 56
_cell_length_a 23.111659
_cell_length_b 8.533173
_cell_length_c 15.202735
_cell_angle_alpha 90.000000
_cell_angle_beta 90.000000
_cell_angle_gamma 90.000000
_cell_volume 2998.219311
_symmetry_space_group_name_H-M "C M M 2"
_symmetry_group_IT_number 35
_symmetry_cell_setting 'orthorhombic'
loop_
_space_group_symop_operation_xyz
x,y,z
-x,-y,z
-x,y,z
x,-y,z
1/2+x,1/2+y,z
1/2-x,1/2-y,z
1/2-x,1/2+y,z
1/2+x,1/2-y,z
loop_
_atom_site_type_symbol
_atom_site_label
_atom_site_fract_x
_atom_site_fract_y
_atom_site_fract_z
Si Si1 0.568296 0.187718 0.429580
Si Si2 0.393920 0.314596 0.618221
Si Si3 0.000000 0.320674 0.717392
Si Si4 0.815989 0.690087 0.319926
Si Si5 0.685675 0.310396 0.771199
Si Si6 0.186877 0.313518 0.118255
Si Si7 0.000000 0.322176 0.926326
Si Si8 0.877199 0.814990 0.949917
O O1 0.500000 0.242805 0.414920
O O2 0.588061 0.231182 0.528278
O O3 0.625035 0.240536 0.371892
O O4 0.565686 0.000000 0.419516
O O5 0.389016 0.500000 0.601077
O O6 0.445499 0.276236 0.684763
O O7 0.339132 0.259107 0.675930
O O8 0.000000 0.332030 0.821182
O O9 0.000000 0.500000 0.681331
O O10 0.813091 0.500000 0.326036
O O11 0.750000 0.750000 0.344585
O O12 0.826361 0.738519 0.218168
O O13 0.683549 0.500000 0.770546
O O14 0.750000 0.250000 0.782179
O O15 0.649684 0.255500 0.857103
O O16 0.186600 0.500000 0.119785
O O17 0.250000 0.250000 0.098098
O O18 0.148652 0.256577 0.038093
O O19 0.943726 0.228556 0.952027
O O20 0.000000 0.500000 0.961694
O O21 0.867453 0.000000 0.951427
#
# Coordination Sequence:
#
# PCOD9349452 Si02
#       8
#     8   8   4   8   8   8   4   8
#     4  10  21  38  60  87 116 151 195 242 296 354
#     4  11  22  37  57  82 113 150 189 233 282 335
#     4  11  21  35  57  82 107 146 191 231 272 328
#     4   9  20  39  62  87 117 153 193 243 299 356
#     4  10  23  38  54  79 113 152 190 232 282 331
#     4  10  20  37  60  87 114 150 195 238 289 348
#     4  11  23  37  57  84 113 152 197 239 282 342
#     4  11  22  38  58  83 117 155 190 238 291 340
#
# _framework density 18.677752999999999
#
# number of rings (size 3 to 8) (size 9 to 14) (size 15 to 20)
#    0.000    1.714    2.143    2.143    0.000    5.714 
#    1.286    2.857    0.000    0.000    0.000    0.000 
#    0.000    0.000    0.000    0.000    0.000    0.000 
#
# Total GULP energy -155977.240164 kJ/mol
# GULP energy per Si atom -5570.615720 kJ/mol
# Density = 1.863524 g / cm^3
# Si number density = 18.677753 Si / 1000 Ang^3
#
#
#
# Elastic Constant Matrix: (Units=GPa)
#
#
# Indices 1 2 3 4 5 6 
#
# 1 156.4118 7.1399 80.4194 0.0000 0.0000 0.0000
# 2 7.1399 4.8917 9.4123 0.0000 0.0000 0.0000
# 3 80.4194 9.4123 95.0264 0.0000 0.0000 0.0000
# 4 0.0000 0.0000 0.0000 23.3918 0.0000 0.0000
# 5 0.0000 0.0000 0.0000 0.0000 24.4997 0.0000
# 6 0.0000 0.0000 0.0000 0.0000 0.0000 27.3122
#
#
#
# Elastic Compliance Matrix: (Units=1/GPa)
#
#
# Indices 1 2 3 4 5 6 
#
# 1 0.011340 0.002364 -0.009831 0.000000 0.000000 0.000000
# 2 0.002364 0.253053 -0.027066 0.000000 0.000000 0.000000
# 3 -0.009831 -0.027066 0.021524 0.000000 0.000000 0.000000
# 4 0.000000 0.000000 0.000000 0.042750 0.000000 0.000000
# 5 0.000000 0.000000 0.000000 0.000000 0.040817 0.000000
# 6 0.000000 0.000000 0.000000 0.000000 0.000000 0.036614
#
#
# Mechanical properties :
#
#
# Convention : Reuss Voigt Hill
#
# Bulk Modulus (GPa) = 4.61143 50.03034 27.32088
# Shear Modulus (GPa) = 9.13330 25.66463 17.39897
#
# Velocity S-wave (km/s) = 2.21372 3.71087 3.05542
# Velocity P-wave (km/s) = 3.00139 6.72347 5.20641
#
# Compressibility (1/GPa) = 0.21685269
#
# Stress axis : x y z
#
# Youngs Moduli (GPa) = 88.18193 3.95174 46.45928
#
# Poissons Ratio (x) = -0.00934 0.45675
# Poissons Ratio (y) = -0.20850 1.25745
# Poissons Ratio (z) = 0.86694 0.10696
#
# Static dielectric constant tensor:
#      x y z
#    x 1.672800 0.000000 0.000000 
#    y 0.000000 1.656910 0.000000 
#    z 0.000000 0.000000 1.659440 
# 
# From -- ./inp_files/15662.got.cif
#   From: 2010.05.17/outbox.cif.g08.bks.cpg/sg35_8_cif.got.tgz:15662.got - 2010.06.03 17:29:28.
