data_PCOD9349896
_publ_section_title
;
Structure prediction by ZEFSAII (Michael W. Deem and Ramdas Pophale) SiO2 
 PCOD9349896
Probable space group: C M M 2
;
_chemical_formula_sum "Si O2"
_cell_formula_units_Z 40
_cell_length_a 14.405412
_cell_length_b 29.932405
_cell_length_c 4.981294
_cell_angle_alpha 90.000000
_cell_angle_beta 90.000000
_cell_angle_gamma 90.000000
_cell_volume 2147.877316
_symmetry_space_group_name_H-M "C M M 2"
_symmetry_group_IT_number 35
_symmetry_cell_setting 'orthorhombic'
loop_
_space_group_symop_operation_xyz
x,y,z
-x,-y,z
-x,y,z
x,-y,z
1/2+x,1/2+y,z
1/2-x,1/2-y,z
1/2-x,1/2+y,z
1/2+x,1/2-y,z
loop_
_atom_site_type_symbol
_atom_site_label
_atom_site_fract_x
_atom_site_fract_y
_atom_site_fract_z
Si Si1 0.106330 0.790319 0.441870
Si Si2 0.832872 0.394866 0.715245
Si Si3 0.602939 0.799237 0.694680
Si Si4 0.893029 0.447685 0.233320
Si Si5 0.287156 0.677772 0.943813
O O1 0.115363 0.736601 0.458748
O O2 0.134654 0.805093 0.740508
O O3 0.000000 0.801292 0.378741
O O4 0.176163 0.814283 0.239964
O O5 0.888953 0.351045 0.611717
O O6 0.826926 0.427234 0.462042
O O7 0.741992 0.372020 0.848868
O O8 0.882079 0.420566 0.957935
O O9 0.500000 0.791166 0.810144
O O10 0.691078 0.795464 0.890526
O O11 0.874693 0.500000 0.188101
O O12 0.000000 0.443401 0.328487
#
# Coordination Sequence:
#
# PCOD9349896 Si02
#       5
#     8   8   8   8   8
#     4  11  22  40  58  81 111 155 203 245 292 331
#     4  10  22  37  56  82 120 151 202 228 287 337
#     4   9  21  36  59  82 115 158 194 233 282 342
#     4  11  21  35  56  84 119 158 193 231 281 349
#     4  10  23  38  56  84 115 150 200 244 285 333
#
# _framework density 18.623038000000001
#
# number of rings (size 3 to 8) (size 9 to 14) (size 15 to 20)
#    1.200    0.600    0.000    4.800    0.000    6.400 
#    0.000    5.000    0.000    1.200    0.000    0.000 
#    0.000   56.000    0.000    0.000    0.000    0.000 
#
# Total GULP energy -111498.394556 kJ/mol
# GULP energy per Si atom -5574.919728 kJ/mol
# Density = 1.858065 g / cm^3
# Si number density = 18.623038 Si / 1000 Ang^3
#
#
#
# Elastic Constant Matrix: (Units=GPa)
#
#
# Indices 1 2 3 4 5 6 
#
# 1 62.2829 11.1014 -15.2106 0.0000 0.0000 0.0000
# 2 11.1014 107.2299 14.4883 0.0000 0.0000 0.0000
# 3 -15.2106 14.4883 40.0009 0.0000 0.0000 0.0000
# 4 0.0000 0.0000 0.0000 19.4037 0.0000 0.0000
# 5 0.0000 0.0000 0.0000 0.0000 12.6986 0.0000
# 6 0.0000 0.0000 0.0000 0.0000 0.0000 14.7069
#
#
#
# Elastic Compliance Matrix: (Units=1/GPa)
#
#
# Indices 1 2 3 4 5 6 
#
# 1 0.018590 -0.003028 0.008166 0.000000 0.000000 0.000000
# 2 -0.003028 0.010299 -0.004882 0.000000 0.000000 0.000000
# 3 0.008166 -0.004882 0.029873 0.000000 0.000000 0.000000
# 4 0.000000 0.000000 0.000000 0.051537 0.000000 0.000000
# 5 0.000000 0.000000 0.000000 0.000000 0.078749 0.000000
# 6 0.000000 0.000000 0.000000 0.000000 0.000000 0.067995
#
#
# Mechanical properties :
#
#
# Convention : Reuss Voigt Hill
#
# Bulk Modulus (GPa) = 16.87105 25.58577 21.22841
# Shear Modulus (GPa) = 18.09713 22.63748 20.36730
#
# Velocity S-wave (km/s) = 3.12069 3.49028 3.31064
# Velocity P-wave (km/s) = 4.69722 5.47826 5.10270
#
# Compressibility (1/GPa) = 0.05927314
#
# Stress axis : x y z
#
# Youngs Moduli (GPa) = 53.79344 97.09867 33.47554
#
# Poissons Ratio (x) = 0.29400 -0.27334
# Poissons Ratio (y) = 0.16288 0.16341
# Poissons Ratio (z) = -0.43925 0.47400
#
# Static dielectric constant tensor:
#      x y z
#    x 1.655870 0.000000 0.000000 
#    y 0.000000 1.672960 0.000000 
#    z 0.000000 0.000000 1.644070 
# 
# From -- ./inp_files/1984.got.cif
#   From: 2010.05.17/outbox.cif.g08.bks.cpg/sg35_1_cif.got.tgz:1984.got - 2010.06.03 17:29:28.
