data_PCOD9349562
_publ_section_title
;
Structure prediction by ZEFSAII (Michael W. Deem and Ramdas Pophale) SiO2 
 PCOD9349562
Probable space group: C M M 2
;
_chemical_formula_sum "Si O2"
_cell_formula_units_Z 64
_cell_length_a 7.525506
_cell_length_b 28.577767
_cell_length_c 13.669278
_cell_angle_alpha 90.000000
_cell_angle_beta 90.000000
_cell_angle_gamma 90.000000
_cell_volume 2939.744412
_symmetry_space_group_name_H-M "C M M 2"
_symmetry_group_IT_number 35
_symmetry_cell_setting 'orthorhombic'
loop_
_space_group_symop_operation_xyz
x,y,z
-x,-y,z
-x,y,z
x,-y,z
1/2+x,1/2+y,z
1/2-x,1/2-y,z
1/2-x,1/2+y,z
1/2+x,1/2-y,z
loop_
_atom_site_type_symbol
_atom_site_label
_atom_site_fract_x
_atom_site_fract_y
_atom_site_fract_z
Si Si1 0.793194 0.556830 0.566260
Si Si2 0.206775 0.947786 0.783267
Si Si3 0.785744 0.446646 0.353576
Si Si4 0.786834 0.194936 0.062379
Si Si5 0.718727 0.646037 0.863950
Si Si6 0.713177 0.305422 0.453503
Si Si7 0.788894 0.145849 0.258225
Si Si8 0.712507 0.305228 0.665893
O O1 0.780346 0.500000 0.562393
O O2 0.712575 0.570048 0.670451
O O3 0.718598 0.571248 0.460420
O O4 0.000000 0.569198 0.571431
O O5 0.279560 0.907583 0.852926
O O6 0.000000 0.952286 0.807740
O O7 0.286692 0.000000 0.787284
O O8 0.724841 0.500000 0.336916
O O9 0.737745 0.409443 0.271365
O O10 0.000000 0.448247 0.361340
O O11 0.750000 0.250000 0.066704
O O12 0.717661 0.168633 0.159068
O O13 0.000000 0.189280 0.061290
O O14 0.721049 0.172067 0.961550
O O15 0.500000 0.646566 0.863683
O O16 0.779844 0.671598 0.764921
O O17 0.500000 0.311397 0.454725
O O18 0.750000 0.250000 0.446576
O O19 0.785411 0.330486 0.357035
O O20 0.781020 0.322316 0.559872
O O21 0.000000 0.154827 0.258168
O O22 0.500000 0.311795 0.665040
O O23 0.750000 0.250000 0.670024
#
# Coordination Sequence:
#
# PCOD9349562 Si02
#       8
#     8   8   8   8   8   8   8   8
#     4   8  15  29  47  69 101 137 168 204 250 295
#     4   9  17  29  48  74 101 134 175 211 249 303
#     4   9  19  35  53  75 106 142 177 212 254 307
#     4  10  21  38  57  78 103 134 174 220 266 312
#     4   9  18  32  51  73 101 134 169 211 258 302
#     4   9  18  31  47  70 100 131 164 206 258 312
#     4  10  21  34  52  78 105 134 172 216 263 309
#     4   9  17  30  47  67  95 128 160 201 252 303
#
# _framework density 21.770600999999999
#
# number of rings (size 3 to 8) (size 9 to 14) (size 15 to 20)
#    0.000    2.875    0.000    1.500    1.750    1.750 
#    0.000    3.125    0.000    2.250    0.000    1.750 
#    0.000    0.000    0.000    0.000    0.000    0.000 
#
# Total GULP energy -178599.743979 kJ/mol
# GULP energy per Si atom -5581.241999 kJ/mol
# Density = 2.172105 g / cm^3
# Si number density = 21.770601 Si / 1000 Ang^3
#
#
#
# Elastic Constant Matrix: (Units=GPa)
#
#
# Indices 1 2 3 4 5 6 
#
# 1 56.1475 -7.0036 12.1102 0.0000 0.0000 0.0000
# 2 -7.0036 129.3434 110.5250 0.0000 0.0000 0.0000
# 3 12.1102 110.5250 189.4624 0.0000 0.0000 0.0000
# 4 0.0000 0.0000 0.0000 43.6618 0.0000 0.0000
# 5 0.0000 0.0000 0.0000 0.0000 -1.1253 0.0000
# 6 0.0000 0.0000 0.0000 0.0000 0.0000 15.9960
#
#
#
# Elastic Compliance Matrix: (Units=1/GPa)
#
#
# Indices 1 2 3 4 5 6 
#
# 1 0.019112 0.004145 -0.003640 0.000000 0.000000 0.000000
# 2 0.004145 0.016315 -0.009783 0.000000 0.000000 0.000000
# 3 -0.003640 -0.009783 0.011217 0.000000 0.000000 0.000000
# 4 0.000000 0.000000 0.000000 0.022903 0.000000 0.000000
# 5 0.000000 0.000000 0.000000 0.000000 -0.888669 0.000000
# 6 0.000000 0.000000 0.000000 0.000000 0.000000 0.062516
#
#
# Mechanical properties :
#
#
# Convention : Reuss Voigt Hill
#
# Bulk Modulus (GPa) = 35.59930 67.35740 51.47835
# Shear Modulus (GPa) = -6.86165 28.99462 11.06648
#
# Velocity S-wave (km/s) = -1.77726 3.65338 2.25705
# Velocity P-wave (km/s) = 3.48941 6.98591 5.52173
#
# Compressibility (1/GPa) = 0.02809044
#
# Stress axis : x y z
#
# Youngs Moduli (GPa) = 52.32238 61.29318 89.14666
#
# Poissons Ratio (x) = -0.25406 0.32446
# Poissons Ratio (y) = -0.21688 0.87208
# Poissons Ratio (z) = 0.19044 0.59960
#
# Static dielectric constant tensor:
#      x y z
#    x 1.808200 0.000000 0.000000 
#    y 0.000000 1.810780 0.000000 
#    z 0.000000 0.000000 1.796880 
# 
# From -- ./inp_files/11863.got.cif
#   From: 2010.05.17/outbox.cif.g08.bks.cpg/sg35_6_cif.got.tgz:11863.got - 2010.06.03 17:29:28.
