data_PCOD9349942
_publ_section_title
;
Structure prediction by ZEFSAII (Michael W. Deem and Ramdas Pophale) SiO2 
 PCOD9349942
Probable space group: C M M 2
;
_chemical_formula_sum "Si O2"
_cell_formula_units_Z 58
_cell_length_a 26.895923
_cell_length_b 17.489452
_cell_length_c 5.430274
_cell_angle_alpha 90.000000
_cell_angle_beta 90.000000
_cell_angle_gamma 90.000000
_cell_volume 2554.373490
_symmetry_space_group_name_H-M "C M M 2"
_symmetry_group_IT_number 35
_symmetry_cell_setting 'orthorhombic'
loop_
_space_group_symop_operation_xyz
x,y,z
-x,-y,z
-x,y,z
x,-y,z
1/2+x,1/2+y,z
1/2-x,1/2-y,z
1/2-x,1/2+y,z
1/2+x,1/2-y,z
loop_
_atom_site_type_symbol
_atom_site_label
_atom_site_fract_x
_atom_site_fract_y
_atom_site_fract_z
Si Si1 0.059464 0.212562 0.143360
Si Si2 0.578883 0.123698 0.400341
Si Si3 0.824706 0.583500 0.159650
Si Si4 0.121833 0.302219 0.794574
Si Si5 0.000000 0.500000 0.255856
Si Si6 0.801133 0.090683 0.810766
Si Si7 0.221398 0.322670 0.530340
Si Si8 0.363527 0.409241 0.307104
O O1 0.069178 0.291957 0.290237
O O2 0.087394 0.143040 0.278325
O O3 0.000000 0.202063 0.109196
O O4 0.091886 0.230358 0.896959
O O5 0.631457 0.082902 0.360226
O O6 0.579341 0.140555 0.690902
O O7 0.541690 0.066493 0.279924
O O8 0.818649 0.500000 0.046305
O O9 0.779378 0.611948 0.323395
O O10 0.846616 0.650025 0.991186
O O11 0.166011 0.290970 0.596136
O O12 0.752130 0.141715 0.758832
O O13 0.835800 0.103395 0.568332
O O14 0.789060 0.000000 0.814566
O O15 0.828829 0.108696 0.067749
O O16 0.250000 0.250000 0.431672
O O17 0.375156 0.500000 0.292443
#
# Coordination Sequence:
#
# PCOD9349942 Si02
#       8
#     8   8   8   8   2   8   8   8
#     4  11  24  43  69  98 135 180 228 287 354 419
#     4  10  23  41  61  91 128 173 219 282 331 408
#     4  10  22  40  60  87 125 164 215 275 336 391
#     4  10  25  41  61  94 130 173 223 282 343 408
#     4  12  20  40  70  88 134 174 240 268 346 420
#     4  10  23  44  70 101 140 182 233 285 354 416
#     4  11  24  39  64  93 128 175 221 278 338 420
#     4  10  24  45  72 104 141 183 231 295 352 423
#
# _framework density 22.706154999999999
#
# number of rings (size 3 to 8) (size 9 to 14) (size 15 to 20)
#    0.000    1.655    1.379    1.241   11.586    1.931 
#    0.000    2.759    0.000    2.483    0.000    0.000 
#    0.000    0.000    0.000    0.000    0.000    0.000 
#
# Total GULP energy -161468.371565 kJ/mol
# GULP energy per Si atom -5567.874882 kJ/mol
# Density = 2.265448 g / cm^3
# Si number density = 22.706155 Si / 1000 Ang^3
#
#
#
# Elastic Constant Matrix: (Units=GPa)
#
#
# Indices 1 2 3 4 5 6 
#
# 1 121.7681 54.5522 29.5514 0.0000 0.0000 0.0000
# 2 54.5522 88.2563 6.7564 0.0000 0.0000 0.0000
# 3 29.5514 6.7564 70.9109 0.0000 0.0000 0.0000
# 4 0.0000 0.0000 0.0000 3.4633 0.0000 0.0000
# 5 0.0000 0.0000 0.0000 0.0000 22.4068 0.0000
# 6 0.0000 0.0000 0.0000 0.0000 0.0000 37.2920
#
#
#
# Elastic Compliance Matrix: (Units=1/GPa)
#
#
# Indices 1 2 3 4 5 6 
#
# 1 0.012674 -0.007484 -0.004569 0.000000 0.000000 0.000000
# 2 -0.007484 0.015833 0.001610 0.000000 0.000000 0.000000
# 3 -0.004569 0.001610 0.015853 0.000000 0.000000 0.000000
# 4 0.000000 0.000000 0.000000 0.288742 0.000000 0.000000
# 5 0.000000 0.000000 0.000000 0.000000 0.044629 0.000000
# 6 0.000000 0.000000 0.000000 0.000000 0.000000 0.026815
#
#
# Mechanical properties :
#
#
# Convention : Reuss Voigt Hill
#
# Bulk Modulus (GPa) = 42.59828 51.40614 47.00221
# Shear Modulus (GPa) = 11.54050 25.30410 18.42230
#
# Velocity S-wave (km/s) = 2.25690 3.34191 2.85148
# Velocity P-wave (km/s) = 5.05894 6.13025 5.62018
#
# Compressibility (1/GPa) = 0.02347513
#
# Stress axis : x y z
#
# Youngs Moduli (GPa) = 78.90166 63.15750 63.08073
#
# Poissons Ratio (x) = 0.47268 0.28819
# Poissons Ratio (y) = 0.59052 -0.10158
# Poissons Ratio (z) = 0.36048 -0.10171
#
# Static dielectric constant tensor:
#      x y z
#    x 1.861890 0.000000 0.000000 
#    y 0.000000 1.892610 0.000000 
#    z 0.000000 0.000000 1.989290 
# 
# From -- ./inp_files/2664.got.cif
#   From: 2010.05.17/outbox.cif.g08.bks.cpg/sg35_2_cif.got.tgz:2664.got - 2010.06.03 17:29:28.
