data_PCOD9349016
_publ_section_title
;
Structure prediction by ZEFSAII (Michael W. Deem and Ramdas Pophale) SiO2 
 PCOD9349016
Probable space group: C M M 2
;
_chemical_formula_sum "Si O2"
_cell_formula_units_Z 64
_cell_length_a 8.884091
_cell_length_b 19.390002
_cell_length_c 20.873352
_cell_angle_alpha 90.000000
_cell_angle_beta 90.000000
_cell_angle_gamma 90.000000
_cell_volume 3595.696681
_symmetry_space_group_name_H-M "C M M 2"
_symmetry_group_IT_number 35
_symmetry_cell_setting 'orthorhombic'
loop_
_space_group_symop_operation_xyz
x,y,z
-x,-y,z
-x,y,z
x,-y,z
1/2+x,1/2+y,z
1/2-x,1/2-y,z
1/2-x,1/2+y,z
1/2+x,1/2-y,z
loop_
_atom_site_type_symbol
_atom_site_label
_atom_site_fract_x
_atom_site_fract_y
_atom_site_fract_z
Si Si1 0.680964 0.920140 0.886510
Si Si2 0.318959 0.175016 0.007481
Si Si3 0.826576 0.916165 0.387812
Si Si4 0.679712 0.324957 0.778845
Si Si5 0.180002 0.175034 0.630580
Si Si6 0.677686 0.082654 0.254006
Si Si7 0.680068 0.674664 0.144559
Si Si8 0.321610 0.082287 0.521532
O O1 0.500000 0.917399 0.878810
O O2 0.756168 0.880971 0.827370
O O3 0.726388 0.000000 0.890171
O O4 0.716968 0.878846 0.951548
O O5 0.500000 0.180737 0.013644
O O6 0.250000 0.250000 0.991449
O O7 0.247871 0.154007 0.075475
O O8 0.737308 0.895546 0.324057
O O9 0.750115 0.894096 0.454127
O O10 0.000000 0.893820 0.384635
O O11 0.824922 0.000000 0.388469
O O12 0.500000 0.320365 0.784784
O O13 0.750000 0.250000 0.793235
O O14 0.716606 0.342083 0.704743
O O15 0.250000 0.250000 0.617431
O O16 0.246890 0.121026 0.580779
O O17 0.000000 0.178054 0.624572
O O18 0.500000 0.096762 0.248367
O O19 0.767449 0.122147 0.199047
O O20 0.699430 0.000000 0.248321
O O21 0.500000 0.679218 0.141029
O O22 0.750000 0.750000 0.158535
O O23 0.500000 0.094528 0.520540
O O24 0.296741 0.000000 0.527151
#
# Coordination Sequence:
#
# PCOD9349016 Si02
#       8
#     8   8   8   8   8   8   8   8
#     4  10  22  38  56  81 113 145 177 219 269 317
#     4  10  20  36  57  79 105 141 183 222 265 319
#     4   9  17  31  52  78 108 142 181 223 266 316
#     4  10  21  37  58  81 106 141 182 222 266 321
#     4  10  21  37  56  79 108 141 179 223 271 321
#     4  10  20  35  56  81 110 144 181 222 269 321
#     4  11  22  37  57  81 110 143 181 223 269 320
#     4  10  20  34  54  80 109 143 182 222 267 320
#
# _framework density 17.799054999999999
#
# number of rings (size 3 to 8) (size 9 to 14) (size 15 to 20)
#    0.000    2.000    0.000    4.500    0.000    7.750 
#    0.000    4.375    0.000    0.000    0.000    0.000 
#    0.000    0.000    0.000    0.000    0.000    0.000 
#
# Total GULP energy -178701.043245 kJ/mol
# GULP energy per Si atom -5584.407601 kJ/mol
# Density = 1.775854 g / cm^3
# Si number density = 17.799055 Si / 1000 Ang^3
#
#
#
# Elastic Constant Matrix: (Units=GPa)
#
#
# Indices 1 2 3 4 5 6 
#
# 1 104.7182 58.3631 78.3736 0.0000 0.0000 0.0000
# 2 58.3631 74.5148 88.6019 0.0000 0.0000 0.0000
# 3 78.3736 88.6019 142.8390 0.0000 0.0000 0.0000
# 4 0.0000 0.0000 0.0000 32.9054 0.0000 0.0000
# 5 0.0000 0.0000 0.0000 0.0000 35.1767 0.0000
# 6 0.0000 0.0000 0.0000 0.0000 0.0000 29.7770
#
#
#
# Elastic Compliance Matrix: (Units=1/GPa)
#
#
# Indices 1 2 3 4 5 6 
#
# 1 0.017588 -0.008768 -0.004212 0.000000 0.000000 0.000000
# 2 -0.008768 0.055506 -0.029619 0.000000 0.000000 0.000000
# 3 -0.004212 -0.029619 0.027685 0.000000 0.000000 0.000000
# 4 0.000000 0.000000 0.000000 0.030390 0.000000 0.000000
# 5 0.000000 0.000000 0.000000 0.000000 0.028428 0.000000
# 6 0.000000 0.000000 0.000000 0.000000 0.000000 0.033583
#
#
# Mechanical properties :
#
#
# Convention : Reuss Voigt Hill
#
# Bulk Modulus (GPa) = 64.18012 85.86101 75.02056
# Shear Modulus (GPa) = 17.63220 26.02071 21.82646
#
# Velocity S-wave (km/s) = 3.15083 3.82765 3.50561
# Velocity P-wave (km/s) = 7.02662 8.23883 7.65675
#
# Compressibility (1/GPa) = 0.01558115
#
# Stress axis : x y z
#
# Youngs Moduli (GPa) = 56.85613 18.01593 36.12119
#
# Poissons Ratio (x) = 0.15796 0.15214
# Poissons Ratio (y) = 0.49850 1.06989
# Poissons Ratio (z) = 0.23947 0.53362
#
# Static dielectric constant tensor:
#      x y z
#    x 1.595450 0.000000 0.000000 
#    y 0.000000 1.583690 0.000000 
#    z 0.000000 0.000000 1.591940 
# 
# From -- ./inp_files/18428.got.cif
#   From: 2010.05.17/outbox.cif.g08.bks.cpg/sg35_10_cif.got.tgz:18428.got - 2010.06.03 17:29:28.
