data_PCOD9349566
_publ_section_title
;
Structure prediction by ZEFSAII (Michael W. Deem and Ramdas Pophale) SiO2 
 PCOD9349566
Probable space group: C M M 2
;
_chemical_formula_sum "Si O2"
_cell_formula_units_Z 64
_cell_length_a 26.027005
_cell_length_b 7.403419
_cell_length_c 13.172056
_cell_angle_alpha 90.000000
_cell_angle_beta 90.000000
_cell_angle_gamma 90.000000
_cell_volume 2538.107971
_symmetry_space_group_name_H-M "C M M 2"
_symmetry_group_IT_number 35
_symmetry_cell_setting 'orthorhombic'
loop_
_space_group_symop_operation_xyz
x,y,z
-x,-y,z
-x,y,z
x,-y,z
1/2+x,1/2+y,z
1/2-x,1/2-y,z
1/2-x,1/2+y,z
1/2+x,1/2-y,z
loop_
_atom_site_type_symbol
_atom_site_label
_atom_site_fract_x
_atom_site_fract_y
_atom_site_fract_z
Si Si1 0.305660 0.715373 0.195640
Si Si2 0.194389 0.785092 0.538587
Si Si3 0.555852 0.791384 0.023654
Si Si4 0.083668 0.220475 0.470592
Si Si5 0.554445 0.280376 0.695058
Si Si6 0.082002 0.218989 0.252220
Si Si7 0.333693 0.721122 0.759540
Si Si8 0.171657 0.792763 0.976136
O O1 0.311053 0.500000 0.189462
O O2 0.250000 0.750000 0.241476
O O3 0.357831 0.774682 0.249049
O O4 0.307986 0.790649 0.080426
O O5 0.250000 0.750000 0.493030
O O6 0.143331 0.721762 0.482073
O O7 0.192515 0.717326 0.655292
O O8 0.188493 0.000000 0.543809
O O9 0.500000 0.715073 0.992722
O O10 0.558388 0.783682 0.146820
O O11 0.609165 0.705995 0.985726
O O12 0.557750 0.000000 0.992864
O O13 0.058170 0.273969 0.576552
O O14 0.061915 0.278403 0.362062
O O15 0.081959 0.000000 0.469327
O O16 0.500000 0.219400 0.738182
O O17 0.555125 0.500000 0.696826
O O18 0.606575 0.223812 0.748918
O O19 0.078315 0.000000 0.248296
O O20 0.332073 0.500000 0.761250
O O21 0.313605 0.787410 0.867587
O O22 0.189108 0.000000 0.975325
#
# Coordination Sequence:
#
# PCOD9349566 Si02
#       8
#     8   8   8   8   8   8   8   8
#     4   9  18  30  44  64  89 116 150 192 233 272
#     4   9  17  30  47  69  99 130 158 192 234 276
#     4  10  21  35  49  69  98 126 152 190 242 293
#     4   8  15  28  45  66  94 123 151 190 232 266
#     4   8  13  22  39  66  95 118 143 179 225 271
#     4   9  18  33  51  70  92 122 162 200 231 273
#     4   8  15  28  45  66  94 123 151 190 232 266
#     4   9  18  33  51  70  92 122 162 200 231 273
#
# _framework density 25.215634000000001
#
# number of rings (size 3 to 8) (size 9 to 14) (size 15 to 20)
#    0.000    3.250    0.000    2.625    0.000    5.000 
#    0.000    3.750    0.000    0.000    0.000    0.000 
#    0.000    7.000    0.000    0.000    0.000    0.000 
#
# Total GULP energy -178684.562306 kJ/mol
# GULP energy per Si atom -5583.892572 kJ/mol
# Density = 2.515824 g / cm^3
# Si number density = 25.215634 Si / 1000 Ang^3
#
#
#
# Elastic Constant Matrix: (Units=GPa)
#
#
# Indices 1 2 3 4 5 6 
#
# 1 126.9682 -10.6952 -5.5352 0.0000 0.0000 0.0000
# 2 -10.6952 86.2496 -0.6664 0.0000 0.0000 0.0000
# 3 -5.5352 -0.6664 119.5837 0.0000 0.0000 0.0000
# 4 0.0000 0.0000 0.0000 16.1598 0.0000 0.0000
# 5 0.0000 0.0000 0.0000 0.0000 -17.3374 0.0000
# 6 0.0000 0.0000 0.0000 0.0000 0.0000 -0.1609
#
#
#
# Elastic Compliance Matrix: (Units=1/GPa)
#
#
# Indices 1 2 3 4 5 6 
#
# 1 0.007976 0.000992 0.000375 0.000000 0.000000 0.000000
# 2 0.000992 0.011718 0.000111 0.000000 0.000000 0.000000
# 3 0.000375 0.000111 0.008380 0.000000 0.000000 0.000000
# 4 0.000000 0.000000 0.000000 0.061882 0.000000 0.000000
# 5 0.000000 0.000000 0.000000 0.000000 -0.057679 0.000000
# 6 0.000000 0.000000 0.000000 0.000000 0.000000 -6.215466
#
#
# Mechanical properties :
#
#
# Convention : Reuss Voigt Hill
#
# Bulk Modulus (GPa) = 32.22686 33.22308 32.72497
# Shear Modulus (GPa) = -0.80961 23.04554 11.11796
#
# Velocity S-wave (km/s) = -0.56725 3.02642 2.10208
# Velocity P-wave (km/s) = 3.51841 5.04148 4.34717
#
# Compressibility (1/GPa) = 0.03103002
#
# Stress axis : x y z
#
# Youngs Moduli (GPa) = 125.37799 85.33794 119.32739
#
# Poissons Ratio (x) = -0.08465 -0.04471
# Poissons Ratio (y) = -0.12437 -0.01327
# Poissons Ratio (z) = -0.04698 -0.00949
#
# Static dielectric constant tensor:
#      x y z
#    x 1.979670 0.000000 0.000000 
#    y 0.000000 1.956950 0.000000 
#    z 0.000000 0.000000 1.977590 
# 
# From -- ./inp_files/17758.got.cif
#   From: 2010.05.17/outbox.cif.g08.bks.cpg/sg35_9_cif.got.tgz:17758.got - 2010.06.03 17:29:28.
