data_PCOD9349293
_publ_section_title
;
Structure prediction by ZEFSAII (Michael W. Deem and Ramdas Pophale) SiO2 
 PCOD9349293
Probable space group: C M M 2
;
_chemical_formula_sum "Si O2"
_cell_formula_units_Z 40
_cell_length_a 14.845805
_cell_length_b 8.663503
_cell_length_c 17.131922
_cell_angle_alpha 90.000000
_cell_angle_beta 90.000000
_cell_angle_gamma 90.000000
_cell_volume 2203.450864
_symmetry_space_group_name_H-M "C M M 2"
_symmetry_group_IT_number 35
_symmetry_cell_setting 'orthorhombic'
loop_
_space_group_symop_operation_xyz
x,y,z
-x,-y,z
-x,y,z
x,-y,z
1/2+x,1/2+y,z
1/2-x,1/2-y,z
1/2-x,1/2+y,z
1/2+x,1/2-y,z
loop_
_atom_site_type_symbol
_atom_site_label
_atom_site_fract_x
_atom_site_fract_y
_atom_site_fract_z
Si Si1 0.350709 0.315315 0.285330
Si Si2 0.850817 0.813982 0.872523
Si Si3 0.000000 0.683976 0.172309
Si Si4 0.500000 0.185552 0.575882
Si Si5 0.000000 0.186430 0.998885
Si Si6 0.500000 0.686150 0.749320
Si Si7 0.850068 0.314313 0.452030
O O1 0.349448 0.500000 0.285629
O O2 0.250000 0.250000 0.275788
O O3 0.414105 0.252496 0.217498
O O4 0.383399 0.254290 0.369742
O O5 0.750000 0.750000 0.873383
O O6 0.911302 0.764106 0.798046
O O7 0.846025 0.000000 0.870982
O O8 0.911795 0.771541 0.947713
O O9 0.000000 0.500000 0.178447
O O10 0.000000 0.735882 0.082721
O O11 0.500000 0.255680 0.661475
O O12 0.586170 0.229591 0.523696
O O13 0.500000 0.000000 0.582861
O O14 0.000000 0.000000 0.007395
O O15 0.500000 0.500000 0.749822
O O16 0.848194 0.500000 0.445340
O O17 0.750000 0.250000 0.464059
#
# Coordination Sequence:
#
# PCOD9349293 Si02
#       7
#     8   8   4   4   4   4   8
#     4  11  22  38  59  83 111 148 191 233 280 330
#     4   9  19  37  60  82 107 141 177 218 270 325
#     4  12  24  38  57  84 116 149 186 229 278 329
#     4  10  22  36  53  78 110 145 180 225 274 319
#     4   9  20  39  57  79 112 144 179 222 271 328
#     4   9  20  37  55  79 110 142 177 218 267 326
#     4  10  20  36  55  78 109 145 186 230 276 325
#
# _framework density 18.153344000000001
#
# number of rings (size 3 to 8) (size 9 to 14) (size 15 to 20)
#    0.000    2.000    0.000    6.300    0.000    5.600 
#    0.000    8.000    0.000    0.000    0.000    0.000 
#    0.000    0.000    0.000    0.000    0.000    0.000 
#
# Total GULP energy -111692.504375 kJ/mol
# GULP energy per Si atom -5584.625219 kJ/mol
# Density = 1.811203 g / cm^3
# Si number density = 18.153344 Si / 1000 Ang^3
#
#
#
# Elastic Constant Matrix: (Units=GPa)
#
#
# Indices 1 2 3 4 5 6 
#
# 1 150.1064 49.3453 101.9830 0.0000 0.0000 0.0000
# 2 49.3453 88.4544 65.9387 0.0000 0.0000 0.0000
# 3 101.9830 65.9387 191.6538 0.0000 0.0000 0.0000
# 4 0.0000 0.0000 0.0000 35.5353 0.0000 0.0000
# 5 0.0000 0.0000 0.0000 0.0000 18.5947 0.0000
# 6 0.0000 0.0000 0.0000 0.0000 0.0000 29.8895
#
#
#
# Elastic Compliance Matrix: (Units=1/GPa)
#
#
# Indices 1 2 3 4 5 6 
#
# 1 0.010782 -0.002337 -0.004933 0.000000 0.000000 0.000000
# 2 -0.002337 0.015712 -0.004162 0.000000 0.000000 0.000000
# 3 -0.004933 -0.004162 0.009275 0.000000 0.000000 0.000000
# 4 0.000000 0.000000 0.000000 0.028141 0.000000 0.000000
# 5 0.000000 0.000000 0.000000 0.000000 0.053779 0.000000
# 6 0.000000 0.000000 0.000000 0.000000 0.000000 0.033457
#
#
# Mechanical properties :
#
#
# Convention : Reuss Voigt Hill
#
# Bulk Modulus (GPa) = 77.49817 96.08318 86.79067
# Shear Modulus (GPa) = 28.04099 31.00041 29.52070
#
# Velocity S-wave (km/s) = 3.93450 4.13691 4.03697
# Velocity P-wave (km/s) = 7.96391 8.70989 8.34524
#
# Compressibility (1/GPa) = 0.01290353
#
# Stress axis : x y z
#
# Youngs Moduli (GPa) = 92.74821 63.64693 107.82120
#
# Poissons Ratio (x) = 0.14877 0.53189
# Poissons Ratio (y) = 0.21679 0.44873
# Poissons Ratio (z) = 0.45753 0.26489
#
# Static dielectric constant tensor:
#      x y z
#    x 1.604260 0.000000 0.000000 
#    y 0.000000 1.610730 0.000000 
#    z 0.000000 0.000000 1.600160 
# 
# From -- ./inp_files/14830.got.cif
#   From: 2010.05.17/outbox.cif.g08.bks.cpg/sg35_8_cif.got.tgz:14830.got - 2010.06.03 17:29:28.
