data_PCOD9349828
_publ_section_title
;
Structure prediction by ZEFSAII (Michael W. Deem and Ramdas Pophale) SiO2 
 PCOD9349828
Probable space group: C M M 2
;
_chemical_formula_sum "Si O2"
_cell_formula_units_Z 48
_cell_length_a 15.467539
_cell_length_b 16.636903
_cell_length_c 8.558734
_cell_angle_alpha 90.000000
_cell_angle_beta 90.000000
_cell_angle_gamma 90.000000
_cell_volume 2202.435675
_symmetry_space_group_name_H-M "C M M 2"
_symmetry_group_IT_number 35
_symmetry_cell_setting 'orthorhombic'
loop_
_space_group_symop_operation_xyz
x,y,z
-x,-y,z
-x,y,z
x,-y,z
1/2+x,1/2+y,z
1/2-x,1/2-y,z
1/2-x,1/2+y,z
1/2+x,1/2-y,z
loop_
_atom_site_type_symbol
_atom_site_label
_atom_site_fract_x
_atom_site_fract_y
_atom_site_fract_z
Si Si1 0.208217 0.912671 0.286440
Si Si2 0.598193 0.086785 0.686389
Si Si3 0.907786 0.782942 0.162514
Si Si4 0.103046 0.094069 0.609288
Si Si5 0.594680 0.883762 0.319074
Si Si6 0.150174 0.753594 0.829303
O O1 0.169644 0.843533 0.181898
O O2 0.168916 0.897528 0.461281
O O3 0.311445 0.913266 0.266904
O O4 0.174358 0.000000 0.240684
O O5 0.500000 0.085564 0.746896
O O6 0.593403 0.092130 0.499451
O O7 0.637273 0.170787 0.736770
O O8 0.639602 0.000000 0.728215
O O9 0.901605 0.711480 0.287240
O O10 0.000000 0.824814 0.186992
O O11 0.903665 0.749250 0.988363
O O12 0.125833 0.165892 0.730958
O O13 0.000000 0.103278 0.568209
O O14 0.112816 0.000000 0.663489
O O15 0.500000 0.908701 0.252190
O O16 0.250000 0.750000 0.872909
#
# Coordination Sequence:
#
# PCOD9349828 Si02
#       6
#     8   8   8   8   8   8
#     4  11  22  38  62  91 123 158 202 256 308 363
#     4  10  21  39  63  89 118 155 200 247 297 358
#     4  11  24  42  62  85 119 163 208 252 303 365
#     4  10  22  41  65  93 125 164 211 259 307 362
#     4  10  21  39  63  89 120 158 201 250 304 366
#     4  12  24  39  62  90 125 164 202 251 309 369
#
# _framework density 21.794053000000002
#
# number of rings (size 3 to 8) (size 9 to 14) (size 15 to 20)
#    0.000    1.333    0.000    6.000    0.000    6.000 
#    0.000    3.333    0.000    4.000    0.000    0.000 
#    0.000    0.000    0.000    0.000    0.000    0.000 
#
# Total GULP energy -133840.593360 kJ/mol
# GULP energy per Si atom -5576.691390 kJ/mol
# Density = 2.174445 g / cm^3
# Si number density = 21.794053 Si / 1000 Ang^3
#
#
#
# Elastic Constant Matrix: (Units=GPa)
#
#
# Indices 1 2 3 4 5 6 
#
# 1 137.0881 42.9194 8.8900 0.0000 0.0000 0.0000
# 2 42.9194 142.9539 36.6853 0.0000 0.0000 0.0000
# 3 8.8900 36.6853 32.2439 0.0000 0.0000 0.0000
# 4 0.0000 0.0000 0.0000 -12.5002 0.0000 0.0000
# 5 0.0000 0.0000 0.0000 0.0000 19.7103 0.0000
# 6 0.0000 0.0000 0.0000 0.0000 0.0000 -306.1529
#
#
#
# Elastic Compliance Matrix: (Units=1/GPa)
#
#
# Indices 1 2 3 4 5 6 
#
# 1 0.008064 -0.002614 0.000750 0.000000 0.000000 0.000000
# 2 -0.002614 0.010727 -0.011484 0.000000 0.000000 0.000000
# 3 0.000750 -0.011484 0.043873 0.000000 0.000000 0.000000
# 4 0.000000 0.000000 0.000000 -0.079998 0.000000 0.000000
# 5 0.000000 0.000000 0.000000 0.000000 0.050735 0.000000
# 6 0.000000 0.000000 0.000000 0.000000 0.000000 -0.003266
#
#
# Mechanical properties :
#
#
# Convention : Reuss Voigt Hill
#
# Bulk Modulus (GPa) = 27.80162 54.36391 41.08277
# Shear Modulus (GPa) = 72.65492 -44.86915 13.89289
#
# Velocity S-wave (km/s) = 5.78009 -4.54230 2.52754
# Velocity P-wave (km/s) = 7.57166 1.58476 5.23539
#
# Compressibility (1/GPa) = 0.03596912
#
# Stress axis : x y z
#
# Youngs Moduli (GPa) = 124.00464 93.22227 22.79324
#
# Poissons Ratio (x) = 0.24365 -0.01710
# Poissons Ratio (y) = 0.32411 0.26176
# Poissons Ratio (z) = -0.09304 1.07057
#
# Static dielectric constant tensor:
#      x y z
#    x 1.854430 0.000000 0.000000 
#    y 0.000000 1.799590 0.000000 
#    z 0.000000 0.000000 1.781280 
# 
# From -- ./inp_files/7319.got.cif
#   From: 2010.05.17/outbox.cif.g08.bks.cpg/sg35_4_cif.got.tgz:7319.got - 2010.06.03 17:29:28.
