data_PCOD9349159
_publ_section_title
;
Structure prediction by ZEFSAII (Michael W. Deem and Ramdas Pophale) SiO2 
 PCOD9349159
Probable space group: C M M 2
;
_chemical_formula_sum "Si O2"
_cell_formula_units_Z 64
_cell_length_a 8.806981
_cell_length_b 28.787810
_cell_length_c 13.268933
_cell_angle_alpha 90.000000
_cell_angle_beta 90.000000
_cell_angle_gamma 90.000000
_cell_volume 3364.121622
_symmetry_space_group_name_H-M "C M M 2"
_symmetry_group_IT_number 35
_symmetry_cell_setting 'orthorhombic'
loop_
_space_group_symop_operation_xyz
x,y,z
-x,-y,z
-x,y,z
x,-y,z
1/2+x,1/2+y,z
1/2-x,1/2-y,z
1/2-x,1/2+y,z
1/2+x,1/2-y,z
loop_
_atom_site_type_symbol
_atom_site_label
_atom_site_fract_x
_atom_site_fract_y
_atom_site_fract_z
Si Si1 0.681989 0.645237 0.831750
Si Si2 0.671552 0.056405 0.142777
Si Si3 0.182851 0.359275 0.442047
Si Si4 0.182279 0.698304 0.640954
Si Si5 0.181140 0.053563 0.355655
Si Si6 0.182412 0.053080 0.929888
Si Si7 0.317495 0.801492 0.247297
Si Si8 0.817052 0.697963 0.022767
O O1 0.500000 0.649815 0.825291
O O2 0.757453 0.670159 0.737094
O O3 0.721656 0.590807 0.845334
O O4 0.741641 0.669461 0.933336
O O5 0.500000 0.074849 0.148063
O O6 0.759794 0.068103 0.244644
O O7 0.665704 0.000000 0.141834
O O8 0.748141 0.068566 0.036982
O O9 0.226003 0.329679 0.539900
O O10 0.251770 0.410495 0.435455
O O11 0.233777 0.332247 0.341131
O O12 0.000000 0.362732 0.439806
O O13 0.250000 0.750000 0.640081
O O14 0.000000 0.701427 0.644966
O O15 0.000000 0.055158 0.356423
O O16 0.229085 0.000000 0.372638
O O17 0.000000 0.052988 0.940665
O O18 0.231162 0.000000 0.908855
O O19 0.500000 0.798029 0.251900
O O20 0.250000 0.750000 0.256045
O O21 0.279630 0.820143 0.135520
O O22 0.750000 0.750000 0.017877
O O23 0.000000 0.698836 0.011524
#
# Coordination Sequence:
#
# PCOD9349159 Si02
#       8
#     8   8   8   8   8   8   8   8
#     4  11  23  38  59  85 115 152 197 241 293 350
#     4   9  17  30  51  79 113 154 194 235 284 337
#     4  10  22  39  60  87 116 150 194 241 294 348
#     4  11  24  43  66  89 116 149 193 246 295 350
#     4  10  21  36  55  83 119 158 200 242 284 337
#     4   9  19  36  56  81 115 153 195 242 289 343
#     4   9  19  35  55  82 114 147 182 229 287 350
#     4  10  20  35  55  81 115 149 185 232 288 352
#
# _framework density 19.024281999999999
#
# number of rings (size 3 to 8) (size 9 to 14) (size 15 to 20)
#    0.000    2.125    0.000    2.625    1.750    5.250 
#    0.000    0.625    0.000    2.250    0.000    0.000 
#    0.000    0.000    0.000    0.000    0.000    0.000 
#
# Total GULP energy -178716.795063 kJ/mol
# GULP energy per Si atom -5584.899846 kJ/mol
# Density = 1.898098 g / cm^3
# Si number density = 19.024282 Si / 1000 Ang^3
#
#
#
# Elastic Constant Matrix: (Units=GPa)
#
#
# Indices 1 2 3 4 5 6 
#
# 1 39.8863 42.7975 45.1646 0.0000 0.0000 0.0000
# 2 42.7975 136.7165 93.4116 0.0000 0.0000 0.0000
# 3 45.1646 93.4116 140.5991 0.0000 0.0000 0.0000
# 4 0.0000 0.0000 0.0000 37.2856 0.0000 0.0000
# 5 0.0000 0.0000 0.0000 0.0000 20.2288 0.0000
# 6 0.0000 0.0000 0.0000 0.0000 0.0000 23.6680
#
#
#
# Elastic Compliance Matrix: (Units=1/GPa)
#
#
# Indices 1 2 3 4 5 6 
#
# 1 0.043128 -0.007389 -0.008945 0.000000 0.000000 0.000000
# 2 -0.007389 0.014661 -0.007367 0.000000 0.000000 0.000000
# 3 -0.008945 -0.007367 0.014880 0.000000 0.000000 0.000000
# 4 0.000000 0.000000 0.000000 0.026820 0.000000 0.000000
# 5 0.000000 0.000000 0.000000 0.000000 0.049434 0.000000
# 6 0.000000 0.000000 0.000000 0.000000 0.000000 0.042251
#
#
# Mechanical properties :
#
#
# Convention : Reuss Voigt Hill
#
# Bulk Modulus (GPa) = 39.57633 75.54992 57.56313
# Shear Modulus (GPa) = 20.24299 25.29171 22.76735
#
# Velocity S-wave (km/s) = 3.26553 3.65011 3.46316
# Velocity P-wave (km/s) = 5.92170 7.58703 6.80549
#
# Compressibility (1/GPa) = 0.02526763
#
# Stress axis : x y z
#
# Youngs Moduli (GPa) = 23.18663 68.20863 67.20383
#
# Poissons Ratio (x) = 0.50401 0.60112
# Poissons Ratio (y) = 0.17133 0.49508
# Poissons Ratio (z) = 0.20740 0.50248
#
# Static dielectric constant tensor:
#      x y z
#    x 1.637930 0.000000 0.000000 
#    y 0.000000 1.691720 0.000000 
#    z 0.000000 0.000000 1.637400 
# 
# From -- ./inp_files/11992.got.cif
#   From: 2010.05.17/outbox.cif.g08.bks.cpg/sg35_6_cif.got.tgz:11992.got - 2010.06.03 17:29:28.
