data_PCOD9349434
_publ_section_title
;
Structure prediction by ZEFSAII (Michael W. Deem and Ramdas Pophale) SiO2 
 PCOD9349434
Probable space group: C M M 2
;
_chemical_formula_sum "Si O2"
_cell_formula_units_Z 40
_cell_length_a 26.401940
_cell_length_b 8.583304
_cell_length_c 9.336873
_cell_angle_alpha 90.000000
_cell_angle_beta 90.000000
_cell_angle_gamma 90.000000
_cell_volume 2115.883665
_symmetry_space_group_name_H-M "C M M 2"
_symmetry_group_IT_number 35
_symmetry_cell_setting 'orthorhombic'
loop_
_space_group_symop_operation_xyz
x,y,z
-x,-y,z
-x,y,z
x,-y,z
1/2+x,1/2+y,z
1/2-x,1/2-y,z
1/2-x,1/2+y,z
1/2+x,1/2-y,z
loop_
_atom_site_type_symbol
_atom_site_label
_atom_site_fract_x
_atom_site_fract_y
_atom_site_fract_z
Si Si1 0.500000 0.189516 0.396960
Si Si2 0.804727 0.812588 0.071373
Si Si3 0.500000 0.812510 0.066366
Si Si4 0.598902 0.812770 0.574388
Si Si5 0.096745 0.812553 0.895875
Si Si6 0.305199 0.687069 0.403814
O O1 0.500000 0.240015 0.231983
O O2 0.449547 0.239443 0.480618
O O3 0.500000 0.000000 0.396605
O O4 0.750000 0.750000 0.025454
O O5 0.851058 0.761135 0.972343
O O6 0.802981 0.000000 0.068710
O O7 0.813176 0.765093 0.237221
O O8 0.500000 0.000000 0.062758
O O9 0.450477 0.750731 0.985856
O O10 0.594486 0.748528 0.734463
O O11 0.650064 0.753730 0.500102
O O12 0.598996 0.000000 0.578479
O O13 0.095351 0.000000 0.895707
O O14 0.305302 0.500000 0.411044
O O15 0.250000 0.750000 0.447140
#
# Coordination Sequence:
#
# PCOD9349434 Si02
#       6
#     4   8   4   8   8   8
#     4   9  21  39  60  84 112 145 188 235 284 340
#     4   9  20  37  59  84 113 148 191 237 285 338
#     4  11  22  39  62  86 110 145 190 237 284 338
#     4  11  22  38  59  85 116 153 191 233 283 340
#     4  11  23  39  57  84 119 153 187 232 286 342
#     4  10  20  37  59  85 114 149 191 238 286 338
#
# _framework density 18.904631999999999
#
# number of rings (size 3 to 8) (size 9 to 14) (size 15 to 20)
#    0.000    1.800    0.000    3.900    0.000    4.000 
#    0.000    6.500    0.000    0.000    0.000    0.000 
#    0.000    0.000    0.000    0.000    0.000    0.000 
#
# Total GULP energy -111784.622088 kJ/mol
# GULP energy per Si atom -5589.231104 kJ/mol
# Density = 1.886160 g / cm^3
# Si number density = 18.904632 Si / 1000 Ang^3
#
#
#
# Elastic Constant Matrix: (Units=GPa)
#
#
# Indices 1 2 3 4 5 6 
#
# 1 210.5042 48.6149 139.5136 0.0000 0.0000 0.0000
# 2 48.6149 55.1115 44.2832 0.0000 0.0000 0.0000
# 3 139.5136 44.2832 174.9452 0.0000 0.0000 0.0000
# 4 0.0000 0.0000 0.0000 30.1275 0.0000 0.0000
# 5 0.0000 0.0000 0.0000 0.0000 -80.9473 0.0000
# 6 0.0000 0.0000 0.0000 0.0000 0.0000 35.2155
#
#
#
# Elastic Compliance Matrix: (Units=1/GPa)
#
#
# Indices 1 2 3 4 5 6 
#
# 1 0.010502 -0.003182 -0.007570 0.000000 0.000000 0.000000
# 2 -0.003182 0.023742 -0.003472 0.000000 0.000000 0.000000
# 3 -0.007570 -0.003472 0.012632 0.000000 0.000000 0.000000
# 4 0.000000 0.000000 0.000000 0.033192 0.000000 0.000000
# 5 0.000000 0.000000 0.000000 0.000000 -0.012354 0.000000
# 6 0.000000 0.000000 0.000000 0.000000 0.000000 0.028397
#
#
# Mechanical properties :
#
#
# Convention : Reuss Voigt Hill
#
# Bulk Modulus (GPa) = 54.26539 100.59828 77.43184
# Shear Modulus (GPa) = 38.25504 10.75574 24.50539
#
# Velocity S-wave (km/s) = 4.50330 2.38785 3.60427
# Velocity P-wave (km/s) = 7.47039 7.80586 7.63997
#
# Compressibility (1/GPa) = 0.01842795
#
# Stress axis : x y z
#
# Youngs Moduli (GPa) = 95.21687 42.11983 79.16523
#
# Poissons Ratio (x) = 0.13401 0.59927
# Poissons Ratio (y) = 0.30295 0.27489
# Poissons Ratio (z) = 0.72078 0.14625
#
# Static dielectric constant tensor:
#      x y z
#    x 1.627550 0.000000 0.000000 
#    y 0.000000 1.643340 0.000000 
#    z 0.000000 0.000000 1.630650 
# 
# From -- ./inp_files/10062.got.cif
#   From: 2010.05.17/outbox.cif.g08.bks.cpg/sg35_6_cif.got.tgz:10062.got - 2010.06.03 17:29:28.
