data_PCOD9349396
_publ_section_title
;
Structure prediction by ZEFSAII (Michael W. Deem and Ramdas Pophale) SiO2 
 PCOD9349396
Probable space group: C M M 2
;
_chemical_formula_sum "Si O2"
_cell_formula_units_Z 48
_cell_length_a 7.735319
_cell_length_b 15.998825
_cell_length_c 17.926604
_cell_angle_alpha 90.000000
_cell_angle_beta 90.000000
_cell_angle_gamma 90.000000
_cell_volume 2218.525074
_symmetry_space_group_name_H-M "C M M 2"
_symmetry_group_IT_number 35
_symmetry_cell_setting 'orthorhombic'
loop_
_space_group_symop_operation_xyz
x,y,z
-x,-y,z
-x,y,z
x,-y,z
1/2+x,1/2+y,z
1/2-x,1/2-y,z
1/2-x,1/2+y,z
1/2+x,1/2-y,z
loop_
_atom_site_type_symbol
_atom_site_label
_atom_site_fract_x
_atom_site_fract_y
_atom_site_fract_z
Si Si1 0.207763 0.340073 0.743120
Si Si2 0.709592 0.904442 0.589032
Si Si3 0.801857 0.000000 0.996198
Si Si4 0.792154 0.651210 0.268177
Si Si5 0.791678 0.348354 0.428598
Si Si6 0.206738 0.348510 0.104022
Si Si7 0.299143 0.000000 0.829241
O O1 0.250000 0.250000 0.774850
O O2 0.273487 0.349151 0.657870
O O3 0.275716 0.416043 0.793032
O O4 0.000000 0.345212 0.739436
O O5 0.500000 0.895695 0.585288
O O6 0.775663 0.885471 0.506056
O O7 0.746556 0.000000 0.608836
O O8 0.766527 0.916422 0.044144
O O9 0.704022 0.000000 0.918048
O O10 0.000000 0.000000 0.974529
O O11 0.750000 0.750000 0.269974
O O12 0.728180 0.617469 0.348209
O O13 0.726976 0.624406 0.186783
O O14 0.000000 0.640193 0.267756
O O15 0.750000 0.250000 0.430750
O O16 0.000000 0.358871 0.428143
O O17 0.250000 0.250000 0.091003
O O18 0.000000 0.352748 0.105806
O O19 0.500000 0.000000 0.806220
#
# Coordination Sequence:
#
# PCOD9349396 Si02
#       7
#     8   8   4   8   8   8   4
#     4  10  20  36  60  85 111 146 187 227 277 335
#     4   9  16  29  49  75 108 146 187 228 268 320
#     4  12  26  42  62  89 118 150 190 237 294 356
#     4   8  15  28  48  76 107 144 186 230 277 324
#     4   9  16  27  46  74 105 141 184 229 271 317
#     4  10  20  38  62  88 120 156 196 241 290 346
#     4  10  22  42  62  81 112 148 182 229 286 348
#
# _framework density 21.635995999999999
#
# number of rings (size 3 to 8) (size 9 to 14) (size 15 to 20)
#    0.000    2.500    0.833    1.750    0.000    2.000 
#    1.500    1.667    0.000    1.500    0.000    0.000 
#    0.000    0.000    0.000    0.000    0.000    0.000 
#
# Total GULP energy -133811.898612 kJ/mol
# GULP energy per Si atom -5575.495776 kJ/mol
# Density = 2.158675 g / cm^3
# Si number density = 21.635996 Si / 1000 Ang^3
#
#
#
# Elastic Constant Matrix: (Units=GPa)
#
#
# Indices 1 2 3 4 5 6 
#
# 1 39.0397 -3.1606 -7.4265 0.0000 0.0000 0.0000
# 2 -3.1606 108.3238 67.0080 0.0000 0.0000 0.0000
# 3 -7.4265 67.0080 130.9003 0.0000 0.0000 0.0000
# 4 0.0000 0.0000 0.0000 27.3499 0.0000 0.0000
# 5 0.0000 0.0000 0.0000 0.0000 -281.9244 0.0000
# 6 0.0000 0.0000 0.0000 0.0000 0.0000 20.2533
#
#
#
# Elastic Compliance Matrix: (Units=1/GPa)
#
#
# Indices 1 2 3 4 5 6 
#
# 1 0.025898 -0.000224 0.001584 0.000000 0.000000 0.000000
# 2 -0.000224 0.013511 -0.006929 0.000000 0.000000 0.000000
# 3 0.001584 -0.006929 0.011276 0.000000 0.000000 0.000000
# 4 0.000000 0.000000 0.000000 0.036563 0.000000 0.000000
# 5 0.000000 0.000000 0.000000 0.000000 -0.003547 0.000000
# 6 0.000000 0.000000 0.000000 0.000000 0.000000 0.049375
#
#
# Mechanical properties :
#
#
# Convention : Reuss Voigt Hill
#
# Bulk Modulus (GPa) = 25.28632 43.45620 34.37126
# Shear Modulus (GPa) = 31.76667 -32.07470 -0.15402
#
# Velocity S-wave (km/s) = 3.83591 -3.85446 -0.26710
# Velocity P-wave (km/s) = 5.59745 0.56531 3.97813
#
# Compressibility (1/GPa) = 0.03954708
#
# Stress axis : x y z
#
# Youngs Moduli (GPa) = 38.61284 74.01169 88.68114
#
# Poissons Ratio (x) = 0.01660 -0.14048
# Poissons Ratio (y) = 0.00866 0.61449
# Poissons Ratio (z) = -0.06117 0.51284
#
# Static dielectric constant tensor:
#      x y z
#    x 2.366730 0.000000 0.000000 
#    y 0.000000 1.792030 0.000000 
#    z 0.000000 0.000000 1.836230 
# 
# From -- ./inp_files/17926.got.cif
#   From: 2010.05.17/outbox.cif.g08.bks.cpg/sg35_9_cif.got.tgz:17926.got - 2010.06.03 17:29:28.
