data_PCOD9349549
_publ_section_title
;
Structure prediction by ZEFSAII (Michael W. Deem and Ramdas Pophale) SiO2 
 PCOD9349549
Probable space group: C M M 2
;
_chemical_formula_sum "Si O2"
_cell_formula_units_Z 36
_cell_length_a 15.216333
_cell_length_b 15.216475
_cell_length_c 8.025397
_cell_angle_alpha 90.000000
_cell_angle_beta 90.000000
_cell_angle_gamma 90.000000
_cell_volume 1858.192000
_symmetry_space_group_name_H-M "C M M 2"
_symmetry_group_IT_number 35
_symmetry_cell_setting 'orthorhombic'
loop_
_space_group_symop_operation_xyz
x,y,z
-x,-y,z
-x,y,z
x,-y,z
1/2+x,1/2+y,z
1/2-x,1/2-y,z
1/2-x,1/2+y,z
1/2+x,1/2-y,z
loop_
_atom_site_type_symbol
_atom_site_label
_atom_site_fract_x
_atom_site_fract_y
_atom_site_fract_z
Si Si1 0.500000 0.500000 0.333710
Si Si2 0.102767 0.397235 0.833718
Si Si3 0.000000 0.000000 0.833711
Si Si4 0.837951 0.000000 0.577082
Si Si5 0.000000 0.837952 0.090341
Si Si6 0.157834 0.299364 0.151087
Si Si7 0.299365 0.842165 0.516346
O O1 0.409727 0.500000 0.432872
O O2 0.500000 0.409727 0.234551
O O3 0.117542 0.500000 0.803214
O O4 0.132761 0.347344 0.668303
O O5 0.000000 0.382465 0.864223
O O6 0.152657 0.367238 0.999133
O O7 0.905980 0.000000 0.734268
O O8 0.000000 0.094019 0.933155
O O9 0.773534 0.083207 0.553972
O O10 0.916793 0.773535 0.113452
O O11 0.250000 0.250000 0.145942
O O12 0.154585 0.345411 0.333717
O O13 0.250000 0.750000 0.521497
#
# Coordination Sequence:
#
# PCOD9349549 Si02
#       7
#     2   8   2   4   4   8   8
#     4  10  20  42  72  94 140 166 224 278 336 406
#     4  11  25  42  66  96 131 177 220 274 332 397
#     4  10  28  42  72 102 140 182 224 294 360 398
#     4  11  24  46  67 106 136 178 229 282 344 415
#     4  11  24  46  67 106 136 178 229 282 344 415
#     4  11  25  44  68 100 132 178 223 275 343 400
#     4  11  25  44  68 100 132 178 223 275 343 400
#
# _framework density 19.373670000000001
#
# number of rings (size 3 to 8) (size 9 to 14) (size 15 to 20)
#    0.000    1.111    2.222    3.333    9.333    0.000 
#    4.000    2.222    0.000    0.000    0.000    0.000 
#    0.000    0.000    0.000    0.000    0.000    0.000 
#
# Total GULP energy -100402.884218 kJ/mol
# GULP energy per Si atom -5577.938012 kJ/mol
# Density = 1.932957 g / cm^3
# Si number density = 19.373670 Si / 1000 Ang^3
#
#
#
# Elastic Constant Matrix: (Units=GPa)
#
#
# Indices 1 2 3 4 5 6 
#
# 1 73.2026 43.9046 31.3583 0.0000 0.0000 0.0000
# 2 43.9046 73.2195 31.3656 0.0000 0.0000 0.0000
# 3 31.3583 31.3656 150.0170 0.0000 0.0000 0.0000
# 4 0.0000 0.0000 0.0000 27.4724 0.0000 0.0000
# 5 0.0000 0.0000 0.0000 0.0000 27.4691 0.0000
# 6 0.0000 0.0000 0.0000 0.0000 0.0000 43.7792
#
#
#
# Elastic Compliance Matrix: (Units=1/GPa)
#
#
# Indices 1 2 3 4 5 6 
#
# 1 0.021871 -0.012254 -0.002010 0.000000 0.000000 0.000000
# 2 -0.012254 0.021866 -0.002010 0.000000 0.000000 0.000000
# 3 -0.002010 -0.002010 0.007506 0.000000 0.000000 0.000000
# 4 0.000000 0.000000 0.000000 0.036400 0.000000 0.000000
# 5 0.000000 0.000000 0.000000 0.000000 0.036405 0.000000
# 6 0.000000 0.000000 0.000000 0.000000 0.000000 0.022842
#
#
# Mechanical properties :
#
#
# Convention : Reuss Voigt Hill
#
# Bulk Modulus (GPa) = 53.48677 56.63289 55.05983
# Shear Modulus (GPa) = 26.92953 32.39818 29.66385
#
# Velocity S-wave (km/s) = 3.73232 4.09379 3.91723
# Velocity P-wave (km/s) = 6.80011 7.18615 6.99580
#
# Compressibility (1/GPa) = 0.01869621
#
# Stress axis : x y z
#
# Youngs Moduli (GPa) = 45.72280 45.73233 133.22041
#
# Poissons Ratio (x) = 0.56038 0.26774
# Poissons Ratio (y) = 0.56027 0.26783
# Poissons Ratio (z) = 0.09189 0.09194
#
# Static dielectric constant tensor:
#      x y z
#    x 1.668340 0.000000 0.000000 
#    y 0.000000 1.668340 0.000000 
#    z 0.000000 0.000000 1.729670 
# 
# From -- ./inp_files/6957.got.cif
#   From: 2010.05.17/outbox.cif.g08.bks.cpg/sg35_4_cif.got.tgz:6957.got - 2010.06.03 17:29:28.
