data_PCOD9349219
_publ_section_title
;
Structure prediction by ZEFSAII (Michael W. Deem and Ramdas Pophale) SiO2 
 PCOD9349219
Probable space group: C M M 2
;
_chemical_formula_sum "Si O2"
_cell_formula_units_Z 40
_cell_length_a 8.533319
_cell_length_b 18.917251
_cell_length_c 13.101724
_cell_angle_alpha 90.000000
_cell_angle_beta 90.000000
_cell_angle_gamma 90.000000
_cell_volume 2114.971180
_symmetry_space_group_name_H-M "C M M 2"
_symmetry_group_IT_number 35
_symmetry_cell_setting 'orthorhombic'
loop_
_space_group_symop_operation_xyz
x,y,z
-x,-y,z
-x,y,z
x,-y,z
1/2+x,1/2+y,z
1/2-x,1/2-y,z
1/2-x,1/2+y,z
1/2+x,1/2-y,z
loop_
_atom_site_type_symbol
_atom_site_label
_atom_site_fract_x
_atom_site_fract_y
_atom_site_fract_z
Si Si1 0.188101 0.329735 0.812490
Si Si2 0.689802 0.418692 0.003686
Si Si3 0.812031 0.171411 0.429100
Si Si4 0.189013 0.828285 0.196454
Si Si5 0.810728 0.581192 0.614728
O O1 0.250000 0.250000 0.812060
O O2 0.247239 0.371801 0.911225
O O3 0.240871 0.371759 0.711126
O O4 0.000000 0.328277 0.813482
O O5 0.500000 0.417511 0.000794
O O6 0.741130 0.500000 0.994851
O O7 0.739907 0.383830 0.110962
O O8 0.750000 0.250000 0.453622
O O9 0.761356 0.154910 0.312564
O O10 0.749181 0.116312 0.511028
O O11 0.000000 0.172362 0.432310
O O12 0.250000 0.750000 0.170997
O O13 0.000000 0.826294 0.195945
O O14 0.758592 0.500000 0.625220
O O15 0.000000 0.581719 0.613592
#
# Coordination Sequence:
#
# PCOD9349219 Si02
#       5
#     8   8   8   8   8
#     4  11  23  39  59  82 109 142 182 226 272 323
#     4  10  21  37  57  82 113 146 180 222 272 324
#     4  10  20  35  57  83 111 145 185 226 268 319
#     4   9  19  35  55  80 110 144 182 225 270 317
#     4  10  22  39  57  80 112 145 178 223 276 325
#
# _framework density 18.912787000000002
#
# number of rings (size 3 to 8) (size 9 to 14) (size 15 to 20)
#    0.000    2.000    0.000    3.000    0.000    8.800 
#    0.000    2.000    0.000    0.000    0.000    0.000 
#    0.000    0.000    0.000    0.000    0.000    0.000 
#
# Total GULP energy -111728.576042 kJ/mol
# GULP energy per Si atom -5586.428802 kJ/mol
# Density = 1.886974 g / cm^3
# Si number density = 18.912787 Si / 1000 Ang^3
#
#
#
# Elastic Constant Matrix: (Units=GPa)
#
#
# Indices 1 2 3 4 5 6 
#
# 1 14.7877 32.3114 26.3218 0.0000 0.0000 0.0000
# 2 32.3114 200.6630 125.2502 0.0000 0.0000 0.0000
# 3 26.3218 125.2502 138.9137 0.0000 0.0000 0.0000
# 4 0.0000 0.0000 0.0000 -13.0938 0.0000 0.0000
# 5 0.0000 0.0000 0.0000 0.0000 -24.0889 0.0000
# 6 0.0000 0.0000 0.0000 0.0000 0.0000 20.4781
#
#
#
# Elastic Compliance Matrix: (Units=1/GPa)
#
#
# Indices 1 2 3 4 5 6 
#
# 1 0.111590 -0.010911 -0.011306 0.000000 0.000000 0.000000
# 2 -0.010911 0.012465 -0.009172 0.000000 0.000000 0.000000
# 3 -0.011306 -0.009172 0.017611 0.000000 0.000000 0.000000
# 4 0.000000 0.000000 0.000000 -0.076372 0.000000 0.000000
# 5 0.000000 0.000000 0.000000 0.000000 -0.041513 0.000000
# 6 0.000000 0.000000 0.000000 0.000000 0.000000 0.048833
#
#
# Mechanical properties :
#
#
# Convention : Reuss Voigt Hill
#
# Bulk Modulus (GPa) = 12.67633 80.23679 46.45656
# Shear Modulus (GPa) = 30.92387 8.02450 19.47419
#
# Velocity S-wave (km/s) = 4.04800 2.06206 3.21235
# Velocity P-wave (km/s) = 5.34466 6.94163 6.19482
#
# Compressibility (1/GPa) = 0.07888717
#
# Stress axis : x y z
#
# Youngs Moduli (GPa) = 8.96139 80.22316 56.78414
#
# Poissons Ratio (x) = 0.87535 0.64201
# Poissons Ratio (y) = 0.09778 0.52080
# Poissons Ratio (z) = 0.10132 0.73578
#
# Static dielectric constant tensor:
#      x y z
#    x 1.645330 0.000000 0.000000 
#    y 0.000000 1.621140 0.000000 
#    z 0.000000 0.000000 1.646770 
# 
# From -- ./inp_files/10997.got.cif
#   From: 2010.05.17/outbox.cif.g08.bks.cpg/sg35_6_cif.got.tgz:10997.got - 2010.06.03 17:29:28.
