data_PCOD9349577
_publ_section_title
;
Structure prediction by ZEFSAII (Michael W. Deem and Ramdas Pophale) SiO2 
 PCOD9349577
Probable space group: C M M 2
;
_chemical_formula_sum "Si O2"
_cell_formula_units_Z 56
_cell_length_a 20.115017
_cell_length_b 8.215971
_cell_length_c 18.240777
_cell_angle_alpha 90.000000
_cell_angle_beta 90.000000
_cell_angle_gamma 90.000000
_cell_volume 3014.551000
_symmetry_space_group_name_H-M "C M M 2"
_symmetry_group_IT_number 35
_symmetry_cell_setting 'orthorhombic'
loop_
_space_group_symop_operation_xyz
x,y,z
-x,-y,z
-x,y,z
x,-y,z
1/2+x,1/2+y,z
1/2-x,1/2-y,z
1/2-x,1/2+y,z
1/2+x,1/2-y,z
loop_
_atom_site_type_symbol
_atom_site_label
_atom_site_fract_x
_atom_site_fract_y
_atom_site_fract_z
Si Si1 0.176546 0.693797 0.809260
Si Si2 0.076755 0.198682 0.097204
Si Si3 0.576281 0.303700 0.516920
Si Si4 0.675623 0.195178 0.642189
Si Si5 0.324452 0.303346 0.223150
Si Si6 0.324794 0.303290 0.390259
Si Si7 0.423913 0.696122 0.933284
O O1 0.175876 0.500000 0.806040
O O2 0.250000 0.750000 0.831458
O O3 0.164751 0.754601 0.725952
O O4 0.123122 0.749239 0.868202
O O5 0.123868 0.256453 0.162374
O O6 0.000000 0.246513 0.108109
O O7 0.078125 0.000000 0.098007
O O8 0.097521 0.250076 0.015092
O O9 0.500000 0.244111 0.518133
O O10 0.573698 0.500000 0.512733
O O11 0.618830 0.257988 0.588301
O O12 0.619613 0.245186 0.447257
O O13 0.750000 0.250000 0.619617
O O14 0.674472 0.000000 0.641423
O O15 0.327000 0.500000 0.223798
O O16 0.250000 0.250000 0.204245
O O17 0.337947 0.247879 0.306662
O O18 0.325596 0.500000 0.390681
O O19 0.250000 0.250000 0.410753
O O20 0.500000 0.751265 0.922143
O O21 0.424431 0.500000 0.934210
#
# Coordination Sequence:
#
# PCOD9349577 Si02
#       7
#     8   8   8   8   8   8   8
#     4  10  21  36  54  76 101 129 165 208 250 296
#     4   8  15  29  49  72  97 128 166 203 240 287
#     4  10  21  35  51  75 105 133 165 206 249 294
#     4  10  21  37  56  76  99 130 167 205 248 299
#     4   9  17  30  49  72  98 128 163 204 246 288
#     4   9  18  32  50  72  98 130 166 203 245 293
#     4   9  18  33  52  74 102 135 169 205 248 298
#
# _framework density 18.576564000000001
#
# number of rings (size 3 to 8) (size 9 to 14) (size 15 to 20)
#    0.000    2.714    0.000    2.143    0.000    5.714 
#    0.000    7.857    0.000    1.286    0.000    4.000 
#    0.000    0.000    0.000    0.000    0.000    0.000 
#
# Total GULP energy -156160.723926 kJ/mol
# GULP energy per Si atom -5577.168712 kJ/mol
# Density = 1.853428 g / cm^3
# Si number density = 18.576564 Si / 1000 Ang^3
#
#
#
# Elastic Constant Matrix: (Units=GPa)
#
#
# Indices 1 2 3 4 5 6 
#
# 1 160.4487 14.1413 126.0343 0.0000 0.0000 0.0000
# 2 14.1413 8.5574 13.9702 0.0000 0.0000 0.0000
# 3 126.0343 13.9702 142.3097 0.0000 0.0000 0.0000
# 4 0.0000 0.0000 0.0000 5.2663 0.0000 0.0000
# 5 0.0000 0.0000 0.0000 0.0000 275.9990 0.0000
# 6 0.0000 0.0000 0.0000 0.0000 0.0000 27.4046
#
#
#
# Elastic Compliance Matrix: (Units=1/GPa)
#
#
# Indices 1 2 3 4 5 6 
#
# 1 0.020664 -0.005086 -0.017801 0.000000 0.000000 0.000000
# 2 -0.005086 0.140413 -0.009279 0.000000 0.000000 0.000000
# 3 -0.017801 -0.009279 0.023703 0.000000 0.000000 0.000000
# 4 0.000000 0.000000 0.000000 0.189888 0.000000 0.000000
# 5 0.000000 0.000000 0.000000 0.000000 0.003623 0.000000
# 6 0.000000 0.000000 0.000000 0.000000 0.000000 0.036490
#
#
# Mechanical properties :
#
#
# Convention : Reuss Voigt Hill
#
# Bulk Modulus (GPa) = 8.30248 68.84525 38.57387
# Shear Modulus (GPa) = 9.62901 72.21198 40.92049
#
# Velocity S-wave (km/s) = 2.27918 6.24156 4.69849
# Velocity P-wave (km/s) = 3.37717 9.43840 7.08832
#
# Compressibility (1/GPa) = 0.12044587
#
# Stress axis : x y z
#
# Youngs Moduli (GPa) = 48.39311 7.12187 42.18798
#
# Poissons Ratio (x) = 0.03623 0.75101
# Poissons Ratio (y) = 0.24615 0.39147
# Poissons Ratio (z) = 0.86147 0.06609
#
# Static dielectric constant tensor:
#      x y z
#    x 1.602910 0.000000 0.000000 
#    y 0.000000 1.659080 0.000000 
#    z 0.000000 0.000000 1.655990 
# 
# From -- ./inp_files/15644.got.cif
#   From: 2010.05.17/outbox.cif.g08.bks.cpg/sg35_8_cif.got.tgz:15644.got - 2010.06.03 17:29:28.
