data_PCOD9349928
_publ_section_title
;
Structure prediction by ZEFSAII (Michael W. Deem and Ramdas Pophale) SiO2 
 PCOD9349928
Probable space group: C M M 2
;
_chemical_formula_sum "Si O2"
_cell_formula_units_Z 58
_cell_length_a 28.245174
_cell_length_b 16.608016
_cell_length_c 5.344183
_cell_angle_alpha 90.000000
_cell_angle_beta 90.000000
_cell_angle_gamma 90.000000
_cell_volume 2506.936481
_symmetry_space_group_name_H-M "C M M 2"
_symmetry_group_IT_number 35
_symmetry_cell_setting 'orthorhombic'
loop_
_space_group_symop_operation_xyz
x,y,z
-x,-y,z
-x,y,z
x,-y,z
1/2+x,1/2+y,z
1/2-x,1/2-y,z
1/2-x,1/2+y,z
1/2+x,1/2-y,z
loop_
_atom_site_type_symbol
_atom_site_label
_atom_site_fract_x
_atom_site_fract_y
_atom_site_fract_z
Si Si1 0.000000 0.500000 0.823040
Si Si2 0.549795 0.873660 0.110063
Si Si3 0.756579 0.902806 0.267922
Si Si4 0.203039 0.403235 0.771196
Si Si5 0.856473 0.178597 0.191303
Si Si6 0.552148 0.595448 0.447428
Si Si7 0.120351 0.666039 0.472143
Si Si8 0.573900 0.277945 0.821033
O O1 0.040997 0.429659 0.870163
O O2 0.500000 0.891466 0.253127
O O3 0.596076 0.892157 0.270494
O O4 0.552806 0.779670 0.034394
O O5 0.722675 0.875779 0.039231
O O6 0.808972 0.870860 0.217125
O O7 0.757290 0.000000 0.264330
O O8 0.737312 0.878452 0.540622
O O9 0.202082 0.500000 0.776575
O O10 0.151807 0.372828 0.685790
O O11 0.851172 0.263632 0.330867
O O12 0.873292 0.198678 0.910797
O O13 0.902446 0.131019 0.301555
O O14 0.500000 0.610229 0.330168
O O15 0.557791 0.500000 0.476870
O O16 0.551735 0.641572 0.713766
O O17 0.077479 0.716179 0.592684
#
# Coordination Sequence:
#
# PCOD9349928 Si02
#       8
#     2   8   8   8   8   8   8   8
#     4   8  20  40  62 100 122 186 220 276 326 404
#     4   9  20  39  61  91 131 172 222 270 328 400
#     4  10  23  44  67  96 129 171 223 278 341 406
#     4  10  24  43  67  96 129 171 221 281 344 404
#     4  10  23  41  62  91 128 174 216 275 332 405
#     4  10  22  39  63  96 130 174 223 270 333 402
#     4  10  23  40  60  93 128 173 215 276 338 403
#     4  10  22  39  61  93 131 168 218 275 337 393
#
# _framework density 23.135807
#
# number of rings (size 3 to 8) (size 9 to 14) (size 15 to 20)
#    0.414    1.793    0.000    0.828    8.690    7.724 
#    1.241    2.069    0.000    0.000    0.000    0.000 
#    0.000    0.000    0.000    0.000    0.000    0.000 
#
# Total GULP energy -161510.037972 kJ/mol
# GULP energy per Si atom -5569.311654 kJ/mol
# Density = 2.308315 g / cm^3
# Si number density = 23.135807 Si / 1000 Ang^3
#
#
#
# Elastic Constant Matrix: (Units=GPa)
#
#
# Indices 1 2 3 4 5 6 
#
# 1 83.9514 32.3078 11.3130 0.0000 0.0000 0.0000
# 2 32.3078 75.9476 19.9265 0.0000 0.0000 0.0000
# 3 11.3130 19.9265 72.3224 0.0000 0.0000 0.0000
# 4 0.0000 0.0000 0.0000 11.6338 0.0000 0.0000
# 5 0.0000 0.0000 0.0000 0.0000 23.6940 0.0000
# 6 0.0000 0.0000 0.0000 0.0000 0.0000 31.2958
#
#
#
# Elastic Compliance Matrix: (Units=1/GPa)
#
#
# Indices 1 2 3 4 5 6 
#
# 1 0.014268 -0.005911 -0.000603 0.000000 0.000000 0.000000
# 2 -0.005911 0.016642 -0.003661 0.000000 0.000000 0.000000
# 3 -0.000603 -0.003661 0.014930 0.000000 0.000000 0.000000
# 4 0.000000 0.000000 0.000000 0.085956 0.000000 0.000000
# 5 0.000000 0.000000 0.000000 0.000000 0.042205 0.000000
# 6 0.000000 0.000000 0.000000 0.000000 0.000000 0.031953
#
#
# Mechanical properties :
#
#
# Convention : Reuss Voigt Hill
#
# Bulk Modulus (GPa) = 39.23142 39.92400 39.57771
# Shear Modulus (GPa) = 21.29468 24.56968 22.93218
#
# Velocity S-wave (km/s) = 3.03714 3.26233 3.15175
# Velocity P-wave (km/s) = 5.41228 5.61108 5.51258
#
# Compressibility (1/GPa) = 0.02548977
#
# Stress axis : x y z
#
# Youngs Moduli (GPa) = 70.08795 60.08891 66.97968
#
# Poissons Ratio (x) = 0.35520 0.04040
# Poissons Ratio (y) = 0.41430 0.24519
# Poissons Ratio (z) = 0.04227 0.21996
#
# Static dielectric constant tensor:
#      x y z
#    x 1.892240 0.000000 0.000000 
#    y 0.000000 1.841770 0.000000 
#    z 0.000000 0.000000 1.969850 
# 
# From -- ./inp_files/3768.got.cif
#   From: 2010.05.17/outbox.cif.g08.bks.cpg/sg35_2_cif.got.tgz:3768.got - 2010.06.03 17:29:28.
