data_PCOD9349372
_publ_section_title
;
Structure prediction by ZEFSAII (Michael W. Deem and Ramdas Pophale) SiO2 
 PCOD9349372
Probable space group: C M M 2
;
_chemical_formula_sum "Si O2"
_cell_formula_units_Z 48
_cell_length_a 8.632455
_cell_length_b 19.556776
_cell_length_c 15.365927
_cell_angle_alpha 90.000000
_cell_angle_beta 90.000000
_cell_angle_gamma 90.000000
_cell_volume 2594.121721
_symmetry_space_group_name_H-M "C M M 2"
_symmetry_group_IT_number 35
_symmetry_cell_setting 'orthorhombic'
loop_
_space_group_symop_operation_xyz
x,y,z
-x,-y,z
-x,y,z
x,-y,z
1/2+x,1/2+y,z
1/2-x,1/2-y,z
1/2-x,1/2+y,z
1/2+x,1/2-y,z
loop_
_atom_site_type_symbol
_atom_site_label
_atom_site_fract_x
_atom_site_fract_y
_atom_site_fract_z
Si Si1 0.686320 0.675501 0.410360
Si Si2 0.185118 0.175448 0.910007
Si Si3 0.184966 0.675644 0.716769
Si Si4 0.812435 0.920659 0.567617
Si Si5 0.313668 0.325304 0.209905
Si Si6 0.814194 0.420207 0.059702
O O1 0.500000 0.678752 0.411672
O O2 0.750000 0.750000 0.434960
O O3 0.735509 0.618686 0.479567
O O4 0.732462 0.661234 0.310462
O O5 0.250000 0.250000 0.936647
O O6 0.248666 0.161902 0.813084
O O7 0.000000 0.178319 0.908224
O O8 0.242773 0.118850 0.977210
O O9 0.250000 0.750000 0.689597
O O10 0.240895 0.619195 0.648896
O O11 0.000000 0.678801 0.720660
O O12 0.000000 0.917014 0.573627
O O13 0.767928 0.000000 0.566006
O O14 0.500000 0.324709 0.203981
O O15 0.250000 0.250000 0.186879
O O16 0.246036 0.381204 0.145046
O O17 0.770748 0.500000 0.060724
O O18 0.000000 0.415229 0.055651
#
# Coordination Sequence:
#
# PCOD9349372 Si02
#       6
#     8   8   8   8   8   8
#     4   9  19  35  57  83 110 145 187 233 279 326
#     4  11  22  39  63  87 112 144 185 230 277 330
#     4  11  22  38  60  85 113 145 186 232 278 329
#     4  10  21  37  56  81 115 152 188 228 278 333
#     4  10  20  36  59  85 113 146 188 233 278 330
#     4  11  24  40  57  81 115 151 186 228 279 332
#
# _framework density 18.503371999999999
#
# number of rings (size 3 to 8) (size 9 to 14) (size 15 to 20)
#    0.000    1.667    0.000    6.000    0.000    5.667 
#    0.000    1.667    0.000    0.000    0.000    0.000 
#    0.000    0.000    0.000    0.000    0.000    0.000 
#
# Total GULP energy -134150.728444 kJ/mol
# GULP energy per Si atom -5589.613685 kJ/mol
# Density = 1.846126 g / cm^3
# Si number density = 18.503372 Si / 1000 Ang^3
#
#
#
# Elastic Constant Matrix: (Units=GPa)
#
#
# Indices 1 2 3 4 5 6 
#
# 1 89.0992 73.3374 54.1204 0.0000 0.0000 0.0000
# 2 73.3374 198.1040 128.1620 0.0000 0.0000 0.0000
# 3 54.1204 128.1620 121.4850 0.0000 0.0000 0.0000
# 4 0.0000 0.0000 0.0000 -32.2168 0.0000 0.0000
# 5 0.0000 0.0000 0.0000 0.0000 5.9912 0.0000
# 6 0.0000 0.0000 0.0000 0.0000 0.0000 27.8355
#
#
#
# Elastic Compliance Matrix: (Units=1/GPa)
#
#
# Indices 1 2 3 4 5 6 
#
# 1 0.016449 -0.004248 -0.002847 0.000000 0.000000 0.000000
# 2 -0.004248 0.016996 -0.016037 0.000000 0.000000 0.000000
# 3 -0.002847 -0.016037 0.026419 0.000000 0.000000 0.000000
# 4 0.000000 0.000000 0.000000 -0.031040 0.000000 0.000000
# 5 0.000000 0.000000 0.000000 0.000000 0.166910 0.000000
# 6 0.000000 0.000000 0.000000 0.000000 0.000000 0.035925
#
#
# Mechanical properties :
#
#
# Convention : Reuss Voigt Hill
#
# Bulk Modulus (GPa) = 73.53263 102.21423 87.87343
# Shear Modulus (GPa) = 17.70190 10.52654 14.11422
#
# Velocity S-wave (km/s) = 3.09639 2.38775 2.76486
# Velocity P-wave (km/s) = 7.25327 7.93490 7.60173
#
# Compressibility (1/GPa) = 0.01359940
#
# Stress axis : x y z
#
# Youngs Moduli (GPa) = 60.79470 58.83855 37.85218
#
# Poissons Ratio (x) = 0.24993 0.10775
# Poissons Ratio (y) = 0.25823 0.60705
# Poissons Ratio (z) = 0.17306 0.94362
#
# Static dielectric constant tensor:
#      x y z
#    x 1.619770 0.000000 0.000000 
#    y 0.000000 1.603830 0.000000 
#    z 0.000000 0.000000 1.630630 
# 
# From -- ./inp_files/15078.got.cif
#   From: 2010.05.17/outbox.cif.g08.bks.cpg/sg35_8_cif.got.tgz:15078.got - 2010.06.03 17:29:28.
