data_PCOD9349820
_publ_section_title
;
Structure prediction by ZEFSAII (Michael W. Deem and Ramdas Pophale) SiO2 
 PCOD9349820
Probable space group: C M M 2
;
_chemical_formula_sum "Si O2"
_cell_formula_units_Z 40
_cell_length_a 26.723929
_cell_length_b 14.549596
_cell_length_c 5.155368
_cell_angle_alpha 90.000000
_cell_angle_beta 90.000000
_cell_angle_gamma 90.000000
_cell_volume 2004.522406
_symmetry_space_group_name_H-M "C M M 2"
_symmetry_group_IT_number 35
_symmetry_cell_setting 'orthorhombic'
loop_
_space_group_symop_operation_xyz
x,y,z
-x,-y,z
-x,y,z
x,-y,z
1/2+x,1/2+y,z
1/2-x,1/2-y,z
1/2-x,1/2+y,z
1/2+x,1/2-y,z
loop_
_atom_site_type_symbol
_atom_site_label
_atom_site_fract_x
_atom_site_fract_y
_atom_site_fract_z
Si Si1 0.058875 0.894133 0.372890
Si Si2 0.305248 0.210168 0.897860
Si Si3 0.557736 0.894451 0.101705
Si Si4 0.906895 0.790738 0.871135
Si Si5 0.159015 0.606062 0.389066
O O1 0.085607 0.832092 0.587971
O O2 0.000000 0.891448 0.433246
O O3 0.075679 0.000000 0.385085
O O4 0.066859 0.853351 0.087340
O O5 0.250000 0.250000 0.892063
O O6 0.348415 0.285565 0.944122
O O7 0.321354 0.165553 0.626107
O O8 0.312753 0.137247 0.128247
O O9 0.500000 0.884826 0.187193
O O10 0.599909 0.883193 0.323076
O O11 0.563728 0.000000 0.000982
O O12 0.570633 0.812278 0.903903
O O13 0.167985 0.500000 0.446449
#
# Coordination Sequence:
#
# PCOD9349820 Si02
#       5
#     8   8   8   8   8
#     4  11  23  40  62  88 120 158 200 246 298 355
#     4  11  23  41  61  85 117 155 199 250 303 348
#     4   9  18  34  59  92 126 158 192 234 291 365
#     4  11  22  39  61  87 120 158 199 246 298 354
#     4  10  21  39  62  88 120 156 196 239 291 359
#
# _framework density 19.954878000000001
#
# number of rings (size 3 to 8) (size 9 to 14) (size 15 to 20)
#    0.000    1.600    0.000    6.000    0.000    2.400 
#    0.000   12.000    0.000   27.600    0.000    0.000 
#    0.000    0.000    0.000    0.000    0.000    0.000 
#
# Total GULP energy -111763.910834 kJ/mol
# GULP energy per Si atom -5588.195542 kJ/mol
# Density = 1.990946 g / cm^3
# Si number density = 19.954878 Si / 1000 Ang^3
#
#
#
# Elastic Constant Matrix: (Units=GPa)
#
#
# Indices 1 2 3 4 5 6 
#
# 1 136.0997 42.7961 7.5770 0.0000 0.0000 0.0000
# 2 42.7961 107.0476 25.0815 0.0000 0.0000 0.0000
# 3 7.5770 25.0815 69.8117 0.0000 0.0000 0.0000
# 4 0.0000 0.0000 0.0000 9.7155 0.0000 0.0000
# 5 0.0000 0.0000 0.0000 0.0000 11.6600 0.0000
# 6 0.0000 0.0000 0.0000 0.0000 0.0000 20.9761
#
#
#
# Elastic Compliance Matrix: (Units=1/GPa)
#
#
# Indices 1 2 3 4 5 6 
#
# 1 0.008411 -0.003438 0.000322 0.000000 0.000000 0.000000
# 2 -0.003438 0.011606 -0.003796 0.000000 0.000000 0.000000
# 3 0.000322 -0.003796 0.015653 0.000000 0.000000 0.000000
# 4 0.000000 0.000000 0.000000 0.102928 0.000000 0.000000
# 5 0.000000 0.000000 0.000000 0.000000 0.085763 0.000000
# 6 0.000000 0.000000 0.000000 0.000000 0.000000 0.047673
#
#
# Mechanical properties :
#
#
# Convention : Reuss Voigt Hill
#
# Bulk Modulus (GPa) = 45.77643 51.54091 48.65867
# Shear Modulus (GPa) = 17.05667 24.30394 20.68031
#
# Velocity S-wave (km/s) = 2.92680 3.49369 3.22274
# Velocity P-wave (km/s) = 5.86612 6.49302 6.18751
#
# Compressibility (1/GPa) = 0.02184530
#
# Stress axis : x y z
#
# Youngs Moduli (GPa) = 118.89647 86.16519 63.88454
#
# Poissons Ratio (x) = 0.29624 -0.02059
# Poissons Ratio (y) = 0.40877 0.24253
# Poissons Ratio (z) = -0.03832 0.32712
#
# Static dielectric constant tensor:
#      x y z
#    x 1.698290 0.000000 0.000000 
#    y 0.000000 1.717420 0.000000 
#    z 0.000000 0.000000 1.679250 
# 
# From -- ./inp_files/3325.got.cif
#   From: 2010.05.17/outbox.cif.g08.bks.cpg/sg35_2_cif.got.tgz:3325.got - 2010.06.03 17:29:28.
