data_PCOD9349506
_publ_section_title
;
Structure prediction by ZEFSAII (Michael W. Deem and Ramdas Pophale) SiO2 
 PCOD9349506
Probable space group: C M M 2
;
_chemical_formula_sum "Si O2"
_cell_formula_units_Z 40
_cell_length_a 10.195905
_cell_length_b 14.270394
_cell_length_c 13.670189
_cell_angle_alpha 90.000000
_cell_angle_beta 90.000000
_cell_angle_gamma 90.000000
_cell_volume 1989.006779
_symmetry_space_group_name_H-M "C M M 2"
_symmetry_group_IT_number 35
_symmetry_cell_setting 'orthorhombic'
loop_
_space_group_symop_operation_xyz
x,y,z
-x,-y,z
-x,y,z
x,-y,z
1/2+x,1/2+y,z
1/2-x,1/2-y,z
1/2-x,1/2+y,z
1/2+x,1/2-y,z
loop_
_atom_site_type_symbol
_atom_site_label
_atom_site_fract_x
_atom_site_fract_y
_atom_site_fract_z
Si Si1 0.500000 0.746978 0.697571
Si Si2 0.848231 0.114211 0.215619
Si Si3 0.000000 0.888279 0.869039
Si Si4 0.154743 0.612833 0.393379
Si Si5 0.750000 0.750000 0.557994
Si Si6 0.000000 0.386709 0.880681
Si Si7 0.241891 0.886574 0.001169
O O1 0.500000 0.654737 0.763174
O O2 0.625454 0.745317 0.628324
O O3 0.500000 0.831580 0.777600
O O4 0.744834 0.138812 0.300206
O O5 0.000000 0.145968 0.229702
O O6 0.853635 0.000000 0.214434
O O7 0.791498 0.145011 0.110640
O O8 0.873962 0.857424 0.929504
O O9 0.000000 0.000000 0.864934
O O10 0.158136 0.500000 0.403222
O O11 0.220766 0.662862 0.486112
O O12 0.000000 0.639659 0.383806
O O13 0.875865 0.361557 0.947915
O O14 0.000000 0.500000 0.863632
O O15 0.241304 0.000000 0.006314
#
# Coordination Sequence:
#
# PCOD9349506 Si02
#       7
#     4   8   4   8   4   4   8
#     4  12  26  42  64  86 118 162 216 270 316 362
#     4   9  17  32  61  97 127 161 203 246 303 376
#     4  10  20  38  61  87 119 153 198 254 309 368
#     4  10  23  43  67  94 126 165 209 258 317 382
#     4  12  26  46  64  88 124 164 210 278 326 364
#     4  10  22  38  59  89 125 167 210 250 301 372
#     4   9  17  33  59  91 127 161 195 243 303 368
#
# _framework density 20.11054
#
# number of rings (size 3 to 8) (size 9 to 14) (size 15 to 20)
#    0.000    2.000    2.000    1.200    2.800    1.600 
#    0.000    2.000    0.000    0.000    0.000    0.000 
#    0.000    0.000    0.000    0.000    0.000    0.000 
#
# Total GULP energy -111700.118255 kJ/mol
# GULP energy per Si atom -5585.005913 kJ/mol
# Density = 2.006477 g / cm^3
# Si number density = 20.110540 Si / 1000 Ang^3
#
#
#
# Elastic Constant Matrix: (Units=GPa)
#
#
# Indices 1 2 3 4 5 6 
#
# 1 219.0490 32.7032 116.8133 0.0000 0.0000 0.0000
# 2 32.7032 76.9439 29.3949 0.0000 0.0000 0.0000
# 3 116.8133 29.3949 190.6261 0.0000 0.0000 0.0000
# 4 0.0000 0.0000 0.0000 58.7437 0.0000 0.0000
# 5 0.0000 0.0000 0.0000 0.0000 49.3876 0.0000
# 6 0.0000 0.0000 0.0000 0.0000 0.0000 59.1192
#
#
#
# Elastic Compliance Matrix: (Units=1/GPa)
#
#
# Indices 1 2 3 4 5 6 
#
# 1 0.006921 -0.001404 -0.004025 0.000000 0.000000 0.000000
# 2 -0.001404 0.014095 -0.001313 0.000000 0.000000 0.000000
# 3 -0.004025 -0.001313 0.007915 0.000000 0.000000 0.000000
# 4 0.000000 0.000000 0.000000 0.017023 0.000000 0.000000
# 5 0.000000 0.000000 0.000000 0.000000 0.020248 0.000000
# 6 0.000000 0.000000 0.000000 0.000000 0.000000 0.016915
#
#
# Mechanical properties :
#
#
# Convention : Reuss Voigt Hill
#
# Bulk Modulus (GPa) = 64.73752 93.82687 79.28219
# Shear Modulus (GPa) = 49.14049 53.96394 51.55221
#
# Velocity S-wave (km/s) = 4.94856 5.18574 5.06854
# Velocity P-wave (km/s) = 8.05678 9.08915 8.58849
#
# Compressibility (1/GPa) = 0.01544699
#
# Stress axis : x y z
#
# Youngs Moduli (GPa) = 144.48702 70.94772 126.34916
#
# Poissons Ratio (x) = 0.09962 0.50851
# Poissons Ratio (y) = 0.20287 0.16590
# Poissons Ratio (z) = 0.58150 0.09316
#
# Static dielectric constant tensor:
#      x y z
#    x 1.552360 0.000000 0.000000 
#    y 0.000000 1.754490 0.000000 
#    z 0.000000 0.000000 1.683480 
# 
# From -- ./inp_files/14864.got.cif
#   From: 2010.05.17/outbox.cif.g08.bks.cpg/sg35_8_cif.got.tgz:14864.got - 2010.06.03 17:29:28.
