data_PCOD9349444
_publ_section_title
;
Structure prediction by ZEFSAII (Michael W. Deem and Ramdas Pophale) SiO2 
 PCOD9349444
Probable space group: C M M 2
;
_chemical_formula_sum "Si O2"
_cell_formula_units_Z 48
_cell_length_a 15.920468
_cell_length_b 8.329140
_cell_length_c 18.077027
_cell_angle_alpha 90.000000
_cell_angle_beta 90.000000
_cell_angle_gamma 90.000000
_cell_volume 2397.082597
_symmetry_space_group_name_H-M "C M M 2"
_symmetry_group_IT_number 35
_symmetry_cell_setting 'orthorhombic'
loop_
_space_group_symop_operation_xyz
x,y,z
-x,-y,z
-x,y,z
x,-y,z
1/2+x,1/2+y,z
1/2-x,1/2-y,z
1/2-x,1/2+y,z
1/2+x,1/2-y,z
loop_
_atom_site_type_symbol
_atom_site_label
_atom_site_fract_x
_atom_site_fract_y
_atom_site_fract_z
Si Si1 0.845536 0.194114 0.250000
Si Si2 0.160086 0.693731 0.778466
Si Si3 0.000000 0.303738 0.683226
Si Si4 0.902584 0.692360 0.935264
Si Si5 0.100532 0.183326 0.091450
Si Si6 0.000000 0.692329 0.513374
Si Si7 0.346814 0.307188 0.413481
O O1 0.750000 0.250000 0.250239
O O2 0.880917 0.256285 0.172007
O O3 0.877428 0.246065 0.330900
O O4 0.853998 0.000000 0.248565
O O5 0.158784 0.500000 0.779561
O O6 0.250000 0.750000 0.750719
O O7 0.082830 0.747785 0.727679
O O8 0.145701 0.752273 0.862882
O O9 0.000000 0.250748 0.598403
O O10 0.000000 0.500000 0.683683
O O11 0.904137 0.500000 0.931857
O O12 0.000000 0.747401 0.929284
O O13 0.867858 0.738104 0.015811
O O14 0.000000 0.182067 0.085804
O O15 0.131584 0.000000 0.091639
O O16 0.084433 0.749003 0.471871
O O17 0.000000 0.500000 0.513475
O O18 0.344804 0.500000 0.414211
O O19 0.250000 0.250000 0.424968
#
# Coordination Sequence:
#
# PCOD9349444 Si02
#       7
#     8   8   4   8   8   4   8
#     4   9  19  34  53  74 104 145 185 227 277 328
#     4  10  20  37  60  84 110 147 187 226 276 333
#     4   9  20  41  63  82 113 150 182 225 281 341
#     4   9  17  32  53  74 103 144 186 226 271 325
#     4   9  18  31  49  74 105 141 182 226 272 318
#     4  11  23  39  63  92 117 150 192 235 293 357
#     4  10  21  39  62  87 119 156 195 241 290 344
#
# _framework density 20.024342000000001
#
# number of rings (size 3 to 8) (size 9 to 14) (size 15 to 20)
#    0.000    2.500    0.833    0.750    1.167    3.333 
#    0.000    7.083    0.000    0.000    0.000    0.000 
#    0.000    0.000    0.000    0.000    0.000    0.000 
#
# Total GULP energy -133774.010029 kJ/mol
# GULP energy per Si atom -5573.917085 kJ/mol
# Density = 1.997877 g / cm^3
# Si number density = 20.024342 Si / 1000 Ang^3
#
#
#
# Elastic Constant Matrix: (Units=GPa)
#
#
# Indices 1 2 3 4 5 6 
#
# 1 107.6744 15.5091 87.0313 0.0000 0.0000 0.0000
# 2 15.5091 14.9016 25.5935 0.0000 0.0000 0.0000
# 3 87.0313 25.5935 197.0059 0.0000 0.0000 0.0000
# 4 0.0000 0.0000 0.0000 21.7981 0.0000 0.0000
# 5 0.0000 0.0000 0.0000 0.0000 -14.6830 0.0000
# 6 0.0000 0.0000 0.0000 0.0000 0.0000 25.5587
#
#
#
# Elastic Compliance Matrix: (Units=1/GPa)
#
#
# Indices 1 2 3 4 5 6 
#
# 1 0.014771 -0.005362 -0.005829 0.000000 0.000000 0.000000
# 2 -0.005362 0.088327 -0.009106 0.000000 0.000000 0.000000
# 3 -0.005829 -0.009106 0.008834 0.000000 0.000000 0.000000
# 4 0.000000 0.000000 0.000000 0.045875 0.000000 0.000000
# 5 0.000000 0.000000 0.000000 0.000000 -0.068106 0.000000
# 6 0.000000 0.000000 0.000000 0.000000 0.000000 0.039126
#
#
# Mechanical properties :
#
#
# Convention : Reuss Voigt Hill
#
# Bulk Modulus (GPa) = 14.01777 63.98331 39.00054
# Shear Modulus (GPa) = 25.87992 19.29796 22.58894
#
# Velocity S-wave (km/s) = 3.59893 3.10776 3.36232
# Velocity P-wave (km/s) = 4.92801 6.70072 5.88154
#
# Compressibility (1/GPa) = 0.07133803
#
# Stress axis : x y z
#
# Youngs Moduli (GPa) = 67.70094 11.32157 113.20028
#
# Poissons Ratio (x) = 0.06071 0.65981
# Poissons Ratio (y) = 0.36303 1.03079
# Poissons Ratio (z) = 0.39461 0.10309
#
# Static dielectric constant tensor:
#      x y z
#    x 1.691160 0.000000 0.000000 
#    y 0.000000 1.718090 0.000000 
#    z 0.000000 0.000000 1.751460 
# 
# From -- ./inp_files/15211.got.cif
#   From: 2010.05.17/outbox.cif.g08.bks.cpg/sg35_8_cif.got.tgz:15211.got - 2010.06.03 17:29:28.
