data_PCOD9349162
_publ_section_title
;
Structure prediction by ZEFSAII (Michael W. Deem and Ramdas Pophale) SiO2 
 PCOD9349162
Probable space group: C M M 2
;
_chemical_formula_sum "Si O2"
_cell_formula_units_Z 64
_cell_length_a 8.420734
_cell_length_b 28.812226
_cell_length_c 13.425010
_cell_angle_alpha 90.000000
_cell_angle_beta 90.000000
_cell_angle_gamma 90.000000
_cell_volume 3257.177149
_symmetry_space_group_name_H-M "C M M 2"
_symmetry_group_IT_number 35
_symmetry_cell_setting 'orthorhombic'
loop_
_space_group_symop_operation_xyz
x,y,z
-x,-y,z
-x,y,z
x,-y,z
1/2+x,1/2+y,z
1/2-x,1/2-y,z
1/2-x,1/2+y,z
1/2+x,1/2-y,z
loop_
_atom_site_type_symbol
_atom_site_label
_atom_site_fract_x
_atom_site_fract_y
_atom_site_fract_z
Si Si1 0.181482 0.443496 0.490650
Si Si2 0.808416 0.143231 0.794444
Si Si3 0.188762 0.697050 0.384627
Si Si4 0.307758 0.053141 0.708178
Si Si5 0.690467 0.302993 0.596592
Si Si6 0.810088 0.144029 0.189999
Si Si7 0.307841 0.697335 0.991694
Si Si8 0.192506 0.553213 0.271879
O O1 0.172024 0.500000 0.491318
O O2 0.254727 0.432068 0.597729
O O3 0.253025 0.432532 0.382974
O O4 0.000000 0.425515 0.490169
O O5 0.749567 0.090626 0.786737
O O6 0.753718 0.169432 0.693966
O O7 0.754086 0.170261 0.892677
O O8 0.000000 0.143406 0.794200
O O9 0.250000 0.750000 0.377310
O O10 0.248872 0.677737 0.490814
O O11 0.247451 0.669240 0.289004
O O12 0.000000 0.697352 0.386211
O O13 0.500000 0.053457 0.702813
O O14 0.258897 0.000000 0.727651
O O15 0.500000 0.302867 0.594572
O O16 0.750000 0.250000 0.603769
O O17 0.752214 0.091076 0.194901
O O18 0.000000 0.145089 0.191372
O O19 0.754204 0.171012 0.091606
O O20 0.500000 0.697511 0.991519
O O21 0.250000 0.750000 0.990945
O O22 0.239878 0.500000 0.252083
O O23 0.000000 0.554124 0.276066
#
# Coordination Sequence:
#
# PCOD9349162 Si02
#       8
#     8   8   8   8   8   8   8   8
#     4   7  12  26  48  74 106 143 182 224 269 319
#     4  10  22  38  57  83 114 147 188 235 286 340
#     4  11  22  37  57  82 115 150 185 229 286 348
#     4   9  18  33  54  82 115 151 193 235 276 329
#     4  10  20  35  55  82 115 146 182 229 282 346
#     4  11  23  38  58  84 115 150 193 238 287 343
#     4  10  23  43  64  85 111 146 189 240 291 341
#     4   9  18  34  56  83 116 154 195 238 284 335
#
# _framework density 19.648914999999999
#
# number of rings (size 3 to 8) (size 9 to 14) (size 15 to 20)
#    0.000    2.375    0.000    4.875    1.750    4.000 
#    0.000    0.625    0.000    6.000    0.000    0.000 
#    0.000    0.000    0.000    0.000    0.000    0.000 
#
# Total GULP energy -178642.070305 kJ/mol
# GULP energy per Si atom -5582.564697 kJ/mol
# Density = 1.960419 g / cm^3
# Si number density = 19.648915 Si / 1000 Ang^3
#
#
#
# Elastic Constant Matrix: (Units=GPa)
#
#
# Indices 1 2 3 4 5 6 
#
# 1 32.3267 22.4746 29.7206 0.0000 0.0000 0.0000
# 2 22.4746 136.4850 98.2669 0.0000 0.0000 0.0000
# 3 29.7206 98.2669 157.4698 0.0000 0.0000 0.0000
# 4 0.0000 0.0000 0.0000 40.0859 0.0000 0.0000
# 5 0.0000 0.0000 0.0000 0.0000 14.1082 0.0000
# 6 0.0000 0.0000 0.0000 0.0000 0.0000 28.1178
#
#
#
# Elastic Compliance Matrix: (Units=1/GPa)
#
#
# Indices 1 2 3 4 5 6 
#
# 1 0.037719 -0.001971 -0.005889 0.000000 0.000000 0.000000
# 2 -0.001971 0.013407 -0.007995 0.000000 0.000000 0.000000
# 3 -0.005889 -0.007995 0.012451 0.000000 0.000000 0.000000
# 4 0.000000 0.000000 0.000000 0.024946 0.000000 0.000000
# 5 0.000000 0.000000 0.000000 0.000000 0.070881 0.000000
# 6 0.000000 0.000000 0.000000 0.000000 0.000000 0.035565
#
#
# Mechanical properties :
#
#
# Convention : Reuss Voigt Hill
#
# Bulk Modulus (GPa) = 31.37987 69.68951 50.53469
# Shear Modulus (GPa) = 21.07027 28.18367 24.62697
#
# Velocity S-wave (km/s) = 3.27821 3.79141 3.54411
# Velocity P-wave (km/s) = 5.50762 7.39667 6.52091
#
# Compressibility (1/GPa) = 0.03186757
#
# Stress axis : x y z
#
# Youngs Moduli (GPa) = 26.51203 74.58542 80.31554
#
# Poissons Ratio (x) = 0.14701 0.47297
# Poissons Ratio (y) = 0.05226 0.64210
# Poissons Ratio (z) = 0.15613 0.59629
#
# Static dielectric constant tensor:
#      x y z
#    x 1.680760 0.000000 0.000000 
#    y 0.000000 1.700150 0.000000 
#    z 0.000000 0.000000 1.702120 
# 
# From -- ./inp_files/11915.got.cif
#   From: 2010.05.17/outbox.cif.g08.bks.cpg/sg35_6_cif.got.tgz:11915.got - 2010.06.03 17:29:28.
