data_PCOD9349321
_publ_section_title
;
Structure prediction by ZEFSAII (Michael W. Deem and Ramdas Pophale) SiO2 
 PCOD9349321
Probable space group: C M M 2
;
_chemical_formula_sum "Si O2"
_cell_formula_units_Z 48
_cell_length_a 16.282072
_cell_length_b 8.761241
_cell_length_c 17.303083
_cell_angle_alpha 90.000000
_cell_angle_beta 90.000000
_cell_angle_gamma 90.000000
_cell_volume 2468.304806
_symmetry_space_group_name_H-M "C M M 2"
_symmetry_group_IT_number 35
_symmetry_cell_setting 'orthorhombic'
loop_
_space_group_symop_operation_xyz
x,y,z
-x,-y,z
-x,y,z
x,-y,z
1/2+x,1/2+y,z
1/2-x,1/2-y,z
1/2-x,1/2+y,z
1/2+x,1/2-y,z
loop_
_atom_site_type_symbol
_atom_site_label
_atom_site_fract_x
_atom_site_fract_y
_atom_site_fract_z
Si Si1 0.500000 0.685991 0.303520
Si Si2 0.095506 0.683429 0.059474
Si Si3 0.500000 0.686000 0.481820
Si Si4 0.663380 0.315167 0.573891
Si Si5 0.336197 0.317497 0.212601
Si Si6 0.404422 0.678945 0.736009
Si Si7 0.340637 0.182073 0.891457
O O1 0.500000 0.500000 0.301710
O O2 0.500000 0.734051 0.392650
O O3 0.583401 0.735123 0.260356
O O4 0.106098 0.500000 0.065491
O O5 0.149075 0.764059 0.124634
O O6 0.000000 0.719148 0.073571
O O7 0.118751 0.730486 0.972514
O O8 0.500000 0.500000 0.483719
O O9 0.416355 0.733865 0.524846
O O10 0.665845 0.500000 0.572678
O O11 0.750000 0.250000 0.545927
O O12 0.648088 0.266324 0.662893
O O13 0.332415 0.500000 0.215876
O O14 0.250000 0.250000 0.241114
O O15 0.500000 0.690401 0.713831
O O16 0.385834 0.500000 0.748605
O O17 0.388382 0.764395 0.815567
O O18 0.250000 0.250000 0.887335
O O19 0.336947 0.000000 0.891658
#
# Coordination Sequence:
#
# PCOD9349321 Si02
#       7
#     4   8   4   8   8   8   8
#     4   9  20  38  61  88 117 150 192 237 287 351
#     4  10  21  38  59  83 113 150 193 240 290 341
#     4   9  18  38  63  84 115 156 190 231 289 349
#     4  10  20  36  60  87 116 153 194 236 285 343
#     4  11  22  38  60  89 119 153 196 239 288 347
#     4  10  20  36  57  82 112 150 195 238 286 343
#     4  11  23  37  53  79 113 151 194 240 287 339
#
# _framework density 19.446543999999999
#
# number of rings (size 3 to 8) (size 9 to 14) (size 15 to 20)
#    0.000    1.833    1.667    2.500    0.000    6.333 
#    0.000    0.417    0.000    3.000    0.000    0.000 
#    0.000    0.000    0.000    0.000    0.000    0.000 
#
# Total GULP energy -134054.607255 kJ/mol
# GULP energy per Si atom -5585.608636 kJ/mol
# Density = 1.940228 g / cm^3
# Si number density = 19.446544 Si / 1000 Ang^3
#
#
#
# Elastic Constant Matrix: (Units=GPa)
#
#
# Indices 1 2 3 4 5 6 
#
# 1 142.6135 29.1614 64.2834 0.0000 0.0000 0.0000
# 2 29.1614 17.3627 21.6826 0.0000 0.0000 0.0000
# 3 64.2834 21.6826 124.0736 0.0000 0.0000 0.0000
# 4 0.0000 0.0000 0.0000 9.2891 0.0000 0.0000
# 5 0.0000 0.0000 0.0000 0.0000 12.0810 0.0000
# 6 0.0000 0.0000 0.0000 0.0000 0.0000 26.9626
#
#
#
# Elastic Compliance Matrix: (Units=1/GPa)
#
#
# Indices 1 2 3 4 5 6 
#
# 1 0.011678 -0.015424 -0.003355 0.000000 0.000000 0.000000
# 2 -0.015424 0.094045 -0.008444 0.000000 0.000000 0.000000
# 3 -0.003355 -0.008444 0.011274 0.000000 0.000000 0.000000
# 4 0.000000 0.000000 0.000000 0.107654 0.000000 0.000000
# 5 0.000000 0.000000 0.000000 0.000000 0.082775 0.000000
# 6 0.000000 0.000000 0.000000 0.000000 0.000000 0.037088
#
#
# Mechanical properties :
#
#
# Convention : Reuss Voigt Hill
#
# Bulk Modulus (GPa) = 15.98699 57.14496 36.56598
# Shear Modulus (GPa) = 11.91018 20.92801 16.41910
#
# Velocity S-wave (km/s) = 2.47747 3.28408 2.90887
# Velocity P-wave (km/s) = 4.05249 6.62040 5.48873
#
# Compressibility (1/GPa) = 0.06255086
#
# Stress axis : x y z
#
# Youngs Moduli (GPa) = 85.62977 10.63324 88.70299
#
# Poissons Ratio (x) = 0.16401 0.29760
# Poissons Ratio (y) = 1.32077 0.74897
# Poissons Ratio (z) = 0.28729 0.08978
#
# Static dielectric constant tensor:
#      x y z
#    x 1.680110 0.000000 0.000000 
#    y 0.000000 1.668860 0.000000 
#    z 0.000000 0.000000 1.679320 
# 
# From -- ./inp_files/17126.got.cif
#   From: 2010.05.17/outbox.cif.g08.bks.cpg/sg35_9_cif.got.tgz:17126.got - 2010.06.03 17:29:28.
