data_PCOD9349053
_publ_section_title
;
Structure prediction by ZEFSAII (Michael W. Deem and Ramdas Pophale) SiO2 
 PCOD9349053
Probable space group: C M M 2
;
_chemical_formula_sum "Si O2"
_cell_formula_units_Z 64
_cell_length_a 8.802700
_cell_length_b 18.447253
_cell_length_c 21.257447
_cell_angle_alpha 90.000000
_cell_angle_beta 90.000000
_cell_angle_gamma 90.000000
_cell_volume 3451.904008
_symmetry_space_group_name_H-M "C M M 2"
_symmetry_group_IT_number 35
_symmetry_cell_setting 'orthorhombic'
loop_
_space_group_symop_operation_xyz
x,y,z
-x,-y,z
-x,y,z
x,-y,z
1/2+x,1/2+y,z
1/2-x,1/2-y,z
1/2-x,1/2+y,z
1/2+x,1/2-y,z
loop_
_atom_site_type_symbol
_atom_site_label
_atom_site_fract_x
_atom_site_fract_y
_atom_site_fract_z
Si Si1 0.315190 0.583104 0.353210
Si Si2 0.317382 0.669554 0.228148
Si Si3 0.816228 0.414800 0.595905
Si Si4 0.318226 0.170023 0.983216
Si Si5 0.324518 0.911928 0.735589
Si Si6 0.682637 0.330160 0.478094
Si Si7 0.819499 0.085312 0.866298
Si Si8 0.683177 0.084694 0.109809
O O1 0.500000 0.581616 0.352981
O O2 0.262048 0.500000 0.351266
O O3 0.268379 0.627561 0.291519
O O4 0.268811 0.623235 0.417126
O O5 0.500000 0.673319 0.227294
O O6 0.250000 0.750000 0.227477
O O7 0.259678 0.625592 0.167794
O O8 0.776479 0.500000 0.588757
O O9 0.770220 0.389407 0.666191
O O10 0.742059 0.368898 0.540867
O O11 0.000000 0.409864 0.593099
O O12 0.500000 0.174465 0.981660
O O13 0.250000 0.250000 0.988251
O O14 0.273829 0.122916 0.044299
O O15 0.260307 0.130932 0.920430
O O16 0.500000 0.889611 0.743700
O O17 0.230089 0.890028 0.796533
O O18 0.323098 0.000000 0.733538
O O19 0.500000 0.326878 0.479029
O O20 0.750000 0.250000 0.473456
O O21 0.000000 0.091151 0.872685
O O22 0.777281 0.000000 0.872508
O O23 0.500000 0.089744 0.116046
O O24 0.724691 0.000000 0.109115
#
# Coordination Sequence:
#
# PCOD9349053 Si02
#       8
#     8   8   8   8   8   8   8   8
#     4   9  19  36  57  82 110 142 184 230 275 326
#     4  11  22  37  59  85 116 152 186 224 272 325
#     4   9  18  34  56  82 111 142 180 226 274 328
#     4  11  23  39  58  80 110 147 184 225 276 330
#     4   8  15  30  53  79 108 143 180 221 272 327
#     4  11  22  36  55  78 109 147 185 228 277 329
#     4  10  20  34  55  84 114 143 181 228 272 322
#     4  10  22  40  61  86 114 144 183 229 274 325
#
# _framework density 18.540492
#
# number of rings (size 3 to 8) (size 9 to 14) (size 15 to 20)
#    0.000    2.125    0.000    4.125    0.000    5.250 
#    0.000    3.750    0.000    7.500    0.000    0.000 
#    0.000    0.000    0.000    0.000    0.000    0.000 
#
# Total GULP energy -178704.329275 kJ/mol
# GULP energy per Si atom -5584.510290 kJ/mol
# Density = 1.849829 g / cm^3
# Si number density = 18.540492 Si / 1000 Ang^3
#
#
#
# Elastic Constant Matrix: (Units=GPa)
#
#
# Indices 1 2 3 4 5 6 
#
# 1 37.2706 49.9534 55.7672 0.0000 0.0000 0.0000
# 2 49.9534 153.1199 109.1496 0.0000 0.0000 0.0000
# 3 55.7672 109.1496 203.5181 0.0000 0.0000 0.0000
# 4 0.0000 0.0000 0.0000 -35.0274 0.0000 0.0000
# 5 0.0000 0.0000 0.0000 0.0000 22.7123 0.0000
# 6 0.0000 0.0000 0.0000 0.0000 0.0000 15.9031
#
#
#
# Elastic Compliance Matrix: (Units=1/GPa)
#
#
# Indices 1 2 3 4 5 6 
#
# 1 0.056365 -0.011946 -0.009038 0.000000 0.000000 0.000000
# 2 -0.011946 0.013105 -0.003755 0.000000 0.000000 0.000000
# 3 -0.009038 -0.003755 0.009404 0.000000 0.000000 0.000000
# 4 0.000000 0.000000 0.000000 -0.028549 0.000000 0.000000
# 5 0.000000 0.000000 0.000000 0.000000 0.044029 0.000000
# 6 0.000000 0.000000 0.000000 0.000000 0.000000 0.062881
#
#
# Mechanical properties :
#
#
# Convention : Reuss Voigt Hill
#
# Bulk Modulus (GPa) = 34.01801 91.51656 62.76728
# Shear Modulus (GPa) = 23.09350 12.65348 17.87349
#
# Velocity S-wave (km/s) = 3.53309 2.61526 3.10824
# Velocity P-wave (km/s) = 5.91874 7.65421 6.84173
#
# Compressibility (1/GPa) = 0.02939620
#
# Stress axis : x y z
#
# Youngs Moduli (GPa) = 17.74140 76.30957 106.33732
#
# Poissons Ratio (x) = 0.91156 0.96112
# Poissons Ratio (y) = 0.21193 0.39928
# Poissons Ratio (z) = 0.16035 0.28653
#
# Static dielectric constant tensor:
#      x y z
#    x 1.642420 0.000000 0.000000 
#    y 0.000000 1.612270 0.000000 
#    z 0.000000 0.000000 1.624320 
# 
# From -- ./inp_files/18406.got.cif
#   From: 2010.05.17/outbox.cif.g08.bks.cpg/sg35_10_cif.got.tgz:18406.got - 2010.06.03 17:29:28.
