data_PCOD9349905
_publ_section_title
;
Structure prediction by ZEFSAII (Michael W. Deem and Ramdas Pophale) SiO2 
 PCOD9349905
Probable space group: C M M 2
;
_chemical_formula_sum "Si O2"
_cell_formula_units_Z 56
_cell_length_a 15.845455
_cell_length_b 16.434998
_cell_length_c 10.428990
_cell_angle_alpha 90.000000
_cell_angle_beta 90.000000
_cell_angle_gamma 90.000000
_cell_volume 2715.917797
_symmetry_space_group_name_H-M "C M M 2"
_symmetry_group_IT_number 35
_symmetry_cell_setting 'orthorhombic'
loop_
_space_group_symop_operation_xyz
x,y,z
-x,-y,z
-x,y,z
x,-y,z
1/2+x,1/2+y,z
1/2-x,1/2-y,z
1/2-x,1/2+y,z
1/2+x,1/2-y,z
loop_
_atom_site_type_symbol
_atom_site_label
_atom_site_fract_x
_atom_site_fract_y
_atom_site_fract_z
Si Si1 0.906303 0.908136 0.943200
Si Si2 0.330969 0.696526 0.428867
Si Si3 0.281359 0.901767 0.974184
Si Si4 0.094570 0.636462 0.460705
Si Si5 0.903728 0.854185 0.667685
Si Si6 0.400150 0.831788 0.752261
Si Si7 0.731406 0.091997 0.254618
O O1 0.897415 0.911476 0.789046
O O2 0.000000 0.870797 0.968656
O O3 0.908518 0.000000 0.995114
O O4 0.816205 0.871172 0.980829
O O5 0.250000 0.750000 0.466703
O O6 0.401637 0.766199 0.428850
O O7 0.347635 0.633632 0.543065
O O8 0.306244 0.651973 0.298483
O O9 0.311652 0.886083 0.119473
O O10 0.280302 0.000000 0.952359
O O11 0.337975 0.862724 0.862966
O O12 0.113841 0.627449 0.612386
O O13 0.163020 0.597303 0.367965
O O14 0.000000 0.606620 0.438175
O O15 0.886328 0.764026 0.724661
O O16 0.000000 0.855664 0.623107
O O17 0.500000 0.842838 0.784808
O O18 0.763113 0.000000 0.242402
#
# Coordination Sequence:
#
# PCOD9349905 Si02
#       7
#     8   8   8   8   8   8   8
#     4   9  19  35  53  76 109 146 186 232 282 334
#     4   9  18  33  54  77 109 147 182 225 277 335
#     4  10  22  38  56  80 114 157 192 234 289 344
#     4   9  19  38  61  83 113 152 191 238 294 349
#     4   9  18  33  54  83 110 138 181 234 288 335
#     4   9  19  36  58  86 116 146 189 241 289 342
#     4  10  22  38  55  82 118 152 194 236 287 353
#
# _framework density 20.61918
#
# number of rings (size 3 to 8) (size 9 to 14) (size 15 to 20)
#    0.000    2.714    0.000    1.286    6.000    2.286 
#    7.714    4.286    0.000    3.000    0.000    0.000 
#    0.000    0.000    0.000    0.000    0.000    0.000 
#
# Total GULP energy -155916.299337 kJ/mol
# GULP energy per Si atom -5568.439262 kJ/mol
# Density = 2.057225 g / cm^3
# Si number density = 20.619180 Si / 1000 Ang^3
#
#
#
# Elastic Constant Matrix: (Units=GPa)
#
#
# Indices 1 2 3 4 5 6 
#
# 1 88.8221 18.1777 54.7819 0.0000 0.0000 0.0000
# 2 18.1777 23.1356 23.7537 0.0000 0.0000 0.0000
# 3 54.7819 23.7537 114.6733 0.0000 0.0000 0.0000
# 4 0.0000 0.0000 0.0000 20.2589 0.0000 0.0000
# 5 0.0000 0.0000 0.0000 0.0000 10.7310 0.0000
# 6 0.0000 0.0000 0.0000 0.0000 0.0000 12.7993
#
#
#
# Elastic Compliance Matrix: (Units=1/GPa)
#
#
# Indices 1 2 3 4 5 6 
#
# 1 0.016642 -0.006240 -0.006657 0.000000 0.000000 0.000000
# 2 -0.006240 0.057239 -0.008876 0.000000 0.000000 0.000000
# 3 -0.006657 -0.008876 0.013739 0.000000 0.000000 0.000000
# 4 0.000000 0.000000 0.000000 0.049361 0.000000 0.000000
# 5 0.000000 0.000000 0.000000 0.000000 0.093188 0.000000
# 6 0.000000 0.000000 0.000000 0.000000 0.000000 0.078129
#
#
# Mechanical properties :
#
#
# Convention : Reuss Voigt Hill
#
# Bulk Modulus (GPa) = 22.68922 46.67306 34.68114
# Shear Modulus (GPa) = 13.64123 17.41900 15.53012
#
# Velocity S-wave (km/s) = 2.57491 2.90969 2.74740
# Velocity P-wave (km/s) = 4.45736 5.82866 5.18851
#
# Compressibility (1/GPa) = 0.04407379
#
# Stress axis : x y z
#
# Youngs Moduli (GPa) = 60.09057 17.47059 72.78353
#
# Poissons Ratio (x) = 0.10902 0.48455
# Poissons Ratio (y) = 0.37496 0.64600
# Poissons Ratio (z) = 0.40005 0.15506
#
# Static dielectric constant tensor:
#      x y z
#    x 1.776100 0.000000 0.000000 
#    y 0.000000 1.801080 0.000000 
#    z 0.000000 0.000000 1.738280 
# 
# From -- ./inp_files/7601.got.cif
#   From: 2010.05.17/outbox.cif.g08.bks.cpg/sg35_4_cif.got.tgz:7601.got - 2010.06.03 17:29:28.
