data_PCOD9349941
_publ_section_title
;
Structure prediction by ZEFSAII (Michael W. Deem and Ramdas Pophale) SiO2 
 PCOD9349941
Probable space group: C M M 2
;
_chemical_formula_sum "Si O2"
_cell_formula_units_Z 40
_cell_length_a 11.332800
_cell_length_b 21.262667
_cell_length_c 8.037268
_cell_angle_alpha 90.000000
_cell_angle_beta 90.000000
_cell_angle_gamma 90.000000
_cell_volume 1936.704725
_symmetry_space_group_name_H-M "C M M 2"
_symmetry_group_IT_number 35
_symmetry_cell_setting 'orthorhombic'
loop_
_space_group_symop_operation_xyz
x,y,z
-x,-y,z
-x,y,z
x,-y,z
1/2+x,1/2+y,z
1/2-x,1/2-y,z
1/2-x,1/2+y,z
1/2+x,1/2-y,z
loop_
_atom_site_type_symbol
_atom_site_label
_atom_site_fract_x
_atom_site_fract_y
_atom_site_fract_z
Si Si1 0.126414 0.122693 0.131390
Si Si2 0.639166 0.072663 0.651084
Si Si3 0.299617 0.320625 0.793873
Si Si4 0.369463 0.074862 0.260725
Si Si5 0.875275 0.784404 0.443525
O O1 0.253938 0.090654 0.154576
O O2 0.122230 0.169225 0.288335
O O3 0.000000 0.086599 0.134562
O O4 0.132458 0.159929 0.958728
O O5 0.500000 0.072264 0.686131
O O6 0.702219 0.125549 0.759523
O O7 0.652760 0.090502 0.455573
O O8 0.682061 0.000000 0.674214
O O9 0.250000 0.250000 0.816328
O O10 0.371537 0.318364 0.621841
O O11 0.500000 0.100607 0.211059
O O12 0.379690 0.000000 0.257045
O O13 0.750000 0.750000 0.432656
O O14 0.000000 0.746737 0.438655
#
# Coordination Sequence:
#
# PCOD9349941 Si02
#       5
#     8   8   8   8   8
#     4  11  23  39  59  89 128 168 212 260 315 385
#     4   9  19  39  68  99 129 166 218 276 330 385
#     4  11  23  39  63  94 133 172 216 263 322 388
#     4   9  19  39  66  94 124 163 216 272 325 385
#     4  10  22  40  60  85 121 166 211 262 317 374
#
# _framework density 20.653638000000001
#
# number of rings (size 3 to 8) (size 9 to 14) (size 15 to 20)
#    0.000    2.000    2.000    2.400    0.000    6.800 
#    0.000    2.000    0.000    1.800    0.000    0.000 
#    0.000    0.000    0.000    0.000    0.000    0.000 
#
# Total GULP energy -111422.365338 kJ/mol
# GULP energy per Si atom -5571.118267 kJ/mol
# Density = 2.060663 g / cm^3
# Si number density = 20.653638 Si / 1000 Ang^3
#
#
#
# Elastic Constant Matrix: (Units=GPa)
#
#
# Indices 1 2 3 4 5 6 
#
# 1 170.2191 46.1110 43.3977 0.0000 0.0000 0.0000
# 2 46.1110 66.5465 26.7081 0.0000 0.0000 0.0000
# 3 43.3977 26.7081 105.8429 0.0000 0.0000 0.0000
# 4 0.0000 0.0000 0.0000 1.4612 0.0000 0.0000
# 5 0.0000 0.0000 0.0000 0.0000********** 0.0000
# 6 0.0000 0.0000 0.0000 0.0000 0.0000 17.2818
#
#
#
# Elastic Compliance Matrix: (Units=1/GPa)
#
#
# Indices 1 2 3 4 5 6 
#
# 1 0.007590 -0.004462 -0.001986 0.000000 0.000000 0.000000
# 2 -0.004462 0.019344 -0.003052 0.000000 0.000000 0.000000
# 3 -0.001986 -0.003052 0.011032 0.000000 0.000000 0.000000
# 4 0.000000 0.000000 0.000000 0.684352 0.000000 0.000000
# 5 0.000000 0.000000 0.000000 0.000000 -0.000026 0.000000
# 6 0.000000 0.000000 0.000000 0.000000 0.000000 0.057864
#
#
# Mechanical properties :
#
#
# Convention : Reuss Voigt Hill
#
# Bulk Modulus (GPa) = 52.72466 63.89355 58.30910
# Shear Modulus (GPa) = 6.20750 -7688.47037 -3841.13144
#
# Velocity S-wave (km/s) = 1.73552 -61.07909 -43.17200
# Velocity P-wave (km/s) = 5.44054 70.30793 49.56614
#
# Compressibility (1/GPa) = 0.01896646
#
# Stress axis : x y z
#
# Youngs Moduli (GPa) = 131.75475 51.69659 90.64273
#
# Poissons Ratio (x) = 0.23067 0.18002
# Poissons Ratio (y) = 0.58789 0.27660
# Poissons Ratio (z) = 0.26167 0.15776
#
# Static dielectric constant tensor:
#      x y z
#    x 6.162010 0.000000 0.000000 
#    y 0.000000 1.750440 0.000000 
#    z 0.000000 0.000000 1.729040 
# 
# From -- ./inp_files/4823.got.cif
#   From: 2010.05.17/outbox.cif.g08.bks.cpg/sg35_3_cif.got.tgz:4823.got - 2010.06.03 17:29:28.
