data_PCOD9349097
_publ_section_title
;
Structure prediction by ZEFSAII (Michael W. Deem and Ramdas Pophale) SiO2 
 PCOD9349097
Probable space group: C M M 2
;
_chemical_formula_sum "Si O2"
_cell_formula_units_Z 64
_cell_length_a 28.938604
_cell_length_b 8.194796
_cell_length_c 13.519492
_cell_angle_alpha 90.000000
_cell_angle_beta 90.000000
_cell_angle_gamma 90.000000
_cell_volume 3206.092859
_symmetry_space_group_name_H-M "C M M 2"
_symmetry_group_IT_number 35
_symmetry_cell_setting 'orthorhombic'
loop_
_space_group_symop_operation_xyz
x,y,z
-x,-y,z
-x,y,z
x,-y,z
1/2+x,1/2+y,z
1/2-x,1/2-y,z
1/2-x,1/2+y,z
1/2+x,1/2-y,z
loop_
_atom_site_type_symbol
_atom_site_label
_atom_site_fract_x
_atom_site_fract_y
_atom_site_fract_z
Si Si1 0.892480 0.806869 0.581270
Si Si2 0.894492 0.697718 0.194263
Si Si3 0.052750 0.803239 0.390168
Si Si4 0.802677 0.696803 0.105804
Si Si5 0.803556 0.696803 0.888013
Si Si6 0.944935 0.304357 0.776830
Si Si7 0.554166 0.801370 0.995107
Si Si8 0.197416 0.305859 0.671790
O O1 0.920084 0.740137 0.486639
O O2 0.919496 0.765939 0.682131
O O3 0.840249 0.745056 0.592213
O O4 0.890485 0.000000 0.571265
O O5 0.896052 0.500000 0.195487
O O6 0.920441 0.759132 0.290550
O O7 0.840960 0.749541 0.184561
O O8 0.919615 0.753339 0.093123
O O9 0.000000 0.742181 0.387716
O O10 0.050810 0.000000 0.396998
O O11 0.802420 0.500000 0.103791
O O12 0.750000 0.750000 0.122074
O O13 0.819805 0.752594 0.996107
O O14 0.808145 0.500000 0.887988
O O15 0.750000 0.750000 0.887936
O O16 0.819984 0.755961 0.780527
O O17 0.938362 0.500000 0.774116
O O18 0.000000 0.272266 0.770821
O O19 0.928874 0.247214 0.886222
O O20 0.500000 0.759163 0.002883
O O21 0.557069 0.000000 0.993496
O O22 0.198369 0.500000 0.676979
O O23 0.250000 0.250000 0.655093
#
# Coordination Sequence:
#
# PCOD9349097 Si02
#       8
#     8   8   8   8   8   8   8   8
#     4  11  23  38  57  81 111 150 194 236 285 339
#     4  10  20  34  58  86 110 141 188 235 279 334
#     4  10  23  43  62  80 108 146 186 234 291 342
#     4   9  18  32  51  79 113 149 185 224 269 323
#     4   8  15  28  48  74 107 146 181 217 263 316
#     4   9  18  33  55  83 113 146 184 228 283 348
#     4   8  15  29  51  80 112 142 173 219 283 346
#     4  10  20  35  57  84 116 152 190 234 281 333
#
# _framework density 19.961991000000001
#
# number of rings (size 3 to 8) (size 9 to 14) (size 15 to 20)
#    0.000    2.625    0.000    2.250    1.750    3.500 
#    0.000    1.250    0.000    2.250    0.000    0.000 
#    0.000    0.000    0.000    0.000    0.000    0.000 
#
# Total GULP energy -178462.540159 kJ/mol
# GULP energy per Si atom -5576.954380 kJ/mol
# Density = 1.991656 g / cm^3
# Si number density = 19.961991 Si / 1000 Ang^3
#
#
#
# Elastic Constant Matrix: (Units=GPa)
#
#
# Indices 1 2 3 4 5 6 
#
# 1 129.9992 27.6697 96.4487 0.0000 0.0000 0.0000
# 2 27.6697 5.8763 18.9310 0.0000 0.0000 0.0000
# 3 96.4487 18.9310 147.9625 0.0000 0.0000 0.0000
# 4 0.0000 0.0000 0.0000 59.5367 0.0000 0.0000
# 5 0.0000 0.0000 0.0000 0.0000 36.9151 0.0000
# 6 0.0000 0.0000 0.0000 0.0000 0.0000 23.9797
#
#
#
# Elastic Compliance Matrix: (Units=1/GPa)
#
#
# Indices 1 2 3 4 5 6 
#
# 1 -1.106968 4.912742 0.093012 0.000000 0.000000 0.000000
# 2 4.912742-21.513331 -0.449829 0.000000 0.000000 0.000000
# 3 0.093012 -0.449829 0.003682 0.000000 0.000000 0.000000
# 4 0.000000 0.000000 0.000000 0.016796 0.000000 0.000000
# 5 0.000000 0.000000 0.000000 0.000000 0.027089 0.000000
# 6 0.000000 0.000000 0.000000 0.000000 0.000000 0.041702
#
#
# Mechanical properties :
#
#
# Convention : Reuss Voigt Hill
#
# Bulk Modulus (GPa) = -0.07405 63.32630 31.62613
# Shear Modulus (GPa) = -0.13833 33.47221 16.66694
#
# Velocity S-wave (km/s) = -0.26353 4.09931 2.89266
# Velocity P-wave (km/s) = 0.36024 7.36194 5.19944
#
# Compressibility (1/GPa) = -13.50476558
#
# Stress axis : x y z
#
# Youngs Moduli (GPa) = -0.90337 -0.04648 271.55821
#
# Poissons Ratio (x) = 0.22836 -25.25810
# Poissons Ratio (y) = 4.43802 122.15467
# Poissons Ratio (z) = 0.08402 -0.02091
#
# Static dielectric constant tensor:
#      x y z
#    x 1.712950 0.000000 0.000000 
#    y 0.000000 1.712620 0.000000 
#    z 0.000000 0.000000 1.715810 
# 
# From -- ./inp_files/14568.got.cif
#   From: 2010.05.17/outbox.cif.g08.bks.cpg/sg35_8_cif.got.tgz:14568.got - 2010.06.03 17:29:28.
