data_PCOD9349140
_publ_section_title
;
Structure prediction by ZEFSAII (Michael W. Deem and Ramdas Pophale) SiO2 
 PCOD9349140
Probable space group: C M M 2
;
_chemical_formula_sum "Si O2"
_cell_formula_units_Z 40
_cell_length_a 8.135420
_cell_length_b 14.905770
_cell_length_c 14.811983
_cell_angle_alpha 90.000000
_cell_angle_beta 90.000000
_cell_angle_gamma 90.000000
_cell_volume 1796.170666
_symmetry_space_group_name_H-M "C M M 2"
_symmetry_group_IT_number 35
_symmetry_cell_setting 'orthorhombic'
loop_
_space_group_symop_operation_xyz
x,y,z
-x,-y,z
-x,y,z
x,-y,z
1/2+x,1/2+y,z
1/2-x,1/2-y,z
1/2-x,1/2+y,z
1/2+x,1/2-y,z
loop_
_atom_site_type_symbol
_atom_site_label
_atom_site_fract_x
_atom_site_fract_y
_atom_site_fract_z
Si Si1 0.811997 0.607644 0.282660
Si Si2 0.500000 0.890303 0.583144
Si Si3 0.697479 0.851144 0.080698
Si Si4 0.000000 0.389497 0.792181
Si Si5 0.821276 0.102518 0.892092
Si Si6 0.819978 0.890139 0.472654
O O1 0.820232 0.500000 0.289008
O O2 0.747607 0.627997 0.182752
O O3 0.709194 0.638281 0.368794
O O4 0.000000 0.641887 0.289490
O O5 0.500000 0.864519 0.687533
O O6 0.664799 0.860651 0.531603
O O7 0.500000 0.000000 0.579854
O O8 0.500000 0.865047 0.077205
O O9 0.750000 0.750000 0.063150
O O10 0.781207 0.901895 0.998419
O O11 0.836025 0.356821 0.842524
O O12 0.000000 0.500000 0.798065
O O13 0.000000 0.145244 0.877946
O O14 0.831755 0.000000 0.858739
O O15 0.000000 0.860893 0.504407
O O16 0.819242 0.000000 0.474142
#
# Coordination Sequence:
#
# PCOD9349140 Si02
#       6
#     8   4   8   4   8   8
#     4   9  17  31  51  73 102 141 178 212 256 313
#     4   9  16  28  45  71 107 135 166 214 260 304
#     4  11  22  35  52  76 109 140 180 220 265 316
#     4   9  18  32  51  75 105 139 173 216 266 310
#     4  10  20  35  55  78 106 141 179 217 264 320
#     4   9  16  26  44  71 103 138 172 206 252 307
#
# _framework density 22.269597000000001
#
# number of rings (size 3 to 8) (size 9 to 14) (size 15 to 20)
#    0.000    2.400    2.000    1.200    0.000    3.200 
#    0.000    6.000    0.000    0.000    0.000    1.400 
#    0.000    0.000    0.000    0.000    0.000    0.000 
#
# Total GULP energy -111673.972166 kJ/mol
# GULP energy per Si atom -5583.698608 kJ/mol
# Density = 2.221891 g / cm^3
# Si number density = 22.269597 Si / 1000 Ang^3
#
#
#
# Elastic Constant Matrix: (Units=GPa)
#
#
# Indices 1 2 3 4 5 6 
#
# 1 202.2779 12.0992 103.4619 0.0000 0.0000 0.0000
# 2 12.0992 34.2351 -0.0141 0.0000 0.0000 0.0000
# 3 103.4619 -0.0141 142.1620 0.0000 0.0000 0.0000
# 4 0.0000 0.0000 0.0000 -40.8178 0.0000 0.0000
# 5 0.0000 0.0000 0.0000 0.0000 -1.8759 0.0000
# 6 0.0000 0.0000 0.0000 0.0000 0.0000 12.7525
#
#
#
# Elastic Compliance Matrix: (Units=1/GPa)
#
#
# Indices 1 2 3 4 5 6 
#
# 1 0.008150 -0.002883 -0.005932 0.000000 0.000000 0.000000
# 2 -0.002883 0.030229 0.002101 0.000000 0.000000 0.000000
# 3 -0.005932 0.002101 0.011351 0.000000 0.000000 0.000000
# 4 0.000000 0.000000 0.000000 -0.024499 0.000000 0.000000
# 5 0.000000 0.000000 0.000000 0.000000 -0.533073 0.000000
# 6 0.000000 0.000000 0.000000 0.000000 0.000000 0.078416
#
#
# Mechanical properties :
#
#
# Convention : Reuss Voigt Hill
#
# Bulk Modulus (GPa) = 27.54519 67.75210 47.64865
# Shear Modulus (GPa) = -12.37941 11.55362 -0.41289
#
# Velocity S-wave (km/s) = -2.36029 2.28020 -0.43106
# Velocity P-wave (km/s) = 2.22888 6.11736 4.60380
#
# Compressibility (1/GPa) = 0.03630398
#
# Stress axis : x y z
#
# Youngs Moduli (GPa) = 122.69769 33.08031 88.09484
#
# Poissons Ratio (x) = 0.09536 0.52255
# Poissons Ratio (y) = 0.35372 -0.18509
# Poissons Ratio (z) = 0.72781 -0.06950
#
# Static dielectric constant tensor:
#      x y z
#    x 1.836250 0.000000 0.000000 
#    y 0.000000 1.803060 0.000000 
#    z 0.000000 0.000000 1.791250 
# 
# From -- ./inp_files/11231.got.cif
#   From: 2010.05.17/outbox.cif.g08.bks.cpg/sg35_6_cif.got.tgz:11231.got - 2010.06.03 17:29:28.
