data_PCOD9349634
_publ_section_title
;
Structure prediction by ZEFSAII (Michael W. Deem and Ramdas Pophale) SiO2 
 PCOD9349634
Probable space group: C M M 2
;
_chemical_formula_sum "Si O2"
_cell_formula_units_Z 48
_cell_length_a 19.128494
_cell_length_b 7.941429
_cell_length_c 16.046806
_cell_angle_alpha 90.000000
_cell_angle_beta 90.000000
_cell_angle_gamma 90.000000
_cell_volume 2437.631418
_symmetry_space_group_name_H-M "C M M 2"
_symmetry_group_IT_number 35
_symmetry_cell_setting 'orthorhombic'
loop_
_space_group_symop_operation_xyz
x,y,z
-x,-y,z
-x,y,z
x,-y,z
1/2+x,1/2+y,z
1/2-x,1/2-y,z
1/2-x,1/2+y,z
1/2+x,1/2-y,z
loop_
_atom_site_type_symbol
_atom_site_label
_atom_site_fract_x
_atom_site_fract_y
_atom_site_fract_z
Si Si1 0.419522 0.702660 0.469240
Si Si2 0.330861 0.796631 0.943474
Si Si3 0.079996 0.703206 0.285389
Si Si4 0.420450 0.797363 0.787391
Si Si5 0.331035 0.299001 0.626183
Si Si6 0.669512 0.796914 0.129725
O O1 0.500000 0.764655 0.478022
O O2 0.421930 0.500000 0.474507
O O3 0.393402 0.747978 0.376920
O O4 0.370147 0.766581 0.543170
O O5 0.250000 0.750000 0.927718
O O6 0.381096 0.733805 0.870303
O O7 0.334511 0.000000 0.943970
O O8 0.350329 0.736768 0.036698
O O9 0.079336 0.500000 0.281849
O O10 0.123929 0.766621 0.206858
O O11 0.000000 0.763562 0.279793
O O12 0.500000 0.733707 0.779583
O O13 0.373986 0.757424 0.707054
O O14 0.423987 0.000000 0.794057
O O15 0.333974 0.500000 0.623709
O O16 0.250000 0.250000 0.630031
O O17 0.750000 0.750000 0.142516
O O18 0.663832 0.000000 0.128800
#
# Coordination Sequence:
#
# PCOD9349634 Si02
#       6
#     8   8   8   8   8   8
#     4   9  19  36  55  74  99 133 170 208 254 306
#     4   9  18  33  52  74 102 136 171 209 253 301
#     4   9  18  32  51  75 101 131 168 209 252 298
#     4  10  21  36  55  80 107 136 172 213 258 308
#     4  11  23  38  56  78 105 137 173 213 259 310
#     4   9  18  32  50  73 102 135 170 208 251 299
#
# _framework density 19.691244000000001
#
# number of rings (size 3 to 8) (size 9 to 14) (size 15 to 20)
#    0.000    2.500    0.000    1.500    0.000    6.333 
#    0.000    8.333    0.000    0.000    0.000    7.000 
#    0.000    0.000    0.000    0.000    0.000    0.000 
#
# Total GULP energy -133926.838898 kJ/mol
# GULP energy per Si atom -5580.284954 kJ/mol
# Density = 1.964643 g / cm^3
# Si number density = 19.691244 Si / 1000 Ang^3
#
#
#
# Elastic Constant Matrix: (Units=GPa)
#
#
# Indices 1 2 3 4 5 6 
#
# 1 132.5816 6.4764 132.0898 0.0000 0.0000 0.0000
# 2 6.4764 18.3623 9.1977 0.0000 0.0000 0.0000
# 3 132.0898 9.1977 226.8322 0.0000 0.0000 0.0000
# 4 0.0000 0.0000 0.0000 25.1037 0.0000 0.0000
# 5 0.0000 0.0000 0.0000 0.0000 43.5230 0.0000
# 6 0.0000 0.0000 0.0000 0.0000 0.0000 18.0531
#
#
#
# Elastic Compliance Matrix: (Units=1/GPa)
#
#
# Indices 1 2 3 4 5 6 
#
# 1 0.017988 -0.001120 -0.010429 0.000000 0.000000 0.000000
# 2 -0.001120 0.055658 -0.001604 0.000000 0.000000 0.000000
# 3 -0.010429 -0.001604 0.010547 0.000000 0.000000 0.000000
# 4 0.000000 0.000000 0.000000 0.039835 0.000000 0.000000
# 5 0.000000 0.000000 0.000000 0.000000 0.022976 0.000000
# 6 0.000000 0.000000 0.000000 0.000000 0.000000 0.055392
#
#
# Mechanical properties :
#
#
# Convention : Reuss Voigt Hill
#
# Bulk Modulus (GPa) = 17.27569 74.81155 46.04362
# Shear Modulus (GPa) = 20.16132 32.67011 26.41571
#
# Velocity S-wave (km/s) = 3.20327 4.07765 3.66662
# Velocity P-wave (km/s) = 4.74063 7.76172 6.43110
#
# Compressibility (1/GPa) = 0.05788481
#
# Stress axis : x y z
#
# Youngs Moduli (GPa) = 55.59276 17.96676 94.81468
#
# Poissons Ratio (x) = 0.02013 0.98886
# Poissons Ratio (y) = 0.06228 0.15213
# Poissons Ratio (z) = 0.57980 0.02883
#
# Static dielectric constant tensor:
#      x y z
#    x 1.742950 0.000000 0.000000 
#    y 0.000000 1.710210 0.000000 
#    z 0.000000 0.000000 1.697510 
# 
# From -- ./inp_files/14079.got.cif
#   From: 2010.05.17/outbox.cif.g08.bks.cpg/sg35_8_cif.got.tgz:14079.got - 2010.06.03 17:29:28.
