data_PCOD9349575
_publ_section_title
;
Structure prediction by ZEFSAII (Michael W. Deem and Ramdas Pophale) SiO2 
 PCOD9349575
Probable space group: C M M 2
;
_chemical_formula_sum "Si O2"
_cell_formula_units_Z 64
_cell_length_a 9.128661
_cell_length_b 19.197671
_cell_length_c 21.116334
_cell_angle_alpha 90.000000
_cell_angle_beta 90.000000
_cell_angle_gamma 90.000000
_cell_volume 3700.617062
_symmetry_space_group_name_H-M "C M M 2"
_symmetry_group_IT_number 35
_symmetry_cell_setting 'orthorhombic'
loop_
_space_group_symop_operation_xyz
x,y,z
-x,-y,z
-x,y,z
x,-y,z
1/2+x,1/2+y,z
1/2-x,1/2-y,z
1/2-x,1/2+y,z
1/2+x,1/2-y,z
loop_
_atom_site_type_symbol
_atom_site_label
_atom_site_fract_x
_atom_site_fract_y
_atom_site_fract_z
Si Si1 0.169111 0.084625 0.362150
Si Si2 0.825642 0.675004 0.115326
Si Si3 0.324909 0.081603 0.731745
Si Si4 0.325444 0.825172 0.969897
Si Si5 0.323963 0.417440 0.221292
Si Si6 0.676917 0.825409 0.610128
Si Si7 0.328013 0.583279 0.864040
Si Si8 0.323870 0.080921 0.490667
O O1 0.220489 0.106796 0.292225
O O2 0.261130 0.105496 0.423274
O O3 0.000000 0.105871 0.370076
O O4 0.171402 0.000000 0.360415
O O5 0.750000 0.750000 0.122833
O O6 0.757579 0.623365 0.166421
O O7 0.000000 0.681342 0.123684
O O8 0.798294 0.651888 0.042637
O O9 0.500000 0.087359 0.742464
O O10 0.285431 0.130284 0.672803
O O11 0.240277 0.101024 0.795670
O O12 0.294547 0.000000 0.717248
O O13 0.500000 0.819081 0.961143
O O14 0.250000 0.750000 0.962093
O O15 0.256792 0.877336 0.919392
O O16 0.500000 0.408102 0.216594
O O17 0.294917 0.500000 0.216256
O O18 0.500000 0.818496 0.608656
O O19 0.750000 0.750000 0.610720
O O20 0.722042 0.870106 0.548528
O O21 0.500000 0.600617 0.865728
O O22 0.312406 0.500000 0.871739
O O23 0.500000 0.081311 0.488062
O O24 0.278348 0.000000 0.501037
#
# Coordination Sequence:
#
# PCOD9349575 Si02
#       8
#     8   8   8   8   8   8   8   8
#     4   8  15  29  49  74 102 131 165 205 251 302
#     4  10  21  36  54  76 103 136 175 216 257 306
#     4   9  18  35  57  76  98 133 173 210 250 298
#     4  10  21  37  56  77 103 137 175 214 257 307
#     4   9  18  33  53  77 106 138 171 211 259 308
#     4  10  21  35  51  74 103 133 166 206 253 302
#     4  10  21  36  55  81 110 137 169 211 255 302
#     4   9  17  31  52  75  98 128 168 210 249 294
#
# _framework density 17.294412999999999
#
# number of rings (size 3 to 8) (size 9 to 14) (size 15 to 20)
#    0.000    2.625    0.000    2.250    0.000    6.500 
#    0.000    5.625    0.000    5.250    0.000    0.000 
#    0.000    0.000    0.000    0.000    0.000    0.000 
#
# Total GULP energy -178462.784944 kJ/mol
# GULP energy per Si atom -5576.962030 kJ/mol
# Density = 1.725505 g / cm^3
# Si number density = 17.294413 Si / 1000 Ang^3
#
#
#
# Elastic Constant Matrix: (Units=GPa)
#
#
# Indices 1 2 3 4 5 6 
#
# 1 59.8413 51.2501 86.2046 0.0000 0.0000 0.0000
# 2 51.2501 72.6874 94.4124 0.0000 0.0000 0.0000
# 3 86.2046 94.4124 191.8372 0.0000 0.0000 0.0000
# 4 0.0000 0.0000 0.0000 -29.7668 0.0000 0.0000
# 5 0.0000 0.0000 0.0000 0.0000 30.2903 0.0000
# 6 0.0000 0.0000 0.0000 0.0000 0.0000 30.6098
#
#
#
# Elastic Compliance Matrix: (Units=1/GPa)
#
#
# Indices 1 2 3 4 5 6 
#
# 1 0.055144 -0.018558 -0.015647 0.000000 0.000000 0.000000
# 2 -0.018558 0.044380 -0.013503 0.000000 0.000000 0.000000
# 3 -0.015647 -0.013503 0.018889 0.000000 0.000000 0.000000
# 4 0.000000 0.000000 0.000000 -0.033594 0.000000 0.000000
# 5 0.000000 0.000000 0.000000 0.000000 0.033014 0.000000
# 6 0.000000 0.000000 0.000000 0.000000 0.000000 0.032669
#
#
# Mechanical properties :
#
#
# Convention : Reuss Voigt Hill
#
# Bulk Modulus (GPa) = 43.47870 87.56667 65.52268
# Shear Modulus (GPa) = 19.71746 12.39323 16.05534
#
# Velocity S-wave (km/s) = 3.38021 2.67985 3.05020
# Velocity P-wave (km/s) = 6.35840 7.76649 7.09745
#
# Compressibility (1/GPa) = 0.02299977
#
# Stress axis : x y z
#
# Youngs Moduli (GPa) = 18.13434 22.53249 52.94077
#
# Poissons Ratio (x) = 0.41815 0.82834
# Poissons Ratio (y) = 0.33653 0.71484
# Poissons Ratio (z) = 0.28374 0.30425
#
# Static dielectric constant tensor:
#      x y z
#    x 1.576350 0.000000 0.000000 
#    y 0.000000 1.563700 0.000000 
#    z 0.000000 0.000000 1.579890 
# 
# From -- ./inp_files/18307.got.cif
#   From: 2010.05.17/outbox.cif.g08.bks.cpg/sg35_10_cif.got.tgz:18307.got - 2010.06.03 17:29:28.
