data_PCOD9349796
_publ_section_title
;
Structure prediction by ZEFSAII (Michael W. Deem and Ramdas Pophale) SiO2 
 PCOD9349796
Probable space group: C M M 2
;
_chemical_formula_sum "Si O2"
_cell_formula_units_Z 36
_cell_length_a 14.830560
_cell_length_b 14.897837
_cell_length_c 7.849049
_cell_angle_alpha 90.000000
_cell_angle_beta 90.000000
_cell_angle_gamma 90.000000
_cell_volume 1734.194517
_symmetry_space_group_name_H-M "C M M 2"
_symmetry_group_IT_number 35
_symmetry_cell_setting 'orthorhombic'
loop_
_space_group_symop_operation_xyz
x,y,z
-x,-y,z
-x,y,z
x,-y,z
1/2+x,1/2+y,z
1/2-x,1/2-y,z
1/2-x,1/2+y,z
1/2+x,1/2-y,z
loop_
_atom_site_type_symbol
_atom_site_label
_atom_site_fract_x
_atom_site_fract_y
_atom_site_fract_z
Si Si1 0.392566 0.189271 0.514460
Si Si2 0.111060 0.500000 0.359295
Si Si3 0.602116 0.689218 0.220862
Si Si4 0.302361 0.000000 0.983016
Si Si5 0.389321 0.500000 0.069323
Si Si6 0.845557 0.298633 0.898610
O O1 0.500000 0.185947 0.489715
O O2 0.353478 0.258956 0.376953
O O3 0.376965 0.219189 0.707113
O O4 0.363078 0.088883 0.465159
O O5 0.165317 0.500000 0.181403
O O6 0.000000 0.500000 0.329968
O O7 0.500000 0.671161 0.273147
O O8 0.634589 0.591029 0.169542
O O9 0.601576 0.753874 0.055641
O O10 0.194573 0.000000 0.936972
O O11 0.341082 0.094018 0.915428
O O12 0.500000 0.500000 0.028136
O O13 0.750000 0.250000 0.918587
#
# Coordination Sequence:
#
# PCOD9349796 Si02
#       6
#     8   4   8   4   4   8
#     4  10  22  40  62  93 128 167 208 258 319 385
#     4  10  21  38  63  95 131 165 204 259 328 389
#     4  10  21  42  66  89 124 170 216 263 314 374
#     4  12  23  39  65  97 128 168 212 262 321 380
#     4  10  22  41  66  92 123 171 220 265 311 371
#     4  12  24  38  62  94 128 164 215 260 323 374
#
# _framework density 20.758915999999999
#
# number of rings (size 3 to 8) (size 9 to 14) (size 15 to 20)
#    0.000    1.333    4.444    1.333    0.000    3.556 
#    0.000    2.222    0.000    4.000    0.000    0.000 
#    0.000    0.000    0.000    0.000    0.000    0.000 
#
# Total GULP energy -100273.967091 kJ/mol
# GULP energy per Si atom -5570.775950 kJ/mol
# Density = 2.071167 g / cm^3
# Si number density = 20.758916 Si / 1000 Ang^3
#
#
#
# Elastic Constant Matrix: (Units=GPa)
#
#
# Indices 1 2 3 4 5 6 
#
# 1 41.8486 -2.5488 -12.2203 0.0000 0.0000 0.0000
# 2 -2.5488 146.3588 27.9242 0.0000 0.0000 0.0000
# 3 -12.2203 27.9242 106.6993 0.0000 0.0000 0.0000
# 4 0.0000 0.0000 0.0000 -21.8186 0.0000 0.0000
# 5 0.0000 0.0000 0.0000 0.0000 22.8505 0.0000
# 6 0.0000 0.0000 0.0000 0.0000 0.0000 -882.7111
#
#
#
# Elastic Compliance Matrix: (Units=1/GPa)
#
#
# Indices 1 2 3 4 5 6 
#
# 1 0.024724 -0.000115 0.002862 0.000000 0.000000 0.000000
# 2 -0.000115 0.007192 -0.001895 0.000000 0.000000 0.000000
# 3 0.002862 -0.001895 0.010196 0.000000 0.000000 0.000000
# 4 0.000000 0.000000 0.000000 -0.045832 0.000000 0.000000
# 5 0.000000 0.000000 0.000000 0.000000 0.043763 0.000000
# 6 0.000000 0.000000 0.000000 0.000000 0.000000 -0.001133
#
#
# Mechanical properties :
#
#
# Convention : Reuss Voigt Hill
#
# Bulk Modulus (GPa) = 22.82357 35.69076 29.25717
# Shear Modulus (GPa) = 96.50150 -157.55240 -30.52545
#
# Velocity S-wave (km/s) = 6.82552 -8.72130 -3.83884
# Velocity P-wave (km/s) = 8.55192 9.17520 2.35043
#
# Compressibility (1/GPa) = 0.04381435
#
# Stress axis : x y z
#
# Youngs Moduli (GPa) = 40.44603 139.04033 98.07800
#
# Poissons Ratio (x) = 0.01605 -0.28069
# Poissons Ratio (y) = 0.00467 0.18590
# Poissons Ratio (z) = -0.11575 0.26355
#
# Static dielectric constant tensor:
#      x y z
#    x 1.658980 0.000000 0.000000 
#    y 0.000000 1.820590 0.000000 
#    z 0.000000 0.000000 1.796890 
# 
# From -- ./inp_files/6945.got.cif
#   From: 2010.05.17/outbox.cif.g08.bks.cpg/sg35_4_cif.got.tgz:6945.got - 2010.06.03 17:29:28.
