data_PCOD9349075
_publ_section_title
;
Structure prediction by ZEFSAII (Michael W. Deem and Ramdas Pophale) SiO2 
 PCOD9349075
Probable space group: C M M 2
;
_chemical_formula_sum "Si O2"
_cell_formula_units_Z 64
_cell_length_a 16.970797
_cell_length_b 16.216372
_cell_length_c 12.363440
_cell_angle_alpha 90.000000
_cell_angle_beta 90.000000
_cell_angle_gamma 90.000000
_cell_volume 3402.477504
_symmetry_space_group_name_H-M "C M M 2"
_symmetry_group_IT_number 35
_symmetry_cell_setting 'orthorhombic'
loop_
_space_group_symop_operation_xyz
x,y,z
-x,-y,z
-x,y,z
x,-y,z
1/2+x,1/2+y,z
1/2-x,1/2-y,z
1/2-x,1/2+y,z
1/2+x,1/2-y,z
loop_
_atom_site_type_symbol
_atom_site_label
_atom_site_fract_x
_atom_site_fract_y
_atom_site_fract_z
Si Si1 0.592640 0.258533 0.804750
Si Si2 0.906441 0.905895 0.178860
Si Si3 0.854021 0.905335 0.946734
Si Si4 0.406028 0.099765 0.178855
Si Si5 0.092641 0.758538 0.552966
Si Si6 0.804510 0.670669 0.376150
Si Si7 0.195494 0.329333 0.981563
Si Si8 0.854014 0.094665 0.410980
O O1 0.500000 0.240713 0.815711
O O2 0.609996 0.348959 0.853697
O O3 0.614241 0.254125 0.678858
O O4 0.644241 0.198686 0.879186
O O5 0.880357 0.870104 0.293300
O O6 0.000000 0.908345 0.178862
O O7 0.874193 0.000000 0.178859
O O8 0.880360 0.870105 0.064417
O O9 0.759858 0.897209 0.947891
O O10 0.879958 0.000000 0.938941
O O11 0.500000 0.118719 0.178852
O O12 0.361084 0.138317 0.281999
O O13 0.397658 0.000000 0.178859
O O14 0.361080 0.138311 0.075712
O O15 0.144237 0.698686 0.478528
O O16 0.110007 0.848962 0.504021
O O17 0.000000 0.740727 0.542004
O O18 0.750000 0.750000 0.344666
O O19 0.740149 0.602789 0.409817
O O20 0.250000 0.250000 0.013053
O O21 0.879952 0.000000 0.418773
#
# Coordination Sequence:
#
# PCOD9349075 Si02
#       8
#     8   8   8   8   8   8   8   8
#     4  10  22  39  57  77 105 144 187 227 267 318
#     4   9  17  30  49  76 111 144 171 205 258 323
#     4  10  20  34  56  84 112 142 178 224 274 320
#     4  11  22  36  58  86 113 140 176 226 276 319
#     4  10  22  39  57  77 105 144 187 227 267 318
#     4  10  21  37  57  80 110 147 182 218 265 326
#     4  10  21  37  57  80 110 147 182 218 265 326
#     4  10  20  34  56  84 112 142 178 224 274 320
#
# _framework density 18.809823999999999
#
# number of rings (size 3 to 8) (size 9 to 14) (size 15 to 20)
#    0.000    2.000    0.000    3.375    0.000   10.500 
#    0.000    7.500    0.000    2.250    0.000    8.750 
#    0.000    0.000    0.000    0.000    0.000    0.000 
#
# Total GULP energy -178579.800410 kJ/mol
# GULP energy per Si atom -5580.618763 kJ/mol
# Density = 1.876701 g / cm^3
# Si number density = 18.809824 Si / 1000 Ang^3
#
#
#
# Elastic Constant Matrix: (Units=GPa)
#
#
# Indices 1 2 3 4 5 6 
#
# 1 107.1115 27.8073 76.9129 0.0000 0.0000 0.0000
# 2 27.8073 47.6272 48.2491 0.0000 0.0000 0.0000
# 3 76.9129 48.2491 164.1628 0.0000 0.0000 0.0000
# 4 0.0000 0.0000 0.0000 -38.0172 0.0000 0.0000
# 5 0.0000 0.0000 0.0000 0.0000 196.7812 0.0000
# 6 0.0000 0.0000 0.0000 0.0000 0.0000 17.5370
#
#
#
# Elastic Compliance Matrix: (Units=1/GPa)
#
#
# Indices 1 2 3 4 5 6 
#
# 1 0.014231 -0.002213 -0.006017 0.000000 0.000000 0.000000
# 2 -0.002213 0.030243 -0.007852 0.000000 0.000000 0.000000
# 3 -0.006017 -0.007852 0.011218 0.000000 0.000000 0.000000
# 4 0.000000 0.000000 0.000000 -0.026304 0.000000 0.000000
# 5 0.000000 0.000000 0.000000 0.000000 0.005082 0.000000
# 6 0.000000 0.000000 0.000000 0.000000 0.000000 0.057022
#
#
# Mechanical properties :
#
#
# Convention : Reuss Voigt Hill
#
# Bulk Modulus (GPa) = 42.50205 69.42666 55.96436
# Shear Modulus (GPa) = 38.02286 46.32235 42.17260
#
# Velocity S-wave (km/s) = 4.50092 4.96791 4.74017
# Velocity P-wave (km/s) = 7.04668 8.36043 7.73151
#
# Compressibility (1/GPa) = 0.02352828
#
# Stress axis : x y z
#
# Youngs Moduli (GPa) = 70.26753 33.06559 89.14006
#
# Poissons Ratio (x) = 0.07319 0.53636
# Poissons Ratio (y) = 0.15553 0.69990
# Poissons Ratio (z) = 0.42280 0.25962
#
# Static dielectric constant tensor:
#      x y z
#    x 1.649750 0.000000 0.000000 
#    y 0.000000 1.675800 0.000000 
#    z 0.000000 0.000000 1.632110 
# 
# From -- ./inp_files/13215.got.cif
#   From: 2010.05.17/outbox.cif.g08.bks.cpg/sg35_7_cif.got.tgz:13215.got - 2010.06.03 17:29:28.
