data_PCOD9349425
_publ_section_title
;
Structure prediction by ZEFSAII (Michael W. Deem and Ramdas Pophale) SiO2 
 PCOD9349425
Probable space group: C M M 2
;
_chemical_formula_sum "Si O2"
_cell_formula_units_Z 48
_cell_length_a 31.401753
_cell_length_b 8.567560
_cell_length_c 9.685694
_cell_angle_alpha 90.000000
_cell_angle_beta 90.000000
_cell_angle_gamma 90.000000
_cell_volume 2605.804274
_symmetry_space_group_name_H-M "C M M 2"
_symmetry_group_IT_number 35
_symmetry_cell_setting 'orthorhombic'
loop_
_space_group_symop_operation_xyz
x,y,z
-x,-y,z
-x,y,z
x,-y,z
1/2+x,1/2+y,z
1/2-x,1/2-y,z
1/2-x,1/2+y,z
1/2+x,1/2-y,z
loop_
_atom_site_type_symbol
_atom_site_label
_atom_site_fract_x
_atom_site_fract_y
_atom_site_fract_z
Si Si1 0.548232 0.309958 0.808730
Si Si2 0.125038 0.313153 0.307279
Si Si3 0.373857 0.687289 0.997750
Si Si4 0.203358 0.688174 0.497536
Si Si5 0.703193 0.187276 0.815899
Si Si6 0.450787 0.688299 0.491593
O O1 0.500000 0.259114 0.842244
O O2 0.547937 0.500000 0.810078
O O3 0.558077 0.264124 0.650584
O O4 0.584129 0.257098 0.914785
O O5 0.126632 0.500000 0.299950
O O6 0.125823 0.245515 0.154030
O O7 0.165988 0.258502 0.396089
O O8 0.082779 0.261953 0.388300
O O9 0.373847 0.500000 0.996623
O O10 0.332698 0.747311 0.916058
O O11 0.204533 0.500000 0.495170
O O12 0.250000 0.750000 0.458693
O O13 0.194681 0.736138 0.656482
O O14 0.750000 0.250000 0.852468
O O15 0.703285 0.000000 0.821565
O O16 0.500000 0.729209 0.461119
O O17 0.447492 0.500000 0.484520
#
# Coordination Sequence:
#
# PCOD9349425 Si02
#       6
#     8   8   8   8   8   8
#     4   8  16  33  57  82 106 135 177 227 272 318
#     4  11  23  37  52  77 114 149 180 219 269 323
#     4  11  22  35  54  81 111 146 184 221 267 321
#     4   9  20  37  58  81 105 137 178 224 271 321
#     4  10  20  37  59  82 107 137 177 224 273 323
#     4   9  18  35  59  83 105 135 179 227 272 321
#
# _framework density 18.420415999999999
#
# number of rings (size 3 to 8) (size 9 to 14) (size 15 to 20)
#    0.000    2.333    0.000    3.500    0.000    3.667 
#    0.000    4.167    0.000    3.500    0.000    0.000 
#    0.000    0.000    0.000    0.000    0.000    0.000 
#
# Total GULP energy -133995.507107 kJ/mol
# GULP energy per Si atom -5583.146129 kJ/mol
# Density = 1.837849 g / cm^3
# Si number density = 18.420416 Si / 1000 Ang^3
#
#
#
# Elastic Constant Matrix: (Units=GPa)
#
#
# Indices 1 2 3 4 5 6 
#
# 1 172.6474 41.6041 139.8021 0.0000 0.0000 0.0000
# 2 41.6041 34.7155 40.2576 0.0000 0.0000 0.0000
# 3 139.8021 40.2576 158.1649 0.0000 0.0000 0.0000
# 4 0.0000 0.0000 0.0000 28.1895 0.0000 0.0000
# 5 0.0000 0.0000 0.0000 0.0000 -9.9337 0.0000
# 6 0.0000 0.0000 0.0000 0.0000 0.0000 29.7090
#
#
#
# Elastic Compliance Matrix: (Units=1/GPa)
#
#
# Indices 1 2 3 4 5 6 
#
# 1 0.021011 -0.005170 -0.017256 0.000000 0.000000 0.000000
# 2 -0.005170 0.042140 -0.006157 0.000000 0.000000 0.000000
# 3 -0.017256 -0.006157 0.023142 0.000000 0.000000 0.000000
# 4 0.000000 0.000000 0.000000 0.035474 0.000000 0.000000
# 5 0.000000 0.000000 0.000000 0.000000 -0.100667 0.000000
# 6 0.000000 0.000000 0.000000 0.000000 0.000000 0.033660
#
#
# Mechanical properties :
#
#
# Convention : Reuss Voigt Hill
#
# Bulk Modulus (GPa) = 34.32953 89.87282 62.10117
# Shear Modulus (GPa) = 41.10727 19.18388 30.14558
#
# Velocity S-wave (km/s) = 4.72912 3.23065 4.04979
# Velocity P-wave (km/s) = 6.96395 7.92539 7.46017
#
# Compressibility (1/GPa) = 0.02912944
#
# Stress axis : x y z
#
# Youngs Moduli (GPa) = 47.59494 23.73018 43.21202
#
# Poissons Ratio (x) = 0.12267 0.74565
# Poissons Ratio (y) = 0.24604 0.26604
# Poissons Ratio (z) = 0.82128 0.14610
#
# Static dielectric constant tensor:
#      x y z
#    x 1.617750 0.000000 0.000000 
#    y 0.000000 1.630070 0.000000 
#    z 0.000000 0.000000 1.610050 
# 
# From -- ./inp_files/5285.got.cif
#   From: 2010.05.17/outbox.cif.g08.bks.cpg/sg35_3_cif.got.tgz:5285.got - 2010.06.03 17:29:28.
