data_PCOD9349225
_publ_section_title
;
Structure prediction by ZEFSAII (Michael W. Deem and Ramdas Pophale) SiO2 
 PCOD9349225
Probable space group: C M M 2
;
_chemical_formula_sum "Si O2"
_cell_formula_units_Z 48
_cell_length_a 18.216406
_cell_length_b 9.099453
_cell_length_c 15.826774
_cell_angle_alpha 90.000000
_cell_angle_beta 90.000000
_cell_angle_gamma 90.000000
_cell_volume 2623.435458
_symmetry_space_group_name_H-M "C M M 2"
_symmetry_group_IT_number 35
_symmetry_cell_setting 'orthorhombic'
loop_
_space_group_symop_operation_xyz
x,y,z
-x,-y,z
-x,y,z
x,-y,z
1/2+x,1/2+y,z
1/2-x,1/2-y,z
1/2-x,1/2+y,z
1/2+x,1/2-y,z
loop_
_atom_site_type_symbol
_atom_site_label
_atom_site_fract_x
_atom_site_fract_y
_atom_site_fract_z
Si Si1 0.086384 0.325160 0.344500
Si Si2 0.829427 0.324136 0.518938
Si Si3 0.411628 0.672939 0.674012
Si Si4 0.829364 0.823952 0.191299
Si Si5 0.410646 0.830957 0.846717
Si Si6 0.586551 0.324668 0.018889
O O1 0.095228 0.500000 0.328296
O O2 0.126448 0.291988 0.432747
O O3 0.122351 0.235607 0.268561
O O4 0.000000 0.293819 0.351345
O O5 0.822833 0.500000 0.527070
O O6 0.750000 0.250000 0.514452
O O7 0.873006 0.258857 0.598415
O O8 0.500000 0.689937 0.667175
O O9 0.394771 0.500000 0.669890
O O10 0.388246 0.739315 0.764404
O O11 0.750000 0.750000 0.195461
O O12 0.868573 0.786224 0.102625
O O13 0.823044 0.000000 0.196406
O O14 0.500000 0.828469 0.847653
O O15 0.387172 0.000000 0.840145
O O16 0.387372 0.759023 0.935089
O O17 0.500000 0.291597 0.032287
O O18 0.592338 0.500000 0.004771
#
# Coordination Sequence:
#
# PCOD9349225 Si02
#       6
#     8   8   8   8   8   8
#     4  10  22  40  62  87 113 143 182 229 278 329
#     4  11  23  39  58  82 114 149 185 227 277 332
#     4  10  20  35  57  84 113 147 188 233 279 328
#     4  11  23  38  57  82 114 151 188 229 278 331
#     4   9  17  30  52  82 112 143 182 230 281 330
#     4   9  18  34  55  79 108 143 185 232 280 331
#
# _framework density 18.296619
#
# number of rings (size 3 to 8) (size 9 to 14) (size 15 to 20)
#    0.000    2.000    0.000    3.500    0.000    8.667 
#    0.000    2.500    0.000    2.000    0.000    0.000 
#    0.000    0.000    0.000    0.000    0.000    0.000 
#
# Total GULP energy -134070.227010 kJ/mol
# GULP energy per Si atom -5586.259459 kJ/mol
# Density = 1.825498 g / cm^3
# Si number density = 18.296619 Si / 1000 Ang^3
#
#
#
# Elastic Constant Matrix: (Units=GPa)
#
#
# Indices 1 2 3 4 5 6 
#
# 1 80.6206 64.6569 77.4797 0.0000 0.0000 0.0000
# 2 64.6569 99.9722 105.7667 0.0000 0.0000 0.0000
# 3 77.4797 105.7667 196.6687 0.0000 0.0000 0.0000
# 4 0.0000 0.0000 0.0000 43.8978 0.0000 0.0000
# 5 0.0000 0.0000 0.0000 0.0000 -22.1798 0.0000
# 6 0.0000 0.0000 0.0000 0.0000 0.0000 23.0083
#
#
#
# Elastic Compliance Matrix: (Units=1/GPa)
#
#
# Indices 1 2 3 4 5 6 
#
# 1 0.026432 -0.014101 -0.002830 0.000000 0.000000 0.000000
# 2 -0.014101 0.030729 -0.010971 0.000000 0.000000 0.000000
# 3 -0.002830 -0.010971 0.012099 0.000000 0.000000 0.000000
# 4 0.000000 0.000000 0.000000 0.022780 0.000000 0.000000
# 5 0.000000 0.000000 0.000000 0.000000 -0.045086 0.000000
# 6 0.000000 0.000000 0.000000 0.000000 0.000000 0.043462
#
#
# Mechanical properties :
#
#
# Convention : Reuss Voigt Hill
#
# Bulk Modulus (GPa) = 74.30687 97.00758 85.65723
# Shear Modulus (GPa) = 33.17698 17.56915 25.37306
#
# Velocity S-wave (km/s) = 4.26289 3.10214 3.72797
# Velocity P-wave (km/s) = 8.05792 8.12191 8.08998
#
# Compressibility (1/GPa) = 0.01345771
#
# Stress axis : x y z
#
# Youngs Moduli (GPa) = 37.83229 32.54224 82.64911
#
# Poissons Ratio (x) = 0.45889 0.23387
# Poissons Ratio (y) = 0.53349 0.90671
# Poissons Ratio (z) = 0.10705 0.35701
#
# Static dielectric constant tensor:
#      x y z
#    x 1.608050 0.000000 0.000000 
#    y 0.000000 1.608330 0.000000 
#    z 0.000000 0.000000 1.597010 
# 
# From -- ./inp_files/15092.got.cif
#   From: 2010.05.17/outbox.cif.g08.bks.cpg/sg35_8_cif.got.tgz:15092.got - 2010.06.03 17:29:28.
