data_PCOD9349288
_publ_section_title
;
Structure prediction by ZEFSAII (Michael W. Deem and Ramdas Pophale) SiO2 
 PCOD9349288
Probable space group: C M M 2
;
_chemical_formula_sum "Si O2"
_cell_formula_units_Z 58
_cell_length_a 9.305323
_cell_length_b 28.855354
_cell_length_c 12.849714
_cell_angle_alpha 90.000000
_cell_angle_beta 90.000000
_cell_angle_gamma 90.000000
_cell_volume 3450.256008
_symmetry_space_group_name_H-M "C M M 2"
_symmetry_group_IT_number 35
_symmetry_cell_setting 'orthorhombic'
loop_
_space_group_symop_operation_xyz
x,y,z
-x,-y,z
-x,y,z
x,-y,z
1/2+x,1/2+y,z
1/2-x,1/2-y,z
1/2-x,1/2+y,z
1/2+x,1/2-y,z
loop_
_atom_site_type_symbol
_atom_site_label
_atom_site_fract_x
_atom_site_fract_y
_atom_site_fract_z
Si Si1 0.162028 0.394145 0.366160
Si Si2 0.500000 0.500000 0.151161
Si Si3 0.326585 0.297432 0.040561
Si Si4 0.171289 0.553551 0.757272
Si Si5 0.672544 0.796139 0.263742
Si Si6 0.829312 0.054188 0.542840
Si Si7 0.206750 0.448301 0.151769
Si Si8 0.665293 0.882620 0.954197
O O1 0.189834 0.340904 0.335902
O O2 0.270245 0.415016 0.449407
O O3 0.168563 0.423107 0.258961
O O4 0.000000 0.398143 0.408332
O O5 0.374960 0.459931 0.151671
O O6 0.500000 0.293543 0.046111
O O7 0.250000 0.250000 0.003438
O O8 0.254905 0.305300 0.154734
O O9 0.273846 0.340543 0.972249
O O10 0.207612 0.500000 0.784037
O O11 0.254334 0.565905 0.652085
O O12 0.203537 0.586890 0.853547
O O13 0.000000 0.555478 0.738522
O O14 0.500000 0.789404 0.246232
O O15 0.750000 0.750000 0.306171
O O16 0.000000 0.058389 0.552243
O O17 0.795373 0.000000 0.520044
O O18 0.143442 0.500000 0.143660
O O19 0.169202 0.416112 0.054679
O O20 0.500000 0.865746 0.943744
#
# Coordination Sequence:
#
# PCOD9349288 Si02
#       8
#     8   2   8   8   8   8   8   8
#     4  11  22  34  55  79 108 144 182 223 270 328
#     4   8  24  36  42  76 118 148 182 220 264 330
#     4  11  22  35  55  79 111 147 183 226 274 327
#     4   9  19  37  58  80 108 145 186 226 268 320
#     4  10  20  36  54  80 110 142 182 225 272 329
#     4  10  22  37  55  79 109 144 185 231 271 318
#     4  10  21  34  50  74 115 146 179 218 268 327
#     4  11  21  35  57  82 111 144 183 225 275 329
#
# _framework density 16.810347
#
# number of rings (size 3 to 8) (size 9 to 14) (size 15 to 20)
#    0.414    1.379    1.379    4.138    1.931    4.690 
#    0.000    0.000    0.000    0.828    0.000    3.862 
#    0.000    0.000    0.000    0.000    0.000    0.000 
#
# Total GULP energy -161478.256741 kJ/mol
# GULP energy per Si atom -5568.215750 kJ/mol
# Density = 1.677209 g / cm^3
# Si number density = 16.810347 Si / 1000 Ang^3
#
#
#
# Elastic Constant Matrix: (Units=GPa)
#
#
# Indices 1 2 3 4 5 6 
#
# 1 123.2858 57.5132 46.6913 0.0000 0.0000 0.0000
# 2 57.5132 109.0544 63.7804 0.0000 0.0000 0.0000
# 3 46.6913 63.7804 93.6338 0.0000 0.0000 0.0000
# 4 0.0000 0.0000 0.0000 12.5313 0.0000 0.0000
# 5 0.0000 0.0000 0.0000 0.0000 17.3069 0.0000
# 6 0.0000 0.0000 0.0000 0.0000 0.0000 30.1277
#
#
#
# Elastic Compliance Matrix: (Units=1/GPa)
#
#
# Indices 1 2 3 4 5 6 
#
# 1 0.011120 -0.004357 -0.002577 0.000000 0.000000 0.000000
# 2 -0.004357 0.016949 -0.009372 0.000000 0.000000 0.000000
# 3 -0.002577 -0.009372 0.018349 0.000000 0.000000 0.000000
# 4 0.000000 0.000000 0.000000 0.079800 0.000000 0.000000
# 5 0.000000 0.000000 0.000000 0.000000 0.057780 0.000000
# 6 0.000000 0.000000 0.000000 0.000000 0.000000 0.033192
#
#
# Mechanical properties :
#
#
# Convention : Reuss Voigt Hill
#
# Bulk Modulus (GPa) = 72.43863 73.54932 72.99398
# Shear Modulus (GPa) = 19.65364 22.52579 21.08971
#
# Velocity S-wave (km/s) = 3.42298 3.66457 3.54583
# Velocity P-wave (km/s) = 7.66861 7.85829 7.76403
#
# Compressibility (1/GPa) = 0.01380479
#
# Stress axis : x y z
#
# Youngs Moduli (GPa) = 89.92912 59.00014 54.49846
#
# Poissons Ratio (x) = 0.25708 0.14044
# Poissons Ratio (y) = 0.39184 0.51078
# Poissons Ratio (z) = 0.23175 0.55297
#
# Static dielectric constant tensor:
#      x y z
#    x 1.574240 0.000000 0.000000 
#    y 0.000000 1.580750 0.000000 
#    z 0.000000 0.000000 1.537490 
# 
# From -- ./inp_files/11809.got.cif
#   From: 2010.05.17/outbox.cif.g08.bks.cpg/sg35_6_cif.got.tgz:11809.got - 2010.06.03 17:29:28.
