data_PCOD9349189
_publ_section_title
;
Structure prediction by ZEFSAII (Michael W. Deem and Ramdas Pophale) SiO2 
 PCOD9349189
Probable space group: C M M 2
;
_chemical_formula_sum "Si O2"
_cell_formula_units_Z 56
_cell_length_a 21.000679
_cell_length_b 8.938705
_cell_length_c 14.740094
_cell_angle_alpha 90.000000
_cell_angle_beta 90.000000
_cell_angle_gamma 90.000000
_cell_volume 2766.993854
_symmetry_space_group_name_H-M "C M M 2"
_symmetry_group_IT_number 35
_symmetry_cell_setting 'orthorhombic'
loop_
_space_group_symop_operation_xyz
x,y,z
-x,-y,z
-x,y,z
x,-y,z
1/2+x,1/2+y,z
1/2-x,1/2-y,z
1/2-x,1/2+y,z
1/2+x,1/2-y,z
loop_
_atom_site_type_symbol
_atom_site_label
_atom_site_fract_x
_atom_site_fract_y
_atom_site_fract_z
Si Si1 0.679217 0.179382 0.054280
Si Si2 0.125441 0.680724 0.853372
Si Si3 0.000000 0.179642 0.769323
Si Si4 0.184573 0.823336 0.332628
Si Si5 0.870594 0.670699 0.496323
Si Si6 0.000000 0.316623 0.564066
Si Si7 0.193506 0.333974 0.680172
Si Si8 0.924192 0.819037 0.191748
O O1 0.750000 0.250000 0.069246
O O2 0.621414 0.247460 0.114318
O O3 0.683324 0.000000 0.069059
O O4 0.656404 0.207041 0.950664
O O5 0.116213 0.500000 0.842828
O O6 0.060174 0.761242 0.826987
O O7 0.172390 0.735403 0.773951
O O8 0.000000 0.247548 0.666105
O O9 0.000000 0.000000 0.762765
O O10 0.250000 0.750000 0.296514
O O11 0.174349 0.771227 0.435759
O O12 0.118935 0.781685 0.280492
O O13 0.192234 0.000000 0.325938
O O14 0.864837 0.500000 0.462286
O O15 0.941559 0.728575 0.500011
O O16 0.859416 0.663564 0.604442
O O17 0.000000 0.500000 0.573507
O O18 0.215155 0.500000 0.700578
O O19 0.250000 0.250000 0.633630
O O20 0.000000 0.773724 0.192381
O O21 0.923988 0.000000 0.181765
#
# Coordination Sequence:
#
# PCOD9349189 Si02
#       8
#     8   8   4   8   8   4   8   8
#     4  11  24  42  69  99 128 167 212 262 319 380
#     4  10  22  41  61  84 123 168 207 253 310 373
#     4  12  24  36  58  91 122 163 214 263 312 364
#     4  11  24  42  66  93 127 167 208 259 317 377
#     4  10  21  37  61  89 120 163 208 253 310 368
#     4  10  20  40  62  83 122 169 208 253 314 376
#     4  10  20  35  56  81 116 159 200 246 300 357
#     4  10  24  46  69  95 131 168 204 259 324 380
#
# _framework density 20.238571
#
# number of rings (size 3 to 8) (size 9 to 14) (size 15 to 20)
#    0.000    1.571    1.429    2.786    2.000    6.571 
#    0.000    0.000    0.000    0.000    0.000    0.000 
#    0.000    0.000    0.000    0.000    0.000    0.000 
#
# Total GULP energy -155978.966857 kJ/mol
# GULP energy per Si atom -5570.677388 kJ/mol
# Density = 2.019251 g / cm^3
# Si number density = 20.238571 Si / 1000 Ang^3
#
#
#
# Elastic Constant Matrix: (Units=GPa)
#
#
# Indices 1 2 3 4 5 6 
#
# 1 159.6382 46.0797 42.6292 0.0000 0.0000 0.0000
# 2 46.0797 42.4240 29.1620 0.0000 0.0000 0.0000
# 3 42.6292 29.1620 98.4818 0.0000 0.0000 0.0000
# 4 0.0000 0.0000 0.0000 18.2603 0.0000 0.0000
# 5 0.0000 0.0000 0.0000 0.0000 -48.4690 0.0000
# 6 0.0000 0.0000 0.0000 0.0000 0.0000 26.5802
#
#
#
# Elastic Compliance Matrix: (Units=1/GPa)
#
#
# Indices 1 2 3 4 5 6 
#
# 1 0.009254 -0.009163 -0.001292 0.000000 0.000000 0.000000
# 2 -0.009163 0.038669 -0.007484 0.000000 0.000000 0.000000
# 3 -0.001292 -0.007484 0.012930 0.000000 0.000000 0.000000
# 4 0.000000 0.000000 0.000000 0.054764 0.000000 0.000000
# 5 0.000000 0.000000 0.000000 0.000000 -0.020632 0.000000
# 6 0.000000 0.000000 0.000000 0.000000 0.000000 0.037622
#
#
# Mechanical properties :
#
#
# Convention : Reuss Voigt Hill
#
# Bulk Modulus (GPa) = 40.04256 59.58730 49.81493
# Shear Modulus (GPa) = 28.27883 11.45253 19.86568
#
# Velocity S-wave (km/s) = 3.74207 2.38140 3.13641
# Velocity P-wave (km/s) = 6.20476 6.08833 6.14682
#
# Compressibility (1/GPa) = 0.02497343
#
# Stress axis : x y z
#
# Youngs Moduli (GPa) = 108.05809 25.86057 77.34106
#
# Poissons Ratio (x) = 0.23697 0.09996
# Poissons Ratio (y) = 0.99017 0.57882
# Poissons Ratio (z) = 0.13966 0.19354
#
# Static dielectric constant tensor:
#      x y z
#    x 30.479530 0.000000 0.000000 
#    y 0.000000 1.704890 0.000000 
#    z 0.000000 0.000000 1.716380 
# 
# From -- ./inp_files/17476.got.cif
#   From: 2010.05.17/outbox.cif.g08.bks.cpg/sg35_9_cif.got.tgz:17476.got - 2010.06.03 17:29:28.
