data_PCOD9349834
_publ_section_title
;
Structure prediction by ZEFSAII (Michael W. Deem and Ramdas Pophale) SiO2 
 PCOD9349834
Probable space group: C M M 2
;
_chemical_formula_sum "Si O2"
_cell_formula_units_Z 58
_cell_length_a 26.886186
_cell_length_b 7.496013
_cell_length_c 11.739652
_cell_angle_alpha 90.000000
_cell_angle_beta 90.000000
_cell_angle_gamma 90.000000
_cell_volume 2366.000070
_symmetry_space_group_name_H-M "C M M 2"
_symmetry_group_IT_number 35
_symmetry_cell_setting 'orthorhombic'
loop_
_space_group_symop_operation_xyz
x,y,z
-x,-y,z
-x,y,z
x,-y,z
1/2+x,1/2+y,z
1/2-x,1/2-y,z
1/2-x,1/2+y,z
1/2+x,1/2-y,z
loop_
_atom_site_type_symbol
_atom_site_label
_atom_site_fract_x
_atom_site_fract_y
_atom_site_fract_z
Si Si1 0.554119 0.212878 0.014750
Si Si2 0.695537 0.712321 0.530293
Si Si3 0.692773 0.713522 0.003477
Si Si4 0.000000 0.000000 0.466120
Si Si5 0.447144 0.785316 0.748145
Si Si6 0.161686 0.206437 0.760685
Si Si7 0.869435 0.198034 0.195003
Si Si8 0.912431 0.698350 0.426702
O O1 0.500000 0.252018 0.063998
O O2 0.594706 0.311672 0.085924
O O3 0.562313 0.000000 0.020779
O O4 0.552758 0.260932 0.882221
O O5 0.690985 0.500000 0.536250
O O6 0.750000 0.750000 0.478076
O O7 0.694598 0.786864 0.660207
O O8 0.644466 0.775992 0.472328
O O9 0.685542 0.500000 0.012330
O O10 0.750000 0.750000 0.981944
O O11 0.665240 0.783615 0.888551
O O12 0.677039 0.784492 0.128675
O O13 0.954625 0.843203 0.457811
O O14 0.500000 0.718070 0.699788
O O15 0.394291 0.714746 0.710091
O O16 0.446608 0.000000 0.739342
O O17 0.175599 0.000000 0.775219
O O18 0.901140 0.293546 0.291316
O O19 0.857299 0.000000 0.240246
O O20 0.929132 0.500000 0.461668
#
# Coordination Sequence:
#
# PCOD9349834 Si02
#       8
#     8   8   8   2   8   8   8   8
#     4   9  18  31  51  81 118 165 215 264 323 396
#     4  11  24  47  75 105 143 187 251 320 378 452
#     4  10  22  38  59  91 132 180 230 290 362 431
#     4  12  26  56  80 114 158 188 254 318 372 464
#     4   9  18  33  52  82 126 171 221 278 334 416
#     4  10  21  39  63  94 133 177 229 293 366 434
#     4  11  22  39  61  93 138 177 227 290 346 422
#     4  12  27  49  78 111 149 199 247 305 385 451
#
# _framework density 24.513946000000001
#
# number of rings (size 3 to 8) (size 9 to 14) (size 15 to 20)
#    0.000    1.655    2.759    2.276    0.966    3.862 
#    1.241    2.759    0.000    0.000    0.000    0.000 
#    0.000    0.000    0.000    0.000    0.000    0.000 
#
# Total GULP energy -161600.049778 kJ/mol
# GULP energy per Si atom -5572.415510 kJ/mol
# Density = 2.445815 g / cm^3
# Si number density = 24.513946 Si / 1000 Ang^3
#
#
#
# Elastic Constant Matrix: (Units=GPa)
#
#
# Indices 1 2 3 4 5 6 
#
# 1 163.8846 25.3392 26.7490 0.0000 0.0000 0.0000
# 2 25.3392 120.1885 4.1906 0.0000 0.0000 0.0000
# 3 26.7490 4.1906 74.1345 0.0000 0.0000 0.0000
# 4 0.0000 0.0000 0.0000 33.4497 0.0000 0.0000
# 5 0.0000 0.0000 0.0000 0.0000 21.7120 0.0000
# 6 0.0000 0.0000 0.0000 0.0000 0.0000 36.4319
#
#
#
# Elastic Compliance Matrix: (Units=1/GPa)
#
#
# Indices 1 2 3 4 5 6 
#
# 1 0.006689 -0.001329 -0.002338 0.000000 0.000000 0.000000
# 2 -0.001329 0.008601 -0.000007 0.000000 0.000000 0.000000
# 3 -0.002338 -0.000007 0.014333 0.000000 0.000000 0.000000
# 4 0.000000 0.000000 0.000000 0.029896 0.000000 0.000000
# 5 0.000000 0.000000 0.000000 0.000000 0.046058 0.000000
# 6 0.000000 0.000000 0.000000 0.000000 0.000000 0.027448
#
#
# Mechanical properties :
#
#
# Convention : Reuss Voigt Hill
#
# Bulk Modulus (GPa) = 44.89332 52.30725 48.60028
# Shear Modulus (GPa) = 33.83019 38.44731 36.13875
#
# Velocity S-wave (km/s) = 3.71892 3.96458 3.84371
# Velocity P-wave (km/s) = 6.06577 6.50702 6.29027
#
# Compressibility (1/GPa) = 0.02227503
#
# Stress axis : x y z
#
# Youngs Moduli (GPa) = 149.50007 116.27058 69.76851
#
# Poissons Ratio (x) = 0.15449 0.16315
# Poissons Ratio (y) = 0.19864 0.00047
# Poissons Ratio (z) = 0.34959 0.00079
#
# Static dielectric constant tensor:
#      x y z
#    x 2.046530 0.000000 0.000000 
#    y 0.000000 1.929040 0.000000 
#    z 0.000000 0.000000 2.019660 
# 
# From -- ./inp_files/14331.got.cif
#   From: 2010.05.17/outbox.cif.g08.bks.cpg/sg35_8_cif.got.tgz:14331.got - 2010.06.03 17:29:28.
