data_PCOD9349383
_publ_section_title
;
Structure prediction by ZEFSAII (Michael W. Deem and Ramdas Pophale) SiO2 
 PCOD9349383
Probable space group: C M M 2
;
_chemical_formula_sum "Si O2"
_cell_formula_units_Z 58
_cell_length_a 7.724353
_cell_length_b 19.997309
_cell_length_c 17.937608
_cell_angle_alpha 90.000000
_cell_angle_beta 90.000000
_cell_angle_gamma 90.000000
_cell_volume 2770.755468
_symmetry_space_group_name_H-M "C M M 2"
_symmetry_group_IT_number 35
_symmetry_cell_setting 'orthorhombic'
loop_
_space_group_symop_operation_xyz
x,y,z
-x,-y,z
-x,y,z
x,-y,z
1/2+x,1/2+y,z
1/2-x,1/2-y,z
1/2-x,1/2+y,z
1/2+x,1/2-y,z
loop_
_atom_site_type_symbol
_atom_site_label
_atom_site_fract_x
_atom_site_fract_y
_atom_site_fract_z
Si Si1 0.206060 0.075478 0.875000
Si Si2 0.791335 0.325400 0.175730
Si Si3 0.500000 0.000000 0.585655
Si Si4 0.796765 0.825244 0.427890
Si Si5 0.210891 0.118908 0.588712
Si Si6 0.793669 0.825416 0.749553
Si Si7 0.703833 0.075004 0.300676
Si Si8 0.793907 0.325484 0.006108
O O1 0.279142 0.119375 0.806599
O O2 0.230443 0.118364 0.949694
O O3 0.000000 0.069626 0.863449
O O4 0.276652 0.000000 0.879000
O O5 0.750000 0.250000 0.200641
O O6 0.722406 0.380273 0.233297
O O7 0.000000 0.330405 0.173450
O O8 0.726201 0.333454 0.090825
O O9 0.344448 0.057693 0.585675
O O10 0.750000 0.750000 0.405635
O O11 0.756236 0.838038 0.514377
O O12 0.716452 0.882055 0.375861
O O13 0.000000 0.833037 0.418303
O O14 0.253222 0.158697 0.664496
O O15 0.000000 0.102383 0.589927
O O16 0.750000 0.750000 0.771290
O O17 0.000000 0.830580 0.753358
O O18 0.500000 0.068206 0.285027
O O19 0.776518 0.000000 0.307403
O O20 0.750000 0.250000 0.980934
O O21 0.000000 0.330524 0.008679
#
# Coordination Sequence:
#
# PCOD9349383 Si02
#       8
#     8   8   2   8   8   8   8   8
#     4  10  22  39  59  85 120 161 198 246 311 365
#     4   9  19  36  58  84 114 153 197 246 302 360
#     4  12  26  40  72  98 128 172 206 264 312 390
#     4  11  24  41  64  89 122 160 204 258 308 364
#     4  10  25  44  65  97 131 167 212 262 312 370
#     4  10  22  41  64  88 122 160 203 257 308 364
#     4  10  22  38  59  86 120 158 199 245 302 372
#     4  10  20  36  59  86 117 153 198 249 300 361
#
# _framework density 20.932921
#
# number of rings (size 3 to 8) (size 9 to 14) (size 15 to 20)
#    0.000    1.931    0.000    2.276    4.828    4.966 
#    0.000    1.379    0.000    0.000    0.000    0.000 
#    0.000    0.000    0.000    0.000    0.000    0.000 
#
# Total GULP energy -161646.336318 kJ/mol
# GULP energy per Si atom -5574.011597 kJ/mol
# Density = 2.088528 g / cm^3
# Si number density = 20.932921 Si / 1000 Ang^3
#
#
#
# Elastic Constant Matrix: (Units=GPa)
#
#
# Indices 1 2 3 4 5 6 
#
# 1 40.8272 17.0820 9.3273 0.0000 0.0000 0.0000
# 2 17.0820 205.6047 99.1561 0.0000 0.0000 0.0000
# 3 9.3273 99.1561 125.3743 0.0000 0.0000 0.0000
# 4 0.0000 0.0000 0.0000 -118.5037 0.0000 0.0000
# 5 0.0000 0.0000 0.0000 0.0000 -5.7172 0.0000
# 6 0.0000 0.0000 0.0000 0.0000 0.0000 31.8207
#
#
#
# Elastic Compliance Matrix: (Units=1/GPa)
#
#
# Indices 1 2 3 4 5 6 
#
# 1 0.025385 -0.001937 -0.000357 0.000000 0.000000 0.000000
# 2 -0.001937 0.008010 -0.006191 0.000000 0.000000 0.000000
# 3 -0.000357 -0.006191 0.012899 0.000000 0.000000 0.000000
# 4 0.000000 0.000000 0.000000 -0.008439 0.000000 0.000000
# 5 0.000000 0.000000 0.000000 0.000000 -0.174912 0.000000
# 6 0.000000 0.000000 0.000000 0.000000 0.000000 0.031426
#
#
# Mechanical properties :
#
#
# Convention : Reuss Voigt Hill
#
# Bulk Modulus (GPa) = 34.10027 69.21523 51.65775
# Shear Modulus (GPa) = -63.38336 -2.06397 -32.72367
#
# Velocity S-wave (km/s) = -5.50863 -0.99405 -3.95810
# Velocity P-wave (km/s) = 4.91268 5.64088 1.96025
#
# Compressibility (1/GPa) = 0.02932528
#
# Stress axis : x y z
#
# Youngs Moduli (GPa) = 39.39274 124.83706 77.52457
#
# Poissons Ratio (x) = 0.24183 0.02764
# Poissons Ratio (y) = 0.07631 0.47997
# Poissons Ratio (z) = 0.01404 0.77289
#
# Static dielectric constant tensor:
#      x y z
#    x 1.776010 0.000000 0.000000 
#    y 0.000000 1.733140 0.000000 
#    z 0.000000 0.000000 1.764420 
# 
# From -- ./inp_files/18140.got.cif
#   From: 2010.05.17/outbox.cif.g08.bks.cpg/sg35_10_cif.got.tgz:18140.got - 2010.06.03 17:29:28.
