data_PCOD9349467
_publ_section_title
;
Structure prediction by ZEFSAII (Michael W. Deem and Ramdas Pophale) SiO2 
 PCOD9349467
Probable space group: C M M 2
;
_chemical_formula_sum "Si O2"
_cell_formula_units_Z 48
_cell_length_a 8.701619
_cell_length_b 15.679105
_cell_length_c 17.765511
_cell_angle_alpha 90.000000
_cell_angle_beta 90.000000
_cell_angle_gamma 90.000000
_cell_volume 2423.812586
_symmetry_space_group_name_H-M "C M M 2"
_symmetry_group_IT_number 35
_symmetry_cell_setting 'orthorhombic'
loop_
_space_group_symop_operation_xyz
x,y,z
-x,-y,z
-x,y,z
x,-y,z
1/2+x,1/2+y,z
1/2-x,1/2-y,z
1/2-x,1/2+y,z
1/2+x,1/2-y,z
loop_
_atom_site_type_symbol
_atom_site_label
_atom_site_fract_x
_atom_site_fract_y
_atom_site_fract_z
Si Si1 0.814390 0.500000 0.386451
Si Si2 0.670442 0.398667 0.979384
Si Si3 0.681441 0.155751 0.130435
Si Si4 0.313045 0.000000 0.561107
Si Si5 0.183928 0.846911 0.287466
Si Si6 0.181628 0.602894 0.825406
Si Si7 0.314110 0.840094 0.660827
O O1 0.768235 0.500000 0.474163
O O2 0.749785 0.414903 0.346597
O O3 0.000000 0.500000 0.380907
O O4 0.500000 0.363748 0.995750
O O5 0.658838 0.500000 0.968929
O O6 0.734102 0.364947 0.900251
O O7 0.778120 0.385978 0.051074
O O8 0.500000 0.156738 0.143415
O O9 0.750000 0.250000 0.123845
O O10 0.763646 0.119960 0.204818
O O11 0.262842 0.916517 0.606773
O O12 0.500000 0.000000 0.562768
O O13 0.250000 0.750000 0.296649
O O14 0.000000 0.842888 0.291200
O O15 0.199265 0.500000 0.819176
O O16 0.236550 0.642144 0.746834
O O17 0.000000 0.619361 0.833780
O O18 0.500000 0.839210 0.661267
O O19 0.250000 0.750000 0.635134
#
# Coordination Sequence:
#
# PCOD9349467 Si02
#       7
#     4   8   8   4   8   8   8
#     4  11  23  41  67  96 123 162 205 247 308 375
#     4  10  21  35  53  81 118 156 199 247 296 345
#     4  11  22  38  59  83 115 154 199 247 299 356
#     4   9  20  41  65  88 121 158 195 241 296 363
#     4  11  23  42  65  92 127 163 204 255 307 365
#     4   9  17  33  56  78 109 155 204 248 295 352
#     4  10  20  37  61  89 118 156 199 245 298 358
#
# _framework density 19.803511
#
# number of rings (size 3 to 8) (size 9 to 14) (size 15 to 20)
#    0.000    1.833    0.833    4.750    1.167    3.000 
#    0.000    5.417    0.000    0.000    0.000    0.000 
#    0.000    0.000    0.000    0.000    0.000    0.000 
#
# Total GULP energy -134024.574743 kJ/mol
# GULP energy per Si atom -5584.357281 kJ/mol
# Density = 1.975844 g / cm^3
# Si number density = 19.803511 Si / 1000 Ang^3
#
#
#
# Elastic Constant Matrix: (Units=GPa)
#
#
# Indices 1 2 3 4 5 6 
#
# 1 100.4726 35.0622 46.8371 0.0000 0.0000 0.0000
# 2 35.0622 91.8355 71.5330 0.0000 0.0000 0.0000
# 3 46.8371 71.5330 166.8354 0.0000 0.0000 0.0000
# 4 0.0000 0.0000 0.0000 -27.6479 0.0000 0.0000
# 5 0.0000 0.0000 0.0000 0.0000 4.9499 0.0000
# 6 0.0000 0.0000 0.0000 0.0000 0.0000 28.0177
#
#
#
# Elastic Compliance Matrix: (Units=1/GPa)
#
#
# Indices 1 2 3 4 5 6 
#
# 1 0.011954 -0.002928 -0.002101 0.000000 0.000000 0.000000
# 2 -0.002928 0.017066 -0.006496 0.000000 0.000000 0.000000
# 3 -0.002101 -0.006496 0.009369 0.000000 0.000000 0.000000
# 4 0.000000 0.000000 0.000000 -0.036169 0.000000 0.000000
# 5 0.000000 0.000000 0.000000 0.000000 0.202025 0.000000
# 6 0.000000 0.000000 0.000000 0.000000 0.000000 0.035692
#
#
# Mechanical properties :
#
#
# Convention : Reuss Voigt Hill
#
# Bulk Modulus (GPa) = 65.18369 74.00090 69.59230
# Shear Modulus (GPa) = 18.64992 14.77803 16.71398
#
# Velocity S-wave (km/s) = 3.07212 2.73469 2.90830
# Velocity P-wave (km/s) = 6.75060 6.88622 6.81875
#
# Compressibility (1/GPa) = 0.01534126
#
# Stress axis : x y z
#
# Youngs Moduli (GPa) = 83.65478 58.59488 106.73838
#
# Poissons Ratio (x) = 0.17155 0.22422
# Poissons Ratio (y) = 0.24492 0.69332
# Poissons Ratio (z) = 0.17573 0.38060
#
# Static dielectric constant tensor:
#      x y z
#    x 1.688490 0.000000 0.000000 
#    y 0.000000 1.695730 0.000000 
#    z 0.000000 0.000000 1.701460 
# 
# From -- ./inp_files/17910.got.cif
#   From: 2010.05.17/outbox.cif.g08.bks.cpg/sg35_9_cif.got.tgz:17910.got - 2010.06.03 17:29:28.
