data_PCOD9349868
_publ_section_title
;
Structure prediction by ZEFSAII (Michael W. Deem and Ramdas Pophale) SiO2 
 PCOD9349868
Probable space group: C M M 2
;
_chemical_formula_sum "Si O2"
_cell_formula_units_Z 48
_cell_length_a 15.190673
_cell_length_b 8.655672
_cell_length_c 19.346583
_cell_angle_alpha 90.000000
_cell_angle_beta 90.000000
_cell_angle_gamma 90.000000
_cell_volume 2543.794809
_symmetry_space_group_name_H-M "C M M 2"
_symmetry_group_IT_number 35
_symmetry_cell_setting 'orthorhombic'
loop_
_space_group_symop_operation_xyz
x,y,z
-x,-y,z
-x,y,z
x,-y,z
1/2+x,1/2+y,z
1/2-x,1/2-y,z
1/2-x,1/2+y,z
1/2+x,1/2-y,z
loop_
_atom_site_type_symbol
_atom_site_label
_atom_site_fract_x
_atom_site_fract_y
_atom_site_fract_z
Si Si1 0.156372 0.685353 0.303690
Si Si2 0.156211 0.316973 0.010324
Si Si3 0.000000 0.817079 0.919285
Si Si4 0.649658 0.313600 0.667396
Si Si5 0.500000 0.815768 0.766397
Si Si6 0.000000 0.314061 0.405305
Si Si7 0.394168 0.321740 0.155135
Si Si8 0.500000 0.314486 0.559038
O O1 0.157019 0.500000 0.298653
O O2 0.250000 0.750000 0.325596
O O3 0.083866 0.732767 0.359652
O O4 0.134634 0.753812 0.228427
O O5 0.151075 0.500000 0.000957
O O6 0.250000 0.250000 0.989584
O O7 0.141025 0.274899 0.090665
O O8 0.083052 0.233336 0.964820
O O9 0.000000 0.730775 0.846306
O O10 0.000000 0.000000 0.907893
O O11 0.653767 0.500000 0.670260
O O12 0.750000 0.250000 0.666597
O O13 0.587932 0.253156 0.730072
O O14 0.588570 0.267908 0.601149
O O15 0.500000 0.000000 0.757707
O O16 0.000000 0.247843 0.481819
O O17 0.000000 0.500000 0.409966
O O18 0.500000 0.319034 0.152218
O O19 0.364524 0.500000 0.148714
O O20 0.500000 0.500000 0.557881
#
# Coordination Sequence:
#
# PCOD9349868 Si02
#       8
#     8   8   4   8   4   4   8   4
#     4  11  23  40  59  84 116 154 202 253 307 364
#     4  12  25  42  64  90 122 161 205 255 308 365
#     4  12  25  44  65  91 127 163 203 252 303 362
#     4  10  21  40  65  96 127 162 203 247 296 352
#     4  11  23  41  65  95 127 164 203 246 299 356
#     4  10  23  40  59  83 119 159 199 246 301 362
#     4  11  22  38  62  88 116 154 202 254 309 366
#     4   9  21  39  61  89 125 160 199 246 297 354
#
# _framework density 18.869447000000001
#
# number of rings (size 3 to 8) (size 9 to 14) (size 15 to 20)
#    0.000    1.167    1.667    5.500    0.000    5.333 
#    0.000    6.667    0.000    0.000    0.000    0.000 
#    0.000    0.000    0.000    0.000    0.000    0.000 
#
# Total GULP energy -134175.482334 kJ/mol
# GULP energy per Si atom -5590.645097 kJ/mol
# Density = 1.882650 g / cm^3
# Si number density = 18.869447 Si / 1000 Ang^3
#
#
#
# Elastic Constant Matrix: (Units=GPa)
#
#
# Indices 1 2 3 4 5 6 
#
# 1 170.0125 34.9835 60.1963 0.0000 0.0000 0.0000
# 2 34.9835 78.6867 8.7989 0.0000 0.0000 0.0000
# 3 60.1963 8.7989 118.1480 0.0000 0.0000 0.0000
# 4 0.0000 0.0000 0.0000 35.0513 0.0000 0.0000
# 5 0.0000 0.0000 0.0000 0.0000 570.2668 0.0000
# 6 0.0000 0.0000 0.0000 0.0000 0.0000 30.1040
#
#
#
# Elastic Compliance Matrix: (Units=1/GPa)
#
#
# Indices 1 2 3 4 5 6 
#
# 1 0.007848 -0.003068 -0.003770 0.000000 0.000000 0.000000
# 2 -0.003068 0.014014 0.000519 0.000000 0.000000 0.000000
# 3 -0.003770 0.000519 0.010346 0.000000 0.000000 0.000000
# 4 0.000000 0.000000 0.000000 0.028530 0.000000 0.000000
# 5 0.000000 0.000000 0.000000 0.000000 0.001754 0.000000
# 6 0.000000 0.000000 0.000000 0.000000 0.000000 0.033218
#
#
# Mechanical properties :
#
#
# Convention : Reuss Voigt Hill
#
# Bulk Modulus (GPa) = 51.09433 63.86718 57.48076
# Shear Modulus (GPa) = 43.52721 144.60900 94.06810
#
# Velocity S-wave (km/s) = 4.80808 8.76373 7.06826
# Velocity P-wave (km/s) = 7.61315 11.67580 9.85607
#
# Compressibility (1/GPa) = 0.01957164
#
# Stress axis : x y z
#
# Youngs Moduli (GPa) = 127.42074 71.35520 96.65431
#
# Poissons Ratio (x) = 0.21889 0.36440
# Poissons Ratio (y) = 0.39087 -0.05019
# Poissons Ratio (z) = 0.48039 -0.03705
#
# Static dielectric constant tensor:
#      x y z
#    x 1.575350 0.000000 0.000000 
#    y 0.000000 1.639390 0.000000 
#    z 0.000000 0.000000 1.622410 
# 
# From -- ./inp_files/18823.got.cif
#   From: 2010.05.17/outbox.cif.g08.bks.cpg/sg35_10_cif.got.tgz:18823.got - 2010.06.03 17:29:28.
