data_PCOD9349528
_publ_section_title
;
Structure prediction by ZEFSAII (Michael W. Deem and Ramdas Pophale) SiO2 
 PCOD9349528
Probable space group: C M M 2
;
_chemical_formula_sum "Si O2"
_cell_formula_units_Z 56
_cell_length_a 22.474550
_cell_length_b 13.794332
_cell_length_c 8.429478
_cell_angle_alpha 90.000000
_cell_angle_beta 90.000000
_cell_angle_gamma 90.000000
_cell_volume 2613.318607
_symmetry_space_group_name_H-M "C M M 2"
_symmetry_group_IT_number 35
_symmetry_cell_setting 'orthorhombic'
loop_
_space_group_symop_operation_xyz
x,y,z
-x,-y,z
-x,y,z
x,-y,z
1/2+x,1/2+y,z
1/2-x,1/2-y,z
1/2-x,1/2+y,z
1/2+x,1/2-y,z
loop_
_atom_site_type_symbol
_atom_site_label
_atom_site_fract_x
_atom_site_fract_y
_atom_site_fract_z
Si Si1 0.624124 0.888408 0.706870
Si Si2 0.889540 0.742267 0.235460
Si Si3 0.000000 0.384646 0.223419
Si Si4 0.812378 0.768554 0.503979
Si Si5 0.691599 0.385920 0.819962
Si Si6 0.066515 0.885692 0.968647
Si Si7 0.700482 0.887100 0.031552
Si Si8 0.500000 0.882813 0.841798
O O1 0.657822 0.827259 0.576157
O O2 0.662617 0.885971 0.868167
O O3 0.559725 0.847937 0.757094
O O4 0.618119 0.000000 0.657491
O O5 0.940669 0.666586 0.287456
O O6 0.860161 0.803255 0.377100
O O7 0.920725 0.816064 0.115479
O O8 0.837112 0.679702 0.150702
O O9 0.000000 0.500000 0.250132
O O10 0.000000 0.367220 0.031333
O O11 0.750000 0.750000 0.419374
O O12 0.795975 0.833899 0.654983
O O13 0.702199 0.500000 0.801327
O O14 0.733683 0.357033 0.968624
O O15 0.622346 0.367892 0.854489
O O16 0.000000 0.867134 0.905165
O O17 0.069424 0.000000 0.011679
O O18 0.702816 0.000000 0.087316
O O19 0.500000 0.000000 0.827482
#
# Coordination Sequence:
#
# PCOD9349528 Si02
#       8
#     8   8   4   8   8   8   8   4
#     4  10  20  38  64  93 127 168 211 257 316 382
#     4  12  25  39  64 101 133 172 213 261 330 393
#     4  11  22  41  64  96 137 173 211 262 322 390
#     4  12  27  41  59  93 135 172 207 263 328 390
#     4  10  23  45  71  95 123 167 220 275 327 378
#     4  10  23  45  70  96 124 165 226 282 320 367
#     4  10  20  39  69  98 126 164 213 264 322 388
#     4   9  18  35  65  98 121 161 214 254 301 376
#
# _framework density 21.428691000000001
#
# number of rings (size 3 to 8) (size 9 to 14) (size 15 to 20)
#    0.000    1.429    3.571    1.286    2.000    2.286 
#    1.286    0.714    0.000    0.000    0.000    0.000 
#    0.000    0.000    0.000    0.000    0.000    0.000 
#
# Total GULP energy -156470.731190 kJ/mol
# GULP energy per Si atom -5588.240400 kJ/mol
# Density = 2.137992 g / cm^3
# Si number density = 21.428691 Si / 1000 Ang^3
#
#
#
# Elastic Constant Matrix: (Units=GPa)
#
#
# Indices 1 2 3 4 5 6 
#
# 1 165.2767 24.9976 25.2425 0.0000 0.0000 0.0000
# 2 24.9976 49.0073 1.5438 0.0000 0.0000 0.0000
# 3 25.2425 1.5438 19.7130 0.0000 0.0000 0.0000
# 4 0.0000 0.0000 0.0000 0.8775 0.0000 0.0000
# 5 0.0000 0.0000 0.0000 0.0000 31.6728 0.0000
# 6 0.0000 0.0000 0.0000 0.0000 0.0000 22.2666
#
#
#
# Elastic Compliance Matrix: (Units=1/GPa)
#
#
# Indices 1 2 3 4 5 6 
#
# 1 0.008189 -0.003856 -0.010184 0.000000 0.000000 0.000000
# 2 -0.003856 0.022272 0.003194 0.000000 0.000000 0.000000
# 3 -0.010184 0.003194 0.063519 0.000000 0.000000 0.000000
# 4 0.000000 0.000000 0.000000 1.139581 0.000000 0.000000
# 5 0.000000 0.000000 0.000000 0.000000 0.031573 0.000000
# 6 0.000000 0.000000 0.000000 0.000000 0.000000 0.044910
#
#
# Mechanical properties :
#
#
# Convention : Reuss Voigt Hill
#
# Bulk Modulus (GPa) = 13.83395 37.50721 25.67058
# Shear Modulus (GPa) = 3.68777 23.11091 13.39934
#
# Velocity S-wave (km/s) = 1.31327 3.28762 2.50331
# Velocity P-wave (km/s) = 2.96132 5.65266 4.51231
#
# Compressibility (1/GPa) = 0.07228591
#
# Stress axis : x y z
#
# Youngs Moduli (GPa) = 122.11309 44.90036 15.74341
#
# Poissons Ratio (x) = 0.17315 0.16033
# Poissons Ratio (y) = 0.47090 -0.05028
# Poissons Ratio (z) = 1.24362 -0.14340
#
# Static dielectric constant tensor:
#      x y z
#    x 1.825400 0.000000 0.000000 
#    y 0.000000 1.798280 0.000000 
#    z 0.000000 0.000000 1.758170 
# 
# From -- ./inp_files/9329.got.cif
#   From: 2010.05.17/outbox.cif.g08.bks.cpg/sg35_5_cif.got.tgz:9329.got - 2010.06.03 17:29:28.
