data_PCOD9349900
_publ_section_title
;
Structure prediction by ZEFSAII (Michael W. Deem and Ramdas Pophale) SiO2 
 PCOD9349900
Probable space group: C M M 2
;
_chemical_formula_sum "Si O2"
_cell_formula_units_Z 40
_cell_length_a 15.212623
_cell_length_b 14.987624
_cell_length_c 7.699567
_cell_angle_alpha 90.000000
_cell_angle_beta 90.000000
_cell_angle_gamma 90.000000
_cell_volume 1755.509542
_symmetry_space_group_name_H-M "C M M 2"
_symmetry_group_IT_number 35
_symmetry_cell_setting 'orthorhombic'
loop_
_space_group_symop_operation_xyz
x,y,z
-x,-y,z
-x,y,z
x,-y,z
1/2+x,1/2+y,z
1/2-x,1/2-y,z
1/2-x,1/2+y,z
1/2+x,1/2-y,z
loop_
_atom_site_type_symbol
_atom_site_label
_atom_site_fract_x
_atom_site_fract_y
_atom_site_fract_z
Si Si1 0.899346 0.338034 0.062830
Si Si2 0.729270 0.856286 0.767784
Si Si3 0.095375 0.100284 0.337975
Si Si4 0.710891 0.105679 0.386906
Si Si5 0.595043 0.631927 0.937383
O O1 0.851873 0.346945 0.248538
O O2 0.000000 0.369937 0.070934
O O3 0.835187 0.383195 0.923751
O O4 0.901291 0.236773 0.990255
O O5 0.750000 0.750000 0.762995
O O6 0.686243 0.883897 0.587253
O O7 0.825149 0.894533 0.814922
O O8 0.188637 0.142855 0.384607
O O9 0.000000 0.143372 0.378926
O O10 0.094917 0.000000 0.412076
O O11 0.099493 0.091619 0.129391
O O12 0.713349 0.000000 0.341686
O O13 0.500000 0.612847 0.858087
#
# Coordination Sequence:
#
# PCOD9349900 Si02
#       5
#     8   8   8   8   8
#     4  10  22  41  61  84 117 158 206 254 295 341
#     4  10  22  37  60  87 121 153 197 248 302 355
#     4   9  18  33  55  85 119 151 184 230 295 364
#     4  11  24  38  59  89 120 158 201 243 301 364
#     4   9  18  36  62  89 116 152 194 239 298 360
#
# _framework density 22.785408
#
# number of rings (size 3 to 8) (size 9 to 14) (size 15 to 20)
#    0.000    2.200    2.000    0.000    2.800    3.600 
#    0.000    0.000    0.000    0.000    0.000    0.000 
#    0.000    0.000    0.000    0.000    0.000    0.000 
#
# Total GULP energy -111603.304302 kJ/mol
# GULP energy per Si atom -5580.165215 kJ/mol
# Density = 2.273355 g / cm^3
# Si number density = 22.785408 Si / 1000 Ang^3
#
#
#
# Elastic Constant Matrix: (Units=GPa)
#
#
# Indices 1 2 3 4 5 6 
#
# 1 176.9805 13.9997 68.4802 0.0000 0.0000 0.0000
# 2 13.9997 44.3464 -4.7808 0.0000 0.0000 0.0000
# 3 68.4802 -4.7808 129.2786 0.0000 0.0000 0.0000
# 4 0.0000 0.0000 0.0000 18.6040 0.0000 0.0000
# 5 0.0000 0.0000 0.0000 0.0000 0.7968 0.0000
# 6 0.0000 0.0000 0.0000 0.0000 0.0000 -1.5775
#
#
#
# Elastic Compliance Matrix: (Units=1/GPa)
#
#
# Indices 1 2 3 4 5 6 
#
# 1 0.007434 -0.002782 -0.004041 0.000000 0.000000 0.000000
# 2 -0.002782 0.023681 0.002350 0.000000 0.000000 0.000000
# 3 -0.004041 0.002350 0.009963 0.000000 0.000000 0.000000
# 4 0.000000 0.000000 0.000000 0.053752 0.000000 0.000000
# 5 0.000000 0.000000 0.000000 0.000000 1.254985 0.000000
# 6 0.000000 0.000000 0.000000 0.000000 0.000000 -0.633928
#
#
# Mechanical properties :
#
#
# Convention : Reuss Voigt Hill
#
# Bulk Modulus (GPa) = 31.12273 56.22263 43.67268
# Shear Modulus (GPa) = 6.79768 21.75843 14.27806
#
# Velocity S-wave (km/s) = 1.72911 3.09354 2.50598
# Velocity P-wave (km/s) = 4.20418 6.12278 5.25184
#
# Compressibility (1/GPa) = 0.03213086
#
# Stress axis : x y z
#
# Youngs Moduli (GPa) = 134.51803 42.22717 100.37600
#
# Poissons Ratio (x) = 0.11749 0.40559
# Poissons Ratio (y) = 0.37429 -0.23585
# Poissons Ratio (z) = 0.54355 -0.09922
#
# Static dielectric constant tensor:
#      x y z
#    x 1.878840 0.000000 0.000000 
#    y 0.000000 1.912260 0.000000 
#    z 0.000000 0.000000 1.813830 
# 
# From -- ./inp_files/6999.got.cif
#   From: 2010.05.17/outbox.cif.g08.bks.cpg/sg35_4_cif.got.tgz:6999.got - 2010.06.03 17:29:28.
