data_PCOD9349985
_publ_section_title
;
Structure prediction by ZEFSAII (Michael W. Deem and Ramdas Pophale) SiO2 
 PCOD9349985
Probable space group: C M M 2
;
_chemical_formula_sum "Si O2"
_cell_formula_units_Z 64
_cell_length_a 9.343038
_cell_length_b 28.203302
_cell_length_c 12.507095
_cell_angle_alpha 90.000000
_cell_angle_beta 90.000000
_cell_angle_gamma 90.000000
_cell_volume 3295.676093
_symmetry_space_group_name_H-M "C M M 2"
_symmetry_group_IT_number 35
_symmetry_cell_setting 'orthorhombic'
loop_
_space_group_symop_operation_xyz
x,y,z
-x,-y,z
-x,y,z
x,-y,z
1/2+x,1/2+y,z
1/2-x,1/2-y,z
1/2-x,1/2+y,z
1/2+x,1/2-y,z
loop_
_atom_site_type_symbol
_atom_site_label
_atom_site_fract_x
_atom_site_fract_y
_atom_site_fract_z
Si Si1 0.829587 0.900699 0.441100
Si Si2 0.721312 0.693819 0.179536
Si Si3 0.671530 0.887293 0.843724
Si Si4 0.337618 0.904454 0.223890
Si Si5 0.668345 0.444789 0.667826
Si Si6 0.835782 0.799390 0.936760
Si Si7 0.657035 0.703198 0.422969
Si Si8 0.834584 0.056546 0.026231
O O1 0.730956 0.912400 0.340292
O O2 0.811690 0.934411 0.542345
O O3 0.791955 0.846261 0.472836
O O4 0.000000 0.900854 0.412419
O O5 0.750000 0.750000 0.172710
O O6 0.837096 0.652179 0.196496
O O7 0.646966 0.691609 0.295558
O O8 0.659813 0.683786 0.061753
O O9 0.500000 0.883678 0.846711
O O10 0.730367 0.910799 0.735706
O O11 0.747749 0.837349 0.868363
O O12 0.732645 0.921053 0.937159
O O13 0.500000 0.921971 0.216472
O O14 0.231461 0.928187 0.139227
O O15 0.500000 0.435245 0.693140
O O16 0.695772 0.500000 0.691962
O O17 0.750000 0.750000 0.933460
O O18 0.000000 0.794166 0.901280
O O19 0.500000 0.713664 0.464972
O O20 0.750000 0.750000 0.436072
O O21 0.000000 0.072761 0.014125
O O22 0.834072 0.000000 0.016882
#
# Coordination Sequence:
#
# PCOD9349985 Si02
#       8
#     8   8   8   8   8   8   8   8
#     4   9  20  38  59  85 119 156 199 250 306 364
#     4   9  19  31  51  81 121 163 203 239 288 345
#     4  12  25  41  63  91 123 156 198 252 311 369
#     4  11  22  36  58  89 126 162 199 247 304 364
#     4  10  22  43  69  90 111 151 207 261 314 373
#     4  11  22  37  60  89 126 166 206 248 296 356
#     4   9  17  30  50  80 116 155 196 238 287 344
#     4  11  24  41  61  85 116 157 202 247 303 371
#
# _framework density 19.419384999999998
#
# number of rings (size 3 to 8) (size 9 to 14) (size 15 to 20)
#    0.000    1.750    1.250    3.000    0.000   11.250 
#    0.000    1.875    0.000    1.500    0.000    0.000 
#    0.000    0.000    0.000    0.000    0.000    0.000 
#
# Total GULP energy -178391.795175 kJ/mol
# GULP energy per Si atom -5574.743599 kJ/mol
# Density = 1.937519 g / cm^3
# Si number density = 19.419385 Si / 1000 Ang^3
#
#
#
# Elastic Constant Matrix: (Units=GPa)
#
#
# Indices 1 2 3 4 5 6 
#
# 1 133.5651 44.8102 42.6555 0.0000 0.0000 0.0000
# 2 44.8102 79.3121 25.8427 0.0000 0.0000 0.0000
# 3 42.6555 25.8427 62.3162 0.0000 0.0000 0.0000
# 4 0.0000 0.0000 0.0000 197.4204 0.0000 0.0000
# 5 0.0000 0.0000 0.0000 0.0000 39.1385 0.0000
# 6 0.0000 0.0000 0.0000 0.0000 0.0000 4.4490
#
#
#
# Elastic Compliance Matrix: (Units=1/GPa)
#
#
# Indices 1 2 3 4 5 6 
#
# 1 0.010679 -0.004222 -0.005559 0.000000 0.000000 0.000000
# 2 -0.004222 0.016248 -0.003848 0.000000 0.000000 0.000000
# 3 -0.005559 -0.003848 0.021448 0.000000 0.000000 0.000000
# 4 0.000000 0.000000 0.000000 0.005065 0.000000 0.000000
# 5 0.000000 0.000000 0.000000 0.000000 0.025550 0.000000
# 6 0.000000 0.000000 0.000000 0.000000 0.000000 0.224767
#
#
# Mechanical properties :
#
#
# Convention : Reuss Voigt Hill
#
# Bulk Modulus (GPa) = 47.35562 55.75670 51.55616
# Shear Modulus (GPa) = 14.79057 58.99393 36.89225
#
# Velocity S-wave (km/s) = 2.76278 5.51768 4.36336
# Velocity P-wave (km/s) = 5.88353 8.32871 7.21052
#
# Compressibility (1/GPa) = 0.02111682
#
# Stress axis : x y z
#
# Youngs Moduli (GPa) = 93.64441 61.54741 46.62475
#
# Poissons Ratio (x) = 0.25986 0.25917
# Poissons Ratio (y) = 0.39538 0.17941
# Poissons Ratio (z) = 0.52054 0.23683
#
# Static dielectric constant tensor:
#      x y z
#    x 1.642200 0.000000 0.000000 
#    y 0.000000 0.855970 0.000000 
#    z 0.000000 0.000000 1.679010 
# 
# From -- ./inp_files/11865.got.cif
#   From: 2010.05.17/outbox.cif.g08.bks.cpg/sg35_6_cif.got.tgz:11865.got - 2010.06.03 17:29:28.
