data_PCOD9349488
_publ_section_title
;
Structure prediction by ZEFSAII (Michael W. Deem and Ramdas Pophale) SiO2 
 PCOD9349488
Probable space group: C M M 2
;
_chemical_formula_sum "Si O2"
_cell_formula_units_Z 44
_cell_length_a 17.689067
_cell_length_b 14.069506
_cell_length_c 8.368678
_cell_angle_alpha 90.000000
_cell_angle_beta 90.000000
_cell_angle_gamma 90.000000
_cell_volume 2082.766740
_symmetry_space_group_name_H-M "C M M 2"
_symmetry_group_IT_number 35
_symmetry_cell_setting 'orthorhombic'
loop_
_space_group_symop_operation_xyz
x,y,z
-x,-y,z
-x,y,z
x,-y,z
1/2+x,1/2+y,z
1/2-x,1/2-y,z
1/2-x,1/2+y,z
1/2+x,1/2-y,z
loop_
_atom_site_type_symbol
_atom_site_label
_atom_site_fract_x
_atom_site_fract_y
_atom_site_fract_z
Si Si1 0.090371 0.611701 0.409530
Si Si2 0.000000 0.884093 0.089420
Si Si3 0.854127 0.791265 0.582071
Si Si4 0.750000 0.750000 0.852087
Si Si5 0.653656 0.609284 0.262580
Si Si6 0.500000 0.386663 0.719953
Si Si7 0.187464 0.608063 0.088914
O O1 0.101524 0.500000 0.447924
O O2 0.124679 0.682000 0.542743
O O3 0.133480 0.628210 0.240381
O O4 0.000000 0.628921 0.393949
O O5 0.923514 0.854742 0.180728
O O6 0.000000 0.000000 0.087333
O O7 0.000000 0.853083 0.904887
O O8 0.798739 0.811042 0.728354
O O9 0.823533 0.831779 0.416662
O O10 0.929106 0.847195 0.625492
O O11 0.809185 0.688571 0.954749
O O12 0.639904 0.500000 0.310443
O O13 0.725107 0.609701 0.146238
O O14 0.500000 0.500000 0.721101
O O15 0.170256 0.500000 0.034045
#
# Coordination Sequence:
#
# PCOD9349488 Si02
#       7
#     8   4   8   4   8   4   8
#     4  10  22  43  67  90 119 167 231 278 310 365
#     4   9  19  35  57  87 126 167 204 244 299 383
#     4  12  23  39  61  96 131 167 205 261 327 388
#     4  12  26  40  60  96 138 164 210 260 336 396
#     4  10  20  37  63  92 124 166 212 253 306 386
#     4  11  23  39  60  95 134 165 199 254 332 399
#     4  10  22  42  65  91 124 171 220 264 315 373
#
# _framework density 21.125745999999999
#
# number of rings (size 3 to 8) (size 9 to 14) (size 15 to 20)
#    0.000    1.455    0.909    4.364    0.000    4.364 
#    1.636    0.000    0.000    0.000    0.000    0.000 
#    0.000    0.000    0.000    0.000    0.000    0.000 
#
# Total GULP energy -122931.477104 kJ/mol
# GULP energy per Si atom -5587.794414 kJ/mol
# Density = 2.107766 g / cm^3
# Si number density = 21.125746 Si / 1000 Ang^3
#
#
#
# Elastic Constant Matrix: (Units=GPa)
#
#
# Indices 1 2 3 4 5 6 
#
# 1 60.2283 1.8740 -9.3600 0.0000 0.0000 0.0000
# 2 1.8740 79.2545 32.2697 0.0000 0.0000 0.0000
# 3 -9.3600 32.2697 62.4232 0.0000 0.0000 0.0000
# 4 0.0000 0.0000 0.0000 29.7933 0.0000 0.0000
# 5 0.0000 0.0000 0.0000 0.0000 -13.5722 0.0000
# 6 0.0000 0.0000 0.0000 0.0000 0.0000 22.0927
#
#
#
# Elastic Compliance Matrix: (Units=1/GPa)
#
#
# Indices 1 2 3 4 5 6 
#
# 1 0.017210 -0.001846 0.003535 0.000000 0.000000 0.000000
# 2 -0.001846 0.016179 -0.008641 0.000000 0.000000 0.000000
# 3 0.003535 -0.008641 0.021017 0.000000 0.000000 0.000000
# 4 0.000000 0.000000 0.000000 0.033565 0.000000 0.000000
# 5 0.000000 0.000000 0.000000 0.000000 -0.073680 0.000000
# 6 0.000000 0.000000 0.000000 0.000000 0.000000 0.045264
#
#
# Mechanical properties :
#
#
# Convention : Reuss Voigt Hill
#
# Bulk Modulus (GPa) = 24.68999 27.94149 26.31574
# Shear Modulus (GPa) = 57.49783 19.47090 38.48437
#
# Velocity S-wave (km/s) = 5.22265 3.03919 4.27275
# Velocity P-wave (km/s) = 6.93402 5.05673 6.06841
#
# Compressibility (1/GPa) = 0.04050224
#
# Stress axis : x y z
#
# Youngs Moduli (GPa) = 58.10467 61.80666 47.58141
#
# Poissons Ratio (x) = 0.11411 -0.16820
# Poissons Ratio (y) = 0.10728 0.41114
# Poissons Ratio (z) = -0.20540 0.53406
#
# Static dielectric constant tensor:
#      x y z
#    x 1.854800 0.000000 0.000000 
#    y 0.000000 1.807220 0.000000 
#    z 0.000000 0.000000 1.729070 
# 
# From -- ./inp_files/8352.got.cif
#   From: 2010.05.17/outbox.cif.g08.bks.cpg/sg35_5_cif.got.tgz:8352.got - 2010.06.03 17:29:28.
