data_PCOD9349110
_publ_section_title
;
Structure prediction by ZEFSAII (Michael W. Deem and Ramdas Pophale) SiO2 
 PCOD9349110
Probable space group: C M M 2
;
_chemical_formula_sum "Si O2"
_cell_formula_units_Z 56
_cell_length_a 7.641758
_cell_length_b 22.763770
_cell_length_c 15.118324
_cell_angle_alpha 90.000000
_cell_angle_beta 90.000000
_cell_angle_gamma 90.000000
_cell_volume 2629.911400
_symmetry_space_group_name_H-M "C M M 2"
_symmetry_group_IT_number 35
_symmetry_cell_setting 'orthorhombic'
loop_
_space_group_symop_operation_xyz
x,y,z
-x,-y,z
-x,y,z
x,-y,z
1/2+x,1/2+y,z
1/2-x,1/2-y,z
1/2-x,1/2+y,z
1/2+x,1/2-y,z
loop_
_atom_site_type_symbol
_atom_site_label
_atom_site_fract_x
_atom_site_fract_y
_atom_site_fract_z
Si Si1 0.714631 0.000000 0.110830
Si Si2 0.712206 0.566901 0.596205
Si Si3 0.211364 0.500000 0.318170
Si Si4 0.204593 0.880986 0.420089
Si Si5 0.294234 0.933439 0.800410
Si Si6 0.289903 0.183490 0.900112
Si Si7 0.792016 0.183168 0.254264
Si Si8 0.205858 0.625348 0.072269
O O1 0.777826 0.059505 0.064999
O O2 0.500000 0.000000 0.109167
O O3 0.763218 0.000000 0.214806
O O4 0.500000 0.569300 0.598144
O O5 0.761356 0.500000 0.571772
O O6 0.777822 0.609250 0.518242
O O7 0.776823 0.576975 0.695187
O O8 0.280582 0.557255 0.368298
O O9 0.000000 0.500000 0.321918
O O10 0.281820 0.835293 0.349904
O O11 0.000000 0.866460 0.432253
O O12 0.500000 0.936677 0.823286
O O13 0.223758 0.874600 0.847784
O O14 0.222344 0.000000 0.818230
O O15 0.500000 0.181113 0.895731
O O16 0.250000 0.250000 0.870767
O O17 0.225864 0.171817 0.000941
O O18 0.750000 0.250000 0.235014
O O19 0.724829 0.144720 0.173241
O O20 0.000000 0.174705 0.256480
O O21 0.000000 0.620960 0.054163
#
# Coordination Sequence:
#
# PCOD9349110 Si02
#       8
#     4   8   4   8   8   8   8   8
#     4   9  18  31  51  82 113 140 176 223 269 317
#     4   9  17  32  55  80 108 143 176 212 268 331
#     4  11  19  29  51  82 109 138 176 219 261 305
#     4  10  20  35  53  76 109 146 179 216 266 324
#     4   9  19  36  57  84 112 138 178 230 281 330
#     4  10  22  38  59  82 109 147 185 227 277 333
#     4  11  23  37  54  74 104 146 188 229 271 316
#     4  10  20  36  57  81 111 145 182 222 271 328
#
# _framework density 21.293492000000001
#
# number of rings (size 3 to 8) (size 9 to 14) (size 15 to 20)
#    0.000    2.143    2.143    1.071    1.000    3.429 
#    0.000    1.071    0.000    3.429    0.000    0.000 
#    0.000    0.000    0.000    0.000    0.000    0.000 
#
# Total GULP energy -156180.354074 kJ/mol
# GULP energy per Si atom -5577.869788 kJ/mol
# Density = 2.124503 g / cm^3
# Si number density = 21.293492 Si / 1000 Ang^3
#
#
#
# Elastic Constant Matrix: (Units=GPa)
#
#
# Indices 1 2 3 4 5 6 
#
# 1 37.3354 4.4005 9.8577 0.0000 0.0000 0.0000
# 2 4.4005 140.2097 50.7332 0.0000 0.0000 0.0000
# 3 9.8577 50.7332 82.4552 0.0000 0.0000 0.0000
# 4 0.0000 0.0000 0.0000 26.5574 0.0000 0.0000
# 5 0.0000 0.0000 0.0000 0.0000 16.5794 0.0000
# 6 0.0000 0.0000 0.0000 0.0000 0.0000 8.9874
#
#
#
# Elastic Compliance Matrix: (Units=1/GPa)
#
#
# Indices 1 2 3 4 5 6 
#
# 1 0.027677 0.000423 -0.003569 0.000000 0.000000 0.000000
# 2 0.000423 0.009181 -0.005700 0.000000 0.000000 0.000000
# 3 -0.003569 -0.005700 0.016061 0.000000 0.000000 0.000000
# 4 0.000000 0.000000 0.000000 0.037654 0.000000 0.000000
# 5 0.000000 0.000000 0.000000 0.000000 0.060316 0.000000
# 6 0.000000 0.000000 0.000000 0.000000 0.000000 0.111267
#
#
# Mechanical properties :
#
#
# Convention : Reuss Voigt Hill
#
# Bulk Modulus (GPa) = 28.38673 43.33148 35.85910
# Shear Modulus (GPa) = 17.14735 23.42542 20.28638
#
# Velocity S-wave (km/s) = 2.84083 3.32041 3.08994
# Velocity P-wave (km/s) = 4.91127 5.92401 5.44125
#
# Compressibility (1/GPa) = 0.03522773
#
# Stress axis : x y z
#
# Youngs Moduli (GPa) = 36.13142 108.91784 62.26139
#
# Poissons Ratio (x) = -0.04604 0.22221
# Poissons Ratio (y) = -0.01527 0.35486
# Poissons Ratio (z) = 0.12895 0.62079
#
# Static dielectric constant tensor:
#      x y z
#    x 1.797490 0.000000 0.000000 
#    y 0.000000 1.763980 0.000000 
#    z 0.000000 0.000000 1.778030 
# 
# From -- ./inp_files/15685.got.cif
#   From: 2010.05.17/outbox.cif.g08.bks.cpg/sg35_8_cif.got.tgz:15685.got - 2010.06.03 17:29:28.
