data_PCOD9349154
_publ_section_title
;
Structure prediction by ZEFSAII (Michael W. Deem and Ramdas Pophale) SiO2 
 PCOD9349154
Probable space group: C M M 2
;
_chemical_formula_sum "Si O2"
_cell_formula_units_Z 64
_cell_length_a 15.658495
_cell_length_b 23.750529
_cell_length_c 9.227907
_cell_angle_alpha 90.000000
_cell_angle_beta 90.000000
_cell_angle_gamma 90.000000
_cell_volume 3431.835909
_symmetry_space_group_name_H-M "C M M 2"
_symmetry_group_IT_number 35
_symmetry_cell_setting 'orthorhombic'
loop_
_space_group_symop_operation_xyz
x,y,z
-x,-y,z
-x,y,z
x,-y,z
1/2+x,1/2+y,z
1/2-x,1/2-y,z
1/2-x,1/2+y,z
1/2+x,1/2-y,z
loop_
_atom_site_type_symbol
_atom_site_label
_atom_site_fract_x
_atom_site_fract_y
_atom_site_fract_z
Si Si1 0.096014 0.212843 0.113500
Si Si2 0.594830 0.628234 0.497780
Si Si3 0.754637 0.932699 0.667397
Si Si4 0.400064 0.850221 0.613188
Si Si5 0.207422 0.886170 0.986929
Si Si6 0.329088 0.794157 0.902749
Si Si7 0.151272 0.248499 0.427889
Si Si8 0.095746 0.061897 0.207981
O O1 0.145161 0.233203 0.257516
O O2 0.000000 0.201703 0.158987
O O3 0.134337 0.160122 0.025073
O O4 0.102401 0.263141 0.999882
O O5 0.500000 0.613541 0.551434
O O6 0.669661 0.594398 0.573862
O O7 0.608576 0.695151 0.507603
O O8 0.599895 0.609336 0.330175
O O9 0.666222 0.902521 0.617507
O O10 0.781340 0.914287 0.830559
O O11 0.749612 0.000000 0.655652
O O12 0.500000 0.865640 0.625411
O O13 0.368532 0.814173 0.752324
O O14 0.387976 0.807984 0.476596
O O15 0.291445 0.847128 0.992888
O O16 0.176324 0.931986 0.102199
O O17 0.250000 0.750000 0.879750
O O18 0.250000 0.250000 0.470307
O O19 0.000000 0.065095 0.138815
O O20 0.099299 0.000000 0.278279
#
# Coordination Sequence:
#
# PCOD9349154 Si02
#       8
#     8   8   8   8   8   8   8   8
#     4  11  21  34  54  87 123 155 193 238 299 367
#     4  11  23  39  59  87 123 159 198 248 308 367
#     4  11  25  43  62  87 120 162 211 256 305 364
#     4  11  23  40  62  88 117 156 206 256 308 360
#     4  10  20  36  56  80 112 152 199 244 295 358
#     4   9  20  35  54  82 117 154 189 241 307 364
#     4  12  22  38  61  89 123 161 198 250 305 371
#     4  10  20  35  55  80 113 155 200 243 293 359
#
# _framework density 18.648910000000001
#
# number of rings (size 3 to 8) (size 9 to 14) (size 15 to 20)
#    0.000    1.375    2.500    4.125    3.500    2.000 
#    0.000    0.000    0.000    0.000    0.000    0.000 
#    0.000    8.000    0.000    0.000    0.000    0.000 
#
# Total GULP energy -178322.293281 kJ/mol
# GULP energy per Si atom -5572.571665 kJ/mol
# Density = 1.860646 g / cm^3
# Si number density = 18.648910 Si / 1000 Ang^3
#
#
#
# Elastic Constant Matrix: (Units=GPa)
#
#
# Indices 1 2 3 4 5 6 
#
# 1 124.5865 36.4288 23.2004 0.0000 0.0000 0.0000
# 2 36.4288 107.4834 30.7213 0.0000 0.0000 0.0000
# 3 23.2004 30.7213 19.2645 0.0000 0.0000 0.0000
# 4 0.0000 0.0000 0.0000 23.5449 0.0000 0.0000
# 5 0.0000 0.0000 0.0000 0.0000 13.9820 0.0000
# 6 0.0000 0.0000 0.0000 0.0000 0.0000 20.0699
#
#
#
# Elastic Compliance Matrix: (Units=1/GPa)
#
#
# Indices 1 2 3 4 5 6 
#
# 1 0.010348 0.000101 -0.012622 0.000000 0.000000 0.000000
# 2 0.000101 0.017097 -0.027386 0.000000 0.000000 0.000000
# 3 -0.012622 -0.027386 0.110783 0.000000 0.000000 0.000000
# 4 0.000000 0.000000 0.000000 0.042472 0.000000 0.000000
# 5 0.000000 0.000000 0.000000 0.000000 0.071520 0.000000
# 6 0.000000 0.000000 0.000000 0.000000 0.000000 0.049826
#
#
# Mechanical properties :
#
#
# Convention : Reuss Voigt Hill
#
# Bulk Modulus (GPa) = 17.11970 48.00392 32.56181
# Shear Modulus (GPa) = 12.45847 22.25163 17.35505
#
# Velocity S-wave (km/s) = 2.58748 3.45800 3.05392
# Velocity P-wave (km/s) = 4.25754 6.46068 5.47116
#
# Compressibility (1/GPa) = 0.05841224
#
# Stress axis : x y z
#
# Youngs Moduli (GPa) = 96.64060 58.48866 9.02663
#
# Poissons Ratio (x) = -0.00589 0.11394
# Poissons Ratio (y) = -0.00973 0.24721
# Poissons Ratio (z) = 1.21982 1.60180
#
# Static dielectric constant tensor:
#      x y z
#    x 1.645620 0.000000 0.000000 
#    y 0.000000 1.681210 0.000000 
#    z 0.000000 0.000000 1.673050 
# 
# From -- ./inp_files/7858.got.cif
#   From: 2010.05.17/outbox.cif.g08.bks.cpg/sg35_4_cif.got.tgz:7858.got - 2010.06.03 17:29:28.
