data_PCOD9349776
_publ_section_title
;
Structure prediction by ZEFSAII (Michael W. Deem and Ramdas Pophale) SiO2 
 PCOD9349776
Probable space group: C M M 2
;
_chemical_formula_sum "Si O2"
_cell_formula_units_Z 48
_cell_length_a 16.153728
_cell_length_b 8.882387
_cell_length_c 17.134032
_cell_angle_alpha 90.000000
_cell_angle_beta 90.000000
_cell_angle_gamma 90.000000
_cell_volume 2458.453683
_symmetry_space_group_name_H-M "C M M 2"
_symmetry_group_IT_number 35
_symmetry_cell_setting 'orthorhombic'
loop_
_space_group_symop_operation_xyz
x,y,z
-x,-y,z
-x,y,z
x,-y,z
1/2+x,1/2+y,z
1/2-x,1/2-y,z
1/2-x,1/2+y,z
1/2+x,1/2-y,z
loop_
_atom_site_type_symbol
_atom_site_label
_atom_site_fract_x
_atom_site_fract_y
_atom_site_fract_z
Si Si1 0.596934 0.175551 0.577300
Si Si2 0.903085 0.820758 0.247664
Si Si3 0.500000 0.181936 0.000038
Si Si4 0.664004 0.319728 0.731364
Si Si5 0.500000 0.681632 0.828322
Si Si6 0.158870 0.819386 0.420505
Si Si7 0.164187 0.679625 0.094725
O O1 0.500000 0.185333 0.597734
O O2 0.648013 0.260079 0.643929
O O3 0.610347 0.250158 0.493312
O O4 0.621029 0.000000 0.574533
O O5 0.880346 0.781972 0.336508
O O6 0.851107 0.732455 0.183479
O O7 0.000000 0.789817 0.234764
O O8 0.889102 0.000000 0.237707
O O9 0.500000 0.247712 0.913671
O O10 0.500000 0.000000 0.997219
O O11 0.583252 0.228830 0.045910
O O12 0.669592 0.500000 0.731000
O O13 0.750000 0.250000 0.760881
O O14 0.583484 0.274678 0.781900
O O15 0.500000 0.500000 0.833751
O O16 0.250000 0.750000 0.422852
O O17 0.161272 0.000000 0.427695
O O18 0.169618 0.500000 0.091680
O O19 0.250000 0.750000 0.065732
#
# Coordination Sequence:
#
# PCOD9349776 Si02
#       7
#     8   8   4   8   4   8   8
#     4  11  23  39  61  89 120 161 210 257 310 366
#     4  10  21  38  61  89 120 161 209 257 311 367
#     4  10  24  44  66  93 128 163 202 253 312 371
#     4  11  23  42  66  95 128 165 208 254 309 369
#     4  10  24  44  68  95 126 163 204 251 310 373
#     4  11  23  38  56  83 121 162 208 259 309 363
#     4  11  23  41  64  94 127 166 209 255 310 369
#
# _framework density 19.524467000000001
#
# number of rings (size 3 to 8) (size 9 to 14) (size 15 to 20)
#    0.000    1.333    1.667    3.500    0.000    7.667 
#    0.000    3.333    0.000    0.000    0.000    0.000 
#    0.000    0.000    0.000    0.000    0.000    0.000 
#
# Total GULP energy -134203.360023 kJ/mol
# GULP energy per Si atom -5591.806668 kJ/mol
# Density = 1.948003 g / cm^3
# Si number density = 19.524467 Si / 1000 Ang^3
#
#
#
# Elastic Constant Matrix: (Units=GPa)
#
#
# Indices 1 2 3 4 5 6 
#
# 1 149.8579 55.3122 62.7028 0.0000 0.0000 0.0000
# 2 55.3122 55.1811 39.4468 0.0000 0.0000 0.0000
# 3 62.7028 39.4468 118.9560 0.0000 0.0000 0.0000
# 4 0.0000 0.0000 0.0000 36.3144 0.0000 0.0000
# 5 0.0000 0.0000 0.0000 0.0000 -2.4721 0.0000
# 6 0.0000 0.0000 0.0000 0.0000 0.0000 27.5990
#
#
#
# Elastic Compliance Matrix: (Units=1/GPa)
#
#
# Indices 1 2 3 4 5 6 
#
# 1 0.011299 -0.009264 -0.002884 0.000000 0.000000 0.000000
# 2 -0.009264 0.031349 -0.005512 0.000000 0.000000 0.000000
# 3 -0.002884 -0.005512 0.011754 0.000000 0.000000 0.000000
# 4 0.000000 0.000000 0.000000 0.027537 0.000000 0.000000
# 5 0.000000 0.000000 0.000000 0.000000 -0.404521 0.000000
# 6 0.000000 0.000000 0.000000 0.000000 0.000000 0.036233
#
#
# Mechanical properties :
#
#
# Convention : Reuss Voigt Hill
#
# Bulk Modulus (GPa) = 52.40596 70.99097 61.69847
# Shear Modulus (GPa) = -20.43593 23.39049 1.47728
#
# Velocity S-wave (km/s) = -3.23876 3.46498 0.87079
# Velocity P-wave (km/s) = 3.59352 7.24203 5.71666
#
# Compressibility (1/GPa) = 0.01908180
#
# Stress axis : x y z
#
# Youngs Moduli (GPa) = 88.50294 31.89882 85.07474
#
# Poissons Ratio (x) = 0.29553 0.24533
# Poissons Ratio (y) = 0.81994 0.46895
# Poissons Ratio (z) = 0.25521 0.17583
#
# Static dielectric constant tensor:
#      x y z
#    x 1.708790 0.000000 0.000000 
#    y 0.000000 1.653750 0.000000 
#    z 0.000000 0.000000 1.655510 
# 
# From -- ./inp_files/15263.got.cif
#   From: 2010.05.17/outbox.cif.g08.bks.cpg/sg35_8_cif.got.tgz:15263.got - 2010.06.03 17:29:28.
