data_PCOD9349603
_publ_section_title
;
Structure prediction by ZEFSAII (Michael W. Deem and Ramdas Pophale) SiO2 
 PCOD9349603
Probable space group: C M M 2
;
_chemical_formula_sum "Si O2"
_cell_formula_units_Z 64
_cell_length_a 24.341153
_cell_length_b 14.331024
_cell_length_c 9.588029
_cell_angle_alpha 90.000000
_cell_angle_beta 90.000000
_cell_angle_gamma 90.000000
_cell_volume 3344.627132
_symmetry_space_group_name_H-M "C M M 2"
_symmetry_group_IT_number 35
_symmetry_cell_setting 'orthorhombic'
loop_
_space_group_symop_operation_xyz
x,y,z
-x,-y,z
-x,y,z
x,-y,z
1/2+x,1/2+y,z
1/2-x,1/2-y,z
1/2-x,1/2+y,z
1/2+x,1/2-y,z
loop_
_atom_site_type_symbol
_atom_site_label
_atom_site_fract_x
_atom_site_fract_y
_atom_site_fract_z
Si Si1 0.435486 0.108466 0.339720
Si Si2 0.119830 0.701884 0.090942
Si Si3 0.937367 0.610934 0.845308
Si Si4 0.226096 0.603011 0.195930
Si Si5 0.735552 0.142132 0.520827
Si Si6 0.881455 0.697309 0.593527
Si Si7 0.841184 0.895616 0.700544
Si Si8 0.159038 0.893617 0.033788
O O1 0.500000 0.111085 0.369516
O O2 0.423060 0.146333 0.186233
O O3 0.402329 0.179166 0.437806
O O4 0.417080 0.000000 0.355040
O O5 0.179947 0.674483 0.146906
O O6 0.107587 0.663209 0.938053
O O7 0.118090 0.813587 0.086686
O O8 0.931318 0.500000 0.856031
O O9 0.925257 0.645882 0.690285
O O10 0.000000 0.635078 0.885411
O O11 0.205662 0.500000 0.155562
O O12 0.232998 0.604143 0.363384
O O13 0.283592 0.617376 0.116852
O O14 0.750000 0.250000 0.499803
O O15 0.676955 0.143377 0.597782
O O16 0.783374 0.102881 0.618187
O O17 0.872859 0.805117 0.638537
O O18 0.832723 0.881231 0.866775
O O19 0.866325 0.000000 0.682683
O O20 0.140201 0.000000 0.056828
#
# Coordination Sequence:
#
# PCOD9349603 Si02
#       8
#     8   8   8   8   8   8   8   8
#     4  11  24  42  64  90 121 156 196 245 302 358
#     4  12  22  39  63  87 121 158 197 243 296 355
#     4  11  24  40  60  88 117 150 198 251 302 354
#     4  11  22  35  57  90 124 159 196 238 290 355
#     4  10  21  35  56  88 122 158 197 239 288 353
#     4  11  22  39  63  88 120 160 196 244 297 354
#     4  10  22  40  60  88 123 160 200 243 292 347
#     4  10  23  40  60  87 122 161 199 242 291 347
#
# _framework density 19.135166999999999
#
# number of rings (size 3 to 8) (size 9 to 14) (size 15 to 20)
#    0.000    1.250    2.500    3.750    3.500    4.500 
#    0.000    0.000    0.000    4.500    0.000    0.000 
#    0.000    0.000    0.000    0.000    0.000    0.000 
#
# Total GULP energy -178562.259668 kJ/mol
# GULP energy per Si atom -5580.070615 kJ/mol
# Density = 1.909161 g / cm^3
# Si number density = 19.135167 Si / 1000 Ang^3
#
#
#
# Elastic Constant Matrix: (Units=GPa)
#
#
# Indices 1 2 3 4 5 6 
#
# 1 38.5401 31.7854 -1.0659 0.0000 0.0000 0.0000
# 2 31.7854 131.9694 20.2074 0.0000 0.0000 0.0000
# 3 -1.0659 20.2074 49.5454 0.0000 0.0000 0.0000
# 4 0.0000 0.0000 0.0000 48.0595 0.0000 0.0000
# 5 0.0000 0.0000 0.0000 0.0000 24.9013 0.0000
# 6 0.0000 0.0000 0.0000 0.0000 0.0000 15.3672
#
#
#
# Elastic Compliance Matrix: (Units=1/GPa)
#
#
# Indices 1 2 3 4 5 6 
#
# 1 0.033193 -0.008644 0.004240 0.000000 0.000000 0.000000
# 2 -0.008644 0.010333 -0.004400 0.000000 0.000000 0.000000
# 3 0.004240 -0.004400 0.022069 0.000000 0.000000 0.000000
# 4 0.000000 0.000000 0.000000 0.020808 0.000000 0.000000
# 5 0.000000 0.000000 0.000000 0.000000 0.040158 0.000000
# 6 0.000000 0.000000 0.000000 0.000000 0.000000 0.065074
#
#
# Mechanical properties :
#
#
# Convention : Reuss Voigt Hill
#
# Bulk Modulus (GPa) = 20.83924 35.76763 28.30344
# Shear Modulus (GPa) = 22.19846 28.94079 25.56962
#
# Velocity S-wave (km/s) = 3.40970 3.89323 3.65946
# Velocity P-wave (km/s) = 5.13961 6.24038 5.71655
#
# Compressibility (1/GPa) = 0.04798639
#
# Stress axis : x y z
#
# Youngs Moduli (GPa) = 30.12664 96.77504 45.31145
#
# Poissons Ratio (x) = 0.83651 -0.19210
# Poissons Ratio (y) = 0.26041 0.19939
# Poissons Ratio (z) = -0.12772 0.42585
#
# Static dielectric constant tensor:
#      x y z
#    x 1.651750 0.000000 0.000000 
#    y 0.000000 1.666490 0.000000 
#    z 0.000000 0.000000 1.643210 
# 
# From -- ./inp_files/7857.got.cif
#   From: 2010.05.17/outbox.cif.g08.bks.cpg/sg35_4_cif.got.tgz:7857.got - 2010.06.03 17:29:28.
