data_PCOD9349241
_publ_section_title
;
Structure prediction by ZEFSAII (Michael W. Deem and Ramdas Pophale) SiO2 
 PCOD9349241
Probable space group: C M M 2
;
_chemical_formula_sum "Si O2"
_cell_formula_units_Z 48
_cell_length_a 8.657659
_cell_length_b 15.941082
_cell_length_c 17.845994
_cell_angle_alpha 90.000000
_cell_angle_beta 90.000000
_cell_angle_gamma 90.000000
_cell_volume 2462.969391
_symmetry_space_group_name_H-M "C M M 2"
_symmetry_group_IT_number 35
_symmetry_cell_setting 'orthorhombic'
loop_
_space_group_symop_operation_xyz
x,y,z
-x,-y,z
-x,y,z
x,-y,z
1/2+x,1/2+y,z
1/2-x,1/2-y,z
1/2-x,1/2+y,z
1/2+x,1/2-y,z
loop_
_atom_site_type_symbol
_atom_site_label
_atom_site_fract_x
_atom_site_fract_y
_atom_site_fract_z
Si Si1 0.813642 0.155484 0.998990
Si Si2 0.686305 0.500000 0.723397
Si Si3 0.315327 0.846100 0.627418
Si Si4 0.187999 0.000000 0.898099
Si Si5 0.817663 0.842779 0.471655
Si Si6 0.829606 0.401885 0.320554
Si Si7 0.315246 0.656326 0.167009
O O1 0.750000 0.250000 0.987739
O O2 0.760378 0.084860 0.940487
O O3 0.000000 0.161491 0.995280
O O4 0.774691 0.124640 0.083600
O O5 0.500000 0.500000 0.716687
O O6 0.750886 0.415030 0.685239
O O7 0.729660 0.500000 0.811088
O O8 0.500000 0.841274 0.631448
O O9 0.250000 0.750000 0.637142
O O10 0.264237 0.879998 0.545151
O O11 0.000000 0.000000 0.902473
O O12 0.750000 0.750000 0.470228
O O13 0.775808 0.877080 0.390300
O O14 0.000000 0.844180 0.483862
O O15 0.848177 0.500000 0.327617
O O16 0.757934 0.385849 0.239409
O O17 0.000000 0.360320 0.326380
O O18 0.500000 0.655096 0.173965
O O19 0.250000 0.750000 0.168336
#
# Coordination Sequence:
#
# PCOD9349241 Si02
#       7
#     8   4   8   4   8   8   8
#     4   9  19  37  61  88 119 157 199 247 299 357
#     4  11  23  41  65  94 127 164 203 249 308 373
#     4  11  23  42  66  93 126 163 206 254 307 366
#     4   9  20  39  63  90 121 158 197 243 300 363
#     4  11  22  39  62  86 115 152 198 244 294 354
#     4  11  24  38  53  79 117 155 196 244 295 345
#     4  10  20  35  58  82 112 151 197 243 293 350
#
# _framework density 19.488671
#
# number of rings (size 3 to 8) (size 9 to 14) (size 15 to 20)
#    0.000    1.667    0.000    5.750    2.333    2.667 
#    0.000    3.750    0.000    0.000    0.000    0.000 
#    0.000    0.000    0.000    0.000    0.000    0.000 
#
# Total GULP energy -133909.205812 kJ/mol
# GULP energy per Si atom -5579.550242 kJ/mol
# Density = 1.944431 g / cm^3
# Si number density = 19.488671 Si / 1000 Ang^3
#
#
#
# Elastic Constant Matrix: (Units=GPa)
#
#
# Indices 1 2 3 4 5 6 
#
# 1 109.7484 32.7995 50.5562 0.0000 0.0000 0.0000
# 2 32.7995 84.1072 75.3527 0.0000 0.0000 0.0000
# 3 50.5562 75.3527 163.1536 0.0000 0.0000 0.0000
# 4 0.0000 0.0000 0.0000 44.4385 0.0000 0.0000
# 5 0.0000 0.0000 0.0000 0.0000 24.2510 0.0000
# 6 0.0000 0.0000 0.0000 0.0000 0.0000 21.8002
#
#
#
# Elastic Compliance Matrix: (Units=1/GPa)
#
#
# Indices 1 2 3 4 5 6 
#
# 1 0.010838 -0.002077 -0.002399 0.000000 0.000000 0.000000
# 2 -0.002077 0.020680 -0.008907 0.000000 0.000000 0.000000
# 3 -0.002399 -0.008907 0.010986 0.000000 0.000000 0.000000
# 4 0.000000 0.000000 0.000000 0.022503 0.000000 0.000000
# 5 0.000000 0.000000 0.000000 0.000000 0.041235 0.000000
# 6 0.000000 0.000000 0.000000 0.000000 0.000000 0.045871
#
#
# Mechanical properties :
#
#
# Convention : Reuss Voigt Hill
#
# Bulk Modulus (GPa) = 63.54447 74.93623 69.24035
# Shear Modulus (GPa) = 27.15532 31.31799 29.23665
#
# Velocity S-wave (km/s) = 3.73686 4.01307 3.87743
# Velocity P-wave (km/s) = 7.16209 7.74646 7.46000
#
# Compressibility (1/GPa) = 0.01573701
#
# Stress axis : x y z
#
# Youngs Moduli (GPa) = 92.27140 48.35628 91.02152
#
# Poissons Ratio (x) = 0.10044 0.21835
# Poissons Ratio (y) = 0.19166 0.81076
# Poissons Ratio (z) = 0.22135 0.43073
#
# Static dielectric constant tensor:
#      x y z
#    x 1.708360 0.000000 0.000000 
#    y 0.000000 1.648880 0.000000 
#    z 0.000000 0.000000 1.744740 
# 
# From -- ./inp_files/17108.got.cif
#   From: 2010.05.17/outbox.cif.g08.bks.cpg/sg35_9_cif.got.tgz:17108.got - 2010.06.03 17:29:28.
