data_PCOD9349246
_publ_section_title
;
Structure prediction by ZEFSAII (Michael W. Deem and Ramdas Pophale) SiO2 
 PCOD9349246
Probable space group: C M M 2
;
_chemical_formula_sum "Si O2"
_cell_formula_units_Z 40
_cell_length_a 7.663056
_cell_length_b 31.923914
_cell_length_c 7.269990
_cell_angle_alpha 90.000000
_cell_angle_beta 90.000000
_cell_angle_gamma 90.000000
_cell_volume 1778.492119
_symmetry_space_group_name_H-M "C M M 2"
_symmetry_group_IT_number 35
_symmetry_cell_setting 'orthorhombic'
loop_
_space_group_symop_operation_xyz
x,y,z
-x,-y,z
-x,y,z
x,-y,z
1/2+x,1/2+y,z
1/2-x,1/2-y,z
1/2-x,1/2+y,z
1/2+x,1/2-y,z
loop_
_atom_site_type_symbol
_atom_site_label
_atom_site_fract_x
_atom_site_fract_y
_atom_site_fract_z
Si Si1 0.293866 0.544755 0.932260
Si Si2 0.206153 0.635809 0.388794
Si Si3 0.788189 0.544916 0.367268
Si Si4 0.787119 0.864605 0.957936
Si Si5 0.697601 0.297600 0.679278
O O1 0.500000 0.544113 0.890568
O O2 0.217018 0.500000 0.868622
O O3 0.222522 0.590390 0.879687
O O4 0.270689 0.544862 0.154192
O O5 0.273395 0.589385 0.445868
O O6 0.289782 0.673772 0.498720
O O7 0.000000 0.637560 0.424576
O O8 0.235829 0.639443 0.170561
O O9 0.729916 0.500000 0.446593
O O10 0.000000 0.545658 0.369441
O O11 0.716753 0.826023 0.838360
O O12 0.000000 0.866367 0.951771
O O13 0.500000 0.294170 0.740588
O O14 0.750000 0.250000 0.648010
#
# Coordination Sequence:
#
# PCOD9349246 Si02
#       5
#     8   8   8   8   8
#     4   8  13  24  46  75 105 137 173 213 259 312
#     4  10  20  35  58  85 113 146 182 223 270 321
#     4   8  14  26  46  74 108 144 179 213 253 306
#     4   9  19  36  57  81 110 144 181 223 270 321
#     4  11  24  41  59  79 106 140 181 231 281 330
#
# _framework density 22.490960999999999
#
# number of rings (size 3 to 8) (size 9 to 14) (size 15 to 20)
#    0.000    2.800    0.000    1.200    0.000    3.200 
#    0.000    3.000    0.000    1.200    0.000    5.600 
#    0.000    0.000    0.000    0.000    0.000    0.000 
#
# Total GULP energy -111510.500856 kJ/mol
# GULP energy per Si atom -5575.525043 kJ/mol
# Density = 2.243977 g / cm^3
# Si number density = 22.490961 Si / 1000 Ang^3
#
#
#
# Elastic Constant Matrix: (Units=GPa)
#
#
# Indices 1 2 3 4 5 6 
#
# 1 48.1794 9.4639 -20.5439 0.0000 0.0000 0.0000
# 2 9.4639 253.3914 46.1896 0.0000 0.0000 0.0000
# 3 -20.5439 46.1896 80.3302 0.0000 0.0000 0.0000
# 4 0.0000 0.0000 0.0000 48.7447 0.0000 0.0000
# 5 0.0000 0.0000 0.0000 0.0000 -6.2531 0.0000
# 6 0.0000 0.0000 0.0000 0.0000 0.0000 33.1369
#
#
#
# Elastic Compliance Matrix: (Units=1/GPa)
#
#
# Indices 1 2 3 4 5 6 
#
# 1 0.024432 -0.002292 0.007566 0.000000 0.000000 0.000000
# 2 -0.002292 0.004623 -0.003245 0.000000 0.000000 0.000000
# 3 0.007566 -0.003245 0.016249 0.000000 0.000000 0.000000
# 4 0.000000 0.000000 0.000000 0.020515 0.000000 0.000000
# 5 0.000000 0.000000 0.000000 0.000000 -0.159921 0.000000
# 6 0.000000 0.000000 0.000000 0.000000 0.000000 0.030178
#
#
# Mechanical properties :
#
#
# Convention : Reuss Voigt Hill
#
# Bulk Modulus (GPa) = 20.25753 50.23558 35.24656
# Shear Modulus (GPa) = -97.03368 38.24513 -29.39428
#
# Velocity S-wave (km/s) = -6.57549 4.12815 -3.61908
# Velocity P-wave (km/s) = 6.97301 6.71614 1.32597
#
# Compressibility (1/GPa) = 0.04936435
#
# Stress axis : x y z
#
# Youngs Moduli (GPa) = 40.92977 216.28649 61.54146
#
# Poissons Ratio (x) = 0.49566 -0.46563
# Poissons Ratio (y) = 0.09380 0.19968
# Poissons Ratio (z) = -0.30968 0.70176
#
# Static dielectric constant tensor:
#      x y z
#    x 1.916160 0.000000 0.000000 
#    y 0.000000 1.924560 0.000000 
#    z 0.000000 0.000000 1.846060 
# 
# From -- ./inp_files/4959.got.cif
#   From: 2010.05.17/outbox.cif.g08.bks.cpg/sg35_3_cif.got.tgz:4959.got - 2010.06.03 17:29:28.
