data_PCOD9349249
_publ_section_title
;
Structure prediction by ZEFSAII (Michael W. Deem and Ramdas Pophale) SiO2 
 PCOD9349249
Probable space group: C M M 2
;
_chemical_formula_sum "Si O2"
_cell_formula_units_Z 64
_cell_length_a 15.035326
_cell_length_b 18.312728
_cell_length_c 12.089034
_cell_angle_alpha 90.000000
_cell_angle_beta 90.000000
_cell_angle_gamma 90.000000
_cell_volume 3328.568454
_symmetry_space_group_name_H-M "C M M 2"
_symmetry_group_IT_number 35
_symmetry_cell_setting 'orthorhombic'
loop_
_space_group_symop_operation_xyz
x,y,z
-x,-y,z
-x,y,z
x,-y,z
1/2+x,1/2+y,z
1/2-x,1/2-y,z
1/2-x,1/2+y,z
1/2+x,1/2-y,z
loop_
_atom_site_type_symbol
_atom_site_label
_atom_site_fract_x
_atom_site_fract_y
_atom_site_fract_z
Si Si1 0.375248 0.203280 0.678750
Si Si2 0.901791 0.357391 0.918999
Si Si3 0.401791 0.142609 0.438501
Si Si4 0.791988 0.918506 0.439109
Si Si5 0.176927 0.861030 0.678750
Si Si6 0.208012 0.918506 0.918391
Si Si7 0.605062 0.706720 0.049122
Si Si8 0.105062 0.793280 0.308377
O O1 0.408659 0.169819 0.792643
O O2 0.408659 0.169819 0.564857
O O3 0.272742 0.178195 0.678750
O O4 0.387383 0.290696 0.678750
O O5 0.815110 0.408233 0.924389
O O6 0.000000 0.386551 0.951412
O O7 0.881768 0.285198 0.991521
O O8 0.500000 0.113449 0.406088
O O9 0.315110 0.091767 0.433111
O O10 0.381768 0.214802 0.365979
O O11 0.824882 0.906130 0.565581
O O12 0.837187 0.854975 0.367789
O O13 0.815625 0.000000 0.402410
O O14 0.175118 0.906130 0.791918
O O15 0.184375 0.000000 0.955090
O O16 0.162813 0.854975 0.989711
O O17 0.500000 0.689361 0.037397
O O18 0.626378 0.711164 0.178750
O O19 0.000000 0.810639 0.320103
#
# Coordination Sequence:
#
# PCOD9349249 Si02
#       8
#     8   8   8   8   8   8   8   8
#     4   9  15  30  57  82 108 142 184 230 267 307
#     4  10  20  35  58  86 113 145 187 229 270 324
#     4  10  20  35  58  86 113 145 187 229 270 324
#     4  11  22  36  56  83 118 153 180 219 278 336
#     4   9  17  32  53  81 113 144 181 224 268 320
#     4  11  22  36  56  83 118 153 180 219 278 336
#     4  10  22  40  61  82 105 140 189 240 282 324
#     4  10  22  40  61  82 105 140 189 240 282 324
#
# _framework density 19.227485000000001
#
# number of rings (size 3 to 8) (size 9 to 14) (size 15 to 20)
#    0.000    2.000    2.500    1.500    0.000    3.500 
#    0.000    1.875    0.000    6.000    0.000    5.250 
#    0.000    0.000    0.000    0.000    0.000    0.000 
#
# Total GULP energy -178473.237557 kJ/mol
# GULP energy per Si atom -5577.288674 kJ/mol
# Density = 1.918372 g / cm^3
# Si number density = 19.227485 Si / 1000 Ang^3
#
#
#
# Elastic Constant Matrix: (Units=GPa)
#
#
# Indices 1 2 3 4 5 6 
#
# 1 35.7878 4.8156 16.9929 0.0000 0.0000 0.0000
# 2 4.8156 36.3604 12.4318 0.0000 0.0000 0.0000
# 3 16.9929 12.4318 105.6400 0.0000 0.0000 0.0000
# 4 0.0000 0.0000 0.0000 -6.7532 0.0000 0.0000
# 5 0.0000 0.0000 0.0000 0.0000 15.0998 0.0000
# 6 0.0000 0.0000 0.0000 0.0000 0.0000 9.6246
#
#
#
# Elastic Compliance Matrix: (Units=1/GPa)
#
#
# Indices 1 2 3 4 5 6 
#
# 1 0.030463 -0.002458 -0.004611 0.000000 0.000000 0.000000
# 2 -0.002458 0.028854 -0.003000 0.000000 0.000000 0.000000
# 3 -0.004611 -0.003000 0.010561 0.000000 0.000000 0.000000
# 4 0.000000 0.000000 0.000000 -0.148079 0.000000 0.000000
# 5 0.000000 0.000000 0.000000 0.000000 0.066226 0.000000
# 6 0.000000 0.000000 0.000000 0.000000 0.000000 0.103900
#
#
# Mechanical properties :
#
#
# Convention : Reuss Voigt Hill
#
# Bulk Modulus (GPa) = 20.10488 27.36320 23.73404
# Shear Modulus (GPa) = 38.86736 13.16410 26.01573
#
# Velocity S-wave (km/s) = 4.50093 2.61942 3.68237
# Velocity P-wave (km/s) = 6.12292 4.83846 5.51819
#
# Compressibility (1/GPa) = 0.04973918
#
# Stress axis : x y z
#
# Youngs Moduli (GPa) = 32.82718 34.65752 94.68929
#
# Poissons Ratio (x) = 0.08519 0.43660
# Poissons Ratio (y) = 0.08069 0.28408
# Poissons Ratio (z) = 0.15136 0.10398
#
# Static dielectric constant tensor:
#      x y z
#    x 1.733200 0.000000 0.000000 
#    y 0.000000 1.629220 0.000000 
#    z 0.000000 0.000000 1.645910 
# 
# From -- ./inp_files/13240.got.cif
#   From: 2010.05.17/outbox.cif.g08.bks.cpg/sg35_7_cif.got.tgz:13240.got - 2010.06.03 17:29:28.
