data_PCOD9349043
_publ_section_title
;
Structure prediction by ZEFSAII (Michael W. Deem and Ramdas Pophale) SiO2 
 PCOD9349043
Probable space group: C M M 2
;
_chemical_formula_sum "Si O2"
_cell_formula_units_Z 64
_cell_length_a 7.804511
_cell_length_b 28.829952
_cell_length_c 13.580057
_cell_angle_alpha 90.000000
_cell_angle_beta 90.000000
_cell_angle_gamma 90.000000
_cell_volume 3055.562766
_symmetry_space_group_name_H-M "C M M 2"
_symmetry_group_IT_number 35
_symmetry_cell_setting 'orthorhombic'
loop_
_space_group_symop_operation_xyz
x,y,z
-x,-y,z
-x,y,z
x,-y,z
1/2+x,1/2+y,z
1/2-x,1/2-y,z
1/2-x,1/2+y,z
1/2+x,1/2-y,z
loop_
_atom_site_type_symbol
_atom_site_label
_atom_site_fract_x
_atom_site_fract_y
_atom_site_fract_z
Si Si1 0.204398 0.395768 0.227720
Si Si2 0.794113 0.053133 0.638880
Si Si3 0.293774 0.946277 0.423809
Si Si4 0.706219 0.696404 0.743710
Si Si5 0.795935 0.196255 0.313054
Si Si6 0.705907 0.304701 0.527690
Si Si7 0.792870 0.894362 0.834907
Si Si8 0.794547 0.447389 0.033655
O O1 0.272734 0.419080 0.328436
O O2 0.236070 0.340944 0.233832
O O3 0.000000 0.402799 0.228693
O O4 0.272515 0.420364 0.129747
O O5 0.753836 0.073573 0.531116
O O6 0.732194 0.079337 0.736002
O O7 0.000000 0.051989 0.645250
O O8 0.729423 0.000000 0.639694
O O9 0.500000 0.946899 0.419615
O O10 0.233710 0.000000 0.420082
O O11 0.500000 0.694474 0.739605
O O12 0.750000 0.750000 0.760672
O O13 0.769469 0.680043 0.635050
O O14 0.764751 0.658997 0.823478
O O15 0.750000 0.250000 0.296292
O O16 0.726046 0.180063 0.421011
O O17 0.000000 0.194162 0.317641
O O18 0.500000 0.311299 0.527145
O O19 0.750000 0.250000 0.527871
O O20 0.739477 0.919878 0.933598
O O21 0.000000 0.895033 0.833413
O O22 0.727416 0.500000 0.028459
O O23 0.000000 0.450275 0.043967
#
# Coordination Sequence:
#
# PCOD9349043 Si02
#       8
#     8   8   8   8   8   8   8   8
#     4  10  21  37  57  81 110 145 187 232 283 334
#     4   9  18  32  51  77 110 144 176 219 280 342
#     4   9  18  33  53  78 109 143 180 225 278 337
#     4   9  18  33  52  77 110 147 184 224 270 323
#     4  10  20  34  55  82 114 150 188 230 275 327
#     4   8  15  28  47  72 104 142 179 216 260 312
#     4  10  21  36  57  82 111 146 186 230 280 333
#     4  10  22  41  63  84 108 142 186 236 285 334
#
# _framework density 20.945405000000001
#
# number of rings (size 3 to 8) (size 9 to 14) (size 15 to 20)
#    0.000    2.625    0.000    1.125    1.750    4.750 
#    0.000    1.875    0.000    3.750    0.000    0.000 
#    0.000    0.000    0.000    0.000    0.000    0.000 
#
# Total GULP energy -178517.782209 kJ/mol
# GULP energy per Si atom -5578.680694 kJ/mol
# Density = 2.089773 g / cm^3
# Si number density = 20.945405 Si / 1000 Ang^3
#
#
#
# Elastic Constant Matrix: (Units=GPa)
#
#
# Indices 1 2 3 4 5 6 
#
# 1 28.5153 3.1583 8.4068 0.0000 0.0000 0.0000
# 2 3.1583 139.0121 107.4496 0.0000 0.0000 0.0000
# 3 8.4068 107.4496 173.7159 0.0000 0.0000 0.0000
# 4 0.0000 0.0000 0.0000 38.8785 0.0000 0.0000
# 5 0.0000 0.0000 0.0000 0.0000 21.3220 0.0000
# 6 0.0000 0.0000 0.0000 0.0000 0.0000 17.1367
#
#
#
# Elastic Compliance Matrix: (Units=1/GPa)
#
#
# Indices 1 2 3 4 5 6 
#
# 1 0.035649 0.001003 -0.002346 0.000000 0.000000 0.000000
# 2 0.001003 0.013812 -0.008592 0.000000 0.000000 0.000000
# 3 -0.002346 -0.008592 0.011184 0.000000 0.000000 0.000000
# 4 0.000000 0.000000 0.000000 0.025721 0.000000 0.000000
# 5 0.000000 0.000000 0.000000 0.000000 0.046900 0.000000
# 6 0.000000 0.000000 0.000000 0.000000 0.000000 0.058354
#
#
# Mechanical properties :
#
#
# Convention : Reuss Voigt Hill
#
# Bulk Modulus (GPa) = 24.52356 64.36363 44.44360
# Shear Modulus (GPa) = 22.21419 30.28268 26.24843
#
# Velocity S-wave (km/s) = 3.26018 3.80648 3.54387
# Velocity P-wave (km/s) = 5.08974 7.07920 6.16524
#
# Compressibility (1/GPa) = 0.04077711
#
# Stress axis : x y z
#
# Youngs Moduli (GPa) = 28.05098 72.40227 89.41131
#
# Poissons Ratio (x) = -0.07263 0.20974
# Poissons Ratio (y) = -0.02814 0.76819
# Poissons Ratio (z) = 0.06580 0.62205
#
# Static dielectric constant tensor:
#      x y z
#    x 1.770660 0.000000 0.000000 
#    y 0.000000 1.766100 0.000000 
#    z 0.000000 0.000000 1.756410 
# 
# From -- ./inp_files/11963.got.cif
#   From: 2010.05.17/outbox.cif.g08.bks.cpg/sg35_6_cif.got.tgz:11963.got - 2010.06.03 17:29:28.
