data_PCOD9349419
_publ_section_title
;
Structure prediction by ZEFSAII (Michael W. Deem and Ramdas Pophale) SiO2 
 PCOD9349419
Probable space group: C M M 2
;
_chemical_formula_sum "Si O2"
_cell_formula_units_Z 48
_cell_length_a 8.757981
_cell_length_b 15.691272
_cell_length_c 17.712520
_cell_angle_alpha 90.000000
_cell_angle_beta 90.000000
_cell_angle_gamma 90.000000
_cell_volume 2434.122905
_symmetry_space_group_name_H-M "C M M 2"
_symmetry_group_IT_number 35
_symmetry_cell_setting 'orthorhombic'
loop_
_space_group_symop_operation_xyz
x,y,z
-x,-y,z
-x,y,z
x,-y,z
1/2+x,1/2+y,z
1/2-x,1/2-y,z
1/2-x,1/2+y,z
1/2+x,1/2-y,z
loop_
_atom_site_type_symbol
_atom_site_label
_atom_site_fract_x
_atom_site_fract_y
_atom_site_fract_z
Si Si1 0.319323 0.654856 0.693480
Si Si2 0.317831 0.845587 0.845047
Si Si3 0.815956 0.661907 0.380418
Si Si4 0.182394 0.000000 0.112214
Si Si5 0.684850 0.000000 0.279550
Si Si6 0.675598 0.099199 0.540368
Si Si7 0.816417 0.653773 0.014838
O O1 0.500000 0.659731 0.700110
O O2 0.250000 0.750000 0.688268
O O3 0.252317 0.613313 0.769969
O O4 0.270131 0.610423 0.616284
O O5 0.500000 0.842607 0.836576
O O6 0.250000 0.750000 0.845932
O O7 0.282804 0.878381 0.928982
O O8 0.750000 0.750000 0.351047
O O9 0.772139 0.582980 0.328034
O O10 0.763380 0.647697 0.466934
O O11 0.000000 0.664270 0.382886
O O12 0.237760 0.000000 0.198451
O O13 0.247743 0.915265 0.071618
O O14 0.000000 0.000000 0.107344
O O15 0.500000 0.000000 0.270687
O O16 0.500000 0.126583 0.555626
O O17 0.671268 0.000000 0.518945
O O18 0.750000 0.750000 0.023690
O O19 0.000000 0.658157 0.022796
#
# Coordination Sequence:
#
# PCOD9349419 Si02
#       7
#     8   8   8   4   4   8   8
#     4  11  21  33  52  80 115 155 201 248 297 349
#     4   9  17  32  56  83 113 153 199 248 300 353
#     4  10  21  39  65  92 118 156 199 244 300 361
#     4  12  26  42  64  95 128 163 204 249 306 369
#     4  10  22  44  66  87 122 159 196 245 304 367
#     4  10  20  37  58  81 115 157 200 246 300 357
#     4  10  21  40  66  94 125 163 207 255 310 368
#
# _framework density 19.719629000000001
#
# number of rings (size 3 to 8) (size 9 to 14) (size 15 to 20)
#    0.000    1.833    0.833    4.750    0.000    5.667 
#    1.500    1.667    0.000    0.000    0.000    0.000 
#    0.000    0.000    0.000    0.000    0.000    0.000 
#
# Total GULP energy -134017.125234 kJ/mol
# GULP energy per Si atom -5584.046885 kJ/mol
# Density = 1.967475 g / cm^3
# Si number density = 19.719629 Si / 1000 Ang^3
#
#
#
# Elastic Constant Matrix: (Units=GPa)
#
#
# Indices 1 2 3 4 5 6 
#
# 1 86.4886 35.1902 62.3134 0.0000 0.0000 0.0000
# 2 35.1902 109.7638 68.6717 0.0000 0.0000 0.0000
# 3 62.3134 68.6717 164.5718 0.0000 0.0000 0.0000
# 4 0.0000 0.0000 0.0000 27.5500 0.0000 0.0000
# 5 0.0000 0.0000 0.0000 0.0000 91.2719 0.0000
# 6 0.0000 0.0000 0.0000 0.0000 0.0000 25.3070
#
#
#
# Elastic Compliance Matrix: (Units=1/GPa)
#
#
# Indices 1 2 3 4 5 6 
#
# 1 0.016167 -0.001832 -0.005357 0.000000 0.000000 0.000000
# 2 -0.001832 0.012537 -0.004538 0.000000 0.000000 0.000000
# 3 -0.005357 -0.004538 0.009998 0.000000 0.000000 0.000000
# 4 0.000000 0.000000 0.000000 0.036298 0.000000 0.000000
# 5 0.000000 0.000000 0.000000 0.000000 0.010956 0.000000
# 6 0.000000 0.000000 0.000000 0.000000 0.000000 0.039515
#
#
# Mechanical properties :
#
#
# Convention : Reuss Voigt Hill
#
# Bulk Modulus (GPa) = 65.57765 77.01942 71.29853
# Shear Modulus (GPa) = 32.46605 41.80238 37.13421
#
# Velocity S-wave (km/s) = 4.06197 4.60916 4.34419
# Velocity P-wave (km/s) = 7.43819 8.21388 7.83564
#
# Compressibility (1/GPa) = 0.01524910
#
# Stress axis : x y z
#
# Youngs Moduli (GPa) = 61.85335 79.76646 100.01643
#
# Poissons Ratio (x) = 0.14609 0.53582
# Poissons Ratio (y) = 0.11328 0.45385
# Poissons Ratio (z) = 0.33137 0.36196
#
# Static dielectric constant tensor:
#      x y z
#    x 1.661860 0.000000 0.000000 
#    y 0.000000 1.685230 0.000000 
#    z 0.000000 0.000000 1.710930 
# 
# From -- ./inp_files/17838.got.cif
#   From: 2010.05.17/outbox.cif.g08.bks.cpg/sg35_9_cif.got.tgz:17838.got - 2010.06.03 17:29:28.
