data_PCOD9349812
_publ_section_title
;
Structure prediction by ZEFSAII (Michael W. Deem and Ramdas Pophale) SiO2 
 PCOD9349812
Probable space group: C M M 2
;
_chemical_formula_sum "Si O2"
_cell_formula_units_Z 48
_cell_length_a 16.207007
_cell_length_b 8.560618
_cell_length_c 17.248189
_cell_angle_alpha 90.000000
_cell_angle_beta 90.000000
_cell_angle_gamma 90.000000
_cell_volume 2393.048167
_symmetry_space_group_name_H-M "C M M 2"
_symmetry_group_IT_number 35
_symmetry_cell_setting 'orthorhombic'
loop_
_space_group_symop_operation_xyz
x,y,z
-x,-y,z
-x,y,z
x,-y,z
1/2+x,1/2+y,z
1/2-x,1/2-y,z
1/2-x,1/2+y,z
1/2+x,1/2-y,z
loop_
_atom_site_type_symbol
_atom_site_label
_atom_site_fract_x
_atom_site_fract_y
_atom_site_fract_z
Si Si1 0.000000 0.687113 0.367041
Si Si2 0.661696 0.687909 0.455433
Si Si3 0.095231 0.316897 0.942023
Si Si4 0.500000 0.687126 0.192247
Si Si5 0.341361 0.685942 0.784774
Si Si6 0.838298 0.688345 0.103850
Si Si7 0.594249 0.309852 0.618509
O O1 0.082575 0.748567 0.409427
O O2 0.000000 0.751245 0.279882
O O3 0.000000 0.500000 0.367381
O O4 0.660789 0.500000 0.451815
O O5 0.750000 0.750000 0.427162
O O6 0.648949 0.738345 0.545379
O O7 0.113530 0.500000 0.929819
O O8 0.108256 0.233548 0.860592
O O9 0.000000 0.302984 0.966342
O O10 0.149415 0.259533 0.014074
O O11 0.500000 0.500000 0.190474
O O12 0.582921 0.749149 0.150636
O O13 0.339503 0.500000 0.780241
O O14 0.250000 0.750000 0.795179
O O15 0.376639 0.745977 0.702760
O O16 0.839747 0.500000 0.105663
O O17 0.750000 0.750000 0.132521
O O18 0.500000 0.261141 0.604686
O O19 0.595138 0.500000 0.620070
#
# Coordination Sequence:
#
# PCOD9349812 Si02
#       7
#     4   8   8   4   8   8   8
#     4  12  26  46  70  99 132 167 210 261 320 387
#     4  11  22  41  68  97 132 172 215 265 321 382
#     4  10  21  39  61  87 123 165 210 263 319 372
#     4  12  26  46  72 101 130 167 210 259 322 387
#     4  11  22  35  54  83 121 165 215 265 315 371
#     4  11  23  43  68  98 133 172 214 264 320 381
#     4   9  18  35  59  86 121 165 211 263 319 373
#
# _framework density 20.058101000000001
#
# number of rings (size 3 to 8) (size 9 to 14) (size 15 to 20)
#    0.000    1.333    1.667    4.500    0.000    4.333 
#    0.000    5.833    0.000    0.000    0.000    0.000 
#    0.000    0.000    0.000    0.000    0.000    0.000 
#
# Total GULP energy -134139.738876 kJ/mol
# GULP energy per Si atom -5589.155786 kJ/mol
# Density = 2.001245 g / cm^3
# Si number density = 20.058101 Si / 1000 Ang^3
#
#
#
# Elastic Constant Matrix: (Units=GPa)
#
#
# Indices 1 2 3 4 5 6 
#
# 1 140.0398 45.6866 63.2557 0.0000 0.0000 0.0000
# 2 45.6866 76.8384 40.1890 0.0000 0.0000 0.0000
# 3 63.2557 40.1890 129.6528 0.0000 0.0000 0.0000
# 4 0.0000 0.0000 0.0000 28.3469 0.0000 0.0000
# 5 0.0000 0.0000 0.0000 0.0000 9.0295 0.0000
# 6 0.0000 0.0000 0.0000 0.0000 0.0000 28.5327
#
#
#
# Elastic Compliance Matrix: (Units=1/GPa)
#
#
# Indices 1 2 3 4 5 6 
#
# 1 0.010141 -0.004108 -0.003674 0.000000 0.000000 0.000000
# 2 -0.004108 0.017196 -0.003326 0.000000 0.000000 0.000000
# 3 -0.003674 -0.003326 0.010537 0.000000 0.000000 0.000000
# 4 0.000000 0.000000 0.000000 0.035277 0.000000 0.000000
# 5 0.000000 0.000000 0.000000 0.000000 0.110749 0.000000
# 6 0.000000 0.000000 0.000000 0.000000 0.000000 0.035047
#
#
# Mechanical properties :
#
#
# Convention : Reuss Voigt Hill
#
# Bulk Modulus (GPa) = 63.86854 71.64374 67.75614
# Shear Modulus (GPa) = 20.29366 26.34180 23.31773
#
# Velocity S-wave (km/s) = 3.18424 3.62784 3.41326
# Velocity P-wave (km/s) = 6.74019 7.30370 7.02759
#
# Compressibility (1/GPa) = 0.01565716
#
# Stress axis : x y z
#
# Youngs Moduli (GPa) = 98.61435 58.15150 94.90754
#
# Poissons Ratio (x) = 0.23887 0.34870
# Poissons Ratio (y) = 0.40507 0.31570
# Poissons Ratio (z) = 0.36232 0.19344
#
# Static dielectric constant tensor:
#      x y z
#    x 1.694650 0.000000 0.000000 
#    y 0.000000 1.691140 0.000000 
#    z 0.000000 0.000000 1.729100 
# 
# From -- ./inp_files/17091.got.cif
#   From: 2010.05.17/outbox.cif.g08.bks.cpg/sg35_9_cif.got.tgz:17091.got - 2010.06.03 17:29:28.
