data_PCOD9349211
_publ_section_title
;
Structure prediction by ZEFSAII (Michael W. Deem and Ramdas Pophale) SiO2 
 PCOD9349211
Probable space group: C M M 2
;
_chemical_formula_sum "Si O2"
_cell_formula_units_Z 64
_cell_length_a 8.645593
_cell_length_b 18.958388
_cell_length_c 20.993207
_cell_angle_alpha 90.000000
_cell_angle_beta 90.000000
_cell_angle_gamma 90.000000
_cell_volume 3440.923221
_symmetry_space_group_name_H-M "C M M 2"
_symmetry_group_IT_number 35
_symmetry_cell_setting 'orthorhombic'
loop_
_space_group_symop_operation_xyz
x,y,z
-x,-y,z
-x,y,z
x,-y,z
1/2+x,1/2+y,z
1/2-x,1/2-y,z
1/2-x,1/2+y,z
1/2+x,1/2-y,z
loop_
_atom_site_type_symbol
_atom_site_label
_atom_site_fract_x
_atom_site_fract_y
_atom_site_fract_z
Si Si1 0.187316 0.581472 0.472890
Si Si2 0.186455 0.672058 0.593467
Si Si3 0.813296 0.080978 0.853084
Si Si4 0.186798 0.917896 0.229503
Si Si5 0.314355 0.670735 0.354873
Si Si6 0.315484 0.828773 0.113211
Si Si7 0.685357 0.828004 0.738357
Si Si8 0.813957 0.171650 0.975538
O O1 0.236756 0.500000 0.467665
O O2 0.235172 0.616402 0.540018
O O3 0.252690 0.628701 0.415994
O O4 0.000000 0.583052 0.470081
O O5 0.250000 0.750000 0.578744
O O6 0.233528 0.653455 0.665804
O O7 0.000000 0.675607 0.592545
O O8 0.747622 0.119186 0.791108
O O9 0.000000 0.083369 0.850081
O O10 0.763800 0.000000 0.855549
O O11 0.767061 0.121771 0.917342
O O12 0.231612 0.872951 0.291770
O O13 0.259250 0.881454 0.167753
O O14 0.000000 0.915043 0.224198
O O15 0.231489 0.000000 0.235724
O O16 0.500000 0.673619 0.357294
O O17 0.250000 0.750000 0.353046
O O18 0.500000 0.824970 0.111460
O O19 0.250000 0.750000 0.125827
O O20 0.251893 0.851009 0.043980
O O21 0.500000 0.826136 0.740669
O O22 0.750000 0.750000 0.751748
O O23 0.750000 0.250000 0.963366
O O24 0.000000 0.174008 0.979335
#
# Coordination Sequence:
#
# PCOD9349211 Si02
#       8
#     8   8   8   8   8   8   8   8
#     4  10  21  37  57  82 114 149 183 225 277 329
#     4   9  19  35  55  80 109 143 184 227 273 327
#     4  10  22  38  55  79 112 147 183 226 277 331
#     4  10  22  40  60  83 114 149 182 222 275 330
#     4  11  23  39  60  85 112 145 187 231 274 324
#     4  11  22  37  59  86 114 145 185 229 271 321
#     4  10  20  35  57  82 109 144 185 229 275 326
#     4  10  20  36  58  81 108 145 186 228 275 326
#
# _framework density 18.599658000000002
#
# number of rings (size 3 to 8) (size 9 to 14) (size 15 to 20)
#    0.000    1.875    0.000    4.500    0.000    8.250 
#    0.000    2.500    0.000    0.000    0.000    0.000 
#    0.000    0.000    0.000    0.000    0.000    0.000 
#
# Total GULP energy -178791.476321 kJ/mol
# GULP energy per Si atom -5587.233635 kJ/mol
# Density = 1.855732 g / cm^3
# Si number density = 18.599658 Si / 1000 Ang^3
#
#
#
# Elastic Constant Matrix: (Units=GPa)
#
#
# Indices 1 2 3 4 5 6 
#
# 1 37.4044 45.9527 47.6884 0.0000 0.0000 0.0000
# 2 45.9527 168.1697 137.3499 0.0000 0.0000 0.0000
# 3 47.6884 137.3499 173.8414 0.0000 0.0000 0.0000
# 4 0.0000 0.0000 0.0000 -33.2923 0.0000 0.0000
# 5 0.0000 0.0000 0.0000 0.0000 28.5690 0.0000
# 6 0.0000 0.0000 0.0000 0.0000 0.0000 24.8312
#
#
#
# Elastic Compliance Matrix: (Units=1/GPa)
#
#
# Indices 1 2 3 4 5 6 
#
# 1 0.043151 -0.005986 -0.007108 0.000000 0.000000 0.000000
# 2 -0.005986 0.017594 -0.012259 0.000000 0.000000 0.000000
# 3 -0.007108 -0.012259 0.017388 0.000000 0.000000 0.000000
# 4 0.000000 0.000000 0.000000 -0.030037 0.000000 0.000000
# 5 0.000000 0.000000 0.000000 0.000000 0.035003 0.000000
# 6 0.000000 0.000000 0.000000 0.000000 0.000000 0.040272
#
#
# Mechanical properties :
#
#
# Convention : Reuss Voigt Hill
#
# Bulk Modulus (GPa) = 36.45960 93.48860 64.97410
# Shear Modulus (GPa) = 27.28970 13.91653 20.60311
#
# Velocity S-wave (km/s) = 3.83458 2.73832 3.33185
# Velocity P-wave (km/s) = 6.26500 7.76985 7.05765
#
# Compressibility (1/GPa) = 0.02742762
#
# Stress axis : x y z
#
# Youngs Moduli (GPa) = 23.17457 56.83611 57.51090
#
# Poissons Ratio (x) = 0.34021 0.40878
# Poissons Ratio (y) = 0.13872 0.70503
# Poissons Ratio (z) = 0.16472 0.69676
#
# Static dielectric constant tensor:
#      x y z
#    x 1.629530 0.000000 0.000000 
#    y 0.000000 1.612070 0.000000 
#    z 0.000000 0.000000 1.630050 
# 
# From -- ./inp_files/18319.got.cif
#   From: 2010.05.17/outbox.cif.g08.bks.cpg/sg35_10_cif.got.tgz:18319.got - 2010.06.03 17:29:28.
