data_PCOD9349845
_publ_section_title
;
Structure prediction by ZEFSAII (Michael W. Deem and Ramdas Pophale) SiO2 
 PCOD9349845
Probable space group: C M M 2
;
_chemical_formula_sum "Si O2"
_cell_formula_units_Z 56
_cell_length_a 30.732565
_cell_length_b 15.501765
_cell_length_c 5.205939
_cell_angle_alpha 90.000000
_cell_angle_beta 90.000000
_cell_angle_gamma 90.000000
_cell_volume 2480.156196
_symmetry_space_group_name_H-M "C M M 2"
_symmetry_group_IT_number 35
_symmetry_cell_setting 'orthorhombic'
loop_
_space_group_symop_operation_xyz
x,y,z
-x,-y,z
-x,y,z
x,-y,z
1/2+x,1/2+y,z
1/2-x,1/2-y,z
1/2-x,1/2+y,z
1/2+x,1/2-y,z
loop_
_atom_site_type_symbol
_atom_site_label
_atom_site_fract_x
_atom_site_fract_y
_atom_site_fract_z
Si Si1 0.549170 0.268853 0.802200
Si Si2 0.763441 0.601026 0.302887
Si Si3 0.951470 0.594844 0.467822
Si Si4 0.830769 0.163840 0.240210
Si Si5 0.377041 0.401896 0.724989
Si Si6 0.678269 0.099283 0.790190
Si Si7 0.612319 0.816251 0.132820
O O1 0.500000 0.299051 0.823652
O O2 0.549265 0.178029 0.650541
O O3 0.581214 0.340675 0.691334
O O4 0.571317 0.244855 0.072439
O O5 0.750008 0.500000 0.340525
O O6 0.720908 0.658451 0.260335
O O7 0.791844 0.625724 0.551369
O O8 0.792420 0.602676 0.046981
O O9 0.949034 0.500000 0.594287
O O10 0.909732 0.605856 0.283950
O O11 0.000000 0.597556 0.338961
O O12 0.849491 0.105014 0.466003
O O13 0.852478 0.257648 0.276457
O O14 0.847799 0.132266 0.962553
O O15 0.389668 0.500000 0.778025
O O16 0.665305 0.000000 0.743282
O O17 0.636240 0.153982 0.871681
#
# Coordination Sequence:
#
# PCOD9349845 Si02
#       7
#     8   8   8   8   8   8   8
#     4  10  23  42  63  93 132 170 217 277 338 400
#     4  10  21  40  61  90 126 167 215 268 320 384
#     4  10  21  39  65  94 128 174 224 275 336 402
#     4  11  23  40  67  95 133 176 221 275 325 393
#     4  11  22  40  67 100 131 175 225 271 329 393
#     4  10  23  39  63  93 127 169 216 266 326 386
#     4  11  23  40  62  94 131 173 219 280 333 397
#
# _framework density 22.579221
#
# number of rings (size 3 to 8) (size 9 to 14) (size 15 to 20)
#    0.000    1.571    1.429    3.000    2.000    3.143 
#    0.000    2.857    0.000    1.714    0.000    0.000 
#    0.000    0.000    0.000    0.000    0.000    0.000 
#
# Total GULP energy -156536.534046 kJ/mol
# GULP energy per Si atom -5590.590502 kJ/mol
# Density = 2.252783 g / cm^3
# Si number density = 22.579221 Si / 1000 Ang^3
#
#
#
# Elastic Constant Matrix: (Units=GPa)
#
#
# Indices 1 2 3 4 5 6 
#
# 1 147.8312 52.9517 47.1543 0.0000 0.0000 0.0000
# 2 52.9517 103.6773 14.9220 0.0000 0.0000 0.0000
# 3 47.1543 14.9220 96.2294 0.0000 0.0000 0.0000
# 4 0.0000 0.0000 0.0000 -8.2506 0.0000 0.0000
# 5 0.0000 0.0000 0.0000 0.0000 27.3188 0.0000
# 6 0.0000 0.0000 0.0000 0.0000 0.0000 38.5525
#
#
#
# Elastic Compliance Matrix: (Units=1/GPa)
#
#
# Indices 1 2 3 4 5 6 
#
# 1 0.009599 -0.004322 -0.004034 0.000000 0.000000 0.000000
# 2 -0.004322 0.011812 0.000286 0.000000 0.000000 0.000000
# 3 -0.004034 0.000286 0.012324 0.000000 0.000000 0.000000
# 4 0.000000 0.000000 0.000000 -0.121203 0.000000 0.000000
# 5 0.000000 0.000000 0.000000 0.000000 0.036605 0.000000
# 6 0.000000 0.000000 0.000000 0.000000 0.000000 0.025939
#
#
# Mechanical properties :
#
#
# Convention : Reuss Voigt Hill
#
# Bulk Modulus (GPa) = 56.83104 64.19931 60.51518
# Shear Modulus (GPa) = -1712.02884 27.03812 -842.49536
#
# Velocity S-wave (km/s) = -27.56589 3.46421 -19.33749
# Velocity P-wave (km/s) = 31.43162 6.67051 21.71924
#
# Compressibility (1/GPa) = 0.01759602
#
# Stress axis : x y z
#
# Youngs Moduli (GPa) = 104.17513 84.66284 81.14272
#
# Poissons Ratio (x) = 0.36592 0.32730
# Poissons Ratio (y) = 0.45026 -0.02323
# Poissons Ratio (z) = 0.42020 -0.02424
#
# Static dielectric constant tensor:
#      x y z
#    x 1.826890 0.000000 0.000000 
#    y 0.000000 1.873020 0.000000 
#    z 0.000000 0.000000 1.854380 
# 
# From -- ./inp_files/2067.got.cif
#   From: 2010.05.17/outbox.cif.g08.bks.cpg/sg35_2_cif.got.tgz:2067.got - 2010.06.03 17:29:28.
