data_PCOD9349630
_publ_section_title
;
Structure prediction by ZEFSAII (Michael W. Deem and Ramdas Pophale) SiO2 
 PCOD9349630
Probable space group: C M M 2
;
_chemical_formula_sum "Si O2"
_cell_formula_units_Z 58
_cell_length_a 8.085382
_cell_length_b 31.129235
_cell_length_c 12.707297
_cell_angle_alpha 90.000000
_cell_angle_beta 90.000000
_cell_angle_gamma 90.000000
_cell_volume 3198.321900
_symmetry_space_group_name_H-M "C M M 2"
_symmetry_group_IT_number 35
_symmetry_cell_setting 'orthorhombic'
loop_
_space_group_symop_operation_xyz
x,y,z
-x,-y,z
-x,y,z
x,-y,z
1/2+x,1/2+y,z
1/2-x,1/2-y,z
1/2-x,1/2+y,z
1/2+x,1/2-y,z
loop_
_atom_site_type_symbol
_atom_site_label
_atom_site_fract_x
_atom_site_fract_y
_atom_site_fract_z
Si Si1 0.309658 0.838263 0.331070
Si Si2 0.806675 0.362442 0.956656
Si Si3 0.500000 0.500000 0.344054
Si Si4 0.311667 0.298112 0.127930
Si Si5 0.199053 0.547154 0.033136
Si Si6 0.301782 0.298543 0.541476
Si Si7 0.196557 0.438682 0.282827
Si Si8 0.195337 0.797662 0.778815
O O1 0.500000 0.826442 0.310654
O O2 0.203693 0.809923 0.250546
O O3 0.268493 0.829058 0.451795
O O4 0.287864 0.888172 0.304615
O O5 0.734464 0.410092 0.976391
O O6 0.737807 0.334442 0.861222
O O7 0.000000 0.367737 0.936704
O O8 0.785411 0.333840 0.061543
O O9 0.348321 0.463267 0.338582
O O10 0.500000 0.301094 0.092227
O O11 0.250000 0.250000 0.109165
O O12 0.264169 0.500000 0.001513
O O13 0.000000 0.546552 0.017424
O O14 0.222410 0.552434 0.158429
O O15 0.500000 0.301822 0.540373
O O16 0.250000 0.250000 0.514267
O O17 0.238329 0.306228 0.660670
O O18 0.000000 0.449908 0.306032
O O19 0.250000 0.750000 0.813933
O O20 0.000000 0.795514 0.769175
#
# Coordination Sequence:
#
# PCOD9349630 Si02
#       8
#     8   8   2   8   8   8   8   8
#     4  11  22  37  56  81 116 149 186 232 285 337
#     4  11  21  35  56  81 111 145 186 231 283 338
#     4  12  22  32  60  82 112 154 202 228 296 338
#     4  12  24  36  52  75 113 154 190 224 274 344
#     4   9  17  34  55  77 109 146 182 228 283 333
#     4  10  21  37  58  81 110 145 191 238 283 336
#     4  10  21  36  54  82 117 150 189 240 284 344
#     4  10  21  38  57  81 110 145 188 237 282 334
#
# _framework density 18.134509999999999
#
# number of rings (size 3 to 8) (size 9 to 14) (size 15 to 20)
#    0.000    1.517    2.069    3.931    1.931    1.655 
#    1.241    0.000    0.000    0.000    1.793    0.000 
#    0.000    0.000    0.000    0.000    0.000    0.000 
#
# Total GULP energy -161545.432145 kJ/mol
# GULP energy per Si atom -5570.532143 kJ/mol
# Density = 1.809323 g / cm^3
# Si number density = 18.134510 Si / 1000 Ang^3
#
#
#
# Elastic Constant Matrix: (Units=GPa)
#
#
# Indices 1 2 3 4 5 6 
#
# 1 56.0057 12.7788 1.2115 0.0000 0.0000 0.0000
# 2 12.7788 141.2116 51.7069 0.0000 0.0000 0.0000
# 3 1.2115 51.7069 61.8443 0.0000 0.0000 0.0000
# 4 0.0000 0.0000 0.0000 -66.5109 0.0000 0.0000
# 5 0.0000 0.0000 0.0000 0.0000 15.4354 0.0000
# 6 0.0000 0.0000 0.0000 0.0000 0.0000 21.4922
#
#
#
# Elastic Compliance Matrix: (Units=1/GPa)
#
#
# Indices 1 2 3 4 5 6 
#
# 1 0.018325 -0.002201 0.001481 0.000000 0.000000 0.000000
# 2 -0.002201 0.010470 -0.008711 0.000000 0.000000 0.000000
# 3 0.001481 -0.008711 0.023424 0.000000 0.000000 0.000000
# 4 0.000000 0.000000 0.000000 -0.015035 0.000000 0.000000
# 5 0.000000 0.000000 0.000000 0.000000 0.064786 0.000000
# 6 0.000000 0.000000 0.000000 0.000000 0.000000 0.046528
#
#
# Mechanical properties :
#
#
# Convention : Reuss Voigt Hill
#
# Bulk Modulus (GPa) = 29.97771 43.38400 36.68086
# Shear Modulus (GPa) = 28.01435 6.97429 17.49432
#
# Velocity S-wave (km/s) = 3.93467 1.96321 3.10933
# Velocity P-wave (km/s) = 6.09990 5.39577 5.75861
#
# Compressibility (1/GPa) = 0.03335812
#
# Stress axis : x y z
#
# Youngs Moduli (GPa) = 54.56910 95.50751 42.69173
#
# Poissons Ratio (x) = 0.21017 -0.06322
# Poissons Ratio (y) = 0.12008 0.37189
# Poissons Ratio (z) = -0.08081 0.83196
#
# Static dielectric constant tensor:
#      x y z
#    x 1.652790 0.000000 0.000000 
#    y 0.000000 1.592790 0.000000 
#    z 0.000000 0.000000 1.619480 
# 
# From -- ./inp_files/11793.got.cif
#   From: 2010.05.17/outbox.cif.g08.bks.cpg/sg35_6_cif.got.tgz:11793.got - 2010.06.03 17:29:28.
