data_PCOD9349123
_publ_section_title
;
Structure prediction by ZEFSAII (Michael W. Deem and Ramdas Pophale) SiO2 
 PCOD9349123
Probable space group: C M M 2
;
_chemical_formula_sum "Si O2"
_cell_formula_units_Z 48
_cell_length_a 15.845079
_cell_length_b 8.533282
_cell_length_c 17.919878
_cell_angle_alpha 90.000000
_cell_angle_beta 90.000000
_cell_angle_gamma 90.000000
_cell_volume 2422.956156
_symmetry_space_group_name_H-M "C M M 2"
_symmetry_group_IT_number 35
_symmetry_cell_setting 'orthorhombic'
loop_
_space_group_symop_operation_xyz
x,y,z
-x,-y,z
-x,y,z
x,-y,z
1/2+x,1/2+y,z
1/2-x,1/2-y,z
1/2-x,1/2+y,z
1/2+x,1/2-y,z
loop_
_atom_site_type_symbol
_atom_site_label
_atom_site_fract_x
_atom_site_fract_y
_atom_site_fract_z
Si Si1 0.500000 0.808424 0.009920
Si Si2 0.901621 0.685057 0.601625
Si Si3 0.839067 0.816086 0.751593
Si Si4 0.654116 0.810287 0.439506
Si Si5 0.846007 0.689778 0.113864
Si Si6 0.500000 0.812935 0.838742
Si Si7 0.846189 0.689239 0.278814
O O1 0.584850 0.758697 0.053497
O O2 0.500000 0.000000 0.010859
O O3 0.500000 0.756413 0.924294
O O4 0.879624 0.500000 0.605563
O O5 0.849919 0.774879 0.664157
O O6 0.888272 0.740298 0.516690
O O7 0.000000 0.700297 0.620296
O O8 0.750000 0.750000 0.778314
O O9 0.917087 0.742499 0.795531
O O10 0.841059 0.000000 0.761356
O O11 0.750000 0.750000 0.442072
O O12 0.616257 0.760181 0.358987
O O13 0.653185 0.000000 0.439865
O O14 0.842241 0.500000 0.112359
O O15 0.750000 0.750000 0.102936
O O16 0.877974 0.737923 0.197161
O O17 0.500000 0.000000 0.839293
O O18 0.847022 0.500000 0.279019
O O19 0.750000 0.750000 0.280191
#
# Coordination Sequence:
#
# PCOD9349123 Si02
#       7
#     4   8   8   8   8   4   8
#     4   9  20  37  59  86 115 146 180 225 285 341
#     4  10  20  35  54  78 115 154 191 239 289 335
#     4  12  25  42  65  91 117 152 195 237 290 353
#     4   9  17  29  46  73 104 143 189 234 278 326
#     4   9  17  33  55  81 112 149 188 230 277 330
#     4  11  23  43  65  88 121 152 186 241 295 349
#     4   8  14  26  46  71 103 141 185 231 273 319
#
# _framework density 19.810511000000002
#
# number of rings (size 3 to 8) (size 9 to 14) (size 15 to 20)
#    0.000    2.333    0.833    2.250    0.000    2.667 
#    1.500    3.750    0.000    0.000    0.000    0.000 
#    0.000    0.000    0.000    0.000    0.000    0.000 
#
# Total GULP energy -133825.955661 kJ/mol
# GULP energy per Si atom -5576.081486 kJ/mol
# Density = 1.976542 g / cm^3
# Si number density = 19.810511 Si / 1000 Ang^3
#
#
#
# Elastic Constant Matrix: (Units=GPa)
#
#
# Indices 1 2 3 4 5 6 
#
# 1 102.1887 28.7294 73.2111 0.0000 0.0000 0.0000
# 2 28.7294 32.0097 29.1459 0.0000 0.0000 0.0000
# 3 73.2111 29.1459 162.3176 0.0000 0.0000 0.0000
# 4 0.0000 0.0000 0.0000 10.0657 0.0000 0.0000
# 5 0.0000 0.0000 0.0000 0.0000 25.8411 0.0000
# 6 0.0000 0.0000 0.0000 0.0000 0.0000 19.8630
#
#
#
# Elastic Compliance Matrix: (Units=1/GPa)
#
#
# Indices 1 2 3 4 5 6 
#
# 1 0.016639 -0.009684 -0.005766 0.000000 0.000000 0.000000
# 2 -0.009684 0.042982 -0.003350 0.000000 0.000000 0.000000
# 3 -0.005766 -0.003350 0.009363 0.000000 0.000000 0.000000
# 4 0.000000 0.000000 0.000000 0.099347 0.000000 0.000000
# 5 0.000000 0.000000 0.000000 0.000000 0.038698 0.000000
# 6 0.000000 0.000000 0.000000 0.000000 0.000000 0.050345
#
#
# Mechanical properties :
#
#
# Convention : Reuss Voigt Hill
#
# Bulk Modulus (GPa) = 31.86292 62.07654 46.96973
# Shear Modulus (GPa) = 16.36999 22.18260 19.27629
#
# Velocity S-wave (km/s) = 2.87771 3.34988 3.12273
# Velocity P-wave (km/s) = 5.21156 6.80922 6.06324
#
# Compressibility (1/GPa) = 0.03138444
#
# Stress axis : x y z
#
# Youngs Moduli (GPa) = 60.09825 23.26529 106.80297
#
# Poissons Ratio (x) = 0.22530 0.61584
# Poissons Ratio (y) = 0.58199 0.35780
# Poissons Ratio (z) = 0.34653 0.07794
#
# Static dielectric constant tensor:
#      x y z
#    x 1.662130 0.000000 0.000000 
#    y 0.000000 1.673500 0.000000 
#    z 0.000000 0.000000 1.745000 
# 
# From -- ./inp_files/17911.got.cif
#   From: 2010.05.17/outbox.cif.g08.bks.cpg/sg35_9_cif.got.tgz:17911.got - 2010.06.03 17:29:28.
