data_PCOD9349738
_publ_section_title
;
Structure prediction by ZEFSAII (Michael W. Deem and Ramdas Pophale) SiO2 
 PCOD9349738
Probable space group: C M M 2
;
_chemical_formula_sum "Si O2"
_cell_formula_units_Z 40
_cell_length_a 22.625076
_cell_length_b 13.537192
_cell_length_c 6.267306
_cell_angle_alpha 90.000000
_cell_angle_beta 90.000000
_cell_angle_gamma 90.000000
_cell_volume 1919.550468
_symmetry_space_group_name_H-M "C M M 2"
_symmetry_group_IT_number 35
_symmetry_cell_setting 'orthorhombic'
loop_
_space_group_symop_operation_xyz
x,y,z
-x,-y,z
-x,y,z
x,-y,z
1/2+x,1/2+y,z
1/2-x,1/2-y,z
1/2-x,1/2+y,z
1/2+x,1/2-y,z
loop_
_atom_site_type_symbol
_atom_site_label
_atom_site_fract_x
_atom_site_fract_y
_atom_site_fract_z
Si Si1 0.066987 0.199999 0.179390
Si Si2 0.171356 0.885387 0.922360
Si Si3 0.221445 0.386797 0.223892
Si Si4 0.149120 0.735726 0.555846
Si Si5 0.604904 0.112047 0.934150
O O1 0.102436 0.211488 0.399860
O O2 0.000000 0.166306 0.205797
O O3 0.106958 0.132663 0.024821
O O4 0.068202 0.308444 0.068863
O O5 0.176126 0.815078 0.718687
O O6 0.181105 0.000000 0.870331
O O7 0.218933 0.856079 0.103245
O O8 0.229611 0.500000 0.298023
O O9 0.197388 0.320674 0.414839
O O10 0.169312 0.386874 0.047579
O O11 0.114747 0.654860 0.698659
O O12 0.582698 0.000000 0.936442
#
# Coordination Sequence:
#
# PCOD9349738 Si02
#       5
#     8   8   8   8   8
#     4  10  23  40  57  83 120 161 207 254 297 343
#     4  10  23  41  62  89 120 157 202 248 295 352
#     4   9  19  37  61  92 124 150 184 237 304 373
#     4  10  21  37  63  89 119 158 198 242 298 358
#     4   9  19  36  60  91 123 152 188 241 304 368
#
# _framework density 20.838213
#
# number of rings (size 3 to 8) (size 9 to 14) (size 15 to 20)
#    0.000    2.400    0.000    0.600    0.000   16.000 
#    0.000    4.000    0.000    6.000    0.000    0.000 
#    0.000    0.000    0.000    0.000    0.000    0.000 
#
# Total GULP energy -111829.511692 kJ/mol
# GULP energy per Si atom -5591.475585 kJ/mol
# Density = 2.079078 g / cm^3
# Si number density = 20.838213 Si / 1000 Ang^3
#
#
#
# Elastic Constant Matrix: (Units=GPa)
#
#
# Indices 1 2 3 4 5 6 
#
# 1 121.9427 17.9368 42.8749 0.0000 0.0000 0.0000
# 2 17.9368 81.2483 44.1671 0.0000 0.0000 0.0000
# 3 42.8749 44.1671 126.4987 0.0000 0.0000 0.0000
# 4 0.0000 0.0000 0.0000 22.1031 0.0000 0.0000
# 5 0.0000 0.0000 0.0000 0.0000 4.3779 0.0000
# 6 0.0000 0.0000 0.0000 0.0000 0.0000 14.0936
#
#
#
# Elastic Compliance Matrix: (Units=1/GPa)
#
#
# Indices 1 2 3 4 5 6 
#
# 1 0.009322 -0.000420 -0.003013 0.000000 0.000000 0.000000
# 2 -0.000420 0.015210 -0.005168 0.000000 0.000000 0.000000
# 3 -0.003013 -0.005168 0.010731 0.000000 0.000000 0.000000
# 4 0.000000 0.000000 0.000000 0.045243 0.000000 0.000000
# 5 0.000000 0.000000 0.000000 0.000000 0.228422 0.000000
# 6 0.000000 0.000000 0.000000 0.000000 0.000000 0.070954
#
#
# Mechanical properties :
#
#
# Convention : Reuss Voigt Hill
#
# Bulk Modulus (GPa) = 55.36975 59.96083 57.66529
# Shear Modulus (GPa) = 12.40377 23.09565 17.74971
#
# Velocity S-wave (km/s) = 2.44240 3.33277 2.92170
# Velocity P-wave (km/s) = 5.88071 6.60657 6.25418
#
# Compressibility (1/GPa) = 0.01806040
#
# Stress axis : x y z
#
# Youngs Moduli (GPa) = 107.27713 65.74539 93.18937
#
# Poissons Ratio (x) = 0.02762 0.28076
# Poissons Ratio (y) = 0.04507 0.48163
# Poissons Ratio (z) = 0.32320 0.33979
#
# Static dielectric constant tensor:
#      x y z
#    x 1.735130 0.000000 0.000000 
#    y 0.000000 1.772310 0.000000 
#    z 0.000000 0.000000 1.725800 
# 
# From -- ./inp_files/1766.got.cif
#   From: 2010.05.17/outbox.cif.g08.bks.cpg/sg35_1_cif.got.tgz:1766.got - 2010.06.03 17:29:28.
