data_PCOD9349917
_publ_section_title
;
Structure prediction by ZEFSAII (Michael W. Deem and Ramdas Pophale) SiO2 
 PCOD9349917
Probable space group: C M M 2
;
_chemical_formula_sum "Si O2"
_cell_formula_units_Z 44
_cell_length_a 13.886570
_cell_length_b 9.744201
_cell_length_c 14.906535
_cell_angle_alpha 90.000000
_cell_angle_beta 90.000000
_cell_angle_gamma 90.000000
_cell_volume 2017.055860
_symmetry_space_group_name_H-M "C M M 2"
_symmetry_group_IT_number 35
_symmetry_cell_setting 'orthorhombic'
loop_
_space_group_symop_operation_xyz
x,y,z
-x,-y,z
-x,y,z
x,-y,z
1/2+x,1/2+y,z
1/2-x,1/2-y,z
1/2-x,1/2+y,z
1/2+x,1/2-y,z
loop_
_atom_site_type_symbol
_atom_site_label
_atom_site_fract_x
_atom_site_fract_y
_atom_site_fract_z
Si Si1 0.617249 0.656667 0.831780
Si Si2 0.392911 0.161738 0.196070
Si Si3 0.116806 0.344149 0.663508
Si Si4 0.250000 0.250000 0.347696
Si Si5 0.113074 0.152390 0.498599
Si Si6 0.882781 0.342212 0.000076
O O1 0.500000 0.650387 0.830953
O O2 0.652659 0.500000 0.828939
O O3 0.644953 0.747521 0.745981
O O4 0.644647 0.739209 0.921190
O O5 0.500000 0.217848 0.215545
O O6 0.323411 0.178367 0.279656
O O7 0.358008 0.214346 0.099158
O O8 0.401850 0.000000 0.179813
O O9 0.153656 0.500000 0.668553
O O10 0.139528 0.268639 0.570406
O O11 0.000000 0.351635 0.666650
O O12 0.182626 0.162164 0.413567
O O13 0.000000 0.171702 0.473778
O O14 0.120581 0.000000 0.539747
O O15 0.848757 0.500000 0.985995
O O16 0.000000 0.348789 0.999468
#
# Coordination Sequence:
#
# PCOD9349917 Si02
#       6
#     8   8   8   4   8   8
#     4   9  15  24  44  77 114 148 181 223 280 340
#     4   9  19  36  57  82 113 150 193 239 284 335
#     4   9  17  30  51  79 110 147 191 234 277 335
#     4  12  22  36  60  86 110 146 194 244 294 348
#     4  10  22  39  57  82 118 154 189 237 295 347
#     4   8  14  27  48  74 106 145 188 230 272 328
#
# _framework density 21.813972
#
# number of rings (size 3 to 8) (size 9 to 14) (size 15 to 20)
#    0.000    2.727    0.000    3.273    0.000    5.818 
#    0.000    3.636    0.000    5.455    0.000    2.545 
#    0.000    0.000    0.000    0.000    0.000    1.091 
#
# Total GULP energy -122829.954334 kJ/mol
# GULP energy per Si atom -5583.179742 kJ/mol
# Density = 2.176432 g / cm^3
# Si number density = 21.813972 Si / 1000 Ang^3
#
#
#
# Elastic Constant Matrix: (Units=GPa)
#
#
# Indices 1 2 3 4 5 6 
#
# 1 106.3687 32.0984 42.2388 0.0000 0.0000 0.0000
# 2 32.0984 144.5326 85.7910 0.0000 0.0000 0.0000
# 3 42.2388 85.7910 175.8199 0.0000 0.0000 0.0000
# 4 0.0000 0.0000 0.0000 26.7994 0.0000 0.0000
# 5 0.0000 0.0000 0.0000 0.0000 -65.0925 0.0000
# 6 0.0000 0.0000 0.0000 0.0000 0.0000 -27.7912
#
#
#
# Elastic Compliance Matrix: (Units=1/GPa)
#
#
# Indices 1 2 3 4 5 6 
#
# 1 0.010533 -0.001179 -0.001955 0.000000 0.000000 0.000000
# 2 -0.001179 0.009872 -0.004534 0.000000 0.000000 0.000000
# 3 -0.001955 -0.004534 0.008370 0.000000 0.000000 0.000000
# 4 0.000000 0.000000 0.000000 0.037314 0.000000 0.000000
# 5 0.000000 0.000000 0.000000 0.000000 -0.015363 0.000000
# 6 0.000000 0.000000 0.000000 0.000000 0.000000 -0.035983
#
#
# Mechanical properties :
#
#
# Convention : Reuss Voigt Hill
#
# Bulk Modulus (GPa) = 74.40910 82.99750 78.70330
# Shear Modulus (GPa) = 144.67999 4.55600 74.61799
#
# Velocity S-wave (km/s) = 8.15282 1.44676 5.85498
# Velocity P-wave (km/s) = 11.08194 6.39697 9.04795
#
# Compressibility (1/GPa) = 0.01343922
#
# Stress axis : x y z
#
# Youngs Moduli (GPa) = 94.93587 101.29938 119.47929
#
# Poissons Ratio (x) = 0.11939 0.23364
# Poissons Ratio (y) = 0.11189 0.54169
# Poissons Ratio (z) = 0.18564 0.45927
#
# Static dielectric constant tensor:
#      x y z
#    x 1.868150 0.000000 0.000000 
#    y 0.000000 1.773190 0.000000 
#    z 0.000000 0.000000 1.776680 
# 
# From -- ./inp_files/16946.got.cif
#   From: 2010.05.17/outbox.cif.g08.bks.cpg/sg35_9_cif.got.tgz:16946.got - 2010.06.03 17:29:28.
