data_PCOD9349578
_publ_section_title
;
Structure prediction by ZEFSAII (Michael W. Deem and Ramdas Pophale) SiO2 
 PCOD9349578
Probable space group: C M M 2
;
_chemical_formula_sum "Si O2"
_cell_formula_units_Z 64
_cell_length_a 8.102885
_cell_length_b 30.341230
_cell_length_c 12.805452
_cell_angle_alpha 90.000000
_cell_angle_beta 90.000000
_cell_angle_gamma 90.000000
_cell_volume 3148.239550
_symmetry_space_group_name_H-M "C M M 2"
_symmetry_group_IT_number 35
_symmetry_cell_setting 'orthorhombic'
loop_
_space_group_symop_operation_xyz
x,y,z
-x,-y,z
-x,y,z
x,-y,z
1/2+x,1/2+y,z
1/2-x,1/2-y,z
1/2-x,1/2+y,z
1/2+x,1/2-y,z
loop_
_atom_site_type_symbol
_atom_site_label
_atom_site_fract_x
_atom_site_fract_y
_atom_site_fract_z
Si Si1 0.699432 0.702981 0.656190
Si Si2 0.193604 0.183096 0.427187
Si Si3 0.697204 0.887836 0.110663
Si Si4 0.800814 0.949078 0.918191
Si Si5 0.303973 0.297836 0.195433
Si Si6 0.195067 0.453359 0.280180
Si Si7 0.191786 0.919102 0.488712
Si Si8 0.797910 0.894491 0.715889
O O1 0.500000 0.701187 0.651890
O O2 0.750000 0.750000 0.703060
O O3 0.765118 0.701529 0.535961
O O4 0.752392 0.657257 0.711901
O O5 0.266185 0.195376 0.314267
O O6 0.200122 0.130709 0.444611
O O7 0.000000 0.196010 0.425330
O O8 0.500000 0.886737 0.110940
O O9 0.754206 0.837674 0.120145
O O10 0.763322 0.912749 0.214426
O O11 0.752399 0.918100 0.014778
O O12 0.743571 0.923421 0.813888
O O13 0.000000 0.950912 0.914048
O O14 0.741528 0.000000 0.926025
O O15 0.500000 0.299107 0.204168
O O16 0.250000 0.250000 0.157759
O O17 0.267232 0.500000 0.244318
O O18 0.219439 0.447983 0.402910
O O19 0.000000 0.454091 0.259776
O O20 0.255451 0.916541 0.606605
O O21 0.000000 0.932400 0.491897
O O22 0.000000 0.894335 0.714670
#
# Coordination Sequence:
#
# PCOD9349578 Si02
#       8
#     8   8   8   8   8   8   8   8
#     4   9  16  29  49  76 111 149 182 217 264 321
#     4   8  15  28  48  75 111 148 182 222 264 314
#     4  11  23  40  59  80 111 150 191 237 289 339
#     4  10  21  39  63  86 106 139 191 244 292 344
#     4  11  21  35  56  84 117 151 190 233 280 335
#     4  10  21  35  51  76 112 148 180 223 284 345
#     4   9  16  31  54  80 110 146 184 224 273 332
#     4   8  17  34  56  81 112 143 178 230 287 334
#
# _framework density 20.328823
#
# number of rings (size 3 to 8) (size 9 to 14) (size 15 to 20)
#    0.000    2.500    1.250    3.000    0.000    2.000 
#    0.000    6.250    0.000    1.500    0.000    0.000 
#    0.000    0.000    0.000    0.000    0.000    0.000 
#
# Total GULP energy -178394.141201 kJ/mol
# GULP energy per Si atom -5574.816913 kJ/mol
# Density = 2.028255 g / cm^3
# Si number density = 20.328823 Si / 1000 Ang^3
#
#
#
# Elastic Constant Matrix: (Units=GPa)
#
#
# Indices 1 2 3 4 5 6 
#
# 1 19.2277 21.9527 10.2112 0.0000 0.0000 0.0000
# 2 21.9527 159.1529 81.1062 0.0000 0.0000 0.0000
# 3 10.2112 81.1062 111.6011 0.0000 0.0000 0.0000
# 4 0.0000 0.0000 0.0000 12.6647 0.0000 0.0000
# 5 0.0000 0.0000 0.0000 0.0000 22.6278 0.0000
# 6 0.0000 0.0000 0.0000 0.0000 0.0000 16.4382
#
#
#
# Elastic Compliance Matrix: (Units=1/GPa)
#
#
# Indices 1 2 3 4 5 6 
#
# 1 0.061781 -0.008959 0.000858 0.000000 0.000000 0.000000
# 2 -0.008959 0.011278 -0.007377 0.000000 0.000000 0.000000
# 3 0.000858 -0.007377 0.014243 0.000000 0.000000 0.000000
# 4 0.000000 0.000000 0.000000 0.078959 0.000000 0.000000
# 5 0.000000 0.000000 0.000000 0.000000 0.044193 0.000000
# 6 0.000000 0.000000 0.000000 0.000000 0.000000 0.060834
#
#
# Mechanical properties :
#
#
# Convention : Reuss Voigt Hill
#
# Bulk Modulus (GPa) = 17.74705 57.39132 37.56918
# Shear Modulus (GPa) = 15.57498 22.12691 18.85095
#
# Velocity S-wave (km/s) = 2.77095 3.30275 3.04847
# Velocity P-wave (km/s) = 4.35735 6.54500 5.55983
#
# Compressibility (1/GPa) = 0.05634739
#
# Stress axis : x y z
#
# Youngs Moduli (GPa) = 16.18608 88.66548 70.20958
#
# Poissons Ratio (x) = 0.79437 -0.06025
# Poissons Ratio (y) = 0.14501 0.51792
# Poissons Ratio (z) = -0.01389 0.65407
#
# Static dielectric constant tensor:
#      x y z
#    x 1.714620 0.000000 0.000000 
#    y 0.000000 1.744710 0.000000 
#    z 0.000000 0.000000 1.732980 
# 
# From -- ./inp_files/11989.got.cif
#   From: 2010.05.17/outbox.cif.g08.bks.cpg/sg35_6_cif.got.tgz:11989.got - 2010.06.03 17:29:28.
