data_PCOD9349131
_publ_section_title
;
Structure prediction by ZEFSAII (Michael W. Deem and Ramdas Pophale) SiO2 
 PCOD9349131
Probable space group: C M M 2
;
_chemical_formula_sum "Si O2"
_cell_formula_units_Z 48
_cell_length_a 9.167936
_cell_length_b 15.508703
_cell_length_c 16.294871
_cell_angle_alpha 90.000000
_cell_angle_beta 90.000000
_cell_angle_gamma 90.000000
_cell_volume 2316.850328
_symmetry_space_group_name_H-M "C M M 2"
_symmetry_group_IT_number 35
_symmetry_cell_setting 'orthorhombic'
loop_
_space_group_symop_operation_xyz
x,y,z
-x,-y,z
-x,y,z
x,-y,z
1/2+x,1/2+y,z
1/2-x,1/2-y,z
1/2-x,1/2+y,z
1/2+x,1/2-y,z
loop_
_atom_site_type_symbol
_atom_site_label
_atom_site_fract_x
_atom_site_fract_y
_atom_site_fract_z
Si Si1 0.667051 0.605843 0.939740
Si Si2 0.833647 0.603438 0.459349
Si Si3 0.173550 0.841849 0.621621
Si Si4 0.169524 0.394327 0.103660
Si Si5 0.822224 0.599957 0.281796
Si Si6 0.337213 0.898366 0.780560
O O1 0.500000 0.633057 0.932255
O O2 0.668662 0.500000 0.939357
O O3 0.760108 0.637112 0.861935
O O4 0.736364 0.633240 0.026078
O O5 0.843578 0.500000 0.450830
O O6 0.729460 0.621566 0.535072
O O7 0.781113 0.637789 0.370467
O O8 0.000000 0.634860 0.476043
O O9 0.250000 0.750000 0.627747
O O10 0.237853 0.890329 0.700415
O O11 0.000000 0.838643 0.624280
O O12 0.172519 0.500000 0.106251
O O13 0.222377 0.363184 0.193461
O O14 0.000000 0.370367 0.092304
O O15 0.773248 0.500000 0.281654
O O16 0.000000 0.599278 0.281437
O O17 0.500000 0.861831 0.766872
O O18 0.353108 0.000000 0.795587
#
# Coordination Sequence:
#
# PCOD9349131 Si02
#       6
#     8   8   8   8   8   8
#     4   9  16  25  39  64  98 132 164 200 243 288
#     4   9  17  32  54  78 104 134 168 206 249 297
#     4  12  25  39  54  73  99 130 166 208 254 303
#     4   8  12  20  36  60  92 129 165 198 235 282
#     4   7  11  21  40  66  95 128 164 199 236 283
#     4  10  20  35  55  77 101 131 167 206 249 298
#
# _framework density 20.717783000000001
#
# number of rings (size 3 to 8) (size 9 to 14) (size 15 to 20)
#    0.000    2.833    0.000    5.000    0.000    5.333 
#    0.000    0.833    0.000    3.000    0.000    1.167 
#    0.000    2.667    0.000    0.000    0.000    0.000 
#
# Total GULP energy -133796.058530 kJ/mol
# GULP energy per Si atom -5574.835772 kJ/mol
# Density = 2.067063 g / cm^3
# Si number density = 20.717783 Si / 1000 Ang^3
#
#
#
# Elastic Constant Matrix: (Units=GPa)
#
#
# Indices 1 2 3 4 5 6 
#
# 1 148.3070 7.8324 104.7149 0.0000 0.0000 0.0000
# 2 7.8324 18.9127 4.7213 0.0000 0.0000 0.0000
# 3 104.7149 4.7213 210.3325 0.0000 0.0000 0.0000
# 4 0.0000 0.0000 0.0000 -42.1155 0.0000 0.0000
# 5 0.0000 0.0000 0.0000 0.0000 -30.7507 0.0000
# 6 0.0000 0.0000 0.0000 0.0000 0.0000 13.3161
#
#
#
# Elastic Compliance Matrix: (Units=1/GPa)
#
#
# Indices 1 2 3 4 5 6 
#
# 1 0.010573 -0.003082 -0.005195 0.000000 0.000000 0.000000
# 2 -0.003082 0.054071 0.000321 0.000000 0.000000 0.000000
# 3 -0.005195 0.000321 0.007333 0.000000 0.000000 0.000000
# 4 0.000000 0.000000 0.000000 -0.023744 0.000000 0.000000
# 5 0.000000 0.000000 0.000000 0.000000 -0.032520 0.000000
# 6 0.000000 0.000000 0.000000 0.000000 0.000000 0.075097
#
#
# Mechanical properties :
#
#
# Convention : Reuss Voigt Hill
#
# Bulk Modulus (GPa) = 17.83636 68.00994 42.92315
# Shear Modulus (GPa) = 39.86869 5.44222 22.65545
#
# Velocity S-wave (km/s) = 4.39152 1.62251 3.31044
# Velocity P-wave (km/s) = 5.86019 6.03392 5.94769
#
# Compressibility (1/GPa) = 0.05606526
#
# Stress axis : x y z
#
# Youngs Moduli (GPa) = 94.57641 18.49430 136.36128
#
# Poissons Ratio (x) = 0.05700 0.70838
# Poissons Ratio (y) = 0.29148 -0.04373
# Poissons Ratio (z) = 0.49131 -0.00593
#
# Static dielectric constant tensor:
#      x y z
#    x 1.692700 0.000000 0.000000 
#    y 0.000000 1.853970 0.000000 
#    z 0.000000 0.000000 1.826530 
# 
# From -- ./inp_files/15117.got.cif
#   From: 2010.05.17/outbox.cif.g08.bks.cpg/sg35_8_cif.got.tgz:15117.got - 2010.06.03 17:29:28.
