data_PCOD9349327
_publ_section_title
;
Structure prediction by ZEFSAII (Michael W. Deem and Ramdas Pophale) SiO2 
 PCOD9349327
Probable space group: C M M 2
;
_chemical_formula_sum "Si O2"
_cell_formula_units_Z 64
_cell_length_a 8.737801
_cell_length_b 30.243078
_cell_length_c 12.498966
_cell_angle_alpha 90.000000
_cell_angle_beta 90.000000
_cell_angle_gamma 90.000000
_cell_volume 3302.951722
_symmetry_space_group_name_H-M "C M M 2"
_symmetry_group_IT_number 35
_symmetry_cell_setting 'orthorhombic'
loop_
_space_group_symop_operation_xyz
x,y,z
-x,-y,z
-x,y,z
x,-y,z
1/2+x,1/2+y,z
1/2-x,1/2-y,z
1/2-x,1/2+y,z
1/2+x,1/2-y,z
loop_
_atom_site_type_symbol
_atom_site_label
_atom_site_fract_x
_atom_site_fract_y
_atom_site_fract_z
Si Si1 0.320280 0.568307 0.230730
Si Si2 0.820976 0.660237 0.280977
Si Si3 0.317441 0.951070 0.998689
Si Si4 0.315450 0.048105 0.460488
Si Si5 0.681876 0.293496 0.095928
Si Si6 0.181641 0.645275 0.527290
Si Si7 0.183083 0.136984 0.913448
Si Si8 0.816887 0.799482 0.719945
O O1 0.500000 0.559127 0.230520
O O2 0.285857 0.620266 0.242366
O O3 0.248930 0.553094 0.118939
O O4 0.244416 0.549488 0.338548
O O5 0.770671 0.700388 0.207181
O O6 0.800166 0.664725 0.407648
O O7 0.000000 0.649065 0.263086
O O8 0.500000 0.947796 0.005772
O O9 0.276524 0.000000 0.957425
O O10 0.256548 0.910981 0.926865
O O11 0.500000 0.050321 0.456495
O O12 0.265886 0.093623 0.518664
O O13 0.271652 0.000000 0.507110
O O14 0.500000 0.289861 0.110319
O O15 0.750000 0.250000 0.041120
O O16 0.714511 0.335365 0.021067
O O17 0.268388 0.675258 0.611982
O O18 0.000000 0.645363 0.552359
O O19 0.235471 0.167981 0.815917
O O20 0.000000 0.131574 0.904768
O O21 0.750000 0.750000 0.725868
O O22 0.000000 0.795857 0.726355
#
# Coordination Sequence:
#
# PCOD9349327 Si02
#       8
#     8   8   8   8   8   8   8   8
#     4  11  20  31  51  82 120 161 200 241 290 347
#     4  10  20  36  57  83 118 158 197 243 296 350
#     4  11  23  37  57  86 119 159 203 242 288 348
#     4   9  18  34  56  83 118 160 203 244 289 346
#     4  11  22  36  57  86 118 154 193 236 296 363
#     4   9  20  38  60  87 119 154 196 246 297 347
#     4  10  23  42  62  87 118 152 195 247 299 351
#     4  11  24  43  67  91 115 149 197 248 300 357
#
# _framework density 19.376607
#
# number of rings (size 3 to 8) (size 9 to 14) (size 15 to 20)
#    0.000    1.750    1.250    4.125    0.000    7.250 
#    0.000    0.625    0.000    2.250    0.000    0.000 
#    0.000    0.000    0.000    0.000    0.000    0.000 
#
# Total GULP energy -178622.830646 kJ/mol
# GULP energy per Si atom -5581.963458 kJ/mol
# Density = 1.933250 g / cm^3
# Si number density = 19.376607 Si / 1000 Ang^3
#
#
#
# Elastic Constant Matrix: (Units=GPa)
#
#
# Indices 1 2 3 4 5 6 
#
# 1 37.3977 42.8885 32.9773 0.0000 0.0000 0.0000
# 2 42.8885 153.8657 57.3686 0.0000 0.0000 0.0000
# 3 32.9773 57.3686 73.5377 0.0000 0.0000 0.0000
# 4 0.0000 0.0000 0.0000 11.3645 0.0000 0.0000
# 5 0.0000 0.0000 0.0000 0.0000 22.2962 0.0000
# 6 0.0000 0.0000 0.0000 0.0000 0.0000 28.0280
#
#
#
# Elastic Compliance Matrix: (Units=1/GPa)
#
#
# Indices 1 2 3 4 5 6 
#
# 1 0.050226 -0.007900 -0.016360 0.000000 0.000000 0.000000
# 2 -0.007900 0.010408 -0.004576 0.000000 0.000000 0.000000
# 3 -0.016360 -0.004576 0.024505 0.000000 0.000000 0.000000
# 4 0.000000 0.000000 0.000000 0.087993 0.000000 0.000000
# 5 0.000000 0.000000 0.000000 0.000000 0.044851 0.000000
# 6 0.000000 0.000000 0.000000 0.000000 0.000000 0.035679
#
#
# Mechanical properties :
#
#
# Convention : Reuss Voigt Hill
#
# Bulk Modulus (GPa) = 36.40975 59.02999 47.71987
# Shear Modulus (GPa) = 15.60107 21.10885 18.35496
#
# Velocity S-wave (km/s) = 2.84059 3.30419 3.08112
# Velocity P-wave (km/s) = 5.43967 6.71473 6.11055
#
# Compressibility (1/GPa) = 0.02746517
#
# Stress axis : x y z
#
# Youngs Moduli (GPa) = 19.90994 96.08373 40.80741
#
# Poissons Ratio (x) = 0.75907 0.66762
# Poissons Ratio (y) = 0.15729 0.18675
# Poissons Ratio (z) = 0.32573 0.43973
#
# Static dielectric constant tensor:
#      x y z
#    x 1.660870 0.000000 0.000000 
#    y 0.000000 1.767000 0.000000 
#    z 0.000000 0.000000 1.664660 
# 
# From -- ./inp_files/11928.got.cif
#   From: 2010.05.17/outbox.cif.g08.bks.cpg/sg35_6_cif.got.tgz:11928.got - 2010.06.03 17:29:28.
