data_PCOD9349264
_publ_section_title
;
Structure prediction by ZEFSAII (Michael W. Deem and Ramdas Pophale) SiO2 
 PCOD9349264
Probable space group: C M M 2
;
_chemical_formula_sum "Si O2"
_cell_formula_units_Z 58
_cell_length_a 9.063923
_cell_length_b 28.968127
_cell_length_c 12.445984
_cell_angle_alpha 90.000000
_cell_angle_beta 90.000000
_cell_angle_gamma 90.000000
_cell_volume 3267.878203
_symmetry_space_group_name_H-M "C M M 2"
_symmetry_group_IT_number 35
_symmetry_cell_setting 'orthorhombic'
loop_
_space_group_symop_operation_xyz
x,y,z
-x,-y,z
-x,y,z
x,-y,z
1/2+x,1/2+y,z
1/2-x,1/2-y,z
1/2-x,1/2+y,z
1/2+x,1/2-y,z
loop_
_atom_site_type_symbol
_atom_site_label
_atom_site_fract_x
_atom_site_fract_y
_atom_site_fract_z
Si Si1 0.823591 0.299364 0.651510
Si Si2 0.668800 0.055430 0.888831
Si Si3 0.500000 0.000000 0.254137
Si Si4 0.825716 0.121953 0.043486
Si Si5 0.177475 0.615384 0.501026
Si Si6 0.168711 0.944618 0.671667
Si Si7 0.663008 0.902913 0.256650
Si Si8 0.322704 0.800127 0.898649
O O1 0.750000 0.250000 0.631463
O O2 0.782024 0.337662 0.563669
O O3 0.787182 0.313886 0.774446
O O4 0.000000 0.293991 0.647214
O O5 0.500000 0.071420 0.903752
O O6 0.729978 0.069153 0.772412
O O7 0.669278 0.000000 0.895588
O O8 0.772887 0.076982 0.977856
O O9 0.373292 0.041976 0.254516
O O10 0.770686 0.113975 0.164235
O O11 0.000000 0.128158 0.037700
O O12 0.744507 0.163829 0.982419
O O13 0.260889 0.575377 0.564591
O O14 0.211684 0.612392 0.375271
O O15 0.000000 0.608952 0.511031
O O16 0.000000 0.928902 0.686778
O O17 0.168369 0.000000 0.668177
O O18 0.500000 0.881515 0.236000
O O19 0.500000 0.797802 0.908590
O O20 0.250000 0.750000 0.914875
#
# Coordination Sequence:
#
# PCOD9349264 Si02
#       8
#     8   8   2   8   8   8   8   8
#     4   9  19  35  57  88 115 145 183 229 284 345
#     4  10  21  36  55  78 107 146 188 231 285 350
#     4   8  20  40  62  80 106 160 210 256 284 338
#     4  12  24  37  56  83 115 148 190 243 301 359
#     4  10  20  35  59  82 110 147 196 240 282 342
#     4  10  21  34  50  79 115 146 179 225 286 350
#     4   9  21  38  59  80 109 151 205 243 285 339
#     4  10  20  37  61  87 119 152 192 237 291 355
#
# _framework density 17.748519999999999
#
# number of rings (size 3 to 8) (size 9 to 14) (size 15 to 20)
#    0.414    1.655    0.000    3.310    1.931    4.414 
#    0.000    0.690    0.000    1.655    0.000    0.000 
#    0.000    0.000    0.000    0.000    0.000    0.000 
#
# Total GULP energy -161511.983434 kJ/mol
# GULP energy per Si atom -5569.378739 kJ/mol
# Density = 1.770812 g / cm^3
# Si number density = 17.748520 Si / 1000 Ang^3
#
#
#
# Elastic Constant Matrix: (Units=GPa)
#
#
# Indices 1 2 3 4 5 6 
#
# 1 75.9170 35.2751 59.9386 0.0000 0.0000 0.0000
# 2 35.2751 73.2584 48.6191 0.0000 0.0000 0.0000
# 3 59.9386 48.6191 117.1477 0.0000 0.0000 0.0000
# 4 0.0000 0.0000 0.0000 42.1159 0.0000 0.0000
# 5 0.0000 0.0000 0.0000 0.0000 1.4177 0.0000
# 6 0.0000 0.0000 0.0000 0.0000 0.0000 27.9394
#
#
#
# Elastic Compliance Matrix: (Units=1/GPa)
#
#
# Indices 1 2 3 4 5 6 
#
# 1 0.023142 -0.004534 -0.009959 0.000000 0.000000 0.000000
# 2 -0.004534 0.019728 -0.005868 0.000000 0.000000 0.000000
# 3 -0.009959 -0.005868 0.016067 0.000000 0.000000 0.000000
# 4 0.000000 0.000000 0.000000 0.023744 0.000000 0.000000
# 5 0.000000 0.000000 0.000000 0.000000 0.705361 0.000000
# 6 0.000000 0.000000 0.000000 0.000000 0.000000 0.035792
#
#
# Mechanical properties :
#
#
# Convention : Reuss Voigt Hill
#
# Bulk Modulus (GPa) = 54.89807 61.55430 58.22619
# Shear Modulus (GPa) = 5.74300 22.46062 14.10181
#
# Velocity S-wave (km/s) = 1.80077 3.56124 2.82181
# Velocity P-wave (km/s) = 5.94323 7.18794 6.59502
#
# Compressibility (1/GPa) = 0.01821558
#
# Stress axis : x y z
#
# Youngs Moduli (GPa) = 43.21212 50.69044 62.23978
#
# Poissons Ratio (x) = 0.22982 0.61983
# Poissons Ratio (y) = 0.19591 0.36521
# Poissons Ratio (z) = 0.43034 0.29744
#
# Static dielectric constant tensor:
#      x y z
#    x 1.599200 0.000000 0.000000 
#    y 0.000000 1.608690 0.000000 
#    z 0.000000 0.000000 1.621420 
# 
# From -- ./inp_files/11610.got.cif
#   From: 2010.05.17/outbox.cif.g08.bks.cpg/sg35_6_cif.got.tgz:11610.got - 2010.06.03 17:29:28.
