data_PCOD9349792
_publ_section_title
;
Structure prediction by ZEFSAII (Michael W. Deem and Ramdas Pophale) SiO2 
 PCOD9349792
Probable space group: C M M 2
;
_chemical_formula_sum "Si O2"
_cell_formula_units_Z 64
_cell_length_a 14.913363
_cell_length_b 21.824878
_cell_length_c 9.897906
_cell_angle_alpha 90.000000
_cell_angle_beta 90.000000
_cell_angle_gamma 90.000000
_cell_volume 3221.593488
_symmetry_space_group_name_H-M "C M M 2"
_symmetry_group_IT_number 35
_symmetry_cell_setting 'orthorhombic'
loop_
_space_group_symop_operation_xyz
x,y,z
-x,-y,z
-x,y,z
x,-y,z
1/2+x,1/2+y,z
1/2-x,1/2-y,z
1/2-x,1/2+y,z
1/2+x,1/2-y,z
loop_
_atom_site_type_symbol
_atom_site_label
_atom_site_fract_x
_atom_site_fract_y
_atom_site_fract_z
Si Si1 0.101421 0.775019 0.017190
Si Si2 0.725280 0.375352 0.146809
Si Si3 0.603637 0.167228 0.811197
Si Si4 0.643739 0.759191 0.555755
Si Si5 0.744582 0.570561 0.871725
Si Si6 0.901995 0.316009 0.267312
Si Si7 0.396866 0.624888 0.665041
Si Si8 0.604800 0.572270 0.380107
O O1 0.179346 0.821721 0.057295
O O2 0.092895 0.733827 0.149711
O O3 0.000000 0.800628 0.987751
O O4 0.126977 0.728229 0.897778
O O5 0.818838 0.357522 0.218348
O O6 0.658731 0.391806 0.267402
O O7 0.732512 0.427435 0.033569
O O8 0.500000 0.153878 0.841580
O O9 0.616453 0.186832 0.656892
O O10 0.666701 0.110668 0.845432
O O11 0.750000 0.750000 0.554558
O O12 0.614762 0.779508 0.406500
O O13 0.606031 0.695841 0.617707
O O14 0.749243 0.500000 0.826423
O O15 0.665958 0.605794 0.789181
O O16 0.000000 0.347236 0.275526
O O17 0.500000 0.608446 0.694648
O O18 0.365207 0.588678 0.531411
O O19 0.500000 0.589337 0.372067
O O20 0.613405 0.500000 0.357534
#
# Coordination Sequence:
#
# PCOD9349792 Si02
#       8
#     8   8   8   8   8   8   8   8
#     4  10  21  38  62  94 129 162 202 260 329 394
#     4  12  23  38  65  94 130 173 217 269 326 382
#     4  11  24  43  65  93 128 165 210 268 331 389
#     4  12  22  38  67 101 132 164 202 265 334 399
#     4  12  27  44  64  91 127 177 232 272 317 384
#     4  11  23  38  59  95 136 167 203 253 321 395
#     4  11  23  42  67  97 135 174 214 266 332 397
#     4  10  22  41  63  91 130 174 219 267 320 385
#
# _framework density 19.865943999999999
#
# number of rings (size 3 to 8) (size 9 to 14) (size 15 to 20)
#    0.000    0.875    2.500    5.625    0.000    5.000 
#    0.000    0.000    0.000    1.125    0.000    0.000 
#    0.000    0.000    0.000    0.000    0.000    0.000 
#
# Total GULP energy -178798.860436 kJ/mol
# GULP energy per Si atom -5587.464389 kJ/mol
# Density = 1.982073 g / cm^3
# Si number density = 19.865944 Si / 1000 Ang^3
#
#
#
# Elastic Constant Matrix: (Units=GPa)
#
#
# Indices 1 2 3 4 5 6 
#
# 1 102.4789 29.0253 40.8767 0.0000 0.0000 0.0000
# 2 29.0253 48.1238 35.6019 0.0000 0.0000 0.0000
# 3 40.8767 35.6019 116.1519 0.0000 0.0000 0.0000
# 4 0.0000 0.0000 0.0000 25.7641 0.0000 0.0000
# 5 0.0000 0.0000 0.0000 0.0000 32.3337 0.0000
# 6 0.0000 0.0000 0.0000 0.0000 0.0000 28.5246
#
#
#
# Elastic Compliance Matrix: (Units=1/GPa)
#
#
# Indices 1 2 3 4 5 6 
#
# 1 0.012379 -0.005488 -0.002674 0.000000 0.000000 0.000000
# 2 -0.005488 0.029306 -0.007051 0.000000 0.000000 0.000000
# 3 -0.002674 -0.007051 0.011712 0.000000 0.000000 0.000000
# 4 0.000000 0.000000 0.000000 0.038814 0.000000 0.000000
# 5 0.000000 0.000000 0.000000 0.000000 0.030927 0.000000
# 6 0.000000 0.000000 0.000000 0.000000 0.000000 0.035057
#
#
# Mechanical properties :
#
#
# Convention : Reuss Voigt Hill
#
# Bulk Modulus (GPa) = 43.53494 53.08470 48.30982
# Shear Modulus (GPa) = 25.47380 28.07453 26.77416
#
# Velocity S-wave (km/s) = 3.58479 3.76333 3.67514
# Velocity P-wave (km/s) = 6.25269 6.75744 6.50996
#
# Compressibility (1/GPa) = 0.02297006
#
# Stress axis : x y z
#
# Youngs Moduli (GPa) = 80.78052 34.12241 85.38274
#
# Poissons Ratio (x) = 0.18726 0.22835
# Poissons Ratio (y) = 0.44331 0.60207
# Poissons Ratio (z) = 0.21605 0.24061
#
# Static dielectric constant tensor:
#      x y z
#    x 1.735090 0.000000 0.000000 
#    y 0.000000 1.686820 0.000000 
#    z 0.000000 0.000000 1.701670 
# 
# From -- ./inp_files/7832.got.cif
#   From: 2010.05.17/outbox.cif.g08.bks.cpg/sg35_4_cif.got.tgz:7832.got - 2010.06.03 17:29:28.
