data_PCOD9349059
_publ_section_title
;
Structure prediction by ZEFSAII (Michael W. Deem and Ramdas Pophale) SiO2 
 PCOD9349059
Probable space group: C M M 2
;
_chemical_formula_sum "Si O2"
_cell_formula_units_Z 48
_cell_length_a 28.976115
_cell_length_b 8.656881
_cell_length_c 10.543198
_cell_angle_alpha 90.000000
_cell_angle_beta 90.000000
_cell_angle_gamma 90.000000
_cell_volume 2644.685090
_symmetry_space_group_name_H-M "C M M 2"
_symmetry_group_IT_number 35
_symmetry_cell_setting 'orthorhombic'
loop_
_space_group_symop_operation_xyz
x,y,z
-x,-y,z
-x,y,z
x,-y,z
1/2+x,1/2+y,z
1/2-x,1/2-y,z
1/2-x,1/2+y,z
1/2+x,1/2-y,z
loop_
_atom_site_type_symbol
_atom_site_label
_atom_site_fract_x
_atom_site_fract_y
_atom_site_fract_z
Si Si1 0.644490 0.185085 0.078060
Si Si2 0.198164 0.313310 0.823505
Si Si3 0.051923 0.686230 0.453387
Si Si4 0.147215 0.313187 0.566632
Si Si5 0.947287 0.815292 0.169841
Si Si6 0.698535 0.684310 0.319996
O O1 0.591591 0.239176 0.083240
O O2 0.669451 0.257304 0.199963
O O3 0.646398 0.000000 0.087960
O O4 0.671123 0.233427 0.950770
O O5 0.200275 0.500000 0.822485
O O6 0.250000 0.250000 0.822122
O O7 0.170056 0.263286 0.698527
O O8 0.053104 0.500000 0.439422
O O9 0.093625 0.730682 0.545998
O O10 0.060070 0.758348 0.314578
O O11 0.000000 0.729757 0.494514
O O12 0.149840 0.500000 0.561006
O O13 0.175292 0.245798 0.448439
O O14 0.000000 0.773793 0.135509
O O15 0.942750 0.000000 0.166722
O O16 0.699551 0.500000 0.321183
O O17 0.750000 0.750000 0.310315
#
# Coordination Sequence:
#
# PCOD9349059 Si02
#       6
#     8   8   8   8   8   8
#     4  11  22  38  58  83 114 150 192 237 285 340
#     4  10  23  40  58  81 112 152 194 236 285 341
#     4   9  17  31  55  84 114 149 186 227 280 336
#     4  10  20  37  58  84 116 148 187 235 284 340
#     4  10  20  34  55  85 118 149 187 234 283 338
#     4  12  24  37  56  83 112 145 188 239 290 340
#
# _framework density 18.149609999999999
#
# number of rings (size 3 to 8) (size 9 to 14) (size 15 to 20)
#    0.000    1.667    1.667    3.500    0.000    5.667 
#    0.000    0.833    0.000    3.000    0.000    2.333 
#    0.000    0.000    0.000    0.000    0.000    0.000 
#
# Total GULP energy -134058.949675 kJ/mol
# GULP energy per Si atom -5585.789570 kJ/mol
# Density = 1.810830 g / cm^3
# Si number density = 18.149610 Si / 1000 Ang^3
#
#
#
# Elastic Constant Matrix: (Units=GPa)
#
#
# Indices 1 2 3 4 5 6 
#
# 1 171.4105 39.1103 83.1200 0.0000 0.0000 0.0000
# 2 39.1103 34.0299 33.2933 0.0000 0.0000 0.0000
# 3 83.1200 33.2933 135.7628 0.0000 0.0000 0.0000
# 4 0.0000 0.0000 0.0000 0.7056 0.0000 0.0000
# 5 0.0000 0.0000 0.0000 0.0000 33.8405 0.0000
# 6 0.0000 0.0000 0.0000 0.0000 0.0000 58.1836
#
#
#
# Elastic Compliance Matrix: (Units=1/GPa)
#
#
# Indices 1 2 3 4 5 6 
#
# 1 0.009349 -0.006769 -0.004064 0.000000 0.000000 0.000000
# 2 -0.006769 0.043562 -0.006539 0.000000 0.000000 0.000000
# 3 -0.004064 -0.006539 0.011457 0.000000 0.000000 0.000000
# 4 0.000000 0.000000 0.000000 1.417201 0.000000 0.000000
# 5 0.000000 0.000000 0.000000 0.000000 0.029550 0.000000
# 6 0.000000 0.000000 0.000000 0.000000 0.000000 0.017187
#
#
# Mechanical properties :
#
#
# Convention : Reuss Voigt Hill
#
# Bulk Modulus (GPa) = 33.75426 72.47228 53.11327
# Shear Modulus (GPa) = 3.17879 30.92458 17.05169
#
# Velocity S-wave (km/s) = 1.32485 4.13227 3.06846
# Velocity P-wave (km/s) = 4.58023 7.92368 6.47160
#
# Compressibility (1/GPa) = 0.02962589
#
# Stress axis : x y z
#
# Youngs Moduli (GPa) = 106.96260 22.95561 87.27948
#
# Poissons Ratio (x) = 0.15538 0.35470
# Poissons Ratio (y) = 0.72400 0.57070
# Poissons Ratio (z) = 0.43470 0.15010
#
# Static dielectric constant tensor:
#      x y z
#    x 1.639160 0.000000 0.000000 
#    y 0.000000 1.609660 0.000000 
#    z 0.000000 0.000000 1.589910 
# 
# From -- ./inp_files/5313.got.cif
#   From: 2010.05.17/outbox.cif.g08.bks.cpg/sg35_3_cif.got.tgz:5313.got - 2010.06.03 17:29:28.
