data_PCOD9349408
_publ_section_title
;
Structure prediction by ZEFSAII (Michael W. Deem and Ramdas Pophale) SiO2 
 PCOD9349408
Probable space group: C M M 2
;
_chemical_formula_sum "Si O2"
_cell_formula_units_Z 36
_cell_length_a 15.082929
_cell_length_b 9.482687
_cell_length_c 13.413251
_cell_angle_alpha 90.000000
_cell_angle_beta 90.000000
_cell_angle_gamma 90.000000
_cell_volume 1918.452956
_symmetry_space_group_name_H-M "C M M 2"
_symmetry_group_IT_number 35
_symmetry_cell_setting 'orthorhombic'
loop_
_space_group_symop_operation_xyz
x,y,z
-x,-y,z
-x,y,z
x,-y,z
1/2+x,1/2+y,z
1/2-x,1/2-y,z
1/2-x,1/2+y,z
1/2+x,1/2-y,z
loop_
_atom_site_type_symbol
_atom_site_label
_atom_site_fract_x
_atom_site_fract_y
_atom_site_fract_z
Si Si1 0.395097 0.000000 0.057820
Si Si2 0.401749 0.500000 0.320170
Si Si3 0.294383 0.000000 0.265302
Si Si4 0.500000 0.669519 0.769372
Si Si5 0.500000 0.151151 0.579679
Si Si6 0.846533 0.723769 0.431905
Si Si7 0.840351 0.662746 0.872672
O O1 0.500000 0.000000 0.075011
O O2 0.342763 0.000000 0.160466
O O3 0.368664 0.132204 0.987438
O O4 0.500000 0.500000 0.273307
O O5 0.312445 0.500000 0.253450
O O6 0.390464 0.365155 0.390720
O O7 0.324627 0.869999 0.334684
O O8 0.500000 0.500000 0.780750
O O9 0.500000 0.718362 0.654502
O O10 0.584789 0.745531 0.818958
O O11 0.414352 0.157335 0.508901
O O12 0.500000 0.000000 0.634736
O O13 0.750000 0.750000 0.479616
O O14 0.832958 0.500000 0.832277
O O15 0.750000 0.750000 0.867119
#
# Coordination Sequence:
#
# PCOD9349408 Si02
#       7
#     4   4   4   4   4   8   8
#     4  10  22  40  72  91 134 171 226 268 330 406
#     4  10  20  36  62  83 138 175 210 279 313 365
#     4  10  22  40  62  96 124 188 224 251 321 391
#     4  12  26  44  70 100 127 171 227 279 348 416
#     4  12  24  40  64  94 127 173 225 267 328 408
#     4  10  22  39  60  90 134 174 219 267 317 377
#     4  10  21  44  70  98 134 174 210 283 341 396
#
# _framework density 18.76512
#
# number of rings (size 3 to 8) (size 9 to 14) (size 15 to 20)
#    0.667    0.889    3.333    1.667    3.111    3.556 
#    0.000    2.222    4.889    0.000    0.000    0.000 
#    0.000    0.000    0.000    0.000    0.000    0.000 
#
# Total GULP energy -100345.759412 kJ/mol
# GULP energy per Si atom -5574.764412 kJ/mol
# Density = 1.872241 g / cm^3
# Si number density = 18.765120 Si / 1000 Ang^3
#
#
#
# Elastic Constant Matrix: (Units=GPa)
#
#
# Indices 1 2 3 4 5 6 
#
# 1 204.3845 63.1689 67.9163 0.0000 0.0000 0.0000
# 2 63.1689 155.6688 36.9560 0.0000 0.0000 0.0000
# 3 67.9163 36.9560 84.1828 0.0000 0.0000 0.0000
# 4 0.0000 0.0000 0.0000-4658.2781 0.0000 0.0000
# 5 0.0000 0.0000 0.0000 0.0000 -35.1316 0.0000
# 6 0.0000 0.0000 0.0000 0.0000 0.0000 118.7316
#
#
#
# Elastic Compliance Matrix: (Units=1/GPa)
#
#
# Indices 1 2 3 4 5 6 
#
# 1 0.007061 -0.001689 -0.004956 0.000000 0.000000 0.000000
# 2 -0.001689 0.007575 -0.001963 0.000000 0.000000 0.000000
# 3 -0.004956 -0.001963 0.016739 0.000000 0.000000 0.000000
# 4 0.000000 0.000000 0.000000 -0.000215 0.000000 0.000000
# 5 0.000000 0.000000 0.000000 0.000000 -0.028464 0.000000
# 6 0.000000 0.000000 0.000000 0.000000 0.000000 0.008422
#
#
# Mechanical properties :
#
#
# Convention : Reuss Voigt Hill
#
# Bulk Modulus (GPa) = 70.61898 86.70207 78.66052
# Shear Modulus (GPa) = 151.26968 -896.52261 -372.62647
#
# Velocity S-wave (km/s) = 8.98817 -21.88144 -14.10692
# Velocity P-wave (km/s) = 12.05948 24.33295 14.94425
#
# Compressibility (1/GPa) = 0.01416050
#
# Stress axis : x y z
#
# Youngs Moduli (GPa) = 141.61359 132.00843 59.74225
#
# Poissons Ratio (x) = 0.22297 0.29605
# Poissons Ratio (y) = 0.23919 0.11727
# Poissons Ratio (z) = 0.70177 0.25911
#
# Static dielectric constant tensor:
#      x y z
#    x 1.651530 0.000000 0.000000 
#    y 0.000000 12.906130 0.000000 
#    z 0.000000 0.000000 1.610800 
# 
# From -- ./inp_files/16583.got.cif
#   From: 2010.05.17/outbox.cif.g08.bks.cpg/sg35_9_cif.got.tgz:16583.got - 2010.06.03 17:29:28.
