data_PCOD9349576
_publ_section_title
;
Structure prediction by ZEFSAII (Michael W. Deem and Ramdas Pophale) SiO2 
 PCOD9349576
Probable space group: C M M 2
;
_chemical_formula_sum "Si O2"
_cell_formula_units_Z 56
_cell_length_a 19.426678
_cell_length_b 15.378874
_cell_length_c 8.561344
_cell_angle_alpha 90.000000
_cell_angle_beta 90.000000
_cell_angle_gamma 90.000000
_cell_volume 2557.790842
_symmetry_space_group_name_H-M "C M M 2"
_symmetry_group_IT_number 35
_symmetry_cell_setting 'orthorhombic'
loop_
_space_group_symop_operation_xyz
x,y,z
-x,-y,z
-x,y,z
x,-y,z
1/2+x,1/2+y,z
1/2-x,1/2-y,z
1/2-x,1/2+y,z
1/2+x,1/2-y,z
loop_
_atom_site_type_symbol
_atom_site_label
_atom_site_fract_x
_atom_site_fract_y
_atom_site_fract_z
Si Si1 0.178165 0.274089 0.289010
Si Si2 0.365795 0.896567 0.037195
Si Si3 0.924492 0.101634 0.834300
Si Si4 0.421994 0.316083 0.516119
Si Si5 0.219911 0.895205 0.874021
Si Si6 0.283322 0.903486 0.560275
Si Si7 0.575623 0.863940 0.706464
O O1 0.250000 0.250000 0.204598
O O2 0.127857 0.332113 0.182608
O O3 0.134232 0.200471 0.381117
O O4 0.208655 0.339463 0.418537
O O5 0.375560 0.000000 0.070539
O O6 0.286680 0.883910 0.979346
O O7 0.412789 0.868696 0.891768
O O8 0.912955 0.109168 0.646472
O O9 0.855864 0.139297 0.916314
O O10 0.000000 0.140815 0.868253
O O11 0.928330 0.000000 0.875716
O O12 0.500000 0.323047 0.451906
O O13 0.419951 0.231310 0.629367
O O14 0.238614 0.863410 0.700287
O O15 0.213814 0.000000 0.859351
O O16 0.359390 0.911665 0.633466
O O17 0.258611 0.000000 0.516236
O O18 0.500000 0.898285 0.668401
#
# Coordination Sequence:
#
# PCOD9349576 Si02
#       7
#     8   8   8   8   8   8   8
#     4  11  22  34  49  72 101 138 176 208 250 301
#     4  10  21  35  51  74 106 140 173 210 247 292
#     4   9  16  28  51  80 104 129 165 210 258 306
#     4   9  19  35  53  77 107 132 163 212 261 303
#     4   8  15  29  49  73  97 122 159 208 254 292
#     4   9  17  31  52  74  97 127 165 211 256 300
#     4   9  18  33  54  79 105 133 165 204 253 306
#
# _framework density 21.893894
#
# number of rings (size 3 to 8) (size 9 to 14) (size 15 to 20)
#    0.000    2.714    0.000    2.571    0.000    2.857 
#    0.000    2.143    0.000    3.429    0.000    1.000 
#    0.000   11.429    0.000    0.000    0.000    0.000 
#
# Total GULP energy -156014.363799 kJ/mol
# GULP energy per Si atom -5571.941564 kJ/mol
# Density = 2.184406 g / cm^3
# Si number density = 21.893894 Si / 1000 Ang^3
#
#
#
# Elastic Constant Matrix: (Units=GPa)
#
#
# Indices 1 2 3 4 5 6 
#
# 1 123.0299 -5.8972 -17.7288 0.0000 0.0000 0.0000
# 2 -5.8972 25.1266 -1.5313 0.0000 0.0000 0.0000
# 3 -17.7288 -1.5313 10.8326 0.0000 0.0000 0.0000
# 4 0.0000 0.0000 0.0000 11.0513 0.0000 0.0000
# 5 0.0000 0.0000 0.0000 0.0000 14.9244 0.0000
# 6 0.0000 0.0000 0.0000 0.0000 0.0000 15.4362
#
#
#
# Elastic Compliance Matrix: (Units=1/GPa)
#
#
# Indices 1 2 3 4 5 6 
#
# 1 0.010967 0.003700 0.018472 0.000000 0.000000 0.000000
# 2 0.003700 0.041392 0.011906 0.000000 0.000000 0.000000
# 3 0.018472 0.011906 0.124229 0.000000 0.000000 0.000000
# 4 0.000000 0.000000 0.000000 0.090487 0.000000 0.000000
# 5 0.000000 0.000000 0.000000 0.000000 0.067004 0.000000
# 6 0.000000 0.000000 0.000000 0.000000 0.000000 0.064783
#
#
# Mechanical properties :
#
#
# Convention : Reuss Voigt Hill
#
# Bulk Modulus (GPa) = 4.08587 12.07492 8.08040
# Shear Modulus (GPa) = 12.12747 20.55883 16.34315
#
# Velocity S-wave (km/s) = 2.35610 3.06767 2.73513
# Velocity P-wave (km/s) = 3.04498 4.25143 3.69774
#
# Compressibility (1/GPa) = 0.24474588
#
# Stress axis : x y z
#
# Youngs Moduli (GPa) = 91.17972 24.15899 8.04967
#
# Poissons Ratio (x) = -0.08938 -0.14870
# Poissons Ratio (y) = -0.33735 -0.09584
# Poissons Ratio (z) = -1.68430 -0.28765
#
# Static dielectric constant tensor:
#      x y z
#    x 1.858620 0.000000 0.000000 
#    y 0.000000 1.868760 0.000000 
#    z 0.000000 0.000000 1.783910 
# 
# From -- ./inp_files/9292.got.cif
#   From: 2010.05.17/outbox.cif.g08.bks.cpg/sg35_5_cif.got.tgz:9292.got - 2010.06.03 17:29:28.
