data_PCOD9349080
_publ_section_title
;
Structure prediction by ZEFSAII (Michael W. Deem and Ramdas Pophale) SiO2 
 PCOD9349080
Probable space group: C M M 2
;
_chemical_formula_sum "Si O2"
_cell_formula_units_Z 64
_cell_length_a 30.188012
_cell_length_b 8.635193
_cell_length_c 12.630074
_cell_angle_alpha 90.000000
_cell_angle_beta 90.000000
_cell_angle_gamma 90.000000
_cell_volume 3292.398974
_symmetry_space_group_name_H-M "C M M 2"
_symmetry_group_IT_number 35
_symmetry_cell_setting 'orthorhombic'
loop_
_space_group_symop_operation_xyz
x,y,z
-x,-y,z
-x,y,z
x,-y,z
1/2+x,1/2+y,z
1/2-x,1/2-y,z
1/2-x,1/2+y,z
1/2+x,1/2-y,z
loop_
_atom_site_type_symbol
_atom_site_label
_atom_site_fract_x
_atom_site_fract_y
_atom_site_fract_z
Si Si1 0.113332 0.812595 0.114980
Si Si2 0.795943 0.685342 0.571731
Si Si3 0.551283 0.313468 0.310021
Si Si4 0.091680 0.680618 0.745587
Si Si5 0.106132 0.684737 0.504903
Si Si6 0.183215 0.181422 0.801233
Si Si7 0.296611 0.184196 0.033079
Si Si8 0.951903 0.183351 0.929137
O O1 0.083166 0.761817 0.213739
O O2 0.116821 0.000000 0.117335
O O3 0.162016 0.742972 0.102328
O O4 0.086059 0.768725 0.009970
O O5 0.795092 0.500000 0.571048
O O6 0.750000 0.750000 0.525899
O O7 0.842018 0.735052 0.515162
O O8 0.798565 0.741392 0.693929
O O9 0.500000 0.257799 0.304909
O O10 0.549437 0.500000 0.304387
O O11 0.576555 0.264804 0.416647
O O12 0.104857 0.500000 0.755845
O O13 0.085943 0.711423 0.621767
O O14 0.130938 0.788517 0.788894
O O15 0.051556 0.721124 0.821532
O O16 0.106230 0.500000 0.485623
O O17 0.197723 0.255211 0.912072
O O18 0.193870 0.000000 0.802158
O O19 0.250000 0.250000 0.073181
O O20 0.295865 0.000000 0.031385
O O21 0.000000 0.204746 0.980386
O O22 0.947301 0.000000 0.906995
#
# Coordination Sequence:
#
# PCOD9349080 Si02
#       8
#     8   8   8   8   8   8   8   8
#     4  10  21  40  62  86 119 154 194 246 301 350
#     4  10  20  35  55  84 120 158 200 244 292 349
#     4  10  22  41  66  92 116 149 197 249 298 355
#     4  10  20  35  54  81 119 159 197 244 297 349
#     4   9  21  39  58  83 118 156 197 246 297 348
#     4  11  20  33  54  82 118 160 200 241 289 346
#     4  12  24  38  58  86 120 158 200 242 290 350
#     4  10  20  34  56  85 117 155 194 235 295 365
#
# _framework density 19.438714000000001
#
# number of rings (size 3 to 8) (size 9 to 14) (size 15 to 20)
#    0.000    1.750    1.250    4.500    0.000    6.000 
#    0.000    3.125    0.000    3.750    0.000    0.000 
#    0.000    0.000    0.000    0.000    0.000    0.000 
#
# Total GULP energy -178627.222697 kJ/mol
# GULP energy per Si atom -5582.100709 kJ/mol
# Density = 1.939447 g / cm^3
# Si number density = 19.438714 Si / 1000 Ang^3
#
#
#
# Elastic Constant Matrix: (Units=GPa)
#
#
# Indices 1 2 3 4 5 6 
#
# 1 161.9879 39.7912 67.7349 0.0000 0.0000 0.0000
# 2 39.7912 55.8274 29.0947 0.0000 0.0000 0.0000
# 3 67.7349 29.0947 90.5647 0.0000 0.0000 0.0000
# 4 0.0000 0.0000 0.0000 23.3978 0.0000 0.0000
# 5 0.0000 0.0000 0.0000 0.0000 10.6625 0.0000
# 6 0.0000 0.0000 0.0000 0.0000 0.0000 27.9231
#
#
#
# Elastic Compliance Matrix: (Units=1/GPa)
#
#
# Indices 1 2 3 4 5 6 
#
# 1 0.009585 -0.003718 -0.005974 0.000000 0.000000 0.000000
# 2 -0.003718 0.022957 -0.004594 0.000000 0.000000 0.000000
# 3 -0.005974 -0.004594 0.016986 0.000000 0.000000 0.000000
# 4 0.000000 0.000000 0.000000 0.042739 0.000000 0.000000
# 5 0.000000 0.000000 0.000000 0.000000 0.093787 0.000000
# 6 0.000000 0.000000 0.000000 0.000000 0.000000 0.035813
#
#
# Mechanical properties :
#
#
# Convention : Reuss Voigt Hill
#
# Bulk Modulus (GPa) = 47.72244 64.62465 56.17354
# Shear Modulus (GPa) = 19.42327 23.84730 21.63528
#
# Velocity S-wave (km/s) = 3.16445 3.50636 3.33978
# Velocity P-wave (km/s) = 6.16078 7.05055 6.62063
#
# Compressibility (1/GPa) = 0.02095450
#
# Stress axis : x y z
#
# Youngs Moduli (GPa) = 104.33323 43.56013 58.87243
#
# Poissons Ratio (x) = 0.16196 0.35171
# Poissons Ratio (y) = 0.38792 0.27047
# Poissons Ratio (z) = 0.62329 0.20013
#
# Static dielectric constant tensor:
#      x y z
#    x 1.742160 0.000000 0.000000 
#    y 0.000000 1.668790 0.000000 
#    z 0.000000 0.000000 1.663980 
# 
# From -- ./inp_files/14571.got.cif
#   From: 2010.05.17/outbox.cif.g08.bks.cpg/sg35_8_cif.got.tgz:14571.got - 2010.06.03 17:29:28.
