data_PCOD9349367
_publ_section_title
;
Structure prediction by ZEFSAII (Michael W. Deem and Ramdas Pophale) SiO2 
 PCOD9349367
Probable space group: C M M 2
;
_chemical_formula_sum "Si O2"
_cell_formula_units_Z 24
_cell_length_a 8.701847
_cell_length_b 19.428468
_cell_length_c 7.732620
_cell_angle_alpha 90.000000
_cell_angle_beta 90.000000
_cell_angle_gamma 90.000000
_cell_volume 1307.304234
_symmetry_space_group_name_H-M "C M M 2"
_symmetry_group_IT_number 35
_symmetry_cell_setting 'orthorhombic'
loop_
_space_group_symop_operation_xyz
x,y,z
-x,-y,z
-x,y,z
x,-y,z
1/2+x,1/2+y,z
1/2-x,1/2-y,z
1/2-x,1/2+y,z
1/2+x,1/2-y,z
loop_
_atom_site_type_symbol
_atom_site_label
_atom_site_fract_x
_atom_site_fract_y
_atom_site_fract_z
Si Si1 0.685226 0.580000 0.013470
Si Si2 0.315549 0.674990 0.690486
Si Si3 0.683183 0.825342 0.312124
O O1 0.500000 0.583996 0.032978
O O2 0.728906 0.500000 0.007211
O O3 0.761776 0.619618 0.172409
O O4 0.724944 0.619662 0.836477
O O5 0.500000 0.679387 0.676946
O O6 0.250000 0.750000 0.739449
O O7 0.247307 0.657629 0.502771
O O8 0.500000 0.821161 0.317775
O O9 0.750000 0.750000 0.266099
#
# Coordination Sequence:
#
# PCOD9349367 Si02
#       3
#     8   8   8
#     4  10  22  39  58  82 114 151 187 226 277 334
#     4  10  20  36  59  84 110 145 188 233 279 328
#     4  11  22  37  59  85 113 147 187 232 279 328
#
# _framework density 18.358388000000001
#
# number of rings (size 3 to 8) (size 9 to 14) (size 15 to 20)
#    0.000    1.667    0.000    7.000    0.000    7.333 
#    0.000    3.333    0.000    0.000    0.000    0.000 
#    0.000    0.000    0.000    0.000    0.000    0.000 
#
# Total GULP energy -67075.729021 kJ/mol
# GULP energy per Si atom -5589.644085 kJ/mol
# Density = 1.831660 g / cm^3
# Si number density = 18.358388 Si / 1000 Ang^3
#
#
#
# Elastic Constant Matrix: (Units=GPa)
#
#
# Indices 1 2 3 4 5 6 
#
# 1 85.5479 80.1531 72.6681 0.0000 0.0000 0.0000
# 2 80.1531 177.5320 142.5915 0.0000 0.0000 0.0000
# 3 72.6681 142.5915 141.3275 0.0000 0.0000 0.0000
# 4 0.0000 0.0000 0.0000 -27.5837 0.0000 0.0000
# 5 0.0000 0.0000 0.0000 0.0000 18.1753 0.0000
# 6 0.0000 0.0000 0.0000 0.0000 0.0000 28.3098
#
#
#
# Elastic Compliance Matrix: (Units=1/GPa)
#
#
# Indices 1 2 3 4 5 6 
#
# 1 0.021370 -0.004339 -0.006610 0.000000 0.000000 0.000000
# 2 -0.004339 0.030585 -0.028628 0.000000 0.000000 0.000000
# 3 -0.006610 -0.028628 0.039359 0.000000 0.000000 0.000000
# 4 0.000000 0.000000 0.000000 -0.036253 0.000000 0.000000
# 5 0.000000 0.000000 0.000000 0.000000 0.055020 0.000000
# 6 0.000000 0.000000 0.000000 0.000000 0.000000 0.035323
#
#
# Mechanical properties :
#
#
# Convention : Reuss Voigt Hill
#
# Bulk Modulus (GPa) = 82.24002 110.58144 96.41073
# Shear Modulus (GPa) = 21.87129 11.04658 16.45893
#
# Velocity S-wave (km/s) = 3.45534 2.45566 2.99747
# Velocity P-wave (km/s) = 7.79829 8.27079 8.03801
#
# Compressibility (1/GPa) = 0.01215953
#
# Stress axis : x y z
#
# Youngs Moduli (GPa) = 46.79555 32.69560 25.40744
#
# Poissons Ratio (x) = 0.14186 0.16795
# Poissons Ratio (y) = 0.20303 0.72736
# Poissons Ratio (z) = 0.30934 0.93600
#
# Static dielectric constant tensor:
#      x y z
#    x 1.618050 0.000000 0.000000 
#    y 0.000000 1.605860 0.000000 
#    z 0.000000 0.000000 1.611290 
# 
# From -- ./inp_files/394.got.cif
#   From: 2010.05.17/outbox.cif.g08.bks.cpg/sg35_1_cif.got.tgz:394.got - 2010.06.03 17:29:28.
