data_PCOD9349353
_publ_section_title
;
Structure prediction by ZEFSAII (Michael W. Deem and Ramdas Pophale) SiO2 
 PCOD9349353
Probable space group: C M M 2
;
_chemical_formula_sum "Si O2"
_cell_formula_units_Z 48
_cell_length_a 8.883193
_cell_length_b 30.986957
_cell_length_c 9.613799
_cell_angle_alpha 90.000000
_cell_angle_beta 90.000000
_cell_angle_gamma 90.000000
_cell_volume 2646.324303
_symmetry_space_group_name_H-M "C M M 2"
_symmetry_group_IT_number 35
_symmetry_cell_setting 'orthorhombic'
loop_
_space_group_symop_operation_xyz
x,y,z
-x,-y,z
-x,y,z
x,-y,z
1/2+x,1/2+y,z
1/2-x,1/2-y,z
1/2-x,1/2+y,z
1/2+x,1/2-y,z
loop_
_atom_site_type_symbol
_atom_site_label
_atom_site_fract_x
_atom_site_fract_y
_atom_site_fract_z
Si Si1 0.828074 0.500000 0.462101
Si Si2 0.678190 0.638894 0.837617
Si Si3 0.328748 0.645722 0.376625
Si Si4 0.683671 0.000000 0.150885
Si Si5 0.663158 0.571856 0.608170
Si Si6 0.181458 0.599692 0.109214
Si Si7 0.819064 0.297452 0.606343
O O1 0.753761 0.500000 0.310108
O O2 0.788448 0.540439 0.554789
O O3 0.000000 0.500000 0.427170
O O4 0.500000 0.649214 0.852524
O O5 0.689114 0.593685 0.754990
O O6 0.756199 0.673605 0.735154
O O7 0.757301 0.629025 0.983147
O O8 0.500000 0.659318 0.338808
O O9 0.342364 0.610043 0.496948
O O10 0.247413 0.621909 0.248718
O O11 0.237923 0.682919 0.458373
O O12 0.727023 0.951618 0.096125
O O13 0.500000 0.000000 0.141738
O O14 0.500000 0.550004 0.607415
O O15 0.000000 0.600643 0.114244
O O16 0.750000 0.250000 0.620894
O O17 0.000000 0.297214 0.609821
#
# Coordination Sequence:
#
# PCOD9349353 Si02
#       7
#     4   8   8   4   8   8   8
#     4  11  19  30  51  78 108 146 193 247 292 337
#     4  10  22  40  58  83 117 154 194 240 294 352
#     4  10  20  36  58  85 115 150 190 237 287 343
#     4   9  20  34  51  80 118 156 199 247 292 343
#     4   9  19  34  52  75 107 145 189 237 286 339
#     4  11  21  37  58  85 120 160 202 244 293 347
#     4  11  22  40  66  93 118 150 189 237 293 353
#
# _framework density 18.138366999999999
#
# number of rings (size 3 to 8) (size 9 to 14) (size 15 to 20)
#    0.000    1.833    1.667    4.250    0.000    4.000 
#    0.000    4.167    0.000    0.000    0.000    0.000 
#    0.000    0.000    0.000    0.000    0.000    0.000 
#
# Total GULP energy -133657.862097 kJ/mol
# GULP energy per Si atom -5569.077587 kJ/mol
# Density = 1.809708 g / cm^3
# Si number density = 18.138367 Si / 1000 Ang^3
#
#
#
# Elastic Constant Matrix: (Units=GPa)
#
#
# Indices 1 2 3 4 5 6 
#
# 1 107.4301 47.0738 36.9512 0.0000 0.0000 0.0000
# 2 47.0738 103.9326 34.2127 0.0000 0.0000 0.0000
# 3 36.9512 34.2127 100.3016 0.0000 0.0000 0.0000
# 4 0.0000 0.0000 0.0000 9.0722 0.0000 0.0000
# 5 0.0000 0.0000 0.0000 0.0000 23.9927 0.0000
# 6 0.0000 0.0000 0.0000 0.0000 0.0000 27.0842
#
#
#
# Elastic Compliance Matrix: (Units=1/GPa)
#
#
# Indices 1 2 3 4 5 6 
#
# 1 0.012355 -0.004616 -0.002977 0.000000 0.000000 0.000000
# 2 -0.004616 0.012563 -0.002585 0.000000 0.000000 0.000000
# 3 -0.002977 -0.002585 0.011948 0.000000 0.000000 0.000000
# 4 0.000000 0.000000 0.000000 0.110227 0.000000 0.000000
# 5 0.000000 0.000000 0.000000 0.000000 0.041679 0.000000
# 6 0.000000 0.000000 0.000000 0.000000 0.000000 0.036922
#
#
# Mechanical properties :
#
#
# Convention : Reuss Voigt Hill
#
# Bulk Modulus (GPa) = 60.56591 60.90443 60.73517
# Shear Modulus (GPa) = 19.87648 24.92493 22.40070
#
# Velocity S-wave (km/s) = 3.31392 3.71098 3.51805
# Velocity P-wave (km/s) = 6.93587 7.21196 7.07526
#
# Compressibility (1/GPa) = 0.01651094
#
# Stress axis : x y z
#
# Youngs Moduli (GPa) = 80.93913 79.59802 83.69345
#
# Poissons Ratio (x) = 0.36741 0.24917
# Poissons Ratio (y) = 0.37361 0.21633
# Poissons Ratio (z) = 0.24097 0.20574
#
# Static dielectric constant tensor:
#      x y z
#    x 1.650440 0.000000 0.000000 
#    y 0.000000 1.621930 0.000000 
#    z 0.000000 0.000000 1.606950 
# 
# From -- ./inp_files/5388.got.cif
#   From: 2010.05.17/outbox.cif.g08.bks.cpg/sg35_3_cif.got.tgz:5388.got - 2010.06.03 17:29:28.
