data_PCOD9349987
_publ_section_title
;
Structure prediction by ZEFSAII (Michael W. Deem and Ramdas Pophale) SiO2 
 PCOD9349987
Probable space group: C M M 2
;
_chemical_formula_sum "Si O2"
_cell_formula_units_Z 28
_cell_length_a 11.289080
_cell_length_b 20.143749
_cell_length_c 5.580857
_cell_angle_alpha 90.000000
_cell_angle_beta 90.000000
_cell_angle_gamma 90.000000
_cell_volume 1269.111404
_symmetry_space_group_name_H-M "C M M 2"
_symmetry_group_IT_number 35
_symmetry_cell_setting 'orthorhombic'
loop_
_space_group_symop_operation_xyz
x,y,z
-x,-y,z
-x,y,z
x,-y,z
1/2+x,1/2+y,z
1/2-x,1/2-y,z
1/2-x,1/2+y,z
1/2+x,1/2-y,z
loop_
_atom_site_type_symbol
_atom_site_label
_atom_site_fract_x
_atom_site_fract_y
_atom_site_fract_z
Si Si1 0.867557 0.500000 0.039660
Si Si2 0.750000 0.250000 0.461111
Si Si3 0.500000 0.365808 0.078586
Si Si4 0.000000 0.214827 0.591412
Si Si5 0.225677 0.897705 0.291235
Si Si6 0.356685 0.500000 0.686028
O O1 0.841211 0.436216 0.205713
O O2 0.000000 0.500000 0.942135
O O3 0.760833 0.500000 0.851619
O O4 0.874374 0.252206 0.601405
O O5 0.751708 0.180336 0.320413
O O6 0.500000 0.321345 0.326885
O O7 0.620736 0.406137 0.097532
O O8 0.500000 0.328807 0.829111
O O9 0.169292 0.934628 0.520031
O O10 0.500000 0.500000 0.740871
#
# Coordination Sequence:
#
# PCOD9349987 Si02
#       6
#     4   4   4   4   8   4
#     4  11  28  44  67 103 151 200 237 305 378 469
#     4  10  24  46  70 108 138 194 238 316 366 442
#     4  10  22  43  72 110 134 183 245 308 355 433
#     4  10  24  42  68 106 150 180 237 292 375 438
#     4  10  24  45  73 101 146 185 250 309 374 439
#     4  11  24  46  73 103 135 192 257 309 370 433
#
# _framework density 22.062681000000001
#
# number of rings (size 3 to 8) (size 9 to 14) (size 15 to 20)
#    0.000    1.714    1.429    0.000   12.000    6.857 
#    0.000    0.000    0.000    0.000    0.000    0.000 
#    0.000    0.000    0.000    0.000    0.000    0.000 
#
# Total GULP energy -78019.701955 kJ/mol
# GULP energy per Si atom -5572.835854 kJ/mol
# Density = 2.201247 g / cm^3
# Si number density = 22.062681 Si / 1000 Ang^3
#
#
#
# Elastic Constant Matrix: (Units=GPa)
#
#
# Indices 1 2 3 4 5 6 
#
# 1 216.0523 50.0718 61.3572 0.0000 0.0000 0.0000
# 2 50.0718 137.7347 28.9031 0.0000 0.0000 0.0000
# 3 61.3572 28.9031 86.5340 0.0000 0.0000 0.0000
# 4 0.0000 0.0000 0.0000 31.9156 0.0000 0.0000
# 5 0.0000 0.0000 0.0000 0.0000 26.0593 0.0000
# 6 0.0000 0.0000 0.0000 0.0000 0.0000 32.0517
#
#
#
# Elastic Compliance Matrix: (Units=1/GPa)
#
#
# Indices 1 2 3 4 5 6 
#
# 1 0.006034 -0.001394 -0.003813 0.000000 0.000000 0.000000
# 2 -0.001394 0.008129 -0.001727 0.000000 0.000000 0.000000
# 3 -0.003813 -0.001727 0.014837 0.000000 0.000000 0.000000
# 4 0.000000 0.000000 0.000000 0.031333 0.000000 0.000000
# 5 0.000000 0.000000 0.000000 0.000000 0.038374 0.000000
# 6 0.000000 0.000000 0.000000 0.000000 0.000000 0.031200
#
#
# Mechanical properties :
#
#
# Convention : Reuss Voigt Hill
#
# Bulk Modulus (GPa) = 66.08223 80.10947 73.09585
# Shear Modulus (GPa) = 33.59782 38.00456 35.80119
#
# Velocity S-wave (km/s) = 3.90659 4.15489 4.03265
# Velocity P-wave (km/s) = 7.09687 7.70755 7.40850
#
# Compressibility (1/GPa) = 0.01513266
#
# Stress axis : x y z
#
# Youngs Moduli (GPa) = 165.71620 123.01051 67.39973
#
# Poissons Ratio (x) = 0.17142 0.25701
# Poissons Ratio (y) = 0.23093 0.11641
# Poissons Ratio (z) = 0.63192 0.21246
#
# Static dielectric constant tensor:
#      x y z
#    x 1.811060 0.000000 0.000000 
#    y 0.000000 2.005120 0.000000 
#    z 0.000000 0.000000 1.895070 
# 
# From -- ./inp_files/995.got.cif
#   From: 2010.05.17/outbox.cif.g08.bks.cpg/sg35_1_cif.got.tgz:995.got - 2010.06.03 17:29:28.
