data_PCOD9349726
_publ_section_title
;
Structure prediction by ZEFSAII (Michael W. Deem and Ramdas Pophale) SiO2 
 PCOD9349726
Probable space group: C M M 2
;
_chemical_formula_sum "Si O2"
_cell_formula_units_Z 58
_cell_length_a 30.743701
_cell_length_b 8.173985
_cell_length_c 12.715864
_cell_angle_alpha 90.000000
_cell_angle_beta 90.000000
_cell_angle_gamma 90.000000
_cell_volume 3195.478196
_symmetry_space_group_name_H-M "C M M 2"
_symmetry_group_IT_number 35
_symmetry_cell_setting 'orthorhombic'
loop_
_space_group_symop_operation_xyz
x,y,z
-x,-y,z
-x,y,z
x,-y,z
1/2+x,1/2+y,z
1/2-x,1/2-y,z
1/2-x,1/2+y,z
1/2+x,1/2-y,z
loop_
_atom_site_type_symbol
_atom_site_label
_atom_site_fract_x
_atom_site_fract_y
_atom_site_fract_z
Si Si1 0.000000 0.500000 0.221681
Si Si2 0.135021 0.188811 0.852872
Si Si3 0.798332 0.687534 0.020376
Si Si4 0.299115 0.195815 0.435809
Si Si5 0.337108 0.311700 0.224391
Si Si6 0.561692 0.689234 0.170984
Si Si7 0.951738 0.309632 0.939878
Si Si8 0.299069 0.804290 0.675263
O O1 0.962966 0.651174 0.217363
O O2 0.164850 0.216900 0.955863
O O3 0.089550 0.282713 0.865890
O O4 0.165162 0.241071 0.755947
O O5 0.123992 0.000000 0.843870
O O6 0.801727 0.500000 0.987187
O O7 0.750000 0.750000 0.997633
O O8 0.808680 0.706077 0.143632
O O9 0.250000 0.250000 0.411234
O O10 0.329160 0.266573 0.344988
O O11 0.308054 0.252160 0.555403
O O12 0.301686 0.000000 0.434039
O O13 0.324252 0.500000 0.206914
O O14 0.387433 0.292647 0.195405
O O15 0.549728 0.500000 0.202336
O O16 0.554322 0.704852 0.045434
O O17 0.951851 0.500000 0.973762
O O18 0.000000 0.275572 0.895139
O O19 0.250000 0.750000 0.703765
O O20 0.299691 0.000000 0.676645
#
# Coordination Sequence:
#
# PCOD9349726 Si02
#       8
#     2   8   8   8   8   8   8   8
#     4  12  22  36  60  82 116 158 202 240 304 346
#     4  12  24  37  56  84 117 151 191 238 291 348
#     4  12  24  37  54  76 114 156 192 230 280 347
#     4  10  21  37  60  84 113 150 195 242 288 342
#     4  11  23  37  55  83 118 152 192 236 288 347
#     4  11  22  36  56  85 118 154 196 245 294 355
#     4  11  21  37  58  84 114 153 193 239 294 350
#     4  10  21  39  60  85 113 150 195 242 290 346
#
# _framework density 18.150649000000001
#
# number of rings (size 3 to 8) (size 9 to 14) (size 15 to 20)
#    0.000    0.966    2.759    5.172    1.931    2.483 
#    0.000    0.000    0.000    0.000    1.793    0.000 
#    0.000    0.000    0.000    0.000    0.000    0.000 
#
# Total GULP energy -161692.385514 kJ/mol
# GULP energy per Si atom -5575.599500 kJ/mol
# Density = 1.810934 g / cm^3
# Si number density = 18.150649 Si / 1000 Ang^3
#
#
#
# Elastic Constant Matrix: (Units=GPa)
#
#
# Indices 1 2 3 4 5 6 
#
# 1 121.1170 21.3158 46.4228 0.0000 0.0000 0.0000
# 2 21.3158 91.3746 6.0116 0.0000 0.0000 0.0000
# 3 46.4228 6.0116 63.9465 0.0000 0.0000 0.0000
# 4 0.0000 0.0000 0.0000 19.7465 0.0000 0.0000
# 5 0.0000 0.0000 0.0000 0.0000 -6.4557 0.0000
# 6 0.0000 0.0000 0.0000 0.0000 0.0000 29.7481
#
#
#
# Elastic Compliance Matrix: (Units=1/GPa)
#
#
# Indices 1 2 3 4 5 6 
#
# 1 0.011869 -0.002216 -0.008408 0.000000 0.000000 0.000000
# 2 -0.002216 0.011426 0.000534 0.000000 0.000000 0.000000
# 3 -0.008408 0.000534 0.021692 0.000000 0.000000 0.000000
# 4 0.000000 0.000000 0.000000 0.050642 0.000000 0.000000
# 5 0.000000 0.000000 0.000000 0.000000 -0.154902 0.000000
# 6 0.000000 0.000000 0.000000 0.000000 0.000000 0.033616
#
#
# Mechanical properties :
#
#
# Convention : Reuss Voigt Hill
#
# Bulk Modulus (GPa) = 40.31018 47.10426 43.70722
# Shear Modulus (GPa) = 1791.37438 22.12031 906.74734
#
# Velocity S-wave (km/s) = 31.44981 3.49478 22.37525
# Velocity P-wave (km/s) = 36.62027 6.50330 26.29959
#
# Compressibility (1/GPa) = 0.02480763
#
# Stress axis : x y z
#
# Youngs Moduli (GPa) = 84.25136 87.52219 46.10002
#
# Poissons Ratio (x) = 0.19392 0.38762
# Poissons Ratio (y) = 0.18667 -0.02463
# Poissons Ratio (z) = 0.70841 -0.04677
#
# Static dielectric constant tensor:
#      x y z
#    x 1.638250 0.000000 0.000000 
#    y 0.000000 1.633810 0.000000 
#    z 0.000000 0.000000 1.624390 
# 
# From -- ./inp_files/14511.got.cif
#   From: 2010.05.17/outbox.cif.g08.bks.cpg/sg35_8_cif.got.tgz:14511.got - 2010.06.03 17:29:28.
