data_PCOD9349715
_publ_section_title
;
Structure prediction by ZEFSAII (Michael W. Deem and Ramdas Pophale) SiO2 
 PCOD9349715
Probable space group: C M M 2
;
_chemical_formula_sum "Si O2"
_cell_formula_units_Z 56
_cell_length_a 14.855383
_cell_length_b 15.301694
_cell_length_c 11.935877
_cell_angle_alpha 90.000000
_cell_angle_beta 90.000000
_cell_angle_gamma 90.000000
_cell_volume 2713.174338
_symmetry_space_group_name_H-M "C M M 2"
_symmetry_group_IT_number 35
_symmetry_cell_setting 'orthorhombic'
loop_
_space_group_symop_operation_xyz
x,y,z
-x,-y,z
-x,y,z
x,-y,z
1/2+x,1/2+y,z
1/2-x,1/2-y,z
1/2-x,1/2+y,z
1/2+x,1/2-y,z
loop_
_atom_site_type_symbol
_atom_site_label
_atom_site_fract_x
_atom_site_fract_y
_atom_site_fract_z
Si Si1 0.601774 0.781593 0.534470
Si Si2 0.400580 0.650698 0.731903
Si Si3 0.599222 0.599318 0.141946
Si Si4 0.604360 0.175567 0.879529
Si Si5 0.798168 0.603507 0.091660
Si Si6 0.396638 0.218950 0.270337
Si Si7 0.708363 0.092859 0.683416
O O1 0.500000 0.820656 0.550503
O O2 0.597684 0.693325 0.607244
O O3 0.618408 0.775906 0.403051
O O4 0.680334 0.835652 0.593340
O O5 0.500000 0.611917 0.752372
O O6 0.387031 0.729601 0.821022
O O7 0.309243 0.597424 0.730302
O O8 0.500000 0.607162 0.086097
O O9 0.601703 0.500000 0.191436
O O10 0.690638 0.605814 0.072091
O O11 0.606500 0.681665 0.224603
O O12 0.500000 0.160250 0.899639
O O13 0.643432 0.109476 0.788050
O O14 0.655846 0.158608 0.993653
O O15 0.824047 0.500000 0.093402
O O16 0.829220 0.654174 0.204710
O O17 0.500000 0.188037 0.250393
O O18 0.691955 0.000000 0.629940
#
# Coordination Sequence:
#
# PCOD9349715 Si02
#       7
#     8   8   8   8   8   8   8
#     4   9  19  37  59  82 110 147 191 232 274 335
#     4   9  20  39  60  80 106 146 192 234 277 329
#     4   9  20  39  59  81 113 154 201 245 285 341
#     4  10  21  39  61  81 107 146 191 236 280 334
#     4  11  23  37  57  87 120 153 190 236 293 354
#     4  10  21  37  59  86 117 154 192 237 294 348
#     4  11  22  35  57  87 115 145 182 230 288 344
#
# _framework density 20.640028999999998
#
# number of rings (size 3 to 8) (size 9 to 14) (size 15 to 20)
#    0.000    2.143    0.000    4.286    0.000    8.286 
#    0.000    5.714    0.000    5.143    0.000    0.000 
#    0.000    0.000    0.000    0.000    0.000    0.000 
#
# Total GULP energy -156117.768585 kJ/mol
# GULP energy per Si atom -5575.634592 kJ/mol
# Density = 2.059305 g / cm^3
# Si number density = 20.640029 Si / 1000 Ang^3
#
#
#
# Elastic Constant Matrix: (Units=GPa)
#
#
# Indices 1 2 3 4 5 6 
#
# 1 125.0309 34.9712 39.4543 0.0000 0.0000 0.0000
# 2 34.9712 57.8325 14.1233 0.0000 0.0000 0.0000
# 3 39.4543 14.1233 87.8171 0.0000 0.0000 0.0000
# 4 0.0000 0.0000 0.0000 -4.9423 0.0000 0.0000
# 5 0.0000 0.0000 0.0000 0.0000 10.3326 0.0000
# 6 0.0000 0.0000 0.0000 0.0000 0.0000 -18.8422
#
#
#
# Elastic Compliance Matrix: (Units=1/GPa)
#
#
# Indices 1 2 3 4 5 6 
#
# 1 0.010804 -0.005566 -0.003959 0.000000 0.000000 0.000000
# 2 -0.005566 0.020866 -0.000855 0.000000 0.000000 0.000000
# 3 -0.003959 -0.000855 0.013303 0.000000 0.000000 0.000000
# 4 0.000000 0.000000 0.000000 -0.202335 0.000000 0.000000
# 5 0.000000 0.000000 0.000000 0.000000 0.096781 0.000000
# 6 0.000000 0.000000 0.000000 0.000000 0.000000 -0.053072
#
#
# Mechanical properties :
#
#
# Convention : Reuss Voigt Hill
#
# Bulk Modulus (GPa) = 41.29970 49.75309 45.52639
# Shear Modulus (GPa) = -58.94761 9.45173 -24.74794
#
# Velocity S-wave (km/s) = -5.34994 2.14226 -3.46645
# Velocity P-wave (km/s) = 4.25553 5.50241 2.46647
#
# Compressibility (1/GPa) = 0.02421325
#
# Stress axis : x y z
#
# Youngs Moduli (GPa) = 92.55646 47.92450 75.16861
#
# Poissons Ratio (x) = 0.26677 0.29758
# Poissons Ratio (y) = 0.51521 0.06426
# Poissons Ratio (z) = 0.36642 0.04097
#
# Static dielectric constant tensor:
#      x y z
#    x 1.798800 0.000000 0.000000 
#    y 0.000000 1.800560 0.000000 
#    z 0.000000 0.000000 1.712140 
# 
# From -- ./inp_files/12994.got.cif
#   From: 2010.05.17/outbox.cif.g08.bks.cpg/sg35_7_cif.got.tgz:12994.got - 2010.06.03 17:29:28.
