data_PCOD9349121
_publ_section_title
;
Structure prediction by ZEFSAII (Michael W. Deem and Ramdas Pophale) SiO2 
 PCOD9349121
Probable space group: C M M 2
;
_chemical_formula_sum "Si O2"
_cell_formula_units_Z 40
_cell_length_a 8.485574
_cell_length_b 14.917005
_cell_length_c 17.291310
_cell_angle_alpha 90.000000
_cell_angle_beta 90.000000
_cell_angle_gamma 90.000000
_cell_volume 2188.722777
_symmetry_space_group_name_H-M "C M M 2"
_symmetry_group_IT_number 35
_symmetry_cell_setting 'orthorhombic'
loop_
_space_group_symop_operation_xyz
x,y,z
-x,-y,z
-x,y,z
x,-y,z
1/2+x,1/2+y,z
1/2-x,1/2-y,z
1/2-x,1/2+y,z
1/2+x,1/2-y,z
loop_
_atom_site_type_symbol
_atom_site_label
_atom_site_fract_x
_atom_site_fract_y
_atom_site_fract_z
Si Si1 0.688346 0.500000 0.239290
Si Si2 0.807406 0.500000 0.833176
Si Si3 0.689701 0.000000 0.655362
Si Si4 0.808262 0.000000 0.415703
Si Si5 0.690031 0.149656 0.951737
Si Si6 0.188941 0.649132 0.125152
Si Si7 0.689330 0.648107 0.538689
O O1 0.500000 0.500000 0.241771
O O2 0.747720 0.500000 0.327603
O O3 0.745309 0.414501 0.191107
O O4 0.756838 0.500000 0.744461
O O5 0.000000 0.500000 0.832476
O O6 0.755428 0.414524 0.883209
O O7 0.750717 0.088175 0.610556
O O8 0.500000 0.000000 0.652866
O O9 0.760487 0.911394 0.463923
O O10 0.000000 0.000000 0.415050
O O11 0.500000 0.149867 0.951015
O O12 0.750000 0.250000 0.941265
O O13 0.737654 0.118993 0.038259
O O14 0.250000 0.750000 0.134719
O O15 0.000000 0.647839 0.128100
O O16 0.500000 0.649890 0.540565
O O17 0.750000 0.750000 0.538149
#
# Coordination Sequence:
#
# PCOD9349121 Si02
#       7
#     4   4   4   4   8   8   8
#     4  11  21  35  55  80 109 138 172 217 267 313
#     4   9  18  33  53  76 105 138 170 211 261 309
#     4  10  20  35  55  82 111 138 173 214 260 314
#     4   8  19  37  55  78 107 136 171 216 260 312
#     4   9  18  34  53  73 101 138 178 217 257 304
#     4  10  20  35  54  77 106 142 182 220 261 309
#     4  10  20  38  60  80 105 138 174 212 260 314
#
# _framework density 18.275497999999999
#
# number of rings (size 3 to 8) (size 9 to 14) (size 15 to 20)
#    0.000    2.400    0.000    3.000    0.000    4.000 
#    0.000   12.500    0.000    0.000    0.000    0.000 
#    0.000    0.000    0.000    0.000    0.000    0.000 
#
# Total GULP energy -111585.394617 kJ/mol
# GULP energy per Si atom -5579.269731 kJ/mol
# Density = 1.823390 g / cm^3
# Si number density = 18.275498 Si / 1000 Ang^3
#
#
#
# Elastic Constant Matrix: (Units=GPa)
#
#
# Indices 1 2 3 4 5 6 
#
# 1 39.4660 31.2054 38.1508 0.0000 0.0000 0.0000
# 2 31.2054 156.4293 115.4642 0.0000 0.0000 0.0000
# 3 38.1508 115.4642 212.4149 0.0000 0.0000 0.0000
# 4 0.0000 0.0000 0.0000 29.4067 0.0000 0.0000
# 5 0.0000 0.0000 0.0000 0.0000 22.5655 0.0000
# 6 0.0000 0.0000 0.0000 0.0000 0.0000 30.2129
#
#
#
# Elastic Compliance Matrix: (Units=1/GPa)
#
#
# Indices 1 2 3 4 5 6 
#
# 1 0.031802 -0.003554 -0.003780 0.000000 0.000000 0.000000
# 2 -0.003554 0.011073 -0.005381 0.000000 0.000000 0.000000
# 3 -0.003780 -0.005381 0.008312 0.000000 0.000000 0.000000
# 4 0.000000 0.000000 0.000000 0.034006 0.000000 0.000000
# 5 0.000000 0.000000 0.000000 0.000000 0.044316 0.000000
# 6 0.000000 0.000000 0.000000 0.000000 0.000000 0.033098
#
#
# Mechanical properties :
#
#
# Convention : Reuss Voigt Hill
#
# Bulk Modulus (GPa) = 38.82355 86.43903 62.63129
# Shear Modulus (GPa) = 25.42934 31.33633 28.38283
#
# Velocity S-wave (km/s) = 3.73425 4.14534 3.94516
# Velocity P-wave (km/s) = 6.31526 8.38524 7.42276
#
# Compressibility (1/GPa) = 0.02575756
#
# Stress axis : x y z
#
# Youngs Moduli (GPa) = 31.44413 90.30591 120.31291
#
# Poissons Ratio (x) = 0.32095 0.45478
# Poissons Ratio (y) = 0.11175 0.64740
# Poissons Ratio (z) = 0.11886 0.48593
#
# Static dielectric constant tensor:
#      x y z
#    x 1.624020 0.000000 0.000000 
#    y 0.000000 1.600060 0.000000 
#    z 0.000000 0.000000 1.631200 
# 
# From -- ./inp_files/14867.got.cif
#   From: 2010.05.17/outbox.cif.g08.bks.cpg/sg35_8_cif.got.tgz:14867.got - 2010.06.03 17:29:28.
