data_PCOD9349907
_publ_section_title
;
Structure prediction by ZEFSAII (Michael W. Deem and Ramdas Pophale) SiO2 
 PCOD9349907
Probable space group: C M M 2
;
_chemical_formula_sum "Si O2"
_cell_formula_units_Z 48
_cell_length_a 8.439838
_cell_length_b 29.144645
_cell_length_c 10.557157
_cell_angle_alpha 90.000000
_cell_angle_beta 90.000000
_cell_angle_gamma 90.000000
_cell_volume 2596.808120
_symmetry_space_group_name_H-M "C M M 2"
_symmetry_group_IT_number 35
_symmetry_cell_setting 'orthorhombic'
loop_
_space_group_symop_operation_xyz
x,y,z
-x,-y,z
-x,y,z
x,-y,z
1/2+x,1/2+y,z
1/2-x,1/2-y,z
1/2-x,1/2+y,z
1/2+x,1/2-y,z
loop_
_atom_site_type_symbol
_atom_site_label
_atom_site_fract_x
_atom_site_fract_y
_atom_site_fract_z
Si Si1 0.690744 0.698069 0.040190
Si Si2 0.191023 0.448257 0.884039
Si Si3 0.690746 0.644863 0.786722
Si Si4 0.310368 0.697907 0.536283
Si Si5 0.192970 0.551374 0.177751
Si Si6 0.189972 0.354089 0.288866
O O1 0.500000 0.697262 0.046275
O O2 0.750000 0.750000 0.033145
O O3 0.759240 0.674113 0.164811
O O4 0.743425 0.670883 0.914414
O O5 0.240541 0.500000 0.848545
O O6 0.254736 0.407560 0.797974
O O7 0.000000 0.446983 0.882179
O O8 0.240775 0.440567 0.031031
O O9 0.500000 0.645662 0.785232
O O10 0.747930 0.671707 0.662515
O O11 0.500000 0.699367 0.540227
O O12 0.250000 0.750000 0.531650
O O13 0.258228 0.669877 0.412813
O O14 0.244627 0.500000 0.214481
O O15 0.245175 0.593495 0.264719
O O16 0.000000 0.551323 0.178174
O O17 0.000000 0.353950 0.297663
#
# Coordination Sequence:
#
# PCOD9349907 Si02
#       6
#     8   8   8   8   8   8
#     4  11  22  36  55  81 110 141 184 235 283 335
#     4   9  17  32  57  87 116 147 185 229 275 329
#     4  10  22  38  57  82 113 148 186 231 284 334
#     4  11  24  42  59  79 111 151 192 235 280 336
#     4   8  15  30  54  84 114 143 179 225 274 323
#     4  11  21  36  59  85 112 148 186 229 282 333
#
# _framework density 18.484231999999999
#
# number of rings (size 3 to 8) (size 9 to 14) (size 15 to 20)
#    0.000    2.000    1.667    3.500    0.000    2.333 
#    0.000    0.833    0.000    5.000    0.000    0.000 
#    0.000    0.000    0.000    0.000    0.000    0.000 
#
# Total GULP energy -133993.855732 kJ/mol
# GULP energy per Si atom -5583.077322 kJ/mol
# Density = 1.844216 g / cm^3
# Si number density = 18.484232 Si / 1000 Ang^3
#
#
#
# Elastic Constant Matrix: (Units=GPa)
#
#
# Indices 1 2 3 4 5 6 
#
# 1 25.4588 21.2965 22.0649 0.0000 0.0000 0.0000
# 2 21.2965 191.7426 91.5901 0.0000 0.0000 0.0000
# 3 22.0649 91.5901 140.1966 0.0000 0.0000 0.0000
# 4 0.0000 0.0000 0.0000 34.5613 0.0000 0.0000
# 5 0.0000 0.0000 0.0000 0.0000 2.6986 0.0000
# 6 0.0000 0.0000 0.0000 0.0000 0.0000 19.8803
#
#
#
# Elastic Compliance Matrix: (Units=1/GPa)
#
#
# Indices 1 2 3 4 5 6 
#
# 1 0.046238 -0.002412 -0.005701 0.000000 0.000000 0.000000
# 2 -0.002412 0.007707 -0.004655 0.000000 0.000000 0.000000
# 3 -0.005701 -0.004655 0.011071 0.000000 0.000000 0.000000
# 4 0.000000 0.000000 0.000000 0.028934 0.000000 0.000000
# 5 0.000000 0.000000 0.000000 0.000000 0.370564 0.000000
# 6 0.000000 0.000000 0.000000 0.000000 0.000000 0.050301
#
#
# Mechanical properties :
#
#
# Convention : Reuss Voigt Hill
#
# Bulk Modulus (GPa) = 25.32996 69.70012 47.51504
# Shear Modulus (GPa) = 9.03320 26.25779 17.64550
#
# Velocity S-wave (km/s) = 2.21305 3.77311 3.09305
# Velocity P-wave (km/s) = 4.50149 7.53469 6.20624
#
# Compressibility (1/GPa) = 0.03947894
#
# Stress axis : x y z
#
# Youngs Moduli (GPa) = 21.62711 129.75307 90.32254
#
# Poissons Ratio (x) = 0.31300 0.51496
# Poissons Ratio (y) = 0.05217 0.42048
# Poissons Ratio (z) = 0.12330 0.60404
#
# Static dielectric constant tensor:
#      x y z
#    x 1.635660 0.000000 0.000000 
#    y 0.000000 1.630380 0.000000 
#    z 0.000000 0.000000 1.615070 
# 
# From -- ./inp_files/5311.got.cif
#   From: 2010.05.17/outbox.cif.g08.bks.cpg/sg35_3_cif.got.tgz:5311.got - 2010.06.03 17:29:28.
