data_PCOD9349360
_publ_section_title
;
Structure prediction by ZEFSAII (Michael W. Deem and Ramdas Pophale) SiO2 
 PCOD9349360
Probable space group: C M M 2
;
_chemical_formula_sum "Si O2"
_cell_formula_units_Z 56
_cell_length_a 22.948945
_cell_length_b 8.160824
_cell_length_c 15.288700
_cell_angle_alpha 90.000000
_cell_angle_beta 90.000000
_cell_angle_gamma 90.000000
_cell_volume 2863.302917
_symmetry_space_group_name_H-M "C M M 2"
_symmetry_group_IT_number 35
_symmetry_cell_setting 'orthorhombic'
loop_
_space_group_symop_operation_xyz
x,y,z
-x,-y,z
-x,y,z
x,-y,z
1/2+x,1/2+y,z
1/2-x,1/2-y,z
1/2-x,1/2+y,z
1/2+x,1/2-y,z
loop_
_atom_site_type_symbol
_atom_site_label
_atom_site_fract_x
_atom_site_fract_y
_atom_site_fract_z
Si Si1 0.569163 0.200586 0.429580
Si Si2 0.388267 0.191535 0.619517
Si Si3 0.000000 0.187513 0.713891
Si Si4 0.817245 0.697371 0.314054
Si Si5 0.684027 0.197482 0.778957
Si Si6 0.184545 0.303612 0.112256
Si Si7 0.000000 0.324405 0.893924
Si Si8 0.887257 0.811679 0.948860
O O1 0.500000 0.250462 0.415023
O O2 0.591952 0.257667 0.525282
O O3 0.623825 0.249691 0.366531
O O4 0.567206 0.000000 0.428553
O O5 0.444314 0.217138 0.679666
O O6 0.337725 0.258174 0.683153
O O7 0.375371 0.000000 0.604802
O O8 0.000000 0.191575 0.817852
O O9 0.000000 0.000000 0.682512
O O10 0.816040 0.500000 0.319044
O O11 0.750000 0.750000 0.339565
O O12 0.826637 0.746726 0.212762
O O13 0.750000 0.250000 0.791514
O O14 0.647719 0.268267 0.860288
O O15 0.677955 0.000000 0.780960
O O16 0.178489 0.500000 0.106603
O O17 0.250000 0.250000 0.093553
O O18 0.147311 0.220335 0.037248
O O19 0.943140 0.302755 0.950124
O O20 0.000000 0.500000 0.848668
O O21 0.904718 0.000000 0.944285
#
# Coordination Sequence:
#
# PCOD9349360 Si02
#       8
#     8   8   4   8   8   8   4   8
#     4   9  17  33  60  89 114 148 199 248 293 351
#     4  10  20  36  59  81 109 153 196 234 282 341
#     4  12  22  34  56  83 112 147 190 235 276 326
#     4   9  19  36  60  88 116 151 196 244 299 357
#     4  11  23  37  55  81 116 154 195 239 287 341
#     4  10  20  37  59  85 114 151 195 240 290 350
#     4  12  24  40  60  83 114 153 194 233 282 346
#     4  12  24  39  59  85 116 150 190 240 291 342
#
# _framework density 19.557832000000001
#
# number of rings (size 3 to 8) (size 9 to 14) (size 15 to 20)
#    0.000    1.571    2.143    3.857    0.000    1.714 
#    1.286    0.714    0.000    0.000    0.000    0.000 
#    0.000    0.000    0.000    0.000    0.000    0.000 
#
# Total GULP energy -156034.457026 kJ/mol
# GULP energy per Si atom -5572.659180 kJ/mol
# Density = 1.951332 g / cm^3
# Si number density = 19.557832 Si / 1000 Ang^3
#
#
#
# Elastic Constant Matrix: (Units=GPa)
#
#
# Indices 1 2 3 4 5 6 
#
# 1 138.2008 6.1970 72.5938 0.0000 0.0000 0.0000
# 2 6.1970 36.8550 9.1543 0.0000 0.0000 0.0000
# 3 72.5938 9.1543 100.5792 0.0000 0.0000 0.0000
# 4 0.0000 0.0000 0.0000 3.5351 0.0000 0.0000
# 5 0.0000 0.0000 0.0000 0.0000 27.3334 0.0000
# 6 0.0000 0.0000 0.0000 0.0000 0.0000 9.5403
#
#
#
# Elastic Compliance Matrix: (Units=1/GPa)
#
#
# Indices 1 2 3 4 5 6 
#
# 1 0.011655 0.000133 -0.008424 0.000000 0.000000 0.000000
# 2 0.000133 0.027763 -0.002623 0.000000 0.000000 0.000000
# 3 -0.008424 -0.002623 0.016261 0.000000 0.000000 0.000000
# 4 0.000000 0.000000 0.000000 0.282881 0.000000 0.000000
# 5 0.000000 0.000000 0.000000 0.000000 0.036585 0.000000
# 6 0.000000 0.000000 0.000000 0.000000 0.000000 0.104818
#
#
# Mechanical properties :
#
#
# Convention : Reuss Voigt Hill
#
# Bulk Modulus (GPa) = 29.54152 50.16949 39.85550
# Shear Modulus (GPa) = 9.74516 20.59440 15.16978
#
# Velocity S-wave (km/s) = 2.23463 3.24852 2.78805
# Velocity P-wave (km/s) = 4.66857 6.30698 5.54859
#
# Compressibility (1/GPa) = 0.03385067
#
# Stress axis : x y z
#
# Youngs Moduli (GPa) = 85.80095 36.01981 61.49585
#
# Poissons Ratio (x) = -0.00478 0.51805
# Poissons Ratio (y) = -0.01139 0.16128
# Poissons Ratio (z) = 0.72279 0.09447
#
# Static dielectric constant tensor:
#      x y z
#    x 1.709550 0.000000 0.000000 
#    y 0.000000 1.690480 0.000000 
#    z 0.000000 0.000000 1.687940 
# 
# From -- ./inp_files/15696.got.cif
#   From: 2010.05.17/outbox.cif.g08.bks.cpg/sg35_8_cif.got.tgz:15696.got - 2010.06.03 17:29:28.
