data_PCOD9349243
_publ_section_title
;
Structure prediction by ZEFSAII (Michael W. Deem and Ramdas Pophale) SiO2 
 PCOD9349243
Probable space group: C M M 2
;
_chemical_formula_sum "Si O2"
_cell_formula_units_Z 58
_cell_length_a 31.224424
_cell_length_b 7.940778
_cell_length_c 12.793984
_cell_angle_alpha 90.000000
_cell_angle_beta 90.000000
_cell_angle_gamma 90.000000
_cell_volume 3172.219961
_symmetry_space_group_name_H-M "C M M 2"
_symmetry_group_IT_number 35
_symmetry_cell_setting 'orthorhombic'
loop_
_space_group_symop_operation_xyz
x,y,z
-x,-y,z
-x,y,z
x,-y,z
1/2+x,1/2+y,z
1/2-x,1/2-y,z
1/2-x,1/2+y,z
1/2+x,1/2-y,z
loop_
_atom_site_type_symbol
_atom_site_label
_atom_site_fract_x
_atom_site_fract_y
_atom_site_fract_z
Si Si1 0.362664 0.304964 0.147350
Si Si2 0.701260 0.298369 0.735931
Si Si3 0.299283 0.804704 0.972332
Si Si4 0.156546 0.795127 0.525584
Si Si5 0.000000 0.000000 0.521215
Si Si6 0.952880 0.299953 0.212951
Si Si7 0.562636 0.199406 0.457299
Si Si8 0.702253 0.297552 0.319520
O O1 0.367386 0.500000 0.172293
O O2 0.411200 0.241377 0.144988
O O3 0.333931 0.227936 0.240979
O O4 0.334141 0.285891 0.044032
O O5 0.698902 0.500000 0.745523
O O6 0.750000 0.250000 0.709710
O O7 0.691718 0.223777 0.849795
O O8 0.671218 0.243188 0.640986
O O9 0.250000 0.750000 0.991382
O O10 0.302244 0.000000 0.997743
O O11 0.111709 0.718398 0.490683
O O12 0.191177 0.745234 0.437508
O O13 0.153366 0.000000 0.524258
O O14 0.036600 0.153138 0.515699
O O15 0.956331 0.500000 0.210156
O O16 0.943422 0.256239 0.334162
O O17 0.000000 0.228781 0.184254
O O18 0.550127 0.000000 0.470739
O O19 0.700287 0.500000 0.316036
O O20 0.750000 0.250000 0.287398
#
# Coordination Sequence:
#
# PCOD9349243 Si02
#       8
#     8   8   8   8   2   8   8   8
#     4  11  22  35  56  81 112 149 190 231 287 347
#     4  10  20  35  58  83 113 150 196 241 287 338
#     4  11  22  38  58  80 112 147 193 244 290 339
#     4  10  20  36  54  81 117 153 190 237 289 345
#     4  12  22  36  60  78 124 150 202 244 300 334
#     4  10  21  36  54  83 114 147 192 236 283 342
#     4  11  22  35  57  85 115 156 196 239 293 353
#     4  10  21  33  49  75 112 154 187 222 278 343
#
# _framework density 18.283726000000001
#
# number of rings (size 3 to 8) (size 9 to 14) (size 15 to 20)
#    0.000    1.517    2.759    3.931    0.966    4.138 
#    0.000    0.000    0.000    0.000    1.793    0.000 
#    0.000    0.000    0.000    0.000    0.000    0.000 
#
# Total GULP energy -161525.994759 kJ/mol
# GULP energy per Si atom -5569.861888 kJ/mol
# Density = 1.824211 g / cm^3
# Si number density = 18.283726 Si / 1000 Ang^3
#
#
#
# Elastic Constant Matrix: (Units=GPa)
#
#
# Indices 1 2 3 4 5 6 
#
# 1 140.1070 4.5211 50.4242 0.0000 0.0000 0.0000
# 2 4.5211 43.5068 -3.6540 0.0000 0.0000 0.0000
# 3 50.4242 -3.6540 60.0196 0.0000 0.0000 0.0000
# 4 0.0000 0.0000 0.0000 9.2160 0.0000 0.0000
# 5 0.0000 0.0000 0.0000 0.0000 -13.1366 0.0000
# 6 0.0000 0.0000 0.0000 0.0000 0.0000 32.5589
#
#
#
# Elastic Compliance Matrix: (Units=1/GPa)
#
#
# Indices 1 2 3 4 5 6 
#
# 1 0.010372 -0.001819 -0.008825 0.000000 0.000000 0.000000
# 2 -0.001819 0.023422 0.002954 0.000000 0.000000 0.000000
# 3 -0.008825 0.002954 0.024255 0.000000 0.000000 0.000000
# 4 0.000000 0.000000 0.000000 0.108507 0.000000 0.000000
# 5 0.000000 0.000000 0.000000 0.000000 -0.076123 0.000000
# 6 0.000000 0.000000 0.000000 0.000000 0.000000 0.030714
#
#
# Mechanical properties :
#
#
# Convention : Reuss Voigt Hill
#
# Bulk Modulus (GPa) = 23.43562 38.46844 30.95203
# Shear Modulus (GPa) = 33.16778 18.55047 25.85913
#
# Velocity S-wave (km/s) = 4.26380 3.18872 3.76483
# Velocity P-wave (km/s) = 6.08979 5.88580 5.98866
#
# Compressibility (1/GPa) = 0.04267009
#
# Stress axis : x y z
#
# Youngs Moduli (GPa) = 96.41295 42.69480 41.22880
#
# Poissons Ratio (x) = 0.07766 0.36383
# Poissons Ratio (y) = 0.17538 -0.12180
# Poissons Ratio (z) = 0.85081 -0.12613
#
# Static dielectric constant tensor:
#      x y z
#    x 1.686800 0.000000 0.000000 
#    y 0.000000 1.658100 0.000000 
#    z 0.000000 0.000000 1.618990 
# 
# From -- ./inp_files/14485.got.cif
#   From: 2010.05.17/outbox.cif.g08.bks.cpg/sg35_8_cif.got.tgz:14485.got - 2010.06.03 17:29:28.
