data_PCOD9349855
_publ_section_title
;
Structure prediction by ZEFSAII (Michael W. Deem and Ramdas Pophale) SiO2 
 PCOD9349855
Probable space group: C M M 2
;
_chemical_formula_sum "Si O2"
_cell_formula_units_Z 48
_cell_length_a 35.419578
_cell_length_b 8.474793
_cell_length_c 7.945432
_cell_angle_alpha 90.000000
_cell_angle_beta 90.000000
_cell_angle_gamma 90.000000
_cell_volume 2385.008861
_symmetry_space_group_name_H-M "C M M 2"
_symmetry_group_IT_number 35
_symmetry_cell_setting 'orthorhombic'
loop_
_space_group_symop_operation_xyz
x,y,z
-x,-y,z
-x,y,z
x,-y,z
1/2+x,1/2+y,z
1/2-x,1/2-y,z
1/2-x,1/2+y,z
1/2+x,1/2-y,z
loop_
_atom_site_type_symbol
_atom_site_label
_atom_site_fract_x
_atom_site_fract_y
_atom_site_fract_z
Si Si1 0.660043 0.187367 0.534290
Si Si2 0.000000 0.678950 0.990956
Si Si3 0.345311 0.188805 0.140171
Si Si4 0.292505 0.313056 0.844641
Si Si5 0.500000 0.320306 0.650757
Si Si6 0.424557 0.814885 0.501124
Si Si7 0.926507 0.181049 0.141361
O O1 0.663077 0.236652 0.336123
O O2 0.686406 0.270492 0.669964
O O3 0.616064 0.208835 0.587326
O O4 0.668118 0.000000 0.539737
O O5 0.038552 0.709293 0.090218
O O6 0.000000 0.500000 0.924393
O O7 0.000000 0.811718 0.849832
O O8 0.385468 0.260827 0.082662
O O9 0.349175 0.000000 0.143120
O O10 0.314235 0.238351 0.004507
O O11 0.292448 0.500000 0.866173
O O12 0.250000 0.250000 0.837978
O O13 0.500000 0.500000 0.586772
O O14 0.537819 0.228899 0.598924
O O15 0.424462 0.701331 0.341394
O O16 0.425502 0.000000 0.450034
O O17 0.933010 0.000000 0.092980
#
# Coordination Sequence:
#
# PCOD9349855 Si02
#       7
#     8   4   8   8   4   8   8
#     4   9  21  42  68  95 126 166 212 261 314 378
#     4  12  25  40  57  82 120 166 210 256 311 370
#     4  10  22  43  69  96 129 169 214 261 318 383
#     4  12  26  43  67  97 131 168 208 259 319 382
#     4  12  25  38  55  86 124 160 208 264 311 362
#     4  10  21  40  63  87 119 164 209 251 310 375
#     4  11  22  39  62  90 122 159 207 260 311 365
#
# _framework density 20.125712
#
# number of rings (size 3 to 8) (size 9 to 14) (size 15 to 20)
#    0.000    1.333    0.000    7.000    2.333    4.667 
#    0.000    0.000    0.000    0.000    0.000    0.000 
#    0.000    0.000    0.000    0.000    0.000    0.000 
#
# Total GULP energy -134020.262587 kJ/mol
# GULP energy per Si atom -5584.177608 kJ/mol
# Density = 2.007990 g / cm^3
# Si number density = 20.125712 Si / 1000 Ang^3
#
#
#
# Elastic Constant Matrix: (Units=GPa)
#
#
# Indices 1 2 3 4 5 6 
#
# 1 152.3082 38.0795 59.2381 0.0000 0.0000 0.0000
# 2 38.0795 93.0111 21.6636 0.0000 0.0000 0.0000
# 3 59.2381 21.6636 68.7561 0.0000 0.0000 0.0000
# 4 0.0000 0.0000 0.0000 32.8433 0.0000 0.0000
# 5 0.0000 0.0000 0.0000 0.0000 32.3780 0.0000
# 6 0.0000 0.0000 0.0000 0.0000 0.0000 15.7960
#
#
#
# Elastic Compliance Matrix: (Units=1/GPa)
#
#
# Indices 1 2 3 4 5 6 
#
# 1 0.010320 -0.002325 -0.008159 0.000000 0.000000 0.000000
# 2 -0.002325 0.012127 -0.001818 0.000000 0.000000 0.000000
# 3 -0.008159 -0.001818 0.022147 0.000000 0.000000 0.000000
# 4 0.000000 0.000000 0.000000 0.030448 0.000000 0.000000
# 5 0.000000 0.000000 0.000000 0.000000 0.030885 0.000000
# 6 0.000000 0.000000 0.000000 0.000000 0.000000 0.063307
#
#
# Mechanical properties :
#
#
# Convention : Reuss Voigt Hill
#
# Bulk Modulus (GPa) = 50.02530 61.33753 55.68141
# Shear Modulus (GPa) = 24.93763 29.20974 27.07369
#
# Velocity S-wave (km/s) = 3.52389 3.81381 3.67172
# Velocity P-wave (km/s) = 6.43952 7.06660 6.76034
#
# Compressibility (1/GPa) = 0.01998989
#
# Stress axis : x y z
#
# Youngs Moduli (GPa) = 96.89697 82.46331 45.15376
#
# Poissons Ratio (x) = 0.19171 0.36841
# Poissons Ratio (y) = 0.22527 0.08208
# Poissons Ratio (z) = 0.79059 0.14990
#
# Static dielectric constant tensor:
#      x y z
#    x 1.990150 0.000000 0.000000 
#    y 0.000000 1.671130 0.000000 
#    z 0.000000 0.000000 1.711640 
# 
# From -- ./inp_files/10498.got.cif
#   From: 2010.05.17/outbox.cif.g08.bks.cpg/sg35_6_cif.got.tgz:10498.got - 2010.06.03 17:29:28.
