data_PCOD9349678
_publ_section_title
;
Structure prediction by ZEFSAII (Michael W. Deem and Ramdas Pophale) SiO2 
 PCOD9349678
Probable space group: C M M 2
;
_chemical_formula_sum "Si O2"
_cell_formula_units_Z 64
_cell_length_a 14.571940
_cell_length_b 25.352591
_cell_length_c 10.231832
_cell_angle_alpha 90.000000
_cell_angle_beta 90.000000
_cell_angle_gamma 90.000000
_cell_volume 3780.011537
_symmetry_space_group_name_H-M "C M M 2"
_symmetry_group_IT_number 35
_symmetry_cell_setting 'orthorhombic'
loop_
_space_group_symop_operation_xyz
x,y,z
-x,-y,z
-x,y,z
x,-y,z
1/2+x,1/2+y,z
1/2-x,1/2-y,z
1/2-x,1/2+y,z
1/2+x,1/2-y,z
loop_
_atom_site_type_symbol
_atom_site_label
_atom_site_fract_x
_atom_site_fract_y
_atom_site_fract_z
Si Si1 0.204969 0.134901 0.959400
Si Si2 0.142102 0.751228 0.587055
Si Si3 0.899158 0.765247 0.872495
Si Si4 0.390182 0.437450 0.752899
Si Si5 0.391385 0.778566 0.303248
Si Si6 0.887697 0.160491 0.231751
Si Si7 0.106520 0.871824 0.507422
Si Si8 0.106682 0.663987 0.055220
O O1 0.177895 0.190152 0.887409
O O2 0.163231 0.088655 0.872691
O O3 0.153516 0.139613 0.098096
O O4 0.313704 0.131188 0.984657
O O5 0.250000 0.750000 0.600845
O O6 0.103620 0.738664 0.729725
O O7 0.121411 0.716630 0.458619
O O8 0.110793 0.810881 0.553845
O O9 0.000000 0.791188 0.886967
O O10 0.891798 0.720904 0.982752
O O11 0.500000 0.426527 0.766271
O O12 0.378462 0.500000 0.745905
O O13 0.355244 0.408882 0.620492
O O14 0.500000 0.775949 0.280854
O O15 0.355876 0.720921 0.259176
O O16 0.361083 0.823919 0.203990
O O17 0.856588 0.128156 0.360076
O O18 0.000000 0.160359 0.226752
O O19 0.000000 0.886698 0.495868
O O20 0.000000 0.645542 0.050679
#
# Coordination Sequence:
#
# PCOD9349678 Si02
#       8
#     8   8   8   8   8   8   8   8
#     4  12  20  31  54  73 102 135 172 210 261 308
#     4  11  20  26  44  71 100 135 178 209 238 285
#     4  11  20  31  45  70 104 140 172 205 247 300
#     4  10  21  37  57  79 101 128 166 216 268 315
#     4   9  18  31  43  63  99 139 173 208 239 278
#     4   9  17  28  47  74 100 135 173 203 238 295
#     4   9  18  33  48  67 101 138 171 203 248 303
#     4  10  22  34  46  69 105 140 175 207 245 296
#
# _framework density 16.931165
#
# number of rings (size 3 to 8) (size 9 to 14) (size 15 to 20)
#    0.000    1.875    2.500    4.125    3.500    0.000 
#    0.000    0.625    0.000    2.625    0.000    0.000 
#    0.000    0.000    0.000    0.000    0.000    0.000 
#
# Total GULP energy -178376.808166 kJ/mol
# GULP energy per Si atom -5574.275255 kJ/mol
# Density = 1.689263 g / cm^3
# Si number density = 16.931165 Si / 1000 Ang^3
#
#
#
# Elastic Constant Matrix: (Units=GPa)
#
#
# Indices 1 2 3 4 5 6 
#
# 1 69.0782 11.7219 19.0789 0.0000 0.0000 0.0000
# 2 11.7219 24.7083 20.4217 0.0000 0.0000 0.0000
# 3 19.0789 20.4217 124.4075 0.0000 0.0000 0.0000
# 4 0.0000 0.0000 0.0000 11.8359 0.0000 0.0000
# 5 0.0000 0.0000 0.0000 0.0000 -10.1113 0.0000
# 6 0.0000 0.0000 0.0000 0.0000 0.0000 22.7954
#
#
#
# Elastic Compliance Matrix: (Units=1/GPa)
#
#
# Indices 1 2 3 4 5 6 
#
# 1 0.015950 -0.006415 -0.001393 0.000000 0.000000 0.000000
# 2 -0.006415 0.049406 -0.007126 0.000000 0.000000 0.000000
# 3 -0.001393 -0.007126 0.009421 0.000000 0.000000 0.000000
# 4 0.000000 0.000000 0.000000 0.084489 0.000000 0.000000
# 5 0.000000 0.000000 0.000000 0.000000 -0.098899 0.000000
# 6 0.000000 0.000000 0.000000 0.000000 0.000000 0.043868
#
#
# Mechanical properties :
#
#
# Convention : Reuss Voigt Hill
#
# Bulk Modulus (GPa) = 22.26787 35.62655 28.94721
# Shear Modulus (GPa) = 33.54055 16.03543 24.78799
#
# Velocity S-wave (km/s) = 4.45567 3.08083 3.83044
# Velocity P-wave (km/s) = 6.29692 5.80888 6.05781
#
# Compressibility (1/GPa) = 0.04490775
#
# Stress axis : x y z
#
# Youngs Moduli (GPa) = 62.69714 20.24063 106.14038
#
# Poissons Ratio (x) = 0.12985 0.14784
# Poissons Ratio (y) = 0.40223 0.75637
# Poissons Ratio (z) = 0.08733 0.14424
#
# Static dielectric constant tensor:
#      x y z
#    x 1.613510 0.000000 0.000000 
#    y 0.000000 1.550650 0.000000 
#    z 0.000000 0.000000 1.645630 
# 
# From -- ./inp_files/7997.got.cif
#   From: 2010.05.17/outbox.cif.g08.bks.cpg/sg35_4_cif.got.tgz:7997.got - 2010.06.03 17:29:28.
