data_PCOD9349044
_publ_section_title
;
Structure prediction by ZEFSAII (Michael W. Deem and Ramdas Pophale) SiO2 
 PCOD9349044
Probable space group: C M M 2
;
_chemical_formula_sum "Si O2"
_cell_formula_units_Z 48
_cell_length_a 15.710418
_cell_length_b 8.686301
_cell_length_c 17.737347
_cell_angle_alpha 90.000000
_cell_angle_beta 90.000000
_cell_angle_gamma 90.000000
_cell_volume 2420.534501
_symmetry_space_group_name_H-M "C M M 2"
_symmetry_group_IT_number 35
_symmetry_cell_setting 'orthorhombic'
loop_
_space_group_symop_operation_xyz
x,y,z
-x,-y,z
-x,y,z
x,-y,z
1/2+x,1/2+y,z
1/2-x,1/2-y,z
1/2-x,1/2+y,z
1/2+x,1/2-y,z
loop_
_atom_site_type_symbol
_atom_site_label
_atom_site_fract_x
_atom_site_fract_y
_atom_site_fract_z
Si Si1 0.161592 0.316812 0.613270
Si Si2 0.599287 0.324202 0.461754
Si Si3 0.654262 0.184281 0.306668
Si Si4 0.346225 0.814748 0.141636
Si Si5 0.846906 0.815571 0.983280
Si Si6 0.000000 0.685897 0.884210
Si Si7 0.500000 0.187557 0.708865
O O1 0.163652 0.500000 0.616375
O O2 0.250000 0.250000 0.641425
O O3 0.147561 0.266335 0.526943
O O4 0.083268 0.259614 0.663854
O O5 0.500000 0.322852 0.482209
O O6 0.630311 0.500000 0.459717
O O7 0.608598 0.252006 0.379308
O O8 0.750000 0.250000 0.308941
O O9 0.615893 0.222628 0.224039
O O10 0.657093 0.000000 0.311878
O O11 0.250000 0.750000 0.145488
O O12 0.380591 0.739051 0.065683
O O13 0.345425 0.000000 0.133110
O O14 0.750000 0.750000 0.973709
O O15 0.842687 0.000000 0.980649
O O16 0.914894 0.751131 0.923720
O O17 0.000000 0.730390 0.796191
O O18 0.000000 0.500000 0.890469
O O19 0.500000 0.000000 0.706206
#
# Coordination Sequence:
#
# PCOD9349044 Si02
#       7
#     8   8   8   8   8   4   4
#     4  11  22  41  66  93 122 158 200 244 299 362
#     4  11  23  38  56  82 117 158 203 252 302 351
#     4  10  20  34  55  82 114 154 201 249 300 353
#     4   9  17  32  55  83 114 156 202 252 303 354
#     4  11  22  39  63  93 126 166 209 253 308 367
#     4  11  23  43  67  94 127 160 201 253 308 371
#     4   9  22  43  67  92 123 158 195 245 304 363
#
# _framework density 19.830331000000001
#
# number of rings (size 3 to 8) (size 9 to 14) (size 15 to 20)
#    0.000    1.667    0.833    5.250    0.000    3.667 
#    1.500    5.000    0.000    0.000    0.000    0.000 
#    0.000    0.000    0.000    0.000    0.000    0.000 
#
# Total GULP energy -134032.811454 kJ/mol
# GULP energy per Si atom -5584.700477 kJ/mol
# Density = 1.978520 g / cm^3
# Si number density = 19.830331 Si / 1000 Ang^3
#
#
#
# Elastic Constant Matrix: (Units=GPa)
#
#
# Indices 1 2 3 4 5 6 
#
# 1 110.3275 41.3968 70.7364 0.0000 0.0000 0.0000
# 2 41.3968 108.6752 51.4977 0.0000 0.0000 0.0000
# 3 70.7364 51.4977 158.1186 0.0000 0.0000 0.0000
# 4 0.0000 0.0000 0.0000 17.0726 0.0000 0.0000
# 5 0.0000 0.0000 0.0000 0.0000 32.2872 0.0000
# 6 0.0000 0.0000 0.0000 0.0000 0.0000 27.2620
#
#
#
# Elastic Compliance Matrix: (Units=1/GPa)
#
#
# Indices 1 2 3 4 5 6 
#
# 1 0.013331 -0.002663 -0.005096 0.000000 0.000000 0.000000
# 2 -0.002663 0.011413 -0.002526 0.000000 0.000000 0.000000
# 3 -0.005096 -0.002526 0.009427 0.000000 0.000000 0.000000
# 4 0.000000 0.000000 0.000000 0.058573 0.000000 0.000000
# 5 0.000000 0.000000 0.000000 0.000000 0.030972 0.000000
# 6 0.000000 0.000000 0.000000 0.000000 0.000000 0.036681
#
#
# Mechanical properties :
#
#
# Convention : Reuss Voigt Hill
#
# Bulk Modulus (GPa) = 73.52739 78.26479 75.89609
# Shear Modulus (GPa) = 26.95407 29.55704 28.25556
#
# Velocity S-wave (km/s) = 3.69078 3.86488 3.77883
# Velocity P-wave (km/s) = 7.43782 7.71164 7.57597
#
# Compressibility (1/GPa) = 0.01360037
#
# Stress axis : x y z
#
# Youngs Moduli (GPa) = 75.01534 87.61939 106.07939
#
# Poissons Ratio (x) = 0.23333 0.54061
# Poissons Ratio (y) = 0.19976 0.26794
# Poissons Ratio (z) = 0.38230 0.22131
#
# Static dielectric constant tensor:
#      x y z
#    x 1.770830 0.000000 0.000000 
#    y 0.000000 1.674160 0.000000 
#    z 0.000000 0.000000 1.703860 
# 
# From -- ./inp_files/18755.got.cif
#   From: 2010.05.17/outbox.cif.g08.bks.cpg/sg35_10_cif.got.tgz:18755.got - 2010.06.03 17:29:28.
