data_PCOD9349033
_publ_section_title
;
Structure prediction by ZEFSAII (Michael W. Deem and Ramdas Pophale) SiO2 
 PCOD9349033
Probable space group: C M M 2
;
_chemical_formula_sum "Si O2"
_cell_formula_units_Z 48
_cell_length_a 18.131647
_cell_length_b 7.872694
_cell_length_c 17.704775
_cell_angle_alpha 90.000000
_cell_angle_beta 90.000000
_cell_angle_gamma 90.000000
_cell_volume 2527.266488
_symmetry_space_group_name_H-M "C M M 2"
_symmetry_group_IT_number 35
_symmetry_cell_setting 'orthorhombic'
loop_
_space_group_symop_operation_xyz
x,y,z
-x,-y,z
-x,y,z
x,-y,z
1/2+x,1/2+y,z
1/2-x,1/2-y,z
1/2-x,1/2+y,z
1/2+x,1/2-y,z
loop_
_atom_site_type_symbol
_atom_site_label
_atom_site_fract_x
_atom_site_fract_y
_atom_site_fract_z
Si Si1 0.164279 0.797784 0.569360
Si Si2 0.089637 0.500000 0.305077
Si Si3 0.336048 0.705426 0.033947
Si Si4 0.664324 0.803480 0.735499
Si Si5 0.088838 0.500000 0.129886
Si Si6 0.081976 0.199498 0.882848
Si Si7 0.411107 0.302917 0.413684
O O1 0.250000 0.750000 0.560017
O O2 0.138101 0.726473 0.649779
O O3 0.119882 0.746162 0.495040
O O4 0.159078 0.000000 0.575578
O O5 0.111519 0.500000 0.217926
O O6 0.113474 0.331033 0.350305
O O7 0.000000 0.500000 0.306354
O O8 0.346192 0.500000 0.045511
O O9 0.250000 0.750000 0.039873
O O10 0.379963 0.829085 0.090729
O O11 0.365124 0.757761 0.950396
O O12 0.750000 0.750000 0.738190
O O13 0.617298 0.716941 0.800528
O O14 0.660955 0.000000 0.752786
O O15 0.000000 0.500000 0.124552
O O16 0.000000 0.277224 0.886277
O O17 0.074493 0.000000 0.896858
O O18 0.500000 0.301064 0.416463
O O19 0.388369 0.500000 0.400131
#
# Coordination Sequence:
#
# PCOD9349033 Si02
#       7
#     8   4   8   8   4   8   8
#     4  10  20  34  55  79 112 152 194 243 296 350
#     4   9  20  38  62  89 119 154 191 243 303 362
#     4  11  23  42  68  94 127 170 208 257 315 381
#     4  11  22  35  54  80 112 157 200 245 296 355
#     4  11  24  42  68  99 128 164 209 263 318 376
#     4  10  22  39  59  86 119 154 200 252 303 357
#     4   9  19  36  59  85 114 152 198 241 292 358
#
# _framework density 18.992853
#
# number of rings (size 3 to 8) (size 9 to 14) (size 15 to 20)
#    0.000    1.833    0.833    4.000    3.500    4.000 
#    0.000    4.167    0.000    0.000    0.000    0.000 
#    0.000    0.000    0.000    0.000    0.000    0.000 
#
# Total GULP energy -133898.195024 kJ/mol
# GULP energy per Si atom -5579.091459 kJ/mol
# Density = 1.894962 g / cm^3
# Si number density = 18.992853 Si / 1000 Ang^3
#
#
#
# Elastic Constant Matrix: (Units=GPa)
#
#
# Indices 1 2 3 4 5 6 
#
# 1 71.2066 29.5229 52.7993 0.0000 0.0000 0.0000
# 2 29.5229 79.8258 48.4036 0.0000 0.0000 0.0000
# 3 52.7993 48.4036 145.7065 0.0000 0.0000 0.0000
# 4 0.0000 0.0000 0.0000 52.6362 0.0000 0.0000
# 5 0.0000 0.0000 0.0000 0.0000 140.2330 0.0000
# 6 0.0000 0.0000 0.0000 0.0000 0.0000 16.7838
#
#
#
# Elastic Compliance Matrix: (Units=1/GPa)
#
#
# Indices 1 2 3 4 5 6 
#
# 1 0.020072 -0.003773 -0.006020 0.000000 0.000000 0.000000
# 2 -0.003773 0.016396 -0.004080 0.000000 0.000000 0.000000
# 3 -0.006020 -0.004080 0.010400 0.000000 0.000000 0.000000
# 4 0.000000 0.000000 0.000000 0.018998 0.000000 0.000000
# 5 0.000000 0.000000 0.000000 0.000000 0.007131 0.000000
# 6 0.000000 0.000000 0.000000 0.000000 0.000000 0.059581
#
#
# Mechanical properties :
#
#
# Convention : Reuss Voigt Hill
#
# Bulk Modulus (GPa) = 52.29391 62.02116 57.15753
# Shear Modulus (GPa) = 29.99432 52.99814 41.49623
#
# Velocity S-wave (km/s) = 3.97828 5.28818 4.67929
# Velocity P-wave (km/s) = 6.97822 8.36734 7.70415
#
# Compressibility (1/GPa) = 0.01912269
#
# Stress axis : x y z
#
# Youngs Moduli (GPa) = 49.82131 60.98868 96.15570
#
# Poissons Ratio (x) = 0.23011 0.57885
# Poissons Ratio (y) = 0.18798 0.39228
# Poissons Ratio (z) = 0.29992 0.24881
#
# Static dielectric constant tensor:
#      x y z
#    x 1.582020 0.000000 0.000000 
#    y 0.000000 1.674110 0.000000 
#    z 0.000000 0.000000 1.647940 
# 
# From -- ./inp_files/17124.got.cif
#   From: 2010.05.17/outbox.cif.g08.bks.cpg/sg35_9_cif.got.tgz:17124.got - 2010.06.03 17:29:28.
