data_PCOD9349514
_publ_section_title
;
Structure prediction by ZEFSAII (Michael W. Deem and Ramdas Pophale) SiO2 
 PCOD9349514
Probable space group: C M M 2
;
_chemical_formula_sum "Si O2"
_cell_formula_units_Z 48
_cell_length_a 17.198959
_cell_length_b 9.848491
_cell_length_c 14.319279
_cell_angle_alpha 90.000000
_cell_angle_beta 90.000000
_cell_angle_gamma 90.000000
_cell_volume 2425.453789
_symmetry_space_group_name_H-M "C M M 2"
_symmetry_group_IT_number 35
_symmetry_cell_setting 'orthorhombic'
loop_
_space_group_symop_operation_xyz
x,y,z
-x,-y,z
-x,y,z
x,-y,z
1/2+x,1/2+y,z
1/2-x,1/2-y,z
1/2-x,1/2+y,z
1/2+x,1/2-y,z
loop_
_atom_site_type_symbol
_atom_site_label
_atom_site_fract_x
_atom_site_fract_y
_atom_site_fract_z
Si Si1 0.670699 0.661244 0.628850
Si Si2 0.669387 0.838233 0.464130
Si Si3 0.406184 0.283014 0.824238
Si Si4 0.094744 0.500000 0.902306
Si Si5 0.091904 0.000000 0.187172
Si Si6 0.342327 0.774276 0.256793
Si Si7 0.905309 0.000000 0.975796
Si Si8 0.405939 0.000000 0.119614
O O1 0.681489 0.500000 0.605106
O O2 0.750000 0.750000 0.643302
O O3 0.629173 0.749684 0.546298
O O4 0.625974 0.666231 0.726413
O O5 0.750000 0.750000 0.455965
O O6 0.636741 0.830467 0.359366
O O7 0.677325 0.000000 0.486435
O O8 0.500000 0.287320 0.820347
O O9 0.379336 0.131823 0.846828
O O10 0.382012 0.372233 0.913258
O O11 0.000000 0.500000 0.903148
O O12 0.117652 0.500000 0.010938
O O13 0.118766 0.869469 0.242075
O O14 0.124527 0.000000 0.081159
O O15 0.000000 0.000000 0.178982
O O16 0.250000 0.750000 0.249801
O O17 0.372591 0.871862 0.175403
O O18 0.000000 0.000000 0.980253
O O19 0.500000 0.000000 0.123498
#
# Coordination Sequence:
#
# PCOD9349514 Si02
#       8
#     8   8   8   4   4   8   4   4
#     4  11  23  38  62  89 119 154 195 247 298 357
#     4  10  21  38  63  87 116 159 200 239 293 370
#     4  10  20  38  62  86 114 155 203 245 289 350
#     4   9  20  35  60  87 116 160 203 237 288 367
#     4  11  23  39  64  91 122 164 209 251 300 361
#     4  11  23  39  63  92 124 160 204 253 304 361
#     4   9  18  37  60  83 114 158 207 239 284 361
#     4  11  21  41  64  89 122 164 207 251 304 361
#
# _framework density 19.790112000000001
#
# number of rings (size 3 to 8) (size 9 to 14) (size 15 to 20)
#    0.000    1.667    1.667    4.000    7.000    2.667 
#    0.000    6.667    0.000    0.000    0.000    0.000 
#    0.000    0.000    0.000    0.000    0.000    0.000 
#
# Total GULP energy -133798.629348 kJ/mol
# GULP energy per Si atom -5574.942890 kJ/mol
# Density = 1.974507 g / cm^3
# Si number density = 19.790112 Si / 1000 Ang^3
#
#
#
# Elastic Constant Matrix: (Units=GPa)
#
#
# Indices 1 2 3 4 5 6 
#
# 1 27.9818 18.9292 20.4540 0.0000 0.0000 0.0000
# 2 18.9292 197.6989 51.8158 0.0000 0.0000 0.0000
# 3 20.4540 51.8158 122.6288 0.0000 0.0000 0.0000
# 4 0.0000 0.0000 0.0000 40.5090 0.0000 0.0000
# 5 0.0000 0.0000 0.0000 0.0000 34.7702 0.0000
# 6 0.0000 0.0000 0.0000 0.0000 0.0000 21.6399
#
#
#
# Elastic Compliance Matrix: (Units=1/GPa)
#
#
# Indices 1 2 3 4 5 6 
#
# 1 0.041722 -0.002441 -0.005928 0.000000 0.000000 0.000000
# 2 -0.002441 0.005831 -0.002057 0.000000 0.000000 0.000000
# 3 -0.005928 -0.002057 0.010012 0.000000 0.000000 0.000000
# 4 0.000000 0.000000 0.000000 0.024686 0.000000 0.000000
# 5 0.000000 0.000000 0.000000 0.000000 0.028760 0.000000
# 6 0.000000 0.000000 0.000000 0.000000 0.000000 0.046211
#
#
# Mechanical properties :
#
#
# Convention : Reuss Voigt Hill
#
# Bulk Modulus (GPa) = 27.23723 58.96750 43.10237
# Shear Modulus (GPa) = 26.27276 36.52452 31.39864
#
# Velocity S-wave (km/s) = 3.64754 4.30070 3.98751
# Velocity P-wave (km/s) = 5.61536 7.38393 6.55953
#
# Compressibility (1/GPa) = 0.03671445
#
# Stress axis : x y z
#
# Youngs Moduli (GPa) = 23.96827 171.49805 99.87614
#
# Poissons Ratio (x) = 0.41866 0.59202
# Poissons Ratio (y) = 0.05851 0.20541
# Poissons Ratio (z) = 0.14207 0.35271
#
# Static dielectric constant tensor:
#      x y z
#    x 1.699840 0.000000 0.000000 
#    y 0.000000 1.765260 0.000000 
#    z 0.000000 0.000000 1.713960 
# 
# From -- ./inp_files/15306.got.cif
#   From: 2010.05.17/outbox.cif.g08.bks.cpg/sg35_8_cif.got.tgz:15306.got - 2010.06.03 17:29:28.
