data_PCOD9349534
_publ_section_title
;
Structure prediction by ZEFSAII (Michael W. Deem and Ramdas Pophale) SiO2 
 PCOD9349534
Probable space group: C M M 2
;
_chemical_formula_sum "Si O2"
_cell_formula_units_Z 40
_cell_length_a 26.047371
_cell_length_b 15.506290
_cell_length_c 5.106731
_cell_angle_alpha 90.000000
_cell_angle_beta 90.000000
_cell_angle_gamma 90.000000
_cell_volume 2062.598889
_symmetry_space_group_name_H-M "C M M 2"
_symmetry_group_IT_number 35
_symmetry_cell_setting 'orthorhombic'
loop_
_space_group_symop_operation_xyz
x,y,z
-x,-y,z
-x,y,z
x,-y,z
1/2+x,1/2+y,z
1/2-x,1/2-y,z
1/2-x,1/2+y,z
1/2+x,1/2-y,z
loop_
_atom_site_type_symbol
_atom_site_label
_atom_site_fract_x
_atom_site_fract_y
_atom_site_fract_z
Si Si1 0.344876 0.349956 0.119320
Si Si2 0.328474 0.099677 0.779002
Si Si3 0.377305 0.263908 0.629246
Si Si4 0.262275 0.852626 0.280829
Si Si5 0.057944 0.905714 0.861221
O O1 0.360308 0.278467 0.333718
O O2 0.293359 0.393720 0.218372
O O3 0.336605 0.308709 0.831265
O O4 0.396890 0.403591 0.076845
O O5 0.375079 0.165080 0.713774
O O6 0.286223 0.119805 0.555282
O O7 0.343154 0.000000 0.769617
O O8 0.301906 0.121183 0.054712
O O9 0.427131 0.322559 0.686596
O O10 0.250000 0.750000 0.274373
O O11 0.000000 0.897369 0.961554
O O12 0.061625 0.000000 0.727834
#
# Coordination Sequence:
#
# PCOD9349534 Si02
#       5
#     8   8   8   8   8
#     4  10  21  35  59  80 117 151 194 234 295 351
#     4  12  24  37  58  89 121 164 206 243 289 354
#     4  10  20  39  58  83 115 160 189 242 295 348
#     4  12  20  38  59  82 120 162 201 245 297 344
#     4   9  21  40  62  89 117 150 197 248 303 360
#
# _framework density 19.393011000000001
#
# number of rings (size 3 to 8) (size 9 to 14) (size 15 to 20)
#    1.200    0.200    4.000    2.400    0.000    3.200 
#    0.000    2.000    0.000    0.600    0.000    0.000 
#    0.000    0.000    0.000    0.000    0.000    0.000 
#
# Total GULP energy -111346.013580 kJ/mol
# GULP energy per Si atom -5567.300679 kJ/mol
# Density = 1.934887 g / cm^3
# Si number density = 19.393011 Si / 1000 Ang^3
#
#
#
# Elastic Constant Matrix: (Units=GPa)
#
#
# Indices 1 2 3 4 5 6 
#
# 1 89.2213 40.1947 1.7779 0.0000 0.0000 0.0000
# 2 40.1947 147.9457 11.0242 0.0000 0.0000 0.0000
# 3 1.7779 11.0242 77.2985 0.0000 0.0000 0.0000
# 4 0.0000 0.0000 0.0000 16.8868 0.0000 0.0000
# 5 0.0000 0.0000 0.0000 0.0000 16.6725 0.0000
# 6 0.0000 0.0000 0.0000 0.0000 0.0000 22.3067
#
#
#
# Elastic Compliance Matrix: (Units=1/GPa)
#
#
# Indices 1 2 3 4 5 6 
#
# 1 0.012774 -0.003486 0.000203 0.000000 0.000000 0.000000
# 2 -0.003486 0.007783 -0.001030 0.000000 0.000000 0.000000
# 3 0.000203 -0.001030 0.013079 0.000000 0.000000 0.000000
# 4 0.000000 0.000000 0.000000 0.059218 0.000000 0.000000
# 5 0.000000 0.000000 0.000000 0.000000 0.059979 0.000000
# 6 0.000000 0.000000 0.000000 0.000000 0.000000 0.044830
#
#
# Mechanical properties :
#
#
# Convention : Reuss Voigt Hill
#
# Bulk Modulus (GPa) = 39.98097 46.71767 43.34932
# Shear Modulus (GPa) = 23.29648 28.60445 25.95047
#
# Velocity S-wave (km/s) = 3.46971 3.84472 3.66202
# Velocity P-wave (km/s) = 6.05911 6.62204 6.34682
#
# Compressibility (1/GPa) = 0.02501190
#
# Stress axis : x y z
#
# Youngs Moduli (GPa) = 78.28164 128.48509 76.45811
#
# Poissons Ratio (x) = 0.44787 -0.01554
# Poissons Ratio (y) = 0.27287 0.07874
# Poissons Ratio (z) = -0.01592 0.13232
#
# Static dielectric constant tensor:
#      x y z
#    x 1.692860 0.000000 0.000000 
#    y 0.000000 1.746220 0.000000 
#    z 0.000000 0.000000 1.681990 
# 
# From -- ./inp_files/1828.got.cif
#   From: 2010.05.17/outbox.cif.g08.bks.cpg/sg35_1_cif.got.tgz:1828.got - 2010.06.03 17:29:28.
