data_PCOD9349479
_publ_section_title
;
Structure prediction by ZEFSAII (Michael W. Deem and Ramdas Pophale) SiO2 
 PCOD9349479
Probable space group: C M M 2
;
_chemical_formula_sum "Si O2"
_cell_formula_units_Z 56
_cell_length_a 14.012911
_cell_length_b 20.150513
_cell_length_c 10.280843
_cell_angle_alpha 90.000000
_cell_angle_beta 90.000000
_cell_angle_gamma 90.000000
_cell_volume 2902.974345
_symmetry_space_group_name_H-M "C M M 2"
_symmetry_group_IT_number 35
_symmetry_cell_setting 'orthorhombic'
loop_
_space_group_symop_operation_xyz
x,y,z
-x,-y,z
-x,y,z
x,-y,z
1/2+x,1/2+y,z
1/2-x,1/2-y,z
1/2-x,1/2+y,z
1/2+x,1/2-y,z
loop_
_atom_site_type_symbol
_atom_site_label
_atom_site_fract_x
_atom_site_fract_y
_atom_site_fract_z
Si Si1 0.113563 0.425091 0.369510
Si Si2 0.386210 0.340584 0.330063
Si Si3 0.386076 0.777455 0.912138
Si Si4 0.286106 0.641537 0.833230
Si Si5 0.217453 0.077588 0.552989
Si Si6 0.611132 0.422771 0.069374
Si Si7 0.615372 0.795841 0.214556
O O1 0.132572 0.500000 0.319165
O O2 0.173352 0.417989 0.501858
O O3 0.144872 0.367127 0.270639
O O4 0.000000 0.419098 0.390524
O O5 0.500000 0.340754 0.348916
O O6 0.339593 0.378892 0.448669
O O7 0.354976 0.264833 0.306807
O O8 0.367338 0.378780 0.195066
O O9 0.500000 0.784000 0.899635
O O10 0.349501 0.708257 0.851740
O O11 0.323363 0.835249 0.848075
O O12 0.358935 0.780573 0.065576
O O13 0.298326 0.606532 0.695495
O O14 0.320534 0.595080 0.950613
O O15 0.189733 0.000000 0.547436
O O16 0.500000 0.408918 0.032197
O O17 0.618187 0.500000 0.103538
O O18 0.500000 0.796063 0.214855
#
# Coordination Sequence:
#
# PCOD9349479 Si02
#       7
#     8   8   8   8   8   8   8
#     4   9  20  39  62  88 122 164 205 250 308 370
#     4  10  21  38  62  91 121 155 197 253 313 366
#     4  10  22  40  61  90 125 159 203 265 317 360
#     4  11  23  38  61  89 121 166 208 252 305 375
#     4  11  25  41  57  87 127 163 205 255 305 365
#     4  10  20  37  62  89 119 160 208 255 311 374
#     4   9  18  36  63  92 120 150 197 257 308 360
#
# _framework density 19.290561
#
# number of rings (size 3 to 8) (size 9 to 14) (size 15 to 20)
#    0.000    2.000    1.429    1.286    2.000    5.429 
#    0.000    2.143    0.000    2.143    0.000    0.000 
#    0.000    0.000    0.000    0.000    0.000    0.000 
#
# Total GULP energy -156377.151415 kJ/mol
# GULP energy per Si atom -5584.898265 kJ/mol
# Density = 1.924665 g / cm^3
# Si number density = 19.290561 Si / 1000 Ang^3
#
#
#
# Elastic Constant Matrix: (Units=GPa)
#
#
# Indices 1 2 3 4 5 6 
#
# 1 95.2168 40.2784 38.3636 0.0000 0.0000 0.0000
# 2 40.2784 133.0758 65.0245 0.0000 0.0000 0.0000
# 3 38.3636 65.0245 96.2777 0.0000 0.0000 0.0000
# 4 0.0000 0.0000 0.0000 27.5103 0.0000 0.0000
# 5 0.0000 0.0000 0.0000 0.0000 -27.7107 0.0000
# 6 0.0000 0.0000 0.0000 0.0000 0.0000 21.2005
#
#
#
# Elastic Compliance Matrix: (Units=1/GPa)
#
#
# Indices 1 2 3 4 5 6 
#
# 1 0.012884 -0.002076 -0.003732 0.000000 0.000000 0.000000
# 2 -0.002076 0.011550 -0.006974 0.000000 0.000000 0.000000
# 3 -0.003732 -0.006974 0.016583 0.000000 0.000000 0.000000
# 4 0.000000 0.000000 0.000000 0.036350 0.000000 0.000000
# 5 0.000000 0.000000 0.000000 0.000000 -0.036087 0.000000
# 6 0.000000 0.000000 0.000000 0.000000 0.000000 0.047169
#
#
# Mechanical properties :
#
#
# Convention : Reuss Voigt Hill
#
# Bulk Modulus (GPa) = 64.70441 67.98925 66.34683
# Shear Modulus (GPa) = 41.95887 16.26030 29.10959
#
# Velocity S-wave (km/s) = 4.66885 2.90645 3.88881
# Velocity P-wave (km/s) = 7.91701 6.82529 7.39134
#
# Compressibility (1/GPa) = 0.01545490
#
# Stress axis : x y z
#
# Youngs Moduli (GPa) = 77.61471 86.57650 60.30106
#
# Poissons Ratio (x) = 0.17976 0.22502
# Poissons Ratio (y) = 0.16115 0.42052
# Poissons Ratio (z) = 0.28963 0.60376
#
# Static dielectric constant tensor:
#      x y z
#    x 1.726140 0.000000 0.000000 
#    y 0.000000 1.683770 0.000000 
#    z 0.000000 0.000000 1.622170 
# 
# From -- ./inp_files/7665.got.cif
#   From: 2010.05.17/outbox.cif.g08.bks.cpg/sg35_4_cif.got.tgz:7665.got - 2010.06.03 17:29:28.
