data_PCOD9349612
_publ_section_title
;
Structure prediction by ZEFSAII (Michael W. Deem and Ramdas Pophale) SiO2 
 PCOD9349612
Probable space group: C M M 2
;
_chemical_formula_sum "Si O2"
_cell_formula_units_Z 48
_cell_length_a 8.272411
_cell_length_b 18.678425
_cell_length_c 16.191805
_cell_angle_alpha 90.000000
_cell_angle_beta 90.000000
_cell_angle_gamma 90.000000
_cell_volume 2501.886601
_symmetry_space_group_name_H-M "C M M 2"
_symmetry_group_IT_number 35
_symmetry_cell_setting 'orthorhombic'
loop_
_space_group_symop_operation_xyz
x,y,z
-x,-y,z
-x,y,z
x,-y,z
1/2+x,1/2+y,z
1/2-x,1/2-y,z
1/2-x,1/2+y,z
1/2+x,1/2-y,z
loop_
_atom_site_type_symbol
_atom_site_label
_atom_site_fract_x
_atom_site_fract_y
_atom_site_fract_z
Si Si1 0.306601 0.581934 0.702500
Si Si2 0.804670 0.082057 0.381544
Si Si3 0.302203 0.916809 0.060030
Si Si4 0.695677 0.668415 0.543513
Si Si5 0.688319 0.913101 0.879588
Si Si6 0.306409 0.168469 0.221224
O O1 0.500000 0.578178 0.694758
O O2 0.243962 0.500000 0.695376
O O3 0.245823 0.630878 0.627900
O O4 0.268933 0.609951 0.794313
O O5 0.749320 0.123563 0.463671
O O6 0.752000 0.123827 0.299985
O O7 0.000000 0.080853 0.383572
O O8 0.747286 0.000000 0.380619
O O9 0.500000 0.916376 0.057651
O O10 0.248168 0.869001 0.136573
O O11 0.254465 0.000000 0.071737
O O12 0.246814 0.890400 0.969409
O O13 0.500000 0.667014 0.543958
O O14 0.750000 0.750000 0.538100
O O15 0.500000 0.893732 0.874694
O O16 0.698752 0.000000 0.881754
O O17 0.500000 0.166987 0.220336
O O18 0.250000 0.250000 0.226592
#
# Coordination Sequence:
#
# PCOD9349612 Si02
#       6
#     8   8   8   8   8   8
#     4   9  17  31  51  74 100 131 168 209 253 300
#     4  10  21  38  59  81 104 132 169 213 260 310
#     4   8  15  30  52  75  99 131 171 212 255 304
#     4  10  21  36  53  74 103 138 170 204 251 305
#     4   8  14  27  49  75 100 128 166 211 255 298
#     4  11  22  36  54  77 107 141 175 212 257 308
#
# _framework density 19.185521000000001
#
# number of rings (size 3 to 8) (size 9 to 14) (size 15 to 20)
#    0.000    2.667    0.000    3.000    0.000    5.667 
#    0.000    2.500    0.000   11.000    0.000    0.000 
#    0.000    0.000    0.000    0.000    0.000    0.000 
#
# Total GULP energy -133857.470955 kJ/mol
# GULP energy per Si atom -5577.394623 kJ/mol
# Density = 1.914185 g / cm^3
# Si number density = 19.185521 Si / 1000 Ang^3
#
#
#
# Elastic Constant Matrix: (Units=GPa)
#
#
# Indices 1 2 3 4 5 6 
#
# 1 6.4929 12.3727 21.0575 0.0000 0.0000 0.0000
# 2 12.3727 136.3338 114.3867 0.0000 0.0000 0.0000
# 3 21.0575 114.3867 225.0386 0.0000 0.0000 0.0000
# 4 0.0000 0.0000 0.0000 -20.0880 0.0000 0.0000
# 5 0.0000 0.0000 0.0000 0.0000 29.3878 0.0000
# 6 0.0000 0.0000 0.0000 0.0000 0.0000 17.6877
#
#
#
# Elastic Compliance Matrix: (Units=1/GPa)
#
#
# Indices 1 2 3 4 5 6 
#
# 1 0.222875 -0.004758 -0.018437 0.000000 0.000000 0.000000
# 2 -0.004758 0.012891 -0.006107 0.000000 0.000000 0.000000
# 3 -0.018437 -0.006107 0.009273 0.000000 0.000000 0.000000
# 4 0.000000 0.000000 0.000000 -0.049781 0.000000 0.000000
# 5 0.000000 0.000000 0.000000 0.000000 0.034028 0.000000
# 6 0.000000 0.000000 0.000000 0.000000 0.000000 0.056536
#
#
# Mechanical properties :
#
#
# Convention : Reuss Voigt Hill
#
# Bulk Modulus (GPa) = 5.36378 73.72210 39.54294
# Shear Modulus (GPa) = 12.29799 20.06739 16.18269
#
# Velocity S-wave (km/s) = 2.53455 3.23765 2.90743
# Velocity P-wave (km/s) = 3.37151 7.24471 5.65035
#
# Compressibility (1/GPa) = 0.18643571
#
# Stress axis : x y z
#
# Youngs Moduli (GPa) = 4.48682 77.57515 107.83894
#
# Poissons Ratio (x) = 0.36909 1.98819
# Poissons Ratio (y) = 0.02135 0.65859
# Poissons Ratio (z) = 0.08272 0.47376
#
# Static dielectric constant tensor:
#      x y z
#    x 1.677770 0.000000 0.000000 
#    y 0.000000 1.639740 0.000000 
#    z 0.000000 0.000000 1.681440 
# 
# From -- ./inp_files/15106.got.cif
#   From: 2010.05.17/outbox.cif.g08.bks.cpg/sg35_8_cif.got.tgz:15106.got - 2010.06.03 17:29:28.
