data_PCOD9349233
_publ_section_title
;
Structure prediction by ZEFSAII (Michael W. Deem and Ramdas Pophale) SiO2 
 PCOD9349233
Probable space group: C M M 2
;
_chemical_formula_sum "Si O2"
_cell_formula_units_Z 64
_cell_length_a 15.174137
_cell_length_b 16.205688
_cell_length_c 11.789067
_cell_angle_alpha 90.000000
_cell_angle_beta 90.000000
_cell_angle_gamma 90.000000
_cell_volume 2899.017988
_symmetry_space_group_name_H-M "C M M 2"
_symmetry_group_IT_number 35
_symmetry_cell_setting 'orthorhombic'
loop_
_space_group_symop_operation_xyz
x,y,z
-x,-y,z
-x,y,z
x,-y,z
1/2+x,1/2+y,z
1/2-x,1/2-y,z
1/2-x,1/2+y,z
1/2+x,1/2-y,z
loop_
_atom_site_type_symbol
_atom_site_label
_atom_site_fract_x
_atom_site_fract_y
_atom_site_fract_z
Si Si1 0.599473 0.651104 0.761590
Si Si2 0.405661 0.099574 0.949586
Si Si3 0.212414 0.900619 0.220657
Si Si4 0.099473 0.848898 0.409930
Si Si5 0.404221 0.202782 0.585760
Si Si6 0.263698 0.588741 0.585760
Si Si7 0.094339 0.599574 0.221935
Si Si8 0.712414 0.400619 0.950863
O O1 0.500000 0.618002 0.754951
O O2 0.598552 0.737559 0.695434
O O3 0.671296 0.599083 0.691998
O O4 0.636154 0.649034 0.888049
O O5 0.500000 0.131476 0.904218
O O6 0.309760 0.126864 0.907416
O O7 0.405958 0.000000 0.934702
O O8 0.405767 0.113338 0.085760
O O9 0.136154 0.850966 0.283472
O O10 0.309760 0.873136 0.264104
O O11 0.202945 0.000000 0.239084
O O12 0.209544 0.888085 0.085760
O O13 0.098552 0.762444 0.476088
O O14 0.171297 0.900919 0.479521
O O15 0.000000 0.882000 0.416568
O O16 0.500000 0.159467 0.585759
O O17 0.315494 0.152051 0.585758
O O18 0.221300 0.500000 0.585763
O O19 0.094042 0.500000 0.236818
O O20 0.000000 0.631476 0.267302
O O21 0.702945 0.500000 0.932436
#
# Coordination Sequence:
#
# PCOD9349233 Si02
#       8
#     8   8   8   8   8   8   8   8
#     4  10  20  35  57  85 120 161 198 231 278 345
#     4   7  10  19  36  58  90 138 193 241 282 325
#     4   9  17  28  45  77 121 162 200 245 292 335
#     4  10  20  35  57  85 120 161 198 231 278 345
#     4   9  21  43  67  87 112 149 189 236 294 355
#     4  11  22  38  65  93 113 139 185 247 302 346
#     4   7  10  19  36  58  90 138 193 241 282 325
#     4   9  17  28  45  77 121 162 200 245 292 335
#
# _framework density 22.076440000000002
#
# number of rings (size 3 to 8) (size 9 to 14) (size 15 to 20)
#    0.000    3.000    0.000    5.625    0.000    3.250 
#    0.000    2.500    0.000    9.000    0.000    0.000 
#    0.000    0.000    0.000    5.500    0.000    0.000 
#
# Total GULP energy -178513.104155 kJ/mol
# GULP energy per Si atom -5578.534505 kJ/mol
# Density = 2.202619 g / cm^3
# Si number density = 22.076440 Si / 1000 Ang^3
#
#
#
# Elastic Constant Matrix: (Units=GPa)
#
#
# Indices 1 2 3 4 5 6 
#
# 1 182.3555 47.9570 62.1569 0.0000 0.0000 0.0000
# 2 47.9570 34.2216 20.3741 0.0000 0.0000 0.0000
# 3 62.1569 20.3741 68.0033 0.0000 0.0000 0.0000
# 4 0.0000 0.0000 0.0000 5.0602 0.0000 0.0000
# 5 0.0000 0.0000 0.0000 0.0000 32.9411 0.0000
# 6 0.0000 0.0000 0.0000 0.0000 0.0000 -24.8077
#
#
#
# Elastic Compliance Matrix: (Units=1/GPa)
#
#
# Indices 1 2 3 4 5 6 
#
# 1 0.010533 -0.010989 -0.006335 0.000000 0.000000 0.000000
# 2 -0.010989 0.047030 -0.004046 0.000000 0.000000 0.000000
# 3 -0.006335 -0.004046 0.021708 0.000000 0.000000 0.000000
# 4 0.000000 0.000000 0.000000 0.197622 0.000000 0.000000
# 5 0.000000 0.000000 0.000000 0.000000 0.030357 0.000000
# 6 0.000000 0.000000 0.000000 0.000000 0.000000 -0.040310
#
#
# Mechanical properties :
#
#
# Convention : Reuss Voigt Hill
#
# Bulk Modulus (GPa) = 27.37451 60.61738 43.99594
# Shear Modulus (GPa) = 15.53479 12.91154 14.22317
#
# Velocity S-wave (km/s) = 2.65558 2.42100 2.54100
# Velocity P-wave (km/s) = 4.67221 5.94412 5.34613
#
# Compressibility (1/GPa) = 0.03653034
#
# Stress axis : x y z
#
# Youngs Moduli (GPa) = 94.93805 21.26305 46.06605
#
# Poissons Ratio (x) = 0.23366 0.29184
# Poissons Ratio (y) = 1.04329 0.18638
# Poissons Ratio (z) = 0.60145 0.08603
#
# Static dielectric constant tensor:
#      x y z
#    x 1.819000 0.000000 0.000000 
#    y 0.000000 1.820380 0.000000 
#    z 0.000000 0.000000 1.880430 
# 
# From -- ./inp_files/13191.got.cif
#   From: 2010.05.17/outbox.cif.g08.bks.cpg/sg35_7_cif.got.tgz:13191.got - 2010.06.03 17:29:28.
