data_PCOD9349174
_publ_section_title
;
Structure prediction by ZEFSAII (Michael W. Deem and Ramdas Pophale) SiO2 
 PCOD9349174
Probable space group: C M M 2
;
_chemical_formula_sum "Si O2"
_cell_formula_units_Z 64
_cell_length_a 9.353840
_cell_length_b 18.527563
_cell_length_c 21.156782
_cell_angle_alpha 90.000000
_cell_angle_beta 90.000000
_cell_angle_gamma 90.000000
_cell_volume 3666.551983
_symmetry_space_group_name_H-M "C M M 2"
_symmetry_group_IT_number 35
_symmetry_cell_setting 'orthorhombic'
loop_
_space_group_symop_operation_xyz
x,y,z
-x,-y,z
-x,y,z
x,-y,z
1/2+x,1/2+y,z
1/2-x,1/2-y,z
1/2-x,1/2+y,z
1/2+x,1/2-y,z
loop_
_atom_site_type_symbol
_atom_site_label
_atom_site_fract_x
_atom_site_fract_y
_atom_site_fract_z
Si Si1 0.669278 0.585776 0.122840
Si Si2 0.164339 0.588160 0.247620
Si Si3 0.328725 0.586094 0.513464
Si Si4 0.831916 0.584895 0.751210
Si Si5 0.835698 0.087822 0.370356
Si Si6 0.670776 0.673012 0.856672
Si Si7 0.829307 0.174368 0.999996
Si Si8 0.329676 0.173773 0.622255
O O1 0.500000 0.597926 0.132386
O O2 0.691106 0.500000 0.117211
O O3 0.753388 0.611913 0.184592
O O4 0.713614 0.622943 0.057493
O O5 0.169564 0.500000 0.247952
O O6 0.239134 0.612642 0.312343
O O7 0.000000 0.610037 0.245612
O O8 0.500000 0.597118 0.521412
O O9 0.302789 0.500000 0.520065
O O10 0.192329 0.627554 0.686028
O O11 0.291451 0.608284 0.441390
O O12 0.804067 0.500000 0.742589
O O13 0.760783 0.630211 0.564172
O O14 0.000000 0.593731 0.767849
O O15 0.000000 0.109991 0.360297
O O16 0.834616 0.000000 0.370028
O O17 0.500000 0.681955 0.848838
O O18 0.750000 0.750000 0.849095
O O19 0.734759 0.618694 0.805671
O O20 0.699022 0.647163 0.928721
O O21 0.750000 0.250000 0.006798
O O22 0.000000 0.185293 0.004093
O O23 0.500000 0.183701 0.613492
O O24 0.250000 0.250000 0.628318
#
# Coordination Sequence:
#
# PCOD9349174 Si02
#       8
#     8   8   8   8   8   8   8   8
#     4   9  17  30  48  69  96 131 168 207 252 300
#     4   9  16  25  40  67 100 130 164 207 251 296
#     4   9  18  33  54  80 107 134 169 214 260 307
#     4  10  22  39  57  80 109 137 168 210 258 305
#     4   8  14  26  45  69  98 132 166 201 247 302
#     4  10  20  35  56  80 105 136 174 213 255 306
#     4   9  19  34  52  74 100 132 169 208 250 299
#     4  11  23  38  56  77 104 139 176 212 253 304
#
# _framework density 17.455090999999999
#
# number of rings (size 3 to 8) (size 9 to 14) (size 15 to 20)
#    0.000    2.625    0.000    2.625    0.000    6.500 
#    0.000    2.500    0.000    2.250    0.000    3.500 
#    0.000    0.000    0.000    0.000    0.000    0.000 
#
# Total GULP energy -178440.088907 kJ/mol
# GULP energy per Si atom -5576.252778 kJ/mol
# Density = 1.741536 g / cm^3
# Si number density = 17.455091 Si / 1000 Ang^3
#
#
#
# Elastic Constant Matrix: (Units=GPa)
#
#
# Indices 1 2 3 4 5 6 
#
# 1 88.6107 57.6132 105.3306 0.0000 0.0000 0.0000
# 2 57.6132 61.5078 72.7596 0.0000 0.0000 0.0000
# 3 105.3306 72.7596 178.2614 0.0000 0.0000 0.0000
# 4 0.0000 0.0000 0.0000 -45.1386 0.0000 0.0000
# 5 0.0000 0.0000 0.0000 0.0000 10.7521 0.0000
# 6 0.0000 0.0000 0.0000 0.0000 0.0000 22.5037
#
#
#
# Elastic Compliance Matrix: (Units=1/GPa)
#
#
# Indices 1 2 3 4 5 6 
#
# 1 0.050883 -0.023388 -0.020520 0.000000 0.000000 0.000000
# 2 -0.023388 0.042187 -0.003400 0.000000 0.000000 0.000000
# 3 -0.020520 -0.003400 0.019122 0.000000 0.000000 0.000000
# 4 0.000000 0.000000 0.000000 -0.022154 0.000000 0.000000
# 5 0.000000 0.000000 0.000000 0.000000 0.093005 0.000000
# 6 0.000000 0.000000 0.000000 0.000000 0.000000 0.044437
#
#
# Mechanical properties :
#
#
# Convention : Reuss Voigt Hill
#
# Bulk Modulus (GPa) = 56.89131 88.86518 72.87824
# Shear Modulus (GPa) = 15.24605 3.80188 9.52397
#
# Velocity S-wave (km/s) = 2.95862 1.47744 2.33840
# Velocity P-wave (km/s) = 6.65845 7.34382 7.00952
#
# Compressibility (1/GPa) = 0.01757738
#
# Stress axis : x y z
#
# Youngs Moduli (GPa) = 19.65280 23.70420 52.29596
#
# Poissons Ratio (x) = 0.55439 1.07310
# Poissons Ratio (y) = 0.45964 0.17778
# Poissons Ratio (z) = 0.40327 0.08058
#
# Static dielectric constant tensor:
#      x y z
#    x 1.581210 0.000000 0.000000 
#    y 0.000000 1.570570 0.000000 
#    z 0.000000 0.000000 1.591740 
# 
# From -- ./inp_files/18510.got.cif
#   From: 2010.05.17/outbox.cif.g08.bks.cpg/sg35_10_cif.got.tgz:18510.got - 2010.06.03 17:29:28.
