data_PCOD9349713
_publ_section_title
;
Structure prediction by ZEFSAII (Michael W. Deem and Ramdas Pophale) SiO2 
 PCOD9349713
Probable space group: C M M 2
;
_chemical_formula_sum "Si O2"
_cell_formula_units_Z 64
_cell_length_a 24.752736
_cell_length_b 14.132721
_cell_length_c 9.612175
_cell_angle_alpha 90.000000
_cell_angle_beta 90.000000
_cell_angle_gamma 90.000000
_cell_volume 3362.564815
_symmetry_space_group_name_H-M "C M M 2"
_symmetry_group_IT_number 35
_symmetry_cell_setting 'orthorhombic'
loop_
_space_group_symop_operation_xyz
x,y,z
-x,-y,z
-x,y,z
x,-y,z
1/2+x,1/2+y,z
1/2-x,1/2-y,z
1/2-x,1/2+y,z
1/2+x,1/2-y,z
loop_
_atom_site_type_symbol
_atom_site_label
_atom_site_fract_x
_atom_site_fract_y
_atom_site_fract_z
Si Si1 0.370126 0.388762 0.679660
Si Si2 0.145409 0.894725 0.008722
Si Si3 0.246115 0.385655 0.645248
Si Si4 0.935835 0.607296 0.921303
Si Si5 0.150171 0.613332 0.439649
Si Si6 0.564519 0.791107 0.633924
Si Si7 0.227120 0.609626 0.955530
Si Si8 0.638139 0.798252 0.139439
O O1 0.377880 0.500000 0.644353
O O2 0.309152 0.359182 0.634346
O O3 0.412873 0.315249 0.618701
O O4 0.372662 0.382084 0.848214
O O5 0.126743 0.811546 0.109303
O O6 0.129175 0.000000 0.054202
O O7 0.210474 0.891485 0.998849
O O8 0.246895 0.500000 0.652634
O O9 0.204861 0.359914 0.523773
O O10 0.223931 0.355456 0.796281
O O11 0.919249 0.500000 0.887436
O O12 0.922587 0.673678 0.790648
O O13 0.000000 0.608975 0.938553
O O14 0.907707 0.642121 0.060741
O O15 0.151462 0.500000 0.415050
O O16 0.098795 0.641575 0.533051
O O17 0.145481 0.670007 0.296556
O O18 0.500000 0.797201 0.613166
O O19 0.208296 0.500000 0.962548
O O20 0.192018 0.673716 0.055120
#
# Coordination Sequence:
#
# PCOD9349713 Si02
#       8
#     8   8   8   8   8   8   8   8
#     4   9  18  38  65  92 118 153 199 252 300 348
#     4   9  19  36  58  87 121 152 192 242 293 349
#     4   8  17  35  59  86 121 158 196 239 291 357
#     4  10  21  37  59  86 114 148 197 253 301 350
#     4  11  24  39  56  87 128 165 199 242 300 367
#     4  11  23  40  61  87 117 156 206 256 303 358
#     4   9  17  32  57  86 115 153 197 239 285 346
#     4  12  21  36  59  86 120 159 199 239 293 360
#
# _framework density 19.033090999999999
#
# number of rings (size 3 to 8) (size 9 to 14) (size 15 to 20)
#    0.000    2.125    1.250    4.125    0.000    3.000 
#    4.500    0.625    0.000    0.375    0.000    0.000 
#    0.000    0.000    0.000    0.000    0.000    0.000 
#
# Total GULP energy -178705.642761 kJ/mol
# GULP energy per Si atom -5584.551336 kJ/mol
# Density = 1.898977 g / cm^3
# Si number density = 19.033091 Si / 1000 Ang^3
#
#
#
# Elastic Constant Matrix: (Units=GPa)
#
#
# Indices 1 2 3 4 5 6 
#
# 1 50.6889 20.3420 25.8242 0.0000 0.0000 0.0000
# 2 20.3420 116.2181 29.1833 0.0000 0.0000 0.0000
# 3 25.8242 29.1833 84.9243 0.0000 0.0000 0.0000
# 4 0.0000 0.0000 0.0000 24.0501 0.0000 0.0000
# 5 0.0000 0.0000 0.0000 0.0000 -16.2779 0.0000
# 6 0.0000 0.0000 0.0000 0.0000 0.0000 27.0279
#
#
#
# Elastic Compliance Matrix: (Units=1/GPa)
#
#
# Indices 1 2 3 4 5 6 
#
# 1 0.024040 -0.002596 -0.006418 0.000000 0.000000 0.000000
# 2 -0.002596 0.009697 -0.002543 0.000000 0.000000 0.000000
# 3 -0.006418 -0.002543 0.014601 0.000000 0.000000 0.000000
# 4 0.000000 0.000000 0.000000 0.041580 0.000000 0.000000
# 5 0.000000 0.000000 0.000000 0.000000 -0.061433 0.000000
# 6 0.000000 0.000000 0.000000 0.000000 0.000000 0.036999
#
#
# Mechanical properties :
#
#
# Convention : Reuss Voigt Hill
#
# Bulk Modulus (GPa) = 39.64527 44.72560 42.18544
# Shear Modulus (GPa) = 51.54325 18.72547 35.13436
#
# Velocity S-wave (km/s) = 5.20957 3.14002 4.30113
# Velocity P-wave (km/s) = 7.55388 6.05774 6.84680
#
# Compressibility (1/GPa) = 0.02522369
#
# Stress axis : x y z
#
# Youngs Moduli (GPa) = 41.59767 103.11958 68.48998
#
# Poissons Ratio (x) = 0.26771 0.43957
# Poissons Ratio (y) = 0.10799 0.17417
# Poissons Ratio (z) = 0.26697 0.26223
#
# Static dielectric constant tensor:
#      x y z
#    x 1.656150 0.000000 0.000000 
#    y 0.000000 1.730930 0.000000 
#    z 0.000000 0.000000 1.630170 
# 
# From -- ./inp_files/7821.got.cif
#   From: 2010.05.17/outbox.cif.g08.bks.cpg/sg35_4_cif.got.tgz:7821.got - 2010.06.03 17:29:28.
