data_PCOD9349067
_publ_section_title
;
Structure prediction by ZEFSAII (Michael W. Deem and Ramdas Pophale) SiO2 
 PCOD9349067
Probable space group: C M M 2
;
_chemical_formula_sum "Si O2"
_cell_formula_units_Z 40
_cell_length_a 8.684619
_cell_length_b 29.512858
_cell_length_c 7.972128
_cell_angle_alpha 90.000000
_cell_angle_beta 90.000000
_cell_angle_gamma 90.000000
_cell_volume 2043.319604
_symmetry_space_group_name_H-M "C M M 2"
_symmetry_group_IT_number 35
_symmetry_cell_setting 'orthorhombic'
loop_
_space_group_symop_operation_xyz
x,y,z
-x,-y,z
-x,y,z
x,-y,z
1/2+x,1/2+y,z
1/2-x,1/2-y,z
1/2-x,1/2+y,z
1/2+x,1/2-y,z
loop_
_atom_site_type_symbol
_atom_site_label
_atom_site_fract_x
_atom_site_fract_y
_atom_site_fract_z
Si Si1 0.814886 0.550142 0.548930
Si Si2 0.314338 0.853721 0.407434
Si Si3 0.316956 0.300344 0.724176
Si Si4 0.183768 0.356313 0.034925
Si Si5 0.316260 0.551054 0.924235
O O1 0.777733 0.500000 0.479795
O O2 0.772875 0.593505 0.438634
O O3 0.733333 0.554437 0.729083
O O4 0.000000 0.551835 0.575912
O O5 0.500000 0.850310 0.419192
O O6 0.242068 0.824402 0.555095
O O7 0.268648 0.839748 0.219806
O O8 0.500000 0.298709 0.722724
O O9 0.250000 0.250000 0.734886
O O10 0.261002 0.329328 0.883602
O O11 0.230095 0.408898 0.018773
O O12 0.000000 0.352188 0.019263
O O13 0.500000 0.556872 0.937468
O O14 0.275960 0.500000 0.980401
#
# Coordination Sequence:
#
# PCOD9349067 Si02
#       5
#     8   8   8   8   8
#     4   9  17  32  57  87 121 163 207 250 297 355
#     4  10  22  40  64  94 127 162 205 254 304 364
#     4  12  26  45  69  92 121 159 201 255 314 372
#     4  11  23  40  64  94 128 164 206 253 305 368
#     4  10  20  34  55  87 126 168 211 253 302 358
#
# _framework density 19.575990000000001
#
# number of rings (size 3 to 8) (size 9 to 14) (size 15 to 20)
#    0.000    1.600    2.000    3.000    0.000    4.400 
#    0.000    2.000    0.000    2.400    0.000    0.000 
#    0.000    0.000    0.000    0.000    0.000    0.000 
#
# Total GULP energy -111758.295937 kJ/mol
# GULP energy per Si atom -5587.914797 kJ/mol
# Density = 1.953143 g / cm^3
# Si number density = 19.575990 Si / 1000 Ang^3
#
#
#
# Elastic Constant Matrix: (Units=GPa)
#
#
# Indices 1 2 3 4 5 6 
#
# 1 50.7067 37.6390 48.9444 0.0000 0.0000 0.0000
# 2 37.6390 113.8108 68.0622 0.0000 0.0000 0.0000
# 3 48.9444 68.0622 145.9534 0.0000 0.0000 0.0000
# 4 0.0000 0.0000 0.0000 -3.8814 0.0000 0.0000
# 5 0.0000 0.0000 0.0000 0.0000 -8.3026 0.0000
# 6 0.0000 0.0000 0.0000 0.0000 0.0000 -12.8274
#
#
#
# Elastic Compliance Matrix: (Units=1/GPa)
#
#
# Indices 1 2 3 4 5 6 
#
# 1 0.031626 -0.005709 -0.007943 0.000000 0.000000 0.000000
# 2 -0.005709 0.013215 -0.004248 0.000000 0.000000 0.000000
# 3 -0.007943 -0.004248 0.011496 0.000000 0.000000 0.000000
# 4 0.000000 0.000000 0.000000 -0.257638 0.000000 0.000000
# 5 0.000000 0.000000 0.000000 0.000000 -0.120444 0.000000
# 6 0.000000 0.000000 0.000000 0.000000 0.000000 -0.077958
#
#
# Mechanical properties :
#
#
# Convention : Reuss Voigt Hill
#
# Bulk Modulus (GPa) = 48.69322 68.86245 58.77784
# Shear Modulus (GPa) = -14.00341 5.38607 -4.30867
#
# Velocity S-wave (km/s) = -2.67748 1.66052 -1.48518
# Velocity P-wave (km/s) = 3.92039 6.23938 5.21053
#
# Compressibility (1/GPa) = 0.02053674
#
# Stress axis : x y z
#
# Youngs Moduli (GPa) = 31.61926 75.67145 86.98466
#
# Poissons Ratio (x) = 0.43200 0.69096
# Poissons Ratio (y) = 0.18051 0.36952
# Poissons Ratio (z) = 0.25117 0.32146
#
# Static dielectric constant tensor:
#      x y z
#    x 1.651190 0.000000 0.000000 
#    y 0.000000 1.685010 0.000000 
#    z 0.000000 0.000000 1.677560 
# 
# From -- ./inp_files/4971.got.cif
#   From: 2010.05.17/outbox.cif.g08.bks.cpg/sg35_3_cif.got.tgz:4971.got - 2010.06.03 17:29:28.
