data_PCOD9349464
_publ_section_title
;
Structure prediction by ZEFSAII (Michael W. Deem and Ramdas Pophale) SiO2 
 PCOD9349464
Probable space group: C M M 2
;
_chemical_formula_sum "Si O2"
_cell_formula_units_Z 64
_cell_length_a 8.860634
_cell_length_b 29.611405
_cell_length_c 12.695003
_cell_angle_alpha 90.000000
_cell_angle_beta 90.000000
_cell_angle_gamma 90.000000
_cell_volume 3330.861847
_symmetry_space_group_name_H-M "C M M 2"
_symmetry_group_IT_number 35
_symmetry_cell_setting 'orthorhombic'
loop_
_space_group_symop_operation_xyz
x,y,z
-x,-y,z
-x,y,z
x,-y,z
1/2+x,1/2+y,z
1/2-x,1/2-y,z
1/2-x,1/2+y,z
1/2+x,1/2-y,z
loop_
_atom_site_type_symbol
_atom_site_label
_atom_site_fract_x
_atom_site_fract_y
_atom_site_fract_z
Si Si1 0.678988 0.375660 0.447680
Si Si2 0.818207 0.300358 0.300290
Si Si3 0.682251 0.877181 0.678383
Si Si4 0.817970 0.700143 0.838563
Si Si5 0.328411 0.554971 0.076623
Si Si6 0.318448 0.199740 0.068796
Si Si7 0.676033 0.945864 0.294502
Si Si8 0.820171 0.553186 0.858065
O O1 0.500000 0.370880 0.447731
O O2 0.753491 0.333011 0.388785
O O3 0.740986 0.379374 0.565731
O O4 0.728263 0.419231 0.380242
O O5 0.750000 0.250000 0.309337
O O6 0.775206 0.319271 0.183235
O O7 0.000000 0.298182 0.307033
O O8 0.500000 0.877077 0.665281
O O9 0.726911 0.832638 0.744191
O O10 0.722295 0.918702 0.755181
O O11 0.750000 0.750000 0.828030
O O12 0.000000 0.703313 0.837094
O O13 0.774363 0.680514 0.954423
O O14 0.500000 0.570571 0.090261
O O15 0.329250 0.500000 0.074848
O O16 0.228457 0.567490 0.177120
O O17 0.261267 0.568896 0.964504
O O18 0.500000 0.202222 0.069334
O O19 0.250000 0.250000 0.068158
O O20 0.500000 0.934729 0.308270
O O21 0.694148 0.000000 0.304470
O O22 0.790035 0.500000 0.843250
O O23 0.000000 0.558899 0.874206
#
# Coordination Sequence:
#
# PCOD9349464 Si02
#       8
#     8   8   8   8   8   8   8   8
#     4  12  26  41  57  81 114 151 195 243 291 345
#     4  10  20  37  61  87 117 151 188 232 284 342
#     4  10  22  39  56  77 108 147 194 241 280 328
#     4   9  18  34  56  81 109 140 175 220 274 328
#     4   9  17  31  54  86 121 150 179 221 276 338
#     4   8  15  29  52  82 111 140 175 219 273 331
#     4  10  21  39  63  87 113 148 189 234 286 344
#     4   9  18  34  57  83 111 146 187 229 276 334
#
# _framework density 19.214247
#
# number of rings (size 3 to 8) (size 9 to 14) (size 15 to 20)
#    0.000    2.375    0.000    2.250    0.000    5.750 
#    0.000    5.000    0.000    0.000    0.000    0.000 
#    0.000    0.000    0.000    0.000    0.000    0.000 
#
# Total GULP energy -178597.026518 kJ/mol
# GULP energy per Si atom -5581.157079 kJ/mol
# Density = 1.917051 g / cm^3
# Si number density = 19.214247 Si / 1000 Ang^3
#
#
#
# Elastic Constant Matrix: (Units=GPa)
#
#
# Indices 1 2 3 4 5 6 
#
# 1 62.7108 36.4066 61.2495 0.0000 0.0000 0.0000
# 2 36.4066 57.1070 43.5689 0.0000 0.0000 0.0000
# 3 61.2495 43.5689 172.6569 0.0000 0.0000 0.0000
# 4 0.0000 0.0000 0.0000 32.2996 0.0000 0.0000
# 5 0.0000 0.0000 0.0000 0.0000 24.7804 0.0000
# 6 0.0000 0.0000 0.0000 0.0000 0.0000 21.4956
#
#
#
# Elastic Compliance Matrix: (Units=1/GPa)
#
#
# Indices 1 2 3 4 5 6 
#
# 1 0.031782 -0.014440 -0.007631 0.000000 0.000000 0.000000
# 2 -0.014440 0.028247 -0.002005 0.000000 0.000000 0.000000
# 3 -0.007631 -0.002005 0.009005 0.000000 0.000000 0.000000
# 4 0.000000 0.000000 0.000000 0.030960 0.000000 0.000000
# 5 0.000000 0.000000 0.000000 0.000000 0.040354 0.000000
# 6 0.000000 0.000000 0.000000 0.000000 0.000000 0.046521
#
#
# Mechanical properties :
#
#
# Convention : Reuss Voigt Hill
#
# Bulk Modulus (GPa) = 47.88905 63.88053 55.88479
# Shear Modulus (GPa) = 20.66267 25.79843 23.23055
#
# Velocity S-wave (km/s) = 3.28286 3.66822 3.48088
# Velocity P-wave (km/s) = 6.27275 7.15959 6.73079
#
# Compressibility (1/GPa) = 0.02088160
#
# Stress axis : x y z
#
# Youngs Moduli (GPa) = 31.46402 35.40251 111.05064
#
# Poissons Ratio (x) = 0.51121 0.84741
# Poissons Ratio (y) = 0.45434 0.22269
# Poissons Ratio (z) = 0.24010 0.07099
#
# Static dielectric constant tensor:
#      x y z
#    x 1.646130 0.000000 0.000000 
#    y 0.000000 1.672120 0.000000 
#    z 0.000000 0.000000 1.659820 
# 
# From -- ./inp_files/12022.got.cif
#   From: 2010.05.17/outbox.cif.g08.bks.cpg/sg35_7_cif.got.tgz:12022.got - 2010.06.03 17:29:28.
