data_PCOD9349178
_publ_section_title
;
Structure prediction by ZEFSAII (Michael W. Deem and Ramdas Pophale) SiO2 
 PCOD9349178
Probable space group: C M M 2
;
_chemical_formula_sum "Si O2"
_cell_formula_units_Z 56
_cell_length_a 8.042832
_cell_length_b 18.714135
_cell_length_c 18.623838
_cell_angle_alpha 90.000000
_cell_angle_beta 90.000000
_cell_angle_gamma 90.000000
_cell_volume 2803.160343
_symmetry_space_group_name_H-M "C M M 2"
_symmetry_group_IT_number 35
_symmetry_cell_setting 'orthorhombic'
loop_
_space_group_symop_operation_xyz
x,y,z
-x,-y,z
-x,y,z
x,-y,z
1/2+x,1/2+y,z
1/2-x,1/2-y,z
1/2-x,1/2+y,z
1/2+x,1/2-y,z
loop_
_atom_site_type_symbol
_atom_site_label
_atom_site_fract_x
_atom_site_fract_y
_atom_site_fract_z
Si Si1 0.697625 0.831952 0.603250
Si Si2 0.797234 0.082737 0.303396
Si Si3 0.200734 0.667369 0.884408
Si Si4 0.299732 0.581620 0.464410
Si Si5 0.700257 0.918419 0.024284
Si Si6 0.801282 0.167955 0.165213
Si Si7 0.796322 0.417473 0.742636
O O1 0.500000 0.834533 0.607295
O O2 0.750000 0.750000 0.609113
O O3 0.748429 0.866386 0.527776
O O4 0.762709 0.878665 0.670152
O O5 0.742717 0.102579 0.384108
O O6 0.737298 0.133200 0.239517
O O7 0.000000 0.084641 0.303276
O O8 0.750155 0.000000 0.290394
O O9 0.250000 0.750000 0.884424
O O10 0.257717 0.626588 0.812654
O O11 0.000000 0.664284 0.884794
O O12 0.261522 0.626392 0.955585
O O13 0.500000 0.580001 0.462554
O O14 0.242235 0.500000 0.478392
O O15 0.500000 0.921308 0.018969
O O16 0.743176 0.878135 0.097490
O O17 0.762560 0.000000 0.024048
O O18 0.750000 0.250000 0.158036
O O19 0.000000 0.164770 0.166837
O O20 0.744110 0.500000 0.745520
O O21 0.000000 0.417302 0.742413
#
# Coordination Sequence:
#
# PCOD9349178 Si02
#       7
#     8   8   8   8   8   8   8
#     4  11  22  35  53  78 109 142 179 222 267 316
#     4   8  16  33  56  79 103 136 177 218 263 317
#     4  10  20  35  56  80 108 141 175 214 261 313
#     4   9  18  35  58  81 107 139 175 217 266 319
#     4  10  21  37  57  81 108 139 178 222 267 316
#     4  11  22  36  55  79 109 143 179 219 265 316
#     4   9  18  34  56  79 103 136 178 220 263 313
#
# _framework density 19.977450000000001
#
# number of rings (size 3 to 8) (size 9 to 14) (size 15 to 20)
#    0.000    2.286    0.000    3.857    0.000    5.714 
#    0.000    3.571    0.000    4.714    0.000    0.000 
#    0.000    0.000    0.000    0.000    0.000    0.000 
#
# Total GULP energy -156376.767379 kJ/mol
# GULP energy per Si atom -5584.884549 kJ/mol
# Density = 1.993198 g / cm^3
# Si number density = 19.977450 Si / 1000 Ang^3
#
#
#
# Elastic Constant Matrix: (Units=GPa)
#
#
# Indices 1 2 3 4 5 6 
#
# 1 15.1856 10.0955 13.5398 0.0000 0.0000 0.0000
# 2 10.0955 203.5125 139.9224 0.0000 0.0000 0.0000
# 3 13.5398 139.9224 200.6062 0.0000 0.0000 0.0000
# 4 0.0000 0.0000 0.0000 33.8602 0.0000 0.0000
# 5 0.0000 0.0000 0.0000 0.0000 18.8979 0.0000
# 6 0.0000 0.0000 0.0000 0.0000 0.0000 9.8905
#
#
#
# Elastic Compliance Matrix: (Units=1/GPa)
#
#
# Indices 1 2 3 4 5 6 
#
# 1 0.070088 -0.000431 -0.004430 0.000000 0.000000 0.000000
# 2 -0.000431 0.009444 -0.006558 0.000000 0.000000 0.000000
# 3 -0.004430 -0.006558 0.009858 0.000000 0.000000 0.000000
# 4 0.000000 0.000000 0.000000 0.029533 0.000000 0.000000
# 5 0.000000 0.000000 0.000000 0.000000 0.052916 0.000000
# 6 0.000000 0.000000 0.000000 0.000000 0.000000 0.101108
#
#
# Mechanical properties :
#
#
# Convention : Reuss Voigt Hill
#
# Bulk Modulus (GPa) = 15.02578 82.93553 48.98065
# Shear Modulus (GPa) = 15.72478 29.57948 22.65213
#
# Velocity S-wave (km/s) = 2.80862 3.85209 3.37097
# Velocity P-wave (km/s) = 4.24918 7.83514 6.30258
#
# Compressibility (1/GPa) = 0.06655228
#
# Stress axis : x y z
#
# Youngs Moduli (GPa) = 14.26772 105.88712 101.43901
#
# Poissons Ratio (x) = 0.04565 0.44936
# Poissons Ratio (y) = 0.00615 0.66525
# Poissons Ratio (z) = 0.06320 0.69442
#
# Static dielectric constant tensor:
#      x y z
#    x 1.726820 0.000000 0.000000 
#    y 0.000000 1.653020 0.000000 
#    z 0.000000 0.000000 1.698400 
# 
# From -- ./inp_files/15648.got.cif
#   From: 2010.05.17/outbox.cif.g08.bks.cpg/sg35_8_cif.got.tgz:15648.got - 2010.06.03 17:29:28.
