data_PCOD9349379
_publ_section_title
;
Structure prediction by ZEFSAII (Michael W. Deem and Ramdas Pophale) SiO2 
 PCOD9349379
Probable space group: C M M 2
;
_chemical_formula_sum "Si O2"
_cell_formula_units_Z 48
_cell_length_a 19.851424
_cell_length_b 13.793014
_cell_length_c 9.083206
_cell_angle_alpha 90.000000
_cell_angle_beta 90.000000
_cell_angle_gamma 90.000000
_cell_volume 2487.081438
_symmetry_space_group_name_H-M "C M M 2"
_symmetry_group_IT_number 35
_symmetry_cell_setting 'orthorhombic'
loop_
_space_group_symop_operation_xyz
x,y,z
-x,-y,z
-x,y,z
x,-y,z
1/2+x,1/2+y,z
1/2-x,1/2-y,z
1/2-x,1/2+y,z
1/2+x,1/2-y,z
loop_
_atom_site_type_symbol
_atom_site_label
_atom_site_fract_x
_atom_site_fract_y
_atom_site_fract_z
Si Si1 0.183945 0.113316 0.898500
Si Si2 0.708598 0.112944 0.352210
Si Si3 0.079331 0.107391 0.417109
Si Si4 0.662170 0.295947 0.206902
Si Si5 0.316383 0.887040 0.700836
Si Si6 0.919010 0.217549 0.709356
O O1 0.248174 0.133127 0.793140
O O2 0.115021 0.136748 0.812710
O O3 0.187041 0.000000 0.941424
O O4 0.183173 0.180659 0.042080
O O5 0.662061 0.184106 0.254680
O O6 0.782497 0.150882 0.309871
O O7 0.697702 0.124822 0.526438
O O8 0.700636 0.000000 0.315369
O O9 0.095090 0.150544 0.257546
O O10 0.099474 0.182201 0.544396
O O11 0.000000 0.098369 0.434638
O O12 0.109664 0.000000 0.437631
O O13 0.377425 0.815624 0.741000
O O14 0.333585 0.000000 0.726013
O O15 0.000000 0.226268 0.724234
#
# Coordination Sequence:
#
# PCOD9349379 Si02
#       6
#     8   8   8   8   8   8
#     4  11  24  39  61  93 127 162 201 253 316 371
#     4  10  21  37  60  89 118 155 197 247 302 356
#     4  10  20  36  59  85 118 158 200 248 302 364
#     4  11  22  37  59  91 123 154 196 249 309 368
#     4  10  22  41  64  90 122 161 207 254 303 364
#     4  11  23  39  60  89 122 162 211 253 305 365
#
# _framework density 19.299731000000001
#
# number of rings (size 3 to 8) (size 9 to 14) (size 15 to 20)
#    0.000    1.500    1.667    3.500    7.000    3.333 
#    0.000    0.000    0.000    0.500    0.000    0.000 
#    0.000    0.000    0.000    0.000    0.000    0.000 
#
# Total GULP energy -133935.510554 kJ/mol
# GULP energy per Si atom -5580.646273 kJ/mol
# Density = 1.925580 g / cm^3
# Si number density = 19.299731 Si / 1000 Ang^3
#
#
#
# Elastic Constant Matrix: (Units=GPa)
#
#
# Indices 1 2 3 4 5 6 
#
# 1 67.1870 31.5887 28.7383 0.0000 0.0000 0.0000
# 2 31.5887 129.1849 55.0733 0.0000 0.0000 0.0000
# 3 28.7383 55.0733 83.0612 0.0000 0.0000 0.0000
# 4 0.0000 0.0000 0.0000 25.0391 0.0000 0.0000
# 5 0.0000 0.0000 0.0000 0.0000 11.6508 0.0000
# 6 0.0000 0.0000 0.0000 0.0000 0.0000 26.4551
#
#
#
# Elastic Compliance Matrix: (Units=1/GPa)
#
#
# Indices 1 2 3 4 5 6 
#
# 1 0.018002 -0.002435 -0.004614 0.000000 0.000000 0.000000
# 2 -0.002435 0.011120 -0.006531 0.000000 0.000000 0.000000
# 3 -0.004614 -0.006531 0.017966 0.000000 0.000000 0.000000
# 4 0.000000 0.000000 0.000000 0.039938 0.000000 0.000000
# 5 0.000000 0.000000 0.000000 0.000000 0.085831 0.000000
# 6 0.000000 0.000000 0.000000 0.000000 0.000000 0.037800
#
#
# Mechanical properties :
#
#
# Convention : Reuss Voigt Hill
#
# Bulk Modulus (GPa) = 50.17852 56.69264 53.43558
# Shear Modulus (GPa) = 20.45323 23.56453 22.00888
#
# Velocity S-wave (km/s) = 3.25894 3.49804 3.38060
# Velocity P-wave (km/s) = 6.34168 6.76414 6.55632
#
# Compressibility (1/GPa) = 0.01992885
#
# Stress axis : x y z
#
# Youngs Moduli (GPa) = 55.54856 89.92453 55.66059
#
# Poissons Ratio (x) = 0.21896 0.25683
# Poissons Ratio (y) = 0.13525 0.36351
# Poissons Ratio (z) = 0.25631 0.58729
#
# Static dielectric constant tensor:
#      x y z
#    x 1.703050 0.000000 0.000000 
#    y 0.000000 1.723490 0.000000 
#    z 0.000000 0.000000 1.692050 
# 
# From -- ./inp_files/9196.got.cif
#   From: 2010.05.17/outbox.cif.g08.bks.cpg/sg35_5_cif.got.tgz:9196.got - 2010.06.03 17:29:28.
