data_PCOD9349990
_publ_section_title
;
Structure prediction by ZEFSAII (Michael W. Deem and Ramdas Pophale) SiO2 
 PCOD9349990
Probable space group: C M M 2
;
_chemical_formula_sum "Si O2"
_cell_formula_units_Z 64
_cell_length_a 27.197264
_cell_length_b 18.287856
_cell_length_c 5.643237
_cell_angle_alpha 90.000000
_cell_angle_beta 90.000000
_cell_angle_gamma 90.000000
_cell_volume 2806.831231
_symmetry_space_group_name_H-M "C M M 2"
_symmetry_group_IT_number 35
_symmetry_cell_setting 'orthorhombic'
loop_
_space_group_symop_operation_xyz
x,y,z
-x,-y,z
-x,y,z
x,-y,z
1/2+x,1/2+y,z
1/2-x,1/2-y,z
1/2-x,1/2+y,z
1/2+x,1/2-y,z
loop_
_atom_site_type_symbol
_atom_site_label
_atom_site_fract_x
_atom_site_fract_y
_atom_site_fract_z
Si Si1 0.870543 0.087716 0.640600
Si Si2 0.443074 0.696629 0.894938
Si Si3 0.056649 0.353007 0.689392
Si Si4 0.875188 0.793878 0.294077
Si Si5 0.271230 0.682288 0.090661
Si Si6 0.315938 0.835979 0.434515
Si Si7 0.400397 0.087197 0.187352
Si Si8 0.256515 0.417107 0.721171
O O1 0.905973 0.130870 0.824284
O O2 0.887503 0.127589 0.401399
O O3 0.811688 0.106544 0.636840
O O4 0.875012 0.000000 0.656417
O O5 0.500000 0.673771 0.915702
O O6 0.441231 0.764295 0.710923
O O7 0.421509 0.729674 0.139459
O O8 0.072562 0.382685 0.429469
O O9 0.000000 0.374084 0.723148
O O10 0.084343 0.384176 0.924759
O O11 0.827971 0.802762 0.124867
O O12 0.850965 0.733960 0.472003
O O13 0.250000 0.750000 0.933240
O O14 0.235379 0.684065 0.313079
O O15 0.264083 0.601277 0.994644
O O16 0.345522 0.885924 0.250032
O O17 0.294923 0.878829 0.656619
O O18 0.404941 0.000000 0.186159
O O19 0.251657 0.500000 0.652397
#
# Coordination Sequence:
#
# PCOD9349990 Si02
#       8
#     8   8   8   8   8   8   8   8
#     4  11  25  43  67 100 138 179 231 297 371 445
#     4  11  25  46  74 100 133 181 237 304 374 437
#     4  11  26  49  74 102 139 190 247 304 365 434
#     4  11  22  44  69  99 135 180 235 294 351 434
#     4  10  23  37  65  96 130 181 233 279 341 420
#     4  11  24  41  63  99 140 184 231 289 346 429
#     4  12  26  44  71 107 148 191 239 301 366 432
#     4  11  24  39  62  94 137 185 228 282 352 431
#
# _framework density 22.801513
#
# number of rings (size 3 to 8) (size 9 to 14) (size 15 to 20)
#    0.000    1.000    3.750    1.875    3.500    4.250 
#    0.000    0.000    0.000    0.000    0.000    0.000 
#    0.000    0.000    0.000    0.000    0.000    0.000 
#
# Total GULP energy -178212.763602 kJ/mol
# GULP energy per Si atom -5569.148863 kJ/mol
# Density = 2.274962 g / cm^3
# Si number density = 22.801513 Si / 1000 Ang^3
#
#
#
# Elastic Constant Matrix: (Units=GPa)
#
#
# Indices 1 2 3 4 5 6 
#
# 1 142.0048 34.8933 33.6869 0.0000 0.0000 0.0000
# 2 34.8933 101.4482 17.4006 0.0000 0.0000 0.0000
# 3 33.6869 17.4006 50.9883 0.0000 0.0000 0.0000
# 4 0.0000 0.0000 0.0000 27.4114 0.0000 0.0000
# 5 0.0000 0.0000 0.0000 0.0000 37.3766 0.0000
# 6 0.0000 0.0000 0.0000 0.0000 0.0000 25.4449
#
#
#
# Elastic Compliance Matrix: (Units=1/GPa)
#
#
# Indices 1 2 3 4 5 6 
#
# 1 0.008771 -0.002149 -0.005061 0.000000 0.000000 0.000000
# 2 -0.002149 0.010996 -0.002333 0.000000 0.000000 0.000000
# 3 -0.005061 -0.002333 0.023753 0.000000 0.000000 0.000000
# 4 0.000000 0.000000 0.000000 0.036481 0.000000 0.000000
# 5 0.000000 0.000000 0.000000 0.000000 0.026755 0.000000
# 6 0.000000 0.000000 0.000000 0.000000 0.000000 0.039301
#
#
# Mechanical properties :
#
#
# Convention : Reuss Voigt Hill
#
# Bulk Modulus (GPa) = 40.92761 51.82253 46.37507
# Shear Modulus (GPa) = 28.85390 31.94393 30.39891
#
# Velocity S-wave (km/s) = 3.56116 3.74700 3.65526
# Velocity P-wave (km/s) = 5.90742 6.44182 6.18040
#
# Compressibility (1/GPa) = 0.02443339
#
# Stress axis : x y z
#
# Youngs Moduli (GPa) = 114.01701 90.93856 42.10080
#
# Poissons Ratio (x) = 0.19539 0.21309
# Poissons Ratio (y) = 0.24497 0.09823
# Poissons Ratio (z) = 0.57708 0.21218
#
# Static dielectric constant tensor:
#      x y z
#    x 1.647320 0.000000 0.000000 
#    y 0.000000 2.080360 0.000000 
#    z 0.000000 0.000000 2.000880 
# 
# From -- ./inp_files/3795.got.cif
#   From: 2010.05.17/outbox.cif.g08.bks.cpg/sg35_2_cif.got.tgz:3795.got - 2010.06.03 17:29:28.
