data_PCOD9349645
_publ_section_title
;
Structure prediction by ZEFSAII (Michael W. Deem and Ramdas Pophale) SiO2 
 PCOD9349645
Probable space group: C M M 2
;
_chemical_formula_sum "Si O2"
_cell_formula_units_Z 48
_cell_length_a 8.736953
_cell_length_b 18.821610
_cell_length_c 15.812278
_cell_angle_alpha 90.000000
_cell_angle_beta 90.000000
_cell_angle_gamma 90.000000
_cell_volume 2600.226684
_symmetry_space_group_name_H-M "C M M 2"
_symmetry_group_IT_number 35
_symmetry_cell_setting 'orthorhombic'
loop_
_space_group_symop_operation_xyz
x,y,z
-x,-y,z
-x,y,z
x,-y,z
1/2+x,1/2+y,z
1/2-x,1/2-y,z
1/2-x,1/2+y,z
1/2+x,1/2-y,z
loop_
_atom_site_type_symbol
_atom_site_label
_atom_site_fract_x
_atom_site_fract_y
_atom_site_fract_z
Si Si1 0.317258 0.670778 0.091130
Si Si2 0.684806 0.828980 0.412967
Si Si3 0.679361 0.585089 0.758980
Si Si4 0.681957 0.828492 0.911692
Si Si5 0.315656 0.916819 0.577961
Si Si6 0.184755 0.416905 0.246144
O O1 0.500000 0.674864 0.088692
O O2 0.250000 0.750000 0.105041
O O3 0.261157 0.620029 0.165712
O O4 0.254084 0.645714 0.000211
O O5 0.500000 0.825675 0.413543
O O6 0.750000 0.750000 0.408421
O O7 0.732831 0.869150 0.498733
O O8 0.730010 0.874912 0.331063
O O9 0.500000 0.602366 0.766680
O O10 0.697464 0.500000 0.765636
O O11 0.770991 0.622819 0.833446
O O12 0.740217 0.605648 0.666214
O O13 0.500000 0.824205 0.920516
O O14 0.750000 0.750000 0.897261
O O15 0.500000 0.912327 0.586160
O O16 0.278063 0.000000 0.562525
O O17 0.224010 0.500000 0.252348
O O18 0.000000 0.411666 0.237992
#
# Coordination Sequence:
#
# PCOD9349645 Si02
#       6
#     8   8   8   8   8   8
#     4  11  22  38  59  83 113 147 185 229 278 331
#     4  10  21  36  56  82 111 145 184 229 278 330
#     4  10  21  37  57  83 115 149 186 230 279 330
#     4  11  22  38  60  84 112 147 187 230 278 331
#     4   9  18  35  57  79 106 144 189 232 276 328
#     4  10  21  38  59  83 112 147 187 230 278 331
#
# _framework density 18.459928999999999
#
# number of rings (size 3 to 8) (size 9 to 14) (size 15 to 20)
#    0.000    1.833    0.000    5.500    0.000    7.333 
#    0.000    1.667    0.000    3.000    0.000    0.000 
#    0.000    0.000    0.000    0.000    0.000    0.000 
#
# Total GULP energy -134105.559603 kJ/mol
# GULP energy per Si atom -5587.731650 kJ/mol
# Density = 1.841791 g / cm^3
# Si number density = 18.459929 Si / 1000 Ang^3
#
#
#
# Elastic Constant Matrix: (Units=GPa)
#
#
# Indices 1 2 3 4 5 6 
#
# 1 87.3935 52.7032 71.1581 0.0000 0.0000 0.0000
# 2 52.7032 96.3636 95.4159 0.0000 0.0000 0.0000
# 3 71.1581 95.4159 179.6605 0.0000 0.0000 0.0000
# 4 0.0000 0.0000 0.0000 40.9187 0.0000 0.0000
# 5 0.0000 0.0000 0.0000 0.0000 17.1989 0.0000
# 6 0.0000 0.0000 0.0000 0.0000 0.0000 30.0669
#
#
#
# Elastic Compliance Matrix: (Units=1/GPa)
#
#
# Indices 1 2 3 4 5 6 
#
# 1 0.018402 -0.006006 -0.004099 0.000000 0.000000 0.000000
# 2 -0.006006 0.023847 -0.010286 0.000000 0.000000 0.000000
# 3 -0.004099 -0.010286 0.012652 0.000000 0.000000 0.000000
# 4 0.000000 0.000000 0.000000 0.024439 0.000000 0.000000
# 5 0.000000 0.000000 0.000000 0.000000 0.058143 0.000000
# 6 0.000000 0.000000 0.000000 0.000000 0.000000 0.033259
#
#
# Mechanical properties :
#
#
# Convention : Reuss Voigt Hill
#
# Bulk Modulus (GPa) = 70.82375 89.10802 79.96588
# Shear Modulus (GPa) = 23.12348 27.24626 25.18487
#
# Velocity S-wave (km/s) = 3.54309 3.84600 3.69765
# Velocity P-wave (km/s) = 7.42883 8.25216 7.85129
#
# Compressibility (1/GPa) = 0.01411956
#
# Stress axis : x y z
#
# Youngs Moduli (GPa) = 54.34311 41.93366 79.03670
#
# Poissons Ratio (x) = 0.25185 0.32395
# Poissons Ratio (y) = 0.32638 0.81299
# Poissons Ratio (z) = 0.22273 0.43134
#
# Static dielectric constant tensor:
#      x y z
#    x 1.623140 0.000000 0.000000 
#    y 0.000000 1.609690 0.000000 
#    z 0.000000 0.000000 1.615780 
# 
# From -- ./inp_files/15109.got.cif
#   From: 2010.05.17/outbox.cif.g08.bks.cpg/sg35_8_cif.got.tgz:15109.got - 2010.06.03 17:29:28.
