data_PCOD9349141
_publ_section_title
;
Structure prediction by ZEFSAII (Michael W. Deem and Ramdas Pophale) SiO2 
 PCOD9349141
Probable space group: C M M 2
;
_chemical_formula_sum "Si O2"
_cell_formula_units_Z 58
_cell_length_a 10.459135
_cell_length_b 25.666975
_cell_length_c 12.688186
_cell_angle_alpha 90.000000
_cell_angle_beta 90.000000
_cell_angle_gamma 90.000000
_cell_volume 3406.198809
_symmetry_space_group_name_H-M "C M M 2"
_symmetry_group_IT_number 35
_symmetry_cell_setting 'orthorhombic'
loop_
_space_group_symop_operation_xyz
x,y,z
-x,-y,z
-x,y,z
x,-y,z
1/2+x,1/2+y,z
1/2-x,1/2-y,z
1/2-x,1/2+y,z
1/2+x,1/2-y,z
loop_
_atom_site_type_symbol
_atom_site_label
_atom_site_fract_x
_atom_site_fract_y
_atom_site_fract_z
Si Si1 0.718147 0.092097 0.985770
Si Si2 0.858457 0.710684 0.279309
Si Si3 0.855696 0.562950 0.601902
Si Si4 0.500000 0.000000 0.994046
Si Si5 0.355148 0.561087 0.194851
Si Si6 0.643713 0.791983 0.025946
Si Si7 0.354721 0.906031 0.360137
Si Si8 0.354357 0.436887 0.771125
O O1 0.611793 0.046472 0.992699
O O2 0.661920 0.150316 0.979690
O O3 0.805167 0.081272 0.884429
O O4 0.801873 0.089823 0.092238
O O5 0.750000 0.750000 0.314422
O O6 0.849165 0.655160 0.335313
O O7 0.000000 0.732549 0.298241
O O8 0.845747 0.702279 0.153364
O O9 0.852179 0.500000 0.598598
O O10 0.836397 0.582547 0.483127
O O11 0.746717 0.580599 0.682369
O O12 0.000000 0.577675 0.636718
O O13 0.500000 0.577817 0.221841
O O14 0.358880 0.500000 0.168690
O O15 0.254508 0.568480 0.289105
O O16 0.500000 0.773185 0.002982
O O17 0.750000 0.750000 0.992678
O O18 0.500000 0.924104 0.331268
O O19 0.500000 0.420282 0.750525
O O20 0.352431 0.500000 0.771364
#
# Coordination Sequence:
#
# PCOD9349141 Si02
#       8
#     8   8   8   2   8   8   8   8
#     4  12  22  36  57  86 116 149 193 236 289 342
#     4   9  18  33  52  75 105 138 180 226 276 329
#     4   9  19  34  54  79 106 140 186 232 277 336
#     4  12  24  32  62  92 114 156 190 250 288 346
#     4  11  23  34  48  76 115 149 178 220 278 345
#     4  10  21  36  55  80 113 152 194 233 280 339
#     4  10  20  35  55  78 106 141 182 229 276 331
#     4  10  21  36  55  78 112 149 184 231 286 342
#
# _framework density 17.027778000000001
#
# number of rings (size 3 to 8) (size 9 to 14) (size 15 to 20)
#    0.000    1.793    3.448    0.828    1.931    4.138 
#    0.000    1.379    0.000    0.828    0.000    1.931 
#    0.000    0.000    0.000    0.000    0.000    0.000 
#
# Total GULP energy -161485.533640 kJ/mol
# GULP energy per Si atom -5568.466677 kJ/mol
# Density = 1.698902 g / cm^3
# Si number density = 17.027778 Si / 1000 Ang^3
#
#
#
# Elastic Constant Matrix: (Units=GPa)
#
#
# Indices 1 2 3 4 5 6 
#
# 1 161.3927 45.1920 59.1870 0.0000 0.0000 0.0000
# 2 45.1920 63.2432 2.0689 0.0000 0.0000 0.0000
# 3 59.1870 2.0689 56.0805 0.0000 0.0000 0.0000
# 4 0.0000 0.0000 0.0000 5.6066 0.0000 0.0000
# 5 0.0000 0.0000 0.0000 0.0000 8.4512 0.0000
# 6 0.0000 0.0000 0.0000 0.0000 0.0000 17.2614
#
#
#
# Elastic Compliance Matrix: (Units=1/GPa)
#
#
# Indices 1 2 3 4 5 6 
#
# 1 0.014359 -0.009776 -0.014793 0.000000 0.000000 0.000000
# 2 -0.009776 0.022488 0.009488 0.000000 0.000000 0.000000
# 3 -0.014793 0.009488 0.033094 0.000000 0.000000 0.000000
# 4 0.000000 0.000000 0.000000 0.178360 0.000000 0.000000
# 5 0.000000 0.000000 0.000000 0.000000 0.118326 0.000000
# 6 0.000000 0.000000 0.000000 0.000000 0.000000 0.057933
#
#
# Mechanical properties :
#
#
# Convention : Reuss Voigt Hill
#
# Bulk Modulus (GPa) = 25.13974 54.84582 39.99278
# Shear Modulus (GPa) = 10.68418 17.88175 14.28297
#
# Velocity S-wave (km/s) = 2.50762 3.24412 2.89935
# Velocity P-wave (km/s) = 4.81459 6.80529 5.89458
#
# Compressibility (1/GPa) = 0.03977766
#
# Stress axis : x y z
#
# Youngs Moduli (GPa) = 69.64394 44.46900 30.21661
#
# Poissons Ratio (x) = 0.43475 0.44701
# Poissons Ratio (y) = 0.68087 -0.28671
# Poissons Ratio (z) = 1.03027 -0.42194
#
# Static dielectric constant tensor:
#      x y z
#    x 1.607950 0.000000 0.000000 
#    y 0.000000 1.559560 0.000000 
#    z 0.000000 0.000000 1.552000 
# 
# From -- ./inp_files/11623.got.cif
#   From: 2010.05.17/outbox.cif.g08.bks.cpg/sg35_6_cif.got.tgz:11623.got - 2010.06.03 17:29:28.
