data_PCOD9349432
_publ_section_title
;
Structure prediction by ZEFSAII (Michael W. Deem and Ramdas Pophale) SiO2 
 PCOD9349432
Probable space group: C M M 2
;
_chemical_formula_sum "Si O2"
_cell_formula_units_Z 40
_cell_length_a 8.468105
_cell_length_b 15.942824
_cell_length_c 14.987007
_cell_angle_alpha 90.000000
_cell_angle_beta 90.000000
_cell_angle_gamma 90.000000
_cell_volume 2023.328488
_symmetry_space_group_name_H-M "C M M 2"
_symmetry_group_IT_number 35
_symmetry_cell_setting 'orthorhombic'
loop_
_space_group_symop_operation_xyz
x,y,z
-x,-y,z
-x,y,z
x,-y,z
1/2+x,1/2+y,z
1/2-x,1/2-y,z
1/2-x,1/2+y,z
1/2+x,1/2-y,z
loop_
_atom_site_type_symbol
_atom_site_label
_atom_site_fract_x
_atom_site_fract_y
_atom_site_fract_z
Si Si1 0.189923 0.402022 0.093620
Si Si2 0.689342 0.839853 0.284748
Si Si3 0.807279 0.000000 0.598770
Si Si4 0.189606 0.000000 0.393133
Si Si5 0.690716 0.660431 0.713023
Si Si6 0.310010 0.598140 0.904068
O O1 0.239966 0.500000 0.101052
O O2 0.244640 0.354800 0.182349
O O3 0.000000 0.400707 0.092403
O O4 0.249869 0.368839 0.998837
O O5 0.500000 0.840730 0.285198
O O6 0.750000 0.750000 0.316786
O O7 0.749502 0.917354 0.343031
O O8 0.756378 0.083028 0.651816
O O9 0.757323 0.000000 0.496149
O O10 0.000000 0.000000 0.600035
O O11 0.000000 0.000000 0.391162
O O12 0.500000 0.660095 0.713600
O O13 0.750000 0.750000 0.680814
O O14 0.745374 0.644664 0.815010
O O15 0.500000 0.600094 0.905046
O O16 0.261783 0.500000 0.897005
#
# Coordination Sequence:
#
# PCOD9349432 Si02
#       6
#     8   8   4   4   8   8
#     4   9  18  34  55  80 115 155 191 235 287 336
#     4  11  23  41  62  88 122 158 197 244 295 352
#     4   9  20  41  64  83 112 150 189 235 290 351
#     4  11  23  41  66  91 114 152 197 245 306 359
#     4  10  20  37  59  84 116 151 189 233 282 339
#     4   9  17  31  54  81 110 151 195 231 274 335
#
# _framework density 19.769406
#
# number of rings (size 3 to 8) (size 9 to 14) (size 15 to 20)
#    0.000    2.200    2.000    0.900    0.000    4.000 
#    0.000    8.500    0.000    0.000    0.000    0.000 
#    0.000    0.000    0.000    0.000    0.000    0.000 
#
# Total GULP energy -111682.815196 kJ/mol
# GULP energy per Si atom -5584.140760 kJ/mol
# Density = 1.972441 g / cm^3
# Si number density = 19.769406 Si / 1000 Ang^3
#
#
#
# Elastic Constant Matrix: (Units=GPa)
#
#
# Indices 1 2 3 4 5 6 
#
# 1 21.5000 25.2328 26.5628 0.0000 0.0000 0.0000
# 2 25.2328 159.9289 88.7093 0.0000 0.0000 0.0000
# 3 26.5628 88.7093 156.7672 0.0000 0.0000 0.0000
# 4 0.0000 0.0000 0.0000 1.1495 0.0000 0.0000
# 5 0.0000 0.0000 0.0000 0.0000 15.4237 0.0000
# 6 0.0000 0.0000 0.0000 0.0000 0.0000 26.8225
#
#
#
# Elastic Compliance Matrix: (Units=1/GPa)
#
#
# Indices 1 2 3 4 5 6 
#
# 1 0.062303 -0.005792 -0.007279 0.000000 0.000000 0.000000
# 2 -0.005792 0.009652 -0.004480 0.000000 0.000000 0.000000
# 3 -0.007279 -0.004480 0.010147 0.000000 0.000000 0.000000
# 4 0.000000 0.000000 0.000000 0.869979 0.000000 0.000000
# 5 0.000000 0.000000 0.000000 0.000000 0.064835 0.000000
# 6 0.000000 0.000000 0.000000 0.000000 0.000000 0.037282
#
#
# Mechanical properties :
#
#
# Convention : Reuss Voigt Hill
#
# Bulk Modulus (GPa) = 21.27708 68.80066 45.03887
# Shear Modulus (GPa) = 4.52502 21.85854 13.19178
#
# Velocity S-wave (km/s) = 1.51455 3.32878 2.58598
# Velocity P-wave (km/s) = 3.72082 7.04638 5.63453
#
# Compressibility (1/GPa) = 0.04699893
#
# Stress axis : x y z
#
# Youngs Moduli (GPa) = 16.05069 103.60881 98.54767
#
# Poissons Ratio (x) = 0.60014 0.71732
# Poissons Ratio (y) = 0.09297 0.44150
# Poissons Ratio (z) = 0.11683 0.46418
#
# Static dielectric constant tensor:
#      x y z
#    x 1.680000 0.000000 0.000000 
#    y 0.000000 1.684340 0.000000 
#    z 0.000000 0.000000 1.695400 
# 
# From -- ./inp_files/14749.got.cif
#   From: 2010.05.17/outbox.cif.g08.bks.cpg/sg35_8_cif.got.tgz:14749.got - 2010.06.03 17:29:28.
