data_PCOD9349338
_publ_section_title
;
Structure prediction by ZEFSAII (Michael W. Deem and Ramdas Pophale) SiO2 
 PCOD9349338
Probable space group: C M M 2
;
_chemical_formula_sum "Si O2"
_cell_formula_units_Z 56
_cell_length_a 22.792434
_cell_length_b 8.758348
_cell_length_c 15.099291
_cell_angle_alpha 90.000000
_cell_angle_beta 90.000000
_cell_angle_gamma 90.000000
_cell_volume 3014.181904
_symmetry_space_group_name_H-M "C M M 2"
_symmetry_group_IT_number 35
_symmetry_cell_setting 'orthorhombic'
loop_
_space_group_symop_operation_xyz
x,y,z
-x,-y,z
-x,y,z
x,-y,z
1/2+x,1/2+y,z
1/2-x,1/2-y,z
1/2-x,1/2+y,z
1/2+x,1/2-y,z
loop_
_atom_site_type_symbol
_atom_site_label
_atom_site_fract_x
_atom_site_fract_y
_atom_site_fract_z
Si Si1 0.110793 0.324799 0.754840
Si Si2 0.814454 0.182156 0.905619
Si Si3 0.316658 0.683574 0.452291
Si Si4 0.000000 0.333551 0.883498
Si Si5 0.814418 0.817526 0.248594
Si Si6 0.622888 0.819337 0.078693
Si Si7 0.500000 0.676175 0.057304
Si Si8 0.430986 0.684459 0.569872
O O1 0.128414 0.500000 0.735456
O O2 0.160200 0.238985 0.811489
O O3 0.056293 0.329137 0.822030
O O4 0.087767 0.243423 0.666767
O O5 0.750000 0.250000 0.916831
O O6 0.814044 0.000000 0.908184
O O7 0.851779 0.243888 0.989010
O O8 0.310864 0.500000 0.462262
O O9 0.250000 0.750000 0.470642
O O10 0.332840 0.716729 0.349675
O O11 0.374564 0.732288 0.508773
O O12 0.000000 0.500000 0.931083
O O13 0.000000 0.195324 0.951096
O O14 0.750000 0.750000 0.242812
O O15 0.847347 0.740199 0.167710
O O16 0.815366 0.000000 0.237247
O O17 0.556750 0.764653 0.087959
O O18 0.629012 0.000000 0.069914
O O19 0.500000 0.500000 0.083436
O O20 0.500000 0.732691 0.550661
O O21 0.431983 0.500000 0.567965
#
# Coordination Sequence:
#
# PCOD9349338 Si02
#       8
#     8   8   8   4   8   8   4   8
#     4  11  22  38  60  86 118 156 197 242 295 352
#     4  12  25  41  60  86 119 157 202 248 298 352
#     4   9  20  39  63  90 119 156 200 252 309 366
#     4  10  20  36  58  81 114 153 194 239 288 342
#     4  10  20  38  62  89 117 153 201 246 299 361
#     4  12  24  40  60  86 122 159 196 244 299 353
#     4  12  24  38  60  87 116 157 204 245 292 350
#     4  10  21  38  61  89 122 159 205 254 307 367
#
# _framework density 18.578838000000001
#
# number of rings (size 3 to 8) (size 9 to 14) (size 15 to 20)
#    0.000    1.286    2.143    4.500    0.000    2.286 
#    1.286    1.429    0.000    0.000    0.000    0.000 
#    0.000    0.000    0.000    0.000    0.000    0.000 
#
# Total GULP energy -156165.981223 kJ/mol
# GULP energy per Si atom -5577.356472 kJ/mol
# Density = 1.853655 g / cm^3
# Si number density = 18.578838 Si / 1000 Ang^3
#
#
#
# Elastic Constant Matrix: (Units=GPa)
#
#
# Indices 1 2 3 4 5 6 
#
# 1 102.6182 36.2605 62.0519 0.0000 0.0000 0.0000
# 2 36.2605 91.2823 33.2816 0.0000 0.0000 0.0000
# 3 62.0519 33.2816 98.8730 0.0000 0.0000 0.0000
# 4 0.0000 0.0000 0.0000 18.7649 0.0000 0.0000
# 5 0.0000 0.0000 0.0000 0.0000 36.9377 0.0000
# 6 0.0000 0.0000 0.0000 0.0000 0.0000 26.1322
#
#
#
# Elastic Compliance Matrix: (Units=1/GPa)
#
#
# Indices 1 2 3 4 5 6 
#
# 1 0.016468 -0.003161 -0.009271 0.000000 0.000000 0.000000
# 2 -0.003161 0.013095 -0.002424 0.000000 0.000000 0.000000
# 3 -0.009271 -0.002424 0.016748 0.000000 0.000000 0.000000
# 4 0.000000 0.000000 0.000000 0.053291 0.000000 0.000000
# 5 0.000000 0.000000 0.000000 0.000000 0.027073 0.000000
# 6 0.000000 0.000000 0.000000 0.000000 0.000000 0.038267
#
#
# Mechanical properties :
#
#
# Convention : Reuss Voigt Hill
#
# Bulk Modulus (GPa) = 60.24624 61.77349 61.00986
# Shear Modulus (GPa) = 24.97671 27.11225 26.04448
#
# Velocity S-wave (km/s) = 3.67053 3.82423 3.74817
# Velocity P-wave (km/s) = 7.10363 7.26782 7.18619
#
# Compressibility (1/GPa) = 0.01659855
#
# Stress axis : x y z
#
# Youngs Moduli (GPa) = 60.72370 76.36775 59.70778
#
# Poissons Ratio (x) = 0.24143 0.55355
# Poissons Ratio (y) = 0.19197 0.14471
# Poissons Ratio (z) = 0.56297 0.18509
#
# Static dielectric constant tensor:
#      x y z
#    x 1.642960 0.000000 0.000000 
#    y 0.000000 1.645040 0.000000 
#    z 0.000000 0.000000 1.660890 
# 
# From -- ./inp_files/17435.got.cif
#   From: 2010.05.17/outbox.cif.g08.bks.cpg/sg35_9_cif.got.tgz:17435.got - 2010.06.03 17:29:28.
