data_PCOD9349721
_publ_section_title
;
Structure prediction by ZEFSAII (Michael W. Deem and Ramdas Pophale) SiO2 
 PCOD9349721
Probable space group: C M M 2
;
_chemical_formula_sum "Si O2"
_cell_formula_units_Z 64
_cell_length_a 8.619931
_cell_length_b 31.797330
_cell_length_c 12.210086
_cell_angle_alpha 90.000000
_cell_angle_beta 90.000000
_cell_angle_gamma 90.000000
_cell_volume 3346.672125
_symmetry_space_group_name_H-M "C M M 2"
_symmetry_group_IT_number 35
_symmetry_cell_setting 'orthorhombic'
loop_
_space_group_symop_operation_xyz
x,y,z
-x,-y,z
-x,y,z
x,-y,z
1/2+x,1/2+y,z
1/2-x,1/2-y,z
1/2-x,1/2+y,z
1/2+x,1/2-y,z
loop_
_atom_site_type_symbol
_atom_site_label
_atom_site_fract_x
_atom_site_fract_y
_atom_site_fract_z
Si Si1 0.687039 0.705036 0.583640
Si Si2 0.312837 0.547098 0.044561
Si Si3 0.814126 0.582235 0.820812
Si Si4 0.315846 0.205425 0.055190
Si Si5 0.312968 0.047450 0.582247
Si Si6 0.312352 0.373427 0.189938
Si Si7 0.187457 0.124462 0.442579
Si Si8 0.685837 0.323360 0.825381
O O1 0.500000 0.705910 0.581259
O O2 0.750000 0.750000 0.546779
O O3 0.739345 0.665855 0.509347
O O4 0.735057 0.696412 0.709418
O O5 0.500000 0.549187 0.034665
O O6 0.271417 0.500000 0.081330
O O7 0.264312 0.583946 0.127417
O O8 0.240413 0.556499 0.926340
O O9 0.771638 0.559592 0.707205
O O10 0.734911 0.627866 0.824835
O O11 0.000000 0.587440 0.823776
O O12 0.500000 0.205933 0.059732
O O13 0.250000 0.250000 0.094451
O O14 0.251890 0.166679 0.125701
O O15 0.261879 0.198278 0.930124
O O16 0.500000 0.048348 0.575429
O O17 0.246334 0.082776 0.502616
O O18 0.260293 0.000000 0.557252
O O19 0.500000 0.371472 0.186912
O O20 0.262786 0.373765 0.316316
O O21 0.000000 0.123976 0.445026
O O22 0.500000 0.320273 0.834992
#
# Coordination Sequence:
#
# PCOD9349721 Si02
#       8
#     8   8   8   8   8   8   8   8
#     4  10  22  38  59  87 119 152 192 240 293 352
#     4  10  21  37  59  87 119 157 198 244 301 358
#     4  11  21  35  59  89 121 157 196 244 302 360
#     4  12  25  41  63  91 123 158 200 243 297 359
#     4  10  22  39  59  87 123 160 198 244 298 355
#     4  10  22  41  63  86 120 158 202 254 299 348
#     4  10  22  41  62  87 117 156 204 251 296 348
#     4  11  21  37  61  89 123 155 193 245 299 359
#
# _framework density 19.123473000000001
#
# number of rings (size 3 to 8) (size 9 to 14) (size 15 to 20)
#    0.000    1.500    2.500    2.625    0.000    5.500 
#    0.000    2.500    0.000    0.000    0.000    0.000 
#    0.000    0.000    0.000    0.000    0.000    0.000 
#
# Total GULP energy -178874.089001 kJ/mol
# GULP energy per Si atom -5589.815281 kJ/mol
# Density = 1.907995 g / cm^3
# Si number density = 19.123473 Si / 1000 Ang^3
#
#
#
# Elastic Constant Matrix: (Units=GPa)
#
#
# Indices 1 2 3 4 5 6 
#
# 1 23.3222 30.4671 32.7944 0.0000 0.0000 0.0000
# 2 30.4671 184.4460 85.3872 0.0000 0.0000 0.0000
# 3 32.7944 85.3872 155.9503 0.0000 0.0000 0.0000
# 4 0.0000 0.0000 0.0000 -1.2188 0.0000 0.0000
# 5 0.0000 0.0000 0.0000 0.0000 13.7588 0.0000
# 6 0.0000 0.0000 0.0000 0.0000 0.0000 27.4433
#
#
#
# Elastic Compliance Matrix: (Units=1/GPa)
#
#
# Indices 1 2 3 4 5 6 
#
# 1 0.065406 -0.005943 -0.010500 0.000000 0.000000 0.000000
# 2 -0.005943 0.007802 -0.003022 0.000000 0.000000 0.000000
# 3 -0.010500 -0.003022 0.010275 0.000000 0.000000 0.000000
# 4 0.000000 0.000000 0.000000 -0.820455 0.000000 0.000000
# 5 0.000000 0.000000 0.000000 0.000000 0.072681 0.000000
# 6 0.000000 0.000000 0.000000 0.000000 0.000000 0.036439
#
#
# Mechanical properties :
#
#
# Convention : Reuss Voigt Hill
#
# Bulk Modulus (GPa) = 22.44529 73.44618 47.94574
# Shear Modulus (GPa) = -8.70974 22.33465 6.81245
#
# Velocity S-wave (km/s) = -2.13644 3.42119 1.88947
# Velocity P-wave (km/s) = 2.38258 7.35498 5.46683
#
# Compressibility (1/GPa) = 0.04455278
#
# Stress axis : x y z
#
# Youngs Moduli (GPa) = 15.28913 128.16468 97.32216
#
# Poissons Ratio (x) = 0.76168 1.02189
# Poissons Ratio (y) = 0.09086 0.29414
# Poissons Ratio (z) = 0.16054 0.38736
#
# Static dielectric constant tensor:
#      x y z
#    x 1.648090 0.000000 0.000000 
#    y 0.000000 1.652290 0.000000 
#    z 0.000000 0.000000 1.645630 
# 
# From -- ./inp_files/11956.got.cif
#   From: 2010.05.17/outbox.cif.g08.bks.cpg/sg35_6_cif.got.tgz:11956.got - 2010.06.03 17:29:28.
