data_PCOD9349829
_publ_section_title
;
Structure prediction by ZEFSAII (Michael W. Deem and Ramdas Pophale) SiO2 
 PCOD9349829
Probable space group: C M M 2
;
_chemical_formula_sum "Si O2"
_cell_formula_units_Z 48
_cell_length_a 7.725561
_cell_length_b 15.980649
_cell_length_c 18.256201
_cell_angle_alpha 90.000000
_cell_angle_beta 90.000000
_cell_angle_gamma 90.000000
_cell_volume 2253.901058
_symmetry_space_group_name_H-M "C M M 2"
_symmetry_group_IT_number 35
_symmetry_cell_setting 'orthorhombic'
loop_
_space_group_symop_operation_xyz
x,y,z
-x,-y,z
-x,y,z
x,-y,z
1/2+x,1/2+y,z
1/2-x,1/2-y,z
1/2-x,1/2+y,z
1/2+x,1/2-y,z
loop_
_atom_site_type_symbol
_atom_site_label
_atom_site_fract_x
_atom_site_fract_y
_atom_site_fract_z
Si Si1 0.707906 0.347580 0.816460
Si Si2 0.207610 0.847549 0.504983
Si Si3 0.196420 0.098627 0.660669
Si Si4 0.800918 0.500000 0.083665
Si Si5 0.708739 0.348168 0.344175
Si Si6 0.298468 0.500000 0.248551
Si Si7 0.293289 0.348648 0.977228
O O1 0.500000 0.363542 0.815489
O O2 0.750000 0.250000 0.817305
O O3 0.778835 0.379019 0.738758
O O4 0.772634 0.376661 0.896223
O O5 0.250000 0.750000 0.503236
O O6 0.279209 0.878039 0.582963
O O7 0.269982 0.877602 0.425317
O O8 0.000000 0.863567 0.506848
O O9 0.000000 0.136587 0.661070
O O10 0.180070 0.000000 0.660191
O O11 0.706893 0.500000 0.161294
O O12 0.000000 0.500000 0.103341
O O13 0.764292 0.583680 0.036723
O O14 0.500000 0.349743 0.345965
O O15 0.750000 0.250000 0.331699
O O16 0.773772 0.414436 0.284162
O O17 0.500000 0.500000 0.269937
O O18 0.500000 0.352148 0.974716
O O19 0.250000 0.250000 0.990185
#
# Coordination Sequence:
#
# PCOD9349829 Si02
#       7
#     8   8   8   4   8   4   8
#     4   9  18  32  53  77 105 143 184 226 272 323
#     4   9  17  30  50  75 103 140 180 223 267 316
#     4   9  17  27  45  75 107 140 182 225 263 311
#     4  12  26  42  62  89 118 150 190 237 294 356
#     4   9  19  35  57  83 112 146 186 229 278 333
#     4  10  22  40  60  83 112 146 184 231 286 346
#     4  10  21  39  63  89 119 155 195 240 290 346
#
# _framework density 21.296409000000001
#
# number of rings (size 3 to 8) (size 9 to 14) (size 15 to 20)
#    0.000    2.500    0.000    1.750    2.333    2.000 
#    0.000    1.667    0.000    1.500    0.000    0.000 
#    0.000    0.000    0.000    0.000    0.000    0.000 
#
# Total GULP energy -133680.848926 kJ/mol
# GULP energy per Si atom -5570.035372 kJ/mol
# Density = 2.124794 g / cm^3
# Si number density = 21.296409 Si / 1000 Ang^3
#
#
#
# Elastic Constant Matrix: (Units=GPa)
#
#
# Indices 1 2 3 4 5 6 
#
# 1 40.1253 -3.8818 -8.4519 0.0000 0.0000 0.0000
# 2 -3.8818 80.5200 78.1474 0.0000 0.0000 0.0000
# 3 -8.4519 78.1474 175.3247 0.0000 0.0000 0.0000
# 4 0.0000 0.0000 0.0000 42.9409 0.0000 0.0000
# 5 0.0000 0.0000 0.0000 0.0000 19.3804 0.0000
# 6 0.0000 0.0000 0.0000 0.0000 0.0000 19.4012
#
#
#
# Elastic Compliance Matrix: (Units=1/GPa)
#
#
# Indices 1 2 3 4 5 6 
#
# 1 0.025178 0.000063 0.001186 0.000000 0.000000 0.000000
# 2 0.000063 0.021888 -0.009753 0.000000 0.000000 0.000000
# 3 0.001186 -0.009753 0.010108 0.000000 0.000000 0.000000
# 4 0.000000 0.000000 0.000000 0.023288 0.000000 0.000000
# 5 0.000000 0.000000 0.000000 0.000000 0.051599 0.000000
# 6 0.000000 0.000000 0.000000 0.000000 0.000000 0.051543
#
#
# Mechanical properties :
#
#
# Convention : Reuss Voigt Hill
#
# Bulk Modulus (GPa) = 24.89720 47.51083 36.20401
# Shear Modulus (GPa) = 23.36443 31.68826 27.52635
#
# Velocity S-wave (km/s) = 3.31585 3.86160 3.59908
# Velocity P-wave (km/s) = 5.13576 6.49926 5.85732
#
# Compressibility (1/GPa) = 0.04016516
#
# Stress axis : x y z
#
# Youngs Moduli (GPa) = 39.71756 45.68706 98.93050
#
# Poissons Ratio (x) = -0.00288 -0.11729
# Poissons Ratio (y) = -0.00251 0.96488
# Poissons Ratio (z) = -0.04709 0.44559
#
# Static dielectric constant tensor:
#      x y z
#    x 1.818760 0.000000 0.000000 
#    y 0.000000 1.738950 0.000000 
#    z 0.000000 0.000000 1.854510 
# 
# From -- ./inp_files/17863.got.cif
#   From: 2010.05.17/outbox.cif.g08.bks.cpg/sg35_9_cif.got.tgz:17863.got - 2010.06.03 17:29:28.
