data_PCOD9349522
_publ_section_title
;
Structure prediction by ZEFSAII (Michael W. Deem and Ramdas Pophale) SiO2 
 PCOD9349522
Probable space group: C M M 2
;
_chemical_formula_sum "Si O2"
_cell_formula_units_Z 58
_cell_length_a 20.704157
_cell_length_b 15.660843
_cell_length_c 8.250346
_cell_angle_alpha 90.000000
_cell_angle_beta 90.000000
_cell_angle_gamma 90.000000
_cell_volume 2675.129744
_symmetry_space_group_name_H-M "C M M 2"
_symmetry_group_IT_number 35
_symmetry_cell_setting 'orthorhombic'
loop_
_space_group_symop_operation_xyz
x,y,z
-x,-y,z
-x,y,z
x,-y,z
1/2+x,1/2+y,z
1/2-x,1/2-y,z
1/2-x,1/2+y,z
1/2+x,1/2-y,z
loop_
_atom_site_type_symbol
_atom_site_label
_atom_site_fract_x
_atom_site_fract_y
_atom_site_fract_z
Si Si1 0.804733 0.097094 0.753330
Si Si2 0.429141 0.682687 0.877993
Si Si3 0.107373 0.373169 0.396143
Si Si4 0.929000 0.622469 0.769387
Si Si5 0.500000 0.000000 0.269983
Si Si6 0.255814 0.350406 0.412263
Si Si7 0.691169 0.900344 0.994241
Si Si8 0.643773 0.730137 0.190792
O O1 0.872869 0.139184 0.779874
O O2 0.785334 0.104935 0.567170
O O3 0.749168 0.129456 0.875456
O O4 0.810979 0.000000 0.799969
O O5 0.500000 0.643585 0.868212
O O6 0.431826 0.777655 0.807032
O O7 0.404034 0.689575 0.062151
O O8 0.085079 0.390538 0.579632
O O9 0.058121 0.426242 0.284557
O O10 0.184704 0.391216 0.389845
O O11 0.106271 0.274100 0.341069
O O12 0.871695 0.589893 0.880608
O O13 0.000000 0.588483 0.810414
O O14 0.250000 0.250000 0.461012
O O15 0.303833 0.338048 0.258545
O O16 0.702970 0.000000 0.056544
O O17 0.675202 0.815601 0.104242
#
# Coordination Sequence:
#
# PCOD9349522 Si02
#       8
#     8   8   8   8   2   8   8   8
#     4  11  24  41  67  97 127 162 215 278 338 386
#     4  10  23  41  66  93 125 164 217 279 335 404
#     4  11  23  38  58  89 134 180 225 257 322 382
#     4  10  20  38  62  92 128 179 227 261 314 385
#     4  12  28  36  60  94 148 192 204 274 328 412
#     4  10  22  41  67  96 128 175 227 274 312 387
#     4  10  23  39  60  95 135 170 217 272 327 387
#     4  10  24  41  64  95 129 181 225 273 327 393
#
# _framework density 21.681191999999999
#
# number of rings (size 3 to 8) (size 9 to 14) (size 15 to 20)
#    0.000    1.655    2.069    1.655   11.586    0.552 
#    0.000    1.379    0.000    0.000    0.000    0.000 
#    0.000    0.000    0.000    0.000    0.000    0.000 
#
# Total GULP energy -161484.375801 kJ/mol
# GULP energy per Si atom -5568.426752 kJ/mol
# Density = 2.163184 g / cm^3
# Si number density = 21.681192 Si / 1000 Ang^3
#
#
#
# Elastic Constant Matrix: (Units=GPa)
#
#
# Indices 1 2 3 4 5 6 
#
# 1 185.7982 36.5369 37.0707 0.0000 0.0000 0.0000
# 2 36.5369 35.0029 10.6849 0.0000 0.0000 0.0000
# 3 37.0707 10.6849 28.1901 0.0000 0.0000 0.0000
# 4 0.0000 0.0000 0.0000 2.1534 0.0000 0.0000
# 5 0.0000 0.0000 0.0000 0.0000 13.0285 0.0000
# 6 0.0000 0.0000 0.0000 0.0000 0.0000 -238.0618
#
#
#
# Elastic Compliance Matrix: (Units=1/GPa)
#
#
# Indices 1 2 3 4 5 6 
#
# 1 0.008284 -0.006018 -0.008613 0.000000 0.000000 0.000000
# 2 -0.006018 0.036679 -0.005989 0.000000 0.000000 0.000000
# 3 -0.008613 -0.005989 0.049069 0.000000 0.000000 0.000000
# 4 0.000000 0.000000 0.000000 0.464391 0.000000 0.000000
# 5 0.000000 0.000000 0.000000 0.000000 0.076755 0.000000
# 6 0.000000 0.000000 0.000000 0.000000 0.000000 -0.004201
#
#
# Mechanical properties :
#
#
# Convention : Reuss Voigt Hill
#
# Bulk Modulus (GPa) = 18.94173 46.39737 32.66955
# Shear Modulus (GPa) = 7.24834 -33.59609 -13.17388
#
# Velocity S-wave (km/s) = 1.83041 -3.94070 -2.46766
# Velocity P-wave (km/s) = 3.63630 0.86068 2.64229
#
# Compressibility (1/GPa) = 0.05279349
#
# Stress axis : x y z
#
# Youngs Moduli (GPa) = 120.71421 27.26370 20.37940
#
# Poissons Ratio (x) = 0.16407 0.17552
# Poissons Ratio (y) = 0.72646 0.12204
# Poissons Ratio (z) = 1.03968 0.16327
#
# Static dielectric constant tensor:
#      x y z
#    x 1.954790 0.000000 0.000000 
#    y 0.000000 1.789290 0.000000 
#    z 0.000000 0.000000 1.915100 
# 
# From -- ./inp_files/8575.got.cif
#   From: 2010.05.17/outbox.cif.g08.bks.cpg/sg35_5_cif.got.tgz:8575.got - 2010.06.03 17:29:28.
