data_PCOD9349082
_publ_section_title
;
Structure prediction by ZEFSAII (Michael W. Deem and Ramdas Pophale) SiO2 
 PCOD9349082
Probable space group: C M M 2
;
_chemical_formula_sum "Si O2"
_cell_formula_units_Z 64
_cell_length_a 8.983010
_cell_length_b 30.074436
_cell_length_c 12.507990
_cell_angle_alpha 90.000000
_cell_angle_beta 90.000000
_cell_angle_gamma 90.000000
_cell_volume 3379.145562
_symmetry_space_group_name_H-M "C M M 2"
_symmetry_group_IT_number 35
_symmetry_cell_setting 'orthorhombic'
loop_
_space_group_symop_operation_xyz
x,y,z
-x,-y,z
-x,y,z
x,-y,z
1/2+x,1/2+y,z
1/2-x,1/2-y,z
1/2-x,1/2+y,z
1/2+x,1/2-y,z
loop_
_atom_site_type_symbol
_atom_site_label
_atom_site_fract_x
_atom_site_fract_y
_atom_site_fract_z
Si Si1 0.178354 0.704190 0.089360
Si Si2 0.821005 0.604474 0.621368
Si Si3 0.172154 0.451673 0.209608
Si Si4 0.678508 0.890956 0.009027
Si Si5 0.821118 0.947569 0.819589
Si Si6 0.175164 0.704748 0.567318
Si Si7 0.676357 0.174416 0.328426
Si Si8 0.825950 0.914770 0.401659
O O1 0.250000 0.750000 0.052567
O O2 0.214262 0.696704 0.215531
O O3 0.000000 0.707129 0.082701
O O4 0.224151 0.660469 0.022768
O O5 0.748816 0.577218 0.717387
O O6 0.773733 0.656895 0.614339
O O7 0.767144 0.582917 0.510374
O O8 0.000000 0.603651 0.628275
O O9 0.185783 0.500000 0.156562
O O10 0.275242 0.449303 0.312463
O O11 0.000000 0.446271 0.243992
O O12 0.204576 0.414045 0.123478
O O13 0.500000 0.892531 0.988604
O O14 0.762008 0.919755 0.920820
O O15 0.000000 0.945595 0.814747
O O16 0.778370 0.000000 0.824341
O O17 0.250000 0.750000 0.606751
O O18 0.194351 0.701786 0.438173
O O19 0.000000 0.707557 0.588417
O O20 0.500000 0.161706 0.323392
O O21 0.778358 0.131796 0.347530
O O22 0.000000 0.916654 0.424668
#
# Coordination Sequence:
#
# PCOD9349082 Si02
#       8
#     8   8   8   8   8   8   8   8
#     4  10  20  34  56  85 120 158 201 248 291 343
#     4  10  22  41  63  86 116 155 201 244 288 353
#     4  10  20  36  59  84 114 155 198 238 288 355
#     4  10  21  40  64  87 116 156 201 245 289 351
#     4  11  25  44  66  92 118 145 188 251 311 358
#     4   9  18  31  53  84 118 155 194 238 285 338
#     4   9  17  33  52  76 116 162 204 242 280 338
#     4  11  21  33  54  85 122 158 191 240 299 349
#
# _framework density 18.939699999999998
#
# number of rings (size 3 to 8) (size 9 to 14) (size 15 to 20)
#    0.000    2.000    1.250    3.375    0.000    6.250 
#    0.000    0.625    0.000    0.000    0.000    0.000 
#    0.000    0.000    0.000    0.000    0.000    0.000 
#
# Total GULP energy -178538.113842 kJ/mol
# GULP energy per Si atom -5579.316058 kJ/mol
# Density = 1.889659 g / cm^3
# Si number density = 18.939700 Si / 1000 Ang^3
#
#
#
# Elastic Constant Matrix: (Units=GPa)
#
#
# Indices 1 2 3 4 5 6 
#
# 1 47.5692 54.0711 44.7924 0.0000 0.0000 0.0000
# 2 54.0711 152.8735 59.9656 0.0000 0.0000 0.0000
# 3 44.7924 59.9656 81.9643 0.0000 0.0000 0.0000
# 4 0.0000 0.0000 0.0000 15.6193 0.0000 0.0000
# 5 0.0000 0.0000 0.0000 0.0000 -7.3351 0.0000
# 6 0.0000 0.0000 0.0000 0.0000 0.0000 30.6915
#
#
#
# Elastic Compliance Matrix: (Units=1/GPa)
#
#
# Indices 1 2 3 4 5 6 
#
# 1 0.052831 -0.010324 -0.021318 0.000000 0.000000 0.000000
# 2 -0.010324 0.011192 -0.002546 0.000000 0.000000 0.000000
# 3 -0.021318 -0.002546 0.025713 0.000000 0.000000 0.000000
# 4 0.000000 0.000000 0.000000 0.064023 0.000000 0.000000
# 5 0.000000 0.000000 0.000000 0.000000 -0.136332 0.000000
# 6 0.000000 0.000000 0.000000 0.000000 0.000000 0.032582
#
#
# Mechanical properties :
#
#
# Convention : Reuss Voigt Hill
#
# Bulk Modulus (GPa) = 46.81798 66.67389 56.74593
# Shear Modulus (GPa) = 39.83871 16.03367 27.93619
#
# Velocity S-wave (km/s) = 4.59131 2.91273 3.84475
# Velocity P-wave (km/s) = 7.27187 6.82581 7.05237
#
# Compressibility (1/GPa) = 0.02135932
#
# Stress axis : x y z
#
# Youngs Moduli (GPa) = 18.92832 89.35296 38.89048
#
# Poissons Ratio (x) = 0.92248 0.82908
# Poissons Ratio (y) = 0.19541 0.09901
# Poissons Ratio (z) = 0.40352 0.22749
#
# Static dielectric constant tensor:
#      x y z
#    x 1.646730 0.000000 0.000000 
#    y 0.000000 1.694530 0.000000 
#    z 0.000000 0.000000 1.654570 
# 
# From -- ./inp_files/11936.got.cif
#   From: 2010.05.17/outbox.cif.g08.bks.cpg/sg35_6_cif.got.tgz:11936.got - 2010.06.03 17:29:28.
