data_PCOD9349886
_publ_section_title
;
Structure prediction by ZEFSAII (Michael W. Deem and Ramdas Pophale) SiO2 
 PCOD9349886
Probable space group: C M M 2
;
_chemical_formula_sum "Si O2"
_cell_formula_units_Z 48
_cell_length_a 16.971922
_cell_length_b 25.751466
_cell_length_c 4.941928
_cell_angle_alpha 90.000000
_cell_angle_beta 90.000000
_cell_angle_gamma 90.000000
_cell_volume 2159.878885
_symmetry_space_group_name_H-M "C M M 2"
_symmetry_group_IT_number 35
_symmetry_cell_setting 'orthorhombic'
loop_
_space_group_symop_operation_xyz
x,y,z
-x,-y,z
-x,y,z
x,-y,z
1/2+x,1/2+y,z
1/2-x,1/2-y,z
1/2-x,1/2+y,z
1/2+x,1/2-y,z
loop_
_atom_site_type_symbol
_atom_site_label
_atom_site_fract_x
_atom_site_fract_y
_atom_site_fract_z
Si Si1 0.663995 0.888614 0.789970
Si Si2 0.732503 0.942003 0.268910
Si Si3 0.500000 0.169827 0.812144
Si Si4 0.000000 0.253588 0.320788
Si Si5 0.587704 0.559392 0.364796
Si Si6 0.283019 0.692657 0.050516
Si Si7 0.377081 0.328726 0.548074
O O1 0.692112 0.905681 0.493890
O O2 0.576701 0.866500 0.820822
O O3 0.719613 0.843508 0.907544
O O4 0.685022 0.934999 0.993511
O O5 0.827571 0.935573 0.213361
O O6 0.725365 0.000000 0.376067
O O7 0.500000 0.199027 0.527852
O O8 0.500000 0.216803 0.033762
O O9 0.929106 0.214934 0.399600
O O10 0.500000 0.562126 0.228535
O O11 0.589927 0.500000 0.483898
O O12 0.591252 0.612011 0.544840
O O13 0.250000 0.750000 0.058357
O O14 0.358052 0.687816 0.851894
O O15 0.301747 0.674022 0.351428
#
# Coordination Sequence:
#
# PCOD9349886 Si02
#       7
#     8   8   4   4   8   8   8
#     4  12  23  46  68  97 136 177 229 281 340 400
#     4  11  24  45  72 102 134 176 222 280 343 399
#     4  12  28  46  69 100 131 186 224 282 348 400
#     4  12  24  44  65  98 145 176 220 286 330 396
#     4  10  21  42  69 100 136 177 220 267 329 402
#     4  12  24  40  64  93 126 173 223 269 323 394
#     4  12  23  41  64  97 131 173 218 266 327 388
#
# _framework density 22.223468
#
# number of rings (size 3 to 8) (size 9 to 14) (size 15 to 20)
#    0.000    0.500    4.167    5.000    0.000    0.000 
#    0.000    5.833    0.000   10.000    0.000    0.000 
#    0.000    0.000    0.000    0.000    0.000    0.000 
#
# Total GULP energy -133883.004328 kJ/mol
# GULP energy per Si atom -5578.458514 kJ/mol
# Density = 2.217289 g / cm^3
# Si number density = 22.223468 Si / 1000 Ang^3
#
#
#
# Elastic Constant Matrix: (Units=GPa)
#
#
# Indices 1 2 3 4 5 6 
#
# 1 123.0666 34.4831 15.9536 0.0000 0.0000 0.0000
# 2 34.4831 114.2131 -7.1634 0.0000 0.0000 0.0000
# 3 15.9536 -7.1634 80.7307 0.0000 0.0000 0.0000
# 4 0.0000 0.0000 0.0000 32.1085 0.0000 0.0000
# 5 0.0000 0.0000 0.0000 0.0000 14.4459 0.0000
# 6 0.0000 0.0000 0.0000 0.0000 0.0000 63.0642
#
#
#
# Elastic Compliance Matrix: (Units=1/GPa)
#
#
# Indices 1 2 3 4 5 6 
#
# 1 0.009211 -0.002911 -0.002079 0.000000 0.000000 0.000000
# 2 -0.002911 0.009725 0.001438 0.000000 0.000000 0.000000
# 3 -0.002079 0.001438 0.012925 0.000000 0.000000 0.000000
# 4 0.000000 0.000000 0.000000 0.031144 0.000000 0.000000
# 5 0.000000 0.000000 0.000000 0.000000 0.069224 0.000000
# 6 0.000000 0.000000 0.000000 0.000000 0.000000 0.015857
#
#
# Mechanical properties :
#
#
# Convention : Reuss Voigt Hill
#
# Bulk Modulus (GPa) = 40.39163 44.95078 42.67121
# Shear Modulus (GPa) = 30.59198 40.23954 35.41576
#
# Velocity S-wave (km/s) = 3.71423 4.25982 3.99635
# Velocity P-wave (km/s) = 6.05051 6.66824 6.36687
#
# Compressibility (1/GPa) = 0.02475760
#
# Stress axis : x y z
#
# Youngs Moduli (GPa) = 108.56736 102.83046 77.36810
#
# Poissons Ratio (x) = 0.29937 0.16081
# Poissons Ratio (y) = 0.31607 -0.11127
# Poissons Ratio (z) = 0.22566 -0.14789
#
# Static dielectric constant tensor:
#      x y z
#    x 1.954430 0.000000 0.000000 
#    y 0.000000 1.824630 0.000000 
#    z 0.000000 0.000000 1.784970 
# 
# From -- ./inp_files/1945.got.cif
#   From: 2010.05.17/outbox.cif.g08.bks.cpg/sg35_1_cif.got.tgz:1945.got - 2010.06.03 17:29:28.
