data_PCOD9349807
_publ_section_title
;
Structure prediction by ZEFSAII (Michael W. Deem and Ramdas Pophale) SiO2 
 PCOD9349807
Probable space group: C M M 2
;
_chemical_formula_sum "Si O2"
_cell_formula_units_Z 34
_cell_length_a 16.300770
_cell_length_b 15.744483
_cell_length_c 7.259618
_cell_angle_alpha 90.000000
_cell_angle_beta 90.000000
_cell_angle_gamma 90.000000
_cell_volume 1863.160605
_symmetry_space_group_name_H-M "C M M 2"
_symmetry_group_IT_number 35
_symmetry_cell_setting 'orthorhombic'
loop_
_space_group_symop_operation_xyz
x,y,z
-x,-y,z
-x,y,z
x,-y,z
1/2+x,1/2+y,z
1/2-x,1/2-y,z
1/2-x,1/2+y,z
1/2+x,1/2-y,z
loop_
_atom_site_type_symbol
_atom_site_label
_atom_site_fract_x
_atom_site_fract_y
_atom_site_fract_z
Si Si1 0.272995 0.898249 0.777060
Si Si2 0.500000 0.500000 0.489353
Si Si3 0.906570 0.655582 0.489354
Si Si4 0.362863 0.650305 0.489354
Si Si5 0.272996 0.101751 0.201648
O O1 0.355255 0.875799 0.666083
O O2 0.197367 0.858048 0.665408
O O3 0.262087 0.000000 0.770085
O O4 0.275639 0.871395 0.989354
O O5 0.428200 0.574732 0.489353
O O6 0.903115 0.757575 0.489353
O O7 0.855256 0.624200 0.312624
O O8 0.000000 0.625782 0.489355
O O9 0.302632 0.641952 0.313301
O O10 0.262087 0.000000 0.208623
#
# Coordination Sequence:
#
# PCOD9349807 Si02
#       5
#     8   2   8   8   8
#     4  10  21  39  61  84 115 154 192 232 285 344
#     4  12  20  40  66  88 116 146 188 236 290 344
#     4  11  23  36  58  88 116 152 192 238 284 332
#     4  11  21  39  62  84 118 151 186 238 290 341
#     4  10  21  39  61  84 115 154 192 232 285 344
#
# _framework density 18.248560999999999
#
# number of rings (size 3 to 8) (size 9 to 14) (size 15 to 20)
#    0.000    1.412    3.529    4.941    0.000    6.588 
#    0.000    4.706    0.000    0.000    0.000    0.000 
#    0.000    0.000    0.000    0.000    0.000    0.000 
#
# Total GULP energy -94703.508791 kJ/mol
# GULP energy per Si atom -5570.794635 kJ/mol
# Density = 1.820703 g / cm^3
# Si number density = 18.248561 Si / 1000 Ang^3
#
#
#
# Elastic Constant Matrix: (Units=GPa)
#
#
# Indices 1 2 3 4 5 6 
#
# 1 140.0546 -16.7658 60.3486 0.0000 0.0000 0.0000
# 2 -16.7658 22.0402 7.4685 0.0000 0.0000 0.0000
# 3 60.3486 7.4685 162.2235 0.0000 0.0000 0.0000
# 4 0.0000 0.0000 0.0000 102.0005 0.0000 0.0000
# 5 0.0000 0.0000 0.0000 0.0000 -4.5678 0.0000
# 6 0.0000 0.0000 0.0000 0.0000 0.0000 18.5823
#
#
#
# Elastic Compliance Matrix: (Units=1/GPa)
#
#
# Indices 1 2 3 4 5 6 
#
# 1 0.010000 0.009008 -0.004135 0.000000 0.000000 0.000000
# 2 0.009008 0.054205 -0.005847 0.000000 0.000000 0.000000
# 3 -0.004135 -0.005847 0.007972 0.000000 0.000000 0.000000
# 4 0.000000 0.000000 0.000000 0.009804 0.000000 0.000000
# 5 0.000000 0.000000 0.000000 0.000000 -0.218924 0.000000
# 6 0.000000 0.000000 0.000000 0.000000 0.000000 0.053815
#
#
# Mechanical properties :
#
#
# Convention : Reuss Voigt Hill
#
# Bulk Modulus (GPa) = 14.23886 47.38009 30.80948
# Shear Modulus (GPa) = -86.54772 41.42079 -22.56346
#
# Velocity S-wave (km/s) = -6.89421 4.76942 -3.52014
# Velocity P-wave (km/s) = 7.45344 7.50666 0.63093
#
# Compressibility (1/GPa) = 0.07023033
#
# Stress axis : x y z
#
# Youngs Moduli (GPa) = 99.99906 18.44841 125.44374
#
# Poissons Ratio (x) = -0.16619 0.51869
# Poissons Ratio (y) = -0.90080 0.73342
# Poissons Ratio (z) = 0.41348 0.10786
#
# Static dielectric constant tensor:
#      x y z
#    x 1.596970 0.000000 0.000000 
#    y 0.000000 1.637920 0.000000 
#    z 0.000000 0.000000 1.614640 
# 
# From -- ./inp_files/7101.got.cif
#   From: 2010.05.17/outbox.cif.g08.bks.cpg/sg35_4_cif.got.tgz:7101.got - 2010.06.03 17:29:28.
