data_PCOD9349029
_publ_section_title
;
Structure prediction by ZEFSAII (Michael W. Deem and Ramdas Pophale) SiO2 
 PCOD9349029
Probable space group: C M M 2
;
_chemical_formula_sum "Si O2"
_cell_formula_units_Z 46
_cell_length_a 7.786583
_cell_length_b 25.059683
_cell_length_c 13.723470
_cell_angle_alpha 90.000000
_cell_angle_beta 90.000000
_cell_angle_gamma 90.000000
_cell_volume 2677.851117
_symmetry_space_group_name_H-M "C M M 2"
_symmetry_group_IT_number 35
_symmetry_cell_setting 'orthorhombic'
loop_
_space_group_symop_operation_xyz
x,y,z
-x,-y,z
-x,y,z
x,-y,z
1/2+x,1/2+y,z
1/2-x,1/2-y,z
1/2-x,1/2+y,z
1/2+x,1/2-y,z
loop_
_atom_site_type_symbol
_atom_site_label
_atom_site_fract_x
_atom_site_fract_y
_atom_site_fract_z
Si Si1 0.306900 0.000000 0.988821
Si Si2 0.193002 0.436018 0.630786
Si Si3 0.795743 0.190141 0.982534
Si Si4 0.803415 0.312409 0.201984
Si Si5 0.293595 0.405182 0.845472
Si Si6 0.500000 0.564537 0.486988
Si Si7 0.500000 0.500000 0.144326
Si Si8 0.000000 0.109908 0.270674
O O1 0.278862 0.949921 0.917651
O O2 0.500000 0.000000 0.028369
O O3 0.165900 0.000000 0.073697
O O4 0.208633 0.500000 0.644986
O O5 0.225942 0.410981 0.736431
O O6 0.334311 0.420716 0.551565
O O7 0.000000 0.424257 0.597767
O O8 0.750000 0.250000 0.955046
O O9 0.749748 0.150264 0.896707
O O10 0.000000 0.185588 0.001014
O O11 0.706175 0.178296 0.085300
O O12 0.750000 0.250000 0.217109
O O13 0.666171 0.353302 0.247321
O O14 0.000000 0.320021 0.234845
O O15 0.500000 0.411576 0.842355
O O16 0.500000 0.500000 0.474001
O O17 0.500000 0.592164 0.382800
O O18 0.500000 0.554982 0.206949
#
# Coordination Sequence:
#
# PCOD9349029 Si02
#       8
#     4   8   8   8   8   4   2   4
#     4  12  24  36  55  85 124 165 201 234 289 360
#     4  10  20  35  58  86 114 149 200 245 287 354
#     4  10  20  34  54  84 120 158 195 234 283 347
#     4  11  21  39  65  91 118 159 212 256 294 354
#     4  11  20  34  56  85 118 158 196 238 288 350
#     4  10  22  41  62  84 118 157 193 248 313 365
#     4  12  26  40  54  86 136 170 190 244 322 382
#     4  12  24  42  63  92 121 157 208 259 316 368
#
# _framework density 17.177954
#
# number of rings (size 3 to 8) (size 9 to 14) (size 15 to 20)
#    0.000    1.217    4.783    3.130    0.000    5.565 
#    0.000    0.000    0.000    1.043    0.000    0.000 
#    0.000    0.000    0.000    0.000    0.000    0.000 
#
# Total GULP energy -128457.572732 kJ/mol
# GULP energy per Si atom -5585.111858 kJ/mol
# Density = 1.713886 g / cm^3
# Si number density = 17.177954 Si / 1000 Ang^3
#
#
#
# Elastic Constant Matrix: (Units=GPa)
#
#
# Indices 1 2 3 4 5 6 
#
# 1 145.7843 60.7166 75.9030 0.0000 0.0000 0.0000
# 2 60.7166 79.8911 70.5734 0.0000 0.0000 0.0000
# 3 75.9030 70.5734 132.9120 0.0000 0.0000 0.0000
# 4 0.0000 0.0000 0.0000 10.7568 0.0000 0.0000
# 5 0.0000 0.0000 0.0000 0.0000 9.3876 0.0000
# 6 0.0000 0.0000 0.0000 0.0000 0.0000 16.2040
#
#
#
# Elastic Compliance Matrix: (Units=1/GPa)
#
#
# Indices 1 2 3 4 5 6 
#
# 1 0.010798 -0.005196 -0.003407 0.000000 0.000000 0.000000
# 2 -0.005196 0.026076 -0.010878 0.000000 0.000000 0.000000
# 3 -0.003407 -0.010878 0.015245 0.000000 0.000000 0.000000
# 4 0.000000 0.000000 0.000000 0.092965 0.000000 0.000000
# 5 0.000000 0.000000 0.000000 0.000000 0.106523 0.000000
# 6 0.000000 0.000000 0.000000 0.000000 0.000000 0.061713
#
#
# Mechanical properties :
#
#
# Convention : Reuss Voigt Hill
#
# Bulk Modulus (GPa) = 76.01296 85.88592 80.94944
# Shear Modulus (GPa) = 14.01864 17.36264 15.69064
#
# Velocity S-wave (km/s) = 2.85982 3.18268 3.02556
# Velocity P-wave (km/s) = 7.43311 7.97573 7.70919
#
# Compressibility (1/GPa) = 0.01315565
#
# Stress axis : x y z
#
# Youngs Moduli (GPa) = 92.61372 38.35017 65.59328
#
# Poissons Ratio (x) = 0.19928 0.22348
# Poissons Ratio (y) = 0.48125 0.71352
# Poissons Ratio (z) = 0.31554 0.41717
#
# Static dielectric constant tensor:
#      x y z
#    x 1.614770 0.000000 0.000000 
#    y 0.000000 1.576150 0.000000 
#    z 0.000000 0.000000 1.537630 
# 
# From -- ./inp_files/11439.got.cif
#   From: 2010.05.17/outbox.cif.g08.bks.cpg/sg35_6_cif.got.tgz:11439.got - 2010.06.03 17:29:28.
