data_PCOD9349210
_publ_section_title
;
Structure prediction by ZEFSAII (Michael W. Deem and Ramdas Pophale) SiO2 
 PCOD9349210
Probable space group: C M M 2
;
_chemical_formula_sum "Si O2"
_cell_formula_units_Z 48
_cell_length_a 8.569522
_cell_length_b 31.290666
_cell_length_c 9.748524
_cell_angle_alpha 90.000000
_cell_angle_beta 90.000000
_cell_angle_gamma 90.000000
_cell_volume 2614.028211
_symmetry_space_group_name_H-M "C M M 2"
_symmetry_group_IT_number 35
_symmetry_cell_setting 'orthorhombic'
loop_
_space_group_symop_operation_xyz
x,y,z
-x,-y,z
-x,y,z
x,-y,z
1/2+x,1/2+y,z
1/2-x,1/2-y,z
1/2-x,1/2+y,z
1/2+x,1/2-y,z
loop_
_atom_site_type_symbol
_atom_site_label
_atom_site_fract_x
_atom_site_fract_y
_atom_site_fract_z
Si Si1 0.811664 0.950655 0.026120
Si Si2 0.811313 0.874559 0.518853
Si Si3 0.312566 0.296970 0.713827
Si Si4 0.809854 0.951462 0.711797
Si Si5 0.813470 0.625098 0.211377
Si Si6 0.812493 0.297130 0.017751
O O1 0.741702 0.916898 0.130504
O O2 0.000000 0.948037 0.031953
O O3 0.768696 0.000000 0.055422
O O4 0.763785 0.941135 0.868564
O O5 0.764015 0.832628 0.604509
O O6 0.757194 0.916218 0.603664
O O7 0.750880 0.874160 0.364836
O O8 0.000000 0.875428 0.515863
O O9 0.500000 0.295775 0.720157
O O10 0.250000 0.250000 0.677907
O O11 0.249666 0.307608 0.865547
O O12 0.000000 0.951385 0.711011
O O13 0.760119 0.000000 0.680098
O O14 0.000000 0.625677 0.215785
O O15 0.761376 0.666716 0.124815
O O16 0.750000 0.250000 0.053514
O O17 0.000000 0.295715 0.013347
#
# Coordination Sequence:
#
# PCOD9349210 Si02
#       6
#     8   8   8   8   8   8
#     4   9  18  35  60  84 105 136 179 223 265 314
#     4  10  21  35  53  78 107 141 178 215 260 316
#     4  10  20  35  57  82 106 136 176 222 269 317
#     4   8  15  31  56  82 103 127 169 221 262 301
#     4  11  24  37  51  77 113 147 177 217 269 320
#     4  10  21  37  57  80 105 138 180 224 270 319
#
# _framework density 18.362463999999999
#
# number of rings (size 3 to 8) (size 9 to 14) (size 15 to 20)
#    0.000    2.333    0.000    4.500    0.000    7.000 
#    0.000    5.833    0.000    1.000    0.000    0.000 
#    0.000    0.000    0.000    0.000    0.000    0.000 
#
# Total GULP energy -133985.544163 kJ/mol
# GULP energy per Si atom -5582.731007 kJ/mol
# Density = 1.832067 g / cm^3
# Si number density = 18.362464 Si / 1000 Ang^3
#
#
#
# Elastic Constant Matrix: (Units=GPa)
#
#
# Indices 1 2 3 4 5 6 
#
# 1 25.4967 35.9146 34.5224 0.0000 0.0000 0.0000
# 2 35.9146 162.5188 148.9457 0.0000 0.0000 0.0000
# 3 34.5224 148.9457 178.8601 0.0000 0.0000 0.0000
# 4 0.0000 0.0000 0.0000 -37.1923 0.0000 0.0000
# 5 0.0000 0.0000 0.0000 0.0000 22.3164 0.0000
# 6 0.0000 0.0000 0.0000 0.0000 0.0000 19.8632
#
#
#
# Elastic Compliance Matrix: (Units=1/GPa)
#
#
# Indices 1 2 3 4 5 6 
#
# 1 0.057146 -0.010641 -0.002169 0.000000 0.000000 0.000000
# 2 -0.010641 0.027966 -0.021235 0.000000 0.000000 0.000000
# 3 -0.002169 -0.021235 0.023693 0.000000 0.000000 0.000000
# 4 0.000000 0.000000 0.000000 -0.026887 0.000000 0.000000
# 5 0.000000 0.000000 0.000000 0.000000 0.044810 0.000000
# 6 0.000000 0.000000 0.000000 0.000000 0.000000 0.050344
#
#
# Mechanical properties :
#
#
# Convention : Reuss Voigt Hill
#
# Bulk Modulus (GPa) = 24.56040 89.51566 57.03803
# Shear Modulus (GPa) = 19.32491 10.83032 15.07762
#
# Velocity S-wave (km/s) = 3.24761 2.43123 2.86861
# Velocity P-wave (km/s) = 5.24090 7.53235 6.48858
#
# Compressibility (1/GPa) = 0.04071596
#
# Stress axis : x y z
#
# Youngs Moduli (GPa) = 17.49900 35.75755 42.20671
#
# Poissons Ratio (x) = 0.38050 0.09153
# Poissons Ratio (y) = 0.18621 0.89626
# Poissons Ratio (z) = 0.03795 0.75931
#
# Static dielectric constant tensor:
#      x y z
#    x 1.627040 0.000000 0.000000 
#    y 0.000000 1.629450 0.000000 
#    z 0.000000 0.000000 1.598070 
# 
# From -- ./inp_files/5294.got.cif
#   From: 2010.05.17/outbox.cif.g08.bks.cpg/sg35_3_cif.got.tgz:5294.got - 2010.06.03 17:29:28.
