data_PCOD9349235
_publ_section_title
;
Structure prediction by ZEFSAII (Michael W. Deem and Ramdas Pophale) SiO2 
 PCOD9349235
Probable space group: C M M 2
;
_chemical_formula_sum "Si O2"
_cell_formula_units_Z 56
_cell_length_a 14.889877
_cell_length_b 14.014946
_cell_length_c 13.273569
_cell_angle_alpha 90.000000
_cell_angle_beta 90.000000
_cell_angle_gamma 90.000000
_cell_volume 2769.939291
_symmetry_space_group_name_H-M "C M M 2"
_symmetry_group_IT_number 35
_symmetry_cell_setting 'orthorhombic'
loop_
_space_group_symop_operation_xyz
x,y,z
-x,-y,z
-x,y,z
x,-y,z
1/2+x,1/2+y,z
1/2-x,1/2-y,z
1/2-x,1/2+y,z
1/2+x,1/2-y,z
loop_
_atom_site_type_symbol
_atom_site_label
_atom_site_fract_x
_atom_site_fract_y
_atom_site_fract_z
Si Si1 0.150444 0.223921 0.361990
Si Si2 0.604123 0.107846 0.506159
Si Si3 0.782626 0.387140 0.073751
Si Si4 0.396750 0.715848 0.143742
Si Si5 0.598954 0.109598 0.881397
Si Si6 0.895211 0.893197 0.550101
Si Si7 0.151985 0.724476 0.693181
O O1 0.250000 0.250000 0.329324
O O2 0.110815 0.318567 0.414218
O O3 0.101542 0.189910 0.262082
O O4 0.154847 0.147635 0.452314
O O5 0.500000 0.108430 0.539804
O O6 0.658672 0.149950 0.600291
O O7 0.629614 0.000000 0.480394
O O8 0.786913 0.500000 0.097127
O O9 0.681048 0.348158 0.090186
O O10 0.853160 0.322159 0.136439
O O11 0.821370 0.373358 0.960586
O O12 0.500000 0.710203 0.105502
O O13 0.500000 0.118072 0.930912
O O14 0.601650 0.178254 0.786037
O O15 0.607321 0.000000 0.845838
O O16 0.886898 0.819131 0.641453
O O17 0.000000 0.894144 0.520931
O O18 0.866811 0.000000 0.576410
O O19 0.250000 0.750000 0.730643
#
# Coordination Sequence:
#
# PCOD9349235 Si02
#       7
#     8   8   8   8   8   8   8
#     4  11  21  37  57  86 124 163 205 253 309 371
#     4  10  20  35  57  86 119 157 204 257 310 367
#     4  10  23  43  66  96 126 160 214 270 322 382
#     4  11  23  42  67  94 130 170 213 265 325 383
#     4  10  21  40  67  93 119 156 202 259 324 383
#     4  10  21  37  57  83 119 164 210 251 298 366
#     4  11  22  34  57  87 123 159 200 248 308 374
#
# _framework density 20.217048999999999
#
# number of rings (size 3 to 8) (size 9 to 14) (size 15 to 20)
#    0.000    1.571    1.429    6.000    2.000    6.286 
#    0.000    0.000    0.000    0.000    0.000    0.000 
#    0.000    0.000    0.000    0.000    0.000    0.000 
#
# Total GULP energy -156235.464083 kJ/mol
# GULP energy per Si atom -5579.838003 kJ/mol
# Density = 2.017103 g / cm^3
# Si number density = 20.217049 Si / 1000 Ang^3
#
#
#
# Elastic Constant Matrix: (Units=GPa)
#
#
# Indices 1 2 3 4 5 6 
#
# 1 127.2935 24.9531 28.7924 0.0000 0.0000 0.0000
# 2 24.9531 122.6221 51.8094 0.0000 0.0000 0.0000
# 3 28.7924 51.8094 89.6842 0.0000 0.0000 0.0000
# 4 0.0000 0.0000 0.0000 12.2063 0.0000 0.0000
# 5 0.0000 0.0000 0.0000 0.0000 38.0023 0.0000
# 6 0.0000 0.0000 0.0000 0.0000 0.0000 27.5020
#
#
#
# Elastic Compliance Matrix: (Units=1/GPa)
#
#
# Indices 1 2 3 4 5 6 
#
# 1 0.008525 -0.000765 -0.002295 0.000000 0.000000 0.000000
# 2 -0.000765 0.010857 -0.006026 0.000000 0.000000 0.000000
# 3 -0.002295 -0.006026 0.015368 0.000000 0.000000 0.000000
# 4 0.000000 0.000000 0.000000 0.081925 0.000000 0.000000
# 5 0.000000 0.000000 0.000000 0.000000 0.026314 0.000000
# 6 0.000000 0.000000 0.000000 0.000000 0.000000 0.036361
#
#
# Mechanical properties :
#
#
# Convention : Reuss Voigt Hill
#
# Bulk Modulus (GPa) = 60.32235 61.18997 60.75616
# Shear Modulus (GPa) = 24.62461 31.14510 27.88486
#
# Velocity S-wave (km/s) = 3.49379 3.92922 3.71789
# Velocity P-wave (km/s) = 6.79541 7.13564 6.96760
#
# Compressibility (1/GPa) = 0.01657760
#
# Stress axis : x y z
#
# Youngs Moduli (GPa) = 117.30306 92.10599 65.06898
#
# Poissons Ratio (x) = 0.07048 0.14932
# Poissons Ratio (y) = 0.08976 0.39213
# Poissons Ratio (z) = 0.26919 0.55506
#
# Static dielectric constant tensor:
#      x y z
#    x 1.764670 0.000000 0.000000 
#    y 0.000000 1.723500 0.000000 
#    z 0.000000 0.000000 1.699350 
# 
# From -- ./inp_files/13024.got.cif
#   From: 2010.05.17/outbox.cif.g08.bks.cpg/sg35_7_cif.got.tgz:13024.got - 2010.06.03 17:29:28.
