data_PCOD9349437
_publ_section_title
;
Structure prediction by ZEFSAII (Michael W. Deem and Ramdas Pophale) SiO2 
 PCOD9349437
Probable space group: C M M 2
;
_chemical_formula_sum "Si O2"
_cell_formula_units_Z 40
_cell_length_a 13.577167
_cell_length_b 26.986485
_cell_length_c 5.249704
_cell_angle_alpha 90.000000
_cell_angle_beta 90.000000
_cell_angle_gamma 90.000000
_cell_volume 1923.491617
_symmetry_space_group_name_H-M "C M M 2"
_symmetry_group_IT_number 35
_symmetry_cell_setting 'orthorhombic'
loop_
_space_group_symop_operation_xyz
x,y,z
-x,-y,z
-x,y,z
x,-y,z
1/2+x,1/2+y,z
1/2-x,1/2-y,z
1/2-x,1/2+y,z
1/2+x,1/2-y,z
loop_
_atom_site_type_symbol
_atom_site_label
_atom_site_fract_x
_atom_site_fract_y
_atom_site_fract_z
Si Si1 0.618400 0.715859 0.222870
Si Si2 0.117308 0.888204 0.986571
Si Si3 0.292752 0.116281 0.663528
Si Si4 0.209567 0.442483 0.157200
Si Si5 0.381517 0.775699 0.719099
O O1 0.500000 0.712733 0.223878
O O2 0.646223 0.736816 0.497433
O O3 0.650822 0.661022 0.141664
O O4 0.643787 0.753911 0.996228
O O5 0.174383 0.883241 0.717291
O O6 0.000000 0.890780 0.967328
O O7 0.172044 0.934319 0.118228
O O8 0.318300 0.086379 0.411627
O O9 0.333822 0.171424 0.666394
O O10 0.331810 0.086161 0.910430
O O11 0.184929 0.500000 0.164042
O O12 0.500000 0.781030 0.709941
#
# Coordination Sequence:
#
# PCOD9349437 Si02
#       5
#     8   8   8   8   8
#     4   9  19  34  56  83 120 152 182 228 274 333
#     4   9  22  39  57  86 118 151 190 230 282 341
#     4  10  22  38  59  87 109 156 189 238 284 338
#     4  10  22  40  58  81 113 149 192 245 292 327
#     4  10  20  37  59  86 118 153 185 225 282 343
#
# _framework density 20.795517
#
# number of rings (size 3 to 8) (size 9 to 14) (size 15 to 20)
#    1.200    1.200    0.000    1.800    2.800    2.000 
#    0.000    0.000    0.000    3.600    0.000    0.000 
#    0.000    0.000    0.000    0.000    0.000    0.000 
#
# Total GULP energy -111598.827018 kJ/mol
# GULP energy per Si atom -5579.941351 kJ/mol
# Density = 2.074819 g / cm^3
# Si number density = 20.795517 Si / 1000 Ang^3
#
#
#
# Elastic Constant Matrix: (Units=GPa)
#
#
# Indices 1 2 3 4 5 6 
#
# 1 39.6341 -12.5431 -4.5304 0.0000 0.0000 0.0000
# 2 -12.5431 103.4570 34.5922 0.0000 0.0000 0.0000
# 3 -4.5304 34.5922 125.7133 0.0000 0.0000 0.0000
# 4 0.0000 0.0000 0.0000 33.4888 0.0000 0.0000
# 5 0.0000 0.0000 0.0000 0.0000 -2.9473 0.0000
# 6 0.0000 0.0000 0.0000 0.0000 0.0000 23.3382
#
#
#
# Elastic Compliance Matrix: (Units=1/GPa)
#
#
# Indices 1 2 3 4 5 6 
#
# 1 0.026238 0.003155 0.000077 0.000000 0.000000 0.000000
# 2 0.003155 0.011025 -0.002920 0.000000 0.000000 0.000000
# 3 0.000077 -0.002920 0.008761 0.000000 0.000000 0.000000
# 4 0.000000 0.000000 0.000000 0.029861 0.000000 0.000000
# 5 0.000000 0.000000 0.000000 0.000000 -0.339299 0.000000
# 6 0.000000 0.000000 0.000000 0.000000 0.000000 0.042848
#
#
# Mechanical properties :
#
#
# Convention : Reuss Voigt Hill
#
# Bulk Modulus (GPa) = 21.43666 33.76020 27.59843
# Shear Modulus (GPa) = -24.31408 27.52833 1.60713
#
# Velocity S-wave (km/s) = -3.42306 3.64230 0.88006
# Velocity P-wave (km/s) = 2.30054 5.82736 3.78587
#
# Compressibility (1/GPa) = 0.04664906
#
# Stress axis : x y z
#
# Youngs Moduli (GPa) = 38.11242 90.70530 114.14393
#
# Poissons Ratio (x) = -0.28620 -0.00883
# Poissons Ratio (y) = -0.12025 0.33329
# Poissons Ratio (z) = -0.00295 0.26485
#
# Static dielectric constant tensor:
#      x y z
#    x 1.775400 0.000000 0.000000 
#    y 0.000000 1.696570 0.000000 
#    z 0.000000 0.000000 1.760840 
# 
# From -- ./inp_files/2470.got.cif
#   From: 2010.05.17/outbox.cif.g08.bks.cpg/sg35_2_cif.got.tgz:2470.got - 2010.06.03 17:29:28.
