data_PCOD9349498
_publ_section_title
;
Structure prediction by ZEFSAII (Michael W. Deem and Ramdas Pophale) SiO2 
 PCOD9349498
Probable space group: C M M 2
;
_chemical_formula_sum "Si O2"
_cell_formula_units_Z 48
_cell_length_a 14.385581
_cell_length_b 10.349890
_cell_length_c 16.221695
_cell_angle_alpha 90.000000
_cell_angle_beta 90.000000
_cell_angle_gamma 90.000000
_cell_volume 2415.234882
_symmetry_space_group_name_H-M "C M M 2"
_symmetry_group_IT_number 35
_symmetry_cell_setting 'orthorhombic'
loop_
_space_group_symop_operation_xyz
x,y,z
-x,-y,z
-x,y,z
x,-y,z
1/2+x,1/2+y,z
1/2-x,1/2-y,z
1/2-x,1/2+y,z
1/2+x,1/2-y,z
loop_
_atom_site_type_symbol
_atom_site_label
_atom_site_fract_x
_atom_site_fract_y
_atom_site_fract_z
Si Si1 0.887361 0.500000 0.864491
Si Si2 0.386697 0.146869 0.276735
Si Si3 0.612537 0.259287 0.958877
Si Si4 0.110960 0.000000 0.845632
Si Si5 0.889098 0.348181 0.465987
Si Si6 0.386283 0.649104 0.138939
Si Si7 0.755786 0.500000 0.706928
Si Si8 0.750000 0.750000 0.592298
O O1 0.859806 0.375065 0.917911
O O2 0.837198 0.500000 0.775985
O O3 0.000000 0.500000 0.853921
O O4 0.500000 0.144416 0.275353
O O5 0.360513 0.176204 0.371173
O O6 0.357433 0.256201 0.212591
O O7 0.356518 0.000000 0.255878
O O8 0.500000 0.257282 0.962609
O O9 0.638404 0.374825 0.898009
O O10 0.643617 0.291847 0.051174
O O11 0.161528 0.000000 0.759319
O O12 0.000000 0.000000 0.836643
O O13 0.867777 0.500000 0.483165
O O14 0.837492 0.257652 0.530596
O O15 0.000000 0.333457 0.471519
O O16 0.500000 0.646904 0.138776
O O17 0.356096 0.500000 0.147130
O O18 0.757333 0.625796 0.650197
#
# Coordination Sequence:
#
# PCOD9349498 Si02
#       8
#     4   8   8   4   8   8   4   4
#     4  10  22  38  56  83 115 153 201 244 286 348
#     4   8  15  28  51  82 113 151 195 234 275 335
#     4   9  17  31  53  80 114 156 193 230 284 343
#     4  10  20  38  58  79 113 151 183 232 300 356
#     4   9  19  40  65  88 121 162 198 239 300 365
#     4   9  15  25  45  81 121 150 187 235 281 334
#     4  12  26  40  62  88 114 146 196 252 312 358
#     4  12  24  42  64  92 114 152 200 250 310 370
#
# _framework density 19.873843000000001
#
# number of rings (size 3 to 8) (size 9 to 14) (size 15 to 20)
#    0.000    2.500    1.667    2.000    1.167    1.333 
#    1.500    0.000    0.000    2.000    0.000    0.000 
#    0.000    0.000    0.000    0.000    0.000    0.000 
#
# Total GULP energy -134025.055146 kJ/mol
# GULP energy per Si atom -5584.377298 kJ/mol
# Density = 1.982861 g / cm^3
# Si number density = 19.873843 Si / 1000 Ang^3
#
#
#
# Elastic Constant Matrix: (Units=GPa)
#
#
# Indices 1 2 3 4 5 6 
#
# 1 67.3523 27.5627 33.5755 0.0000 0.0000 0.0000
# 2 27.5627 185.6070 113.3475 0.0000 0.0000 0.0000
# 3 33.5755 113.3475 170.7683 0.0000 0.0000 0.0000
# 4 0.0000 0.0000 0.0000 188.9226 0.0000 0.0000
# 5 0.0000 0.0000 0.0000 0.0000 115.2059 0.0000
# 6 0.0000 0.0000 0.0000 0.0000 0.0000 -11.4102
#
#
#
# Elastic Compliance Matrix: (Units=1/GPa)
#
#
# Indices 1 2 3 4 5 6 
#
# 1 0.016529 -0.000790 -0.002725 0.000000 0.000000 0.000000
# 2 -0.000790 0.009098 -0.005883 0.000000 0.000000 0.000000
# 3 -0.002725 -0.005883 0.010297 0.000000 0.000000 0.000000
# 4 0.000000 0.000000 0.000000 0.005293 0.000000 0.000000
# 5 0.000000 0.000000 0.000000 0.000000 0.008680 0.000000
# 6 0.000000 0.000000 0.000000 0.000000 0.000000 -0.087641
#
#
# Mechanical properties :
#
#
# Convention : Reuss Voigt Hill
#
# Bulk Modulus (GPa) = 58.39051 85.85544 72.12297
# Shear Modulus (GPa) = -377.74057 75.15979 -151.29039
#
# Velocity S-wave (km/s) = -13.80152 6.15634 -8.73445
# Velocity P-wave (km/s) = 14.98437 9.68649 8.08404
#
# Compressibility (1/GPa) = 0.01712607
#
# Stress axis : x y z
#
# Youngs Moduli (GPa) = 60.49855 109.91422 97.11705
#
# Poissons Ratio (x) = 0.08686 0.26468
# Poissons Ratio (y) = 0.04781 0.57138
# Poissons Ratio (z) = 0.16488 0.64667
#
# Static dielectric constant tensor:
#      x y z
#    x 1.746880 0.000000 0.000000 
#    y 0.000000 1.287280 0.000000 
#    z 0.000000 0.000000 1.666530 
# 
# From -- ./inp_files/17153.got.cif
#   From: 2010.05.17/outbox.cif.g08.bks.cpg/sg35_9_cif.got.tgz:17153.got - 2010.06.03 17:29:28.
