data_PCOD9349762
_publ_section_title
;
Structure prediction by ZEFSAII (Michael W. Deem and Ramdas Pophale) SiO2 
 PCOD9349762
Probable space group: C M M 2
;
_chemical_formula_sum "Si O2"
_cell_formula_units_Z 40
_cell_length_a 8.754678
_cell_length_b 15.801290
_cell_length_c 14.756854
_cell_angle_alpha 90.000000
_cell_angle_beta 90.000000
_cell_angle_gamma 90.000000
_cell_volume 2041.392437
_symmetry_space_group_name_H-M "C M M 2"
_symmetry_group_IT_number 35
_symmetry_cell_setting 'orthorhombic'
loop_
_space_group_symop_operation_xyz
x,y,z
-x,-y,z
-x,y,z
x,-y,z
1/2+x,1/2+y,z
1/2-x,1/2-y,z
1/2-x,1/2+y,z
1/2+x,1/2-y,z
loop_
_atom_site_type_symbol
_atom_site_label
_atom_site_fract_x
_atom_site_fract_y
_atom_site_fract_z
Si Si1 0.183034 0.844465 0.652440
Si Si2 0.824364 0.902125 0.023940
Si Si3 0.180899 0.343407 0.843312
Si Si4 0.315846 0.500000 0.521152
Si Si5 0.183902 0.838731 0.216952
Si Si6 0.182154 0.500000 0.321030
O O1 0.250000 0.750000 0.635784
O O2 0.245004 0.875344 0.750001
O O3 0.000000 0.837323 0.657053
O O4 0.222579 0.915266 0.578112
O O5 0.770517 0.850474 0.111235
O O6 0.000000 0.877527 0.002598
O O7 0.825208 0.000000 0.052400
O O8 0.726511 0.892339 0.933798
O O9 0.250000 0.250000 0.855954
O O10 0.000000 0.339634 0.832569
O O11 0.500000 0.500000 0.507732
O O12 0.232745 0.500000 0.425407
O O13 0.250000 0.750000 0.250635
O O14 0.249388 0.917089 0.272833
O O15 0.000000 0.839817 0.220786
O O16 0.000000 0.500000 0.312433
#
# Coordination Sequence:
#
# PCOD9349762 Si02
#       6
#     8   8   8   4   8   4
#     4  10  21  40  64  91 122 163 206 254 308 366
#     4  10  21  38  60  88 124 166 207 253 306 362
#     4  11  22  36  56  86 123 164 206 253 300 359
#     4  10  24  44  67  90 121 162 203 254 318 378
#     4  11  23  43  68  95 127 167 210 259 315 373
#     4  12  26  44  67  96 127 162 207 262 316 378
#
# _framework density 19.594469
#
# number of rings (size 3 to 8) (size 9 to 14) (size 15 to 20)
#    0.000    1.400    1.000    5.700    1.400    6.000 
#    0.000    2.000    0.000    0.000    0.000    0.000 
#    0.000    0.000    0.000    0.000    0.000    0.000 
#
# Total GULP energy -111790.822445 kJ/mol
# GULP energy per Si atom -5589.541122 kJ/mol
# Density = 1.954987 g / cm^3
# Si number density = 19.594469 Si / 1000 Ang^3
#
#
#
# Elastic Constant Matrix: (Units=GPa)
#
#
# Indices 1 2 3 4 5 6 
#
# 1 91.7040 51.5316 64.9571 0.0000 0.0000 0.0000
# 2 51.5316 126.8432 76.4085 0.0000 0.0000 0.0000
# 3 64.9571 76.4085 131.4599 0.0000 0.0000 0.0000
# 4 0.0000 0.0000 0.0000 7.3268 0.0000 0.0000
# 5 0.0000 0.0000 0.0000 0.0000 13.6150 0.0000
# 6 0.0000 0.0000 0.0000 0.0000 0.0000 30.0218
#
#
#
# Elastic Compliance Matrix: (Units=1/GPa)
#
#
# Indices 1 2 3 4 5 6 
#
# 1 0.017451 -0.002916 -0.006928 0.000000 0.000000 0.000000
# 2 -0.002916 0.012619 -0.005893 0.000000 0.000000 0.000000
# 3 -0.006928 -0.005893 0.014455 0.000000 0.000000 0.000000
# 4 0.000000 0.000000 0.000000 0.136485 0.000000 0.000000
# 5 0.000000 0.000000 0.000000 0.000000 0.073448 0.000000
# 6 0.000000 0.000000 0.000000 0.000000 0.000000 0.033309
#
#
# Mechanical properties :
#
#
# Convention : Reuss Voigt Hill
#
# Bulk Modulus (GPa) = 76.62877 81.75571 79.19224
# Shear Modulus (GPa) = 15.45160 20.66673 18.05917
#
# Velocity S-wave (km/s) = 2.81119 3.25117 3.03916
# Velocity P-wave (km/s) = 7.05190 7.47716 7.26764
#
# Compressibility (1/GPa) = 0.01304993
#
# Stress axis : x y z
#
# Youngs Moduli (GPa) = 57.30493 79.24819 69.17905
#
# Poissons Ratio (x) = 0.23112 0.47924
# Poissons Ratio (y) = 0.16713 0.40769
# Poissons Ratio (z) = 0.39698 0.46703
#
# Static dielectric constant tensor:
#      x y z
#    x 1.664610 0.000000 0.000000 
#    y 0.000000 1.675240 0.000000 
#    z 0.000000 0.000000 1.678400 
# 
# From -- ./inp_files/14753.got.cif
#   From: 2010.05.17/outbox.cif.g08.bks.cpg/sg35_8_cif.got.tgz:14753.got - 2010.06.03 17:29:28.
