data_PCOD9349684
_publ_section_title
;
Structure prediction by ZEFSAII (Michael W. Deem and Ramdas Pophale) SiO2 
 PCOD9349684
Probable space group: C M M 2
;
_chemical_formula_sum "Si O2"
_cell_formula_units_Z 64
_cell_length_a 8.949188
_cell_length_b 29.621336
_cell_length_c 12.655524
_cell_angle_alpha 90.000000
_cell_angle_beta 90.000000
_cell_angle_gamma 90.000000
_cell_volume 3354.813684
_symmetry_space_group_name_H-M "C M M 2"
_symmetry_group_IT_number 35
_symmetry_cell_setting 'orthorhombic'
loop_
_space_group_symop_operation_xyz
x,y,z
-x,-y,z
-x,y,z
x,-y,z
1/2+x,1/2+y,z
1/2-x,1/2-y,z
1/2-x,1/2+y,z
1/2+x,1/2-y,z
loop_
_atom_site_type_symbol
_atom_site_label
_atom_site_fract_x
_atom_site_fract_y
_atom_site_fract_z
Si Si1 0.678907 0.377208 0.475240
Si Si2 0.679437 0.299502 0.314976
Si Si3 0.677874 0.877446 0.705605
Si Si4 0.821872 0.700597 0.869270
Si Si5 0.329332 0.554916 0.102677
Si Si6 0.179123 0.199779 0.081233
Si Si7 0.325295 0.945974 0.319498
Si Si8 0.680212 0.553071 0.866747
O O1 0.500000 0.377106 0.482567
O O2 0.726719 0.333583 0.406461
O O3 0.748934 0.376839 0.590872
O O4 0.732886 0.420134 0.408247
O O5 0.500000 0.294697 0.318775
O O6 0.750000 0.250000 0.325849
O O7 0.714557 0.318990 0.197653
O O8 0.500000 0.882471 0.696048
O O9 0.708823 0.831457 0.770231
O O10 0.743665 0.917377 0.777420
O O11 0.750000 0.750000 0.854468
O O12 0.000000 0.705046 0.883122
O O13 0.751053 0.679436 0.976009
O O14 0.500000 0.571515 0.116722
O O15 0.335576 0.500000 0.101126
O O16 0.231565 0.567750 0.202987
O O17 0.274598 0.567559 0.985822
O O18 0.250000 0.250000 0.084194
O O19 0.000000 0.201690 0.069350
O O20 0.500000 0.935721 0.331103
O O21 0.305253 0.000000 0.328540
O O22 0.500000 0.557631 0.861877
O O23 0.715229 0.500000 0.854054
#
# Coordination Sequence:
#
# PCOD9349684 Si02
#       8
#     8   8   8   8   8   8   8   8
#     4  11  24  41  59  80 108 146 194 236 274 329
#     4   9  20  37  58  85 113 143 179 223 275 329
#     4  11  25  41  56  80 112 146 189 236 281 331
#     4  10  21  37  57  82 112 145 182 224 273 328
#     4   8  15  31  56  85 115 145 180 222 270 330
#     4   9  16  30  54  83 113 141 174 218 270 329
#     4  10  21  37  58  85 116 148 183 227 280 331
#     4   9  19  37  61  87 114 147 186 227 274 329
#
# _framework density 19.077065000000001
#
# number of rings (size 3 to 8) (size 9 to 14) (size 15 to 20)
#    0.000    2.375    0.000    3.375    0.000    7.000 
#    0.000    7.500    0.000    0.000    0.000    0.000 
#    0.000    0.000    0.000    0.000    0.000    0.000 
#
# Total GULP energy -178644.847261 kJ/mol
# GULP energy per Si atom -5582.651477 kJ/mol
# Density = 1.903364 g / cm^3
# Si number density = 19.077065 Si / 1000 Ang^3
#
#
#
# Elastic Constant Matrix: (Units=GPa)
#
#
# Indices 1 2 3 4 5 6 
#
# 1 64.3082 46.6722 76.4950 0.0000 0.0000 0.0000
# 2 46.6722 76.3233 65.2982 0.0000 0.0000 0.0000
# 3 76.4950 65.2982 201.5824 0.0000 0.0000 0.0000
# 4 0.0000 0.0000 0.0000 30.0682 0.0000 0.0000
# 5 0.0000 0.0000 0.0000 0.0000 30.6242 0.0000
# 6 0.0000 0.0000 0.0000 0.0000 0.0000 14.5027
#
#
#
# Elastic Compliance Matrix: (Units=1/GPa)
#
#
# Indices 1 2 3 4 5 6 
#
# 1 0.037604 -0.014922 -0.009436 0.000000 0.000000 0.000000
# 2 -0.014922 0.024047 -0.002127 0.000000 0.000000 0.000000
# 3 -0.009436 -0.002127 0.009230 0.000000 0.000000 0.000000
# 4 0.000000 0.000000 0.000000 0.033258 0.000000 0.000000
# 5 0.000000 0.000000 0.000000 0.000000 0.032654 0.000000
# 6 0.000000 0.000000 0.000000 0.000000 0.000000 0.068952
#
#
# Mechanical properties :
#
#
# Convention : Reuss Voigt Hill
#
# Bulk Modulus (GPa) = 55.83096 79.90497 67.86797
# Shear Modulus (GPa) = 18.89025 25.28892 22.08958
#
# Velocity S-wave (km/s) = 3.15017 3.64485 3.40650
# Velocity P-wave (km/s) = 6.52388 7.72590 7.15019
#
# Compressibility (1/GPa) = 0.01791121
#
# Stress axis : x y z
#
# Youngs Moduli (GPa) = 26.59261 41.58545 108.33724
#
# Poissons Ratio (x) = 0.62055 1.02228
# Poissons Ratio (y) = 0.39682 0.23042
# Poissons Ratio (z) = 0.25093 0.08845
#
# Static dielectric constant tensor:
#      x y z
#    x 1.637280 0.000000 0.000000 
#    y 0.000000 1.682600 0.000000 
#    z 0.000000 0.000000 1.658200 
# 
# From -- ./inp_files/12021.got.cif
#   From: 2010.05.17/outbox.cif.g08.bks.cpg/sg35_7_cif.got.tgz:12021.got - 2010.06.03 17:29:28.
