data_PCOD9349955
_publ_section_title
;
Structure prediction by ZEFSAII (Michael W. Deem and Ramdas Pophale) SiO2 
 PCOD9349955
Probable space group: C M M 2
;
_chemical_formula_sum "Si O2"
_cell_formula_units_Z 58
_cell_length_a 7.727543
_cell_length_b 19.842523
_cell_length_c 18.247281
_cell_angle_alpha 90.000000
_cell_angle_beta 90.000000
_cell_angle_gamma 90.000000
_cell_volume 2797.927667
_symmetry_space_group_name_H-M "C M M 2"
_symmetry_group_IT_number 35
_symmetry_cell_setting 'orthorhombic'
loop_
_space_group_symop_operation_xyz
x,y,z
-x,-y,z
-x,y,z
x,-y,z
1/2+x,1/2+y,z
1/2-x,1/2-y,z
1/2-x,1/2+y,z
1/2+x,1/2-y,z
loop_
_atom_site_type_symbol
_atom_site_label
_atom_site_fract_x
_atom_site_fract_y
_atom_site_fract_z
Si Si1 0.707024 0.576437 0.206740
Si Si2 0.706085 0.829135 0.343977
Si Si3 0.711393 0.077924 0.475842
Si Si4 0.794484 0.175783 0.085156
Si Si5 0.712668 0.618777 0.930827
Si Si6 0.500000 0.000000 0.944347
Si Si7 0.296275 0.326749 0.771903
Si Si8 0.706377 0.924972 0.640449
O O1 0.500000 0.570261 0.198750
O O2 0.775388 0.500000 0.216100
O O3 0.737396 0.625967 0.274916
O O4 0.778167 0.615438 0.135229
O O5 0.500000 0.832598 0.346176
O O6 0.750000 0.750000 0.339643
O O7 0.773325 0.867898 0.416559
O O8 0.500000 0.078955 0.474722
O O9 0.769749 0.093846 0.558932
O O10 0.761105 0.000000 0.458941
O O11 0.750000 0.250000 0.113142
O O12 0.000000 0.170134 0.090008
O O13 0.751129 0.167046 0.000031
O O14 0.500000 0.603970 0.931146
O O15 0.844163 0.557545 0.942152
O O16 0.762141 0.650720 0.852556
O O17 0.500000 0.332452 0.773999
O O18 0.250000 0.250000 0.757253
O O19 0.237708 0.374285 0.706060
O O20 0.500000 0.929905 0.633207
O O21 0.773528 0.000000 0.658326
#
# Coordination Sequence:
#
# PCOD9349955 Si02
#       8
#     8   8   8   8   8   2   8   8
#     4  10  22  40  62  88 120 158 197 249 311 361
#     4  11  22  37  58  85 119 156 199 248 300 363
#     4   8  16  34  58  84 114 152 195 245 303 360
#     4  10  22  41  64  88 124 164 202 251 307 366
#     4  10  25  44  64  96 131 165 210 265 315 367
#     4  12  26  40  72  98 124 168 210 268 308 390
#     4  11  24  40  61  86 122 162 204 256 309 368
#     4   9  19  36  61  88 118 155 198 245 301 371
#
# _framework density 20.729628999999999
#
# number of rings (size 3 to 8) (size 9 to 14) (size 15 to 20)
#    0.000    2.069    0.000    3.103    4.828    3.310 
#    0.000    2.759    0.000    1.655    0.000    0.000 
#    0.000    0.000    0.000    0.000    0.000    0.000 
#
# Total GULP energy -161517.245548 kJ/mol
# GULP energy per Si atom -5569.560191 kJ/mol
# Density = 2.068245 g / cm^3
# Si number density = 20.729629 Si / 1000 Ang^3
#
#
#
# Elastic Constant Matrix: (Units=GPa)
#
#
# Indices 1 2 3 4 5 6 
#
# 1 38.9211 14.8441 9.6279 0.0000 0.0000 0.0000
# 2 14.8441 179.9851 101.0772 0.0000 0.0000 0.0000
# 3 9.6279 101.0772 143.9892 0.0000 0.0000 0.0000
# 4 0.0000 0.0000 0.0000 30.6436 0.0000 0.0000
# 5 0.0000 0.0000 0.0000 0.0000 13.8439 0.0000
# 6 0.0000 0.0000 0.0000 0.0000 0.0000 24.7013
#
#
#
# Elastic Compliance Matrix: (Units=1/GPa)
#
#
# Indices 1 2 3 4 5 6 
#
# 1 0.026541 -0.001968 -0.000393 0.000000 0.000000 0.000000
# 2 -0.001968 0.009318 -0.006409 0.000000 0.000000 0.000000
# 3 -0.000393 -0.006409 0.011470 0.000000 0.000000 0.000000
# 4 0.000000 0.000000 0.000000 0.032633 0.000000 0.000000
# 5 0.000000 0.000000 0.000000 0.000000 0.072234 0.000000
# 6 0.000000 0.000000 0.000000 0.000000 0.000000 0.040484
#
#
# Mechanical properties :
#
#
# Convention : Reuss Voigt Hill
#
# Bulk Modulus (GPa) = 33.57048 68.22153 50.89600
# Shear Modulus (GPa) = 22.71176 29.66082 26.18629
#
# Velocity S-wave (km/s) = 3.31360 3.78675 3.55805
# Velocity P-wave (km/s) = 5.55604 7.21810 6.44090
#
# Compressibility (1/GPa) = 0.02978808
#
# Stress axis : x y z
#
# Youngs Moduli (GPa) = 37.67768 107.32314 87.18129
#
# Poissons Ratio (x) = 0.21124 0.03426
# Poissons Ratio (y) = 0.07416 0.55876
# Poissons Ratio (z) = 0.01481 0.68785
#
# Static dielectric constant tensor:
#      x y z
#    x 1.763690 0.000000 0.000000 
#    y 0.000000 1.710360 0.000000 
#    z 0.000000 0.000000 1.795990 
# 
# From -- ./inp_files/18162.got.cif
#   From: 2010.05.17/outbox.cif.g08.bks.cpg/sg35_10_cif.got.tgz:18162.got - 2010.06.03 17:29:28.
