data_PCOD9349938
_publ_section_title
;
Structure prediction by ZEFSAII (Michael W. Deem and Ramdas Pophale) SiO2 
 PCOD9349938
Probable space group: C M M 2
;
_chemical_formula_sum "Si O2"
_cell_formula_units_Z 40
_cell_length_a 8.467656
_cell_length_b 18.835018
_cell_length_c 13.202942
_cell_angle_alpha 90.000000
_cell_angle_beta 90.000000
_cell_angle_gamma 90.000000
_cell_volume 2105.716797
_symmetry_space_group_name_H-M "C M M 2"
_symmetry_group_IT_number 35
_symmetry_cell_setting 'orthorhombic'
loop_
_space_group_symop_operation_xyz
x,y,z
-x,-y,z
-x,y,z
x,-y,z
1/2+x,1/2+y,z
1/2-x,1/2-y,z
1/2-x,1/2+y,z
1/2+x,1/2-y,z
loop_
_atom_site_type_symbol
_atom_site_label
_atom_site_fract_x
_atom_site_fract_y
_atom_site_fract_z
Si Si1 0.309397 0.082255 0.279870
Si Si2 0.808806 0.918015 0.894179
Si Si3 0.310430 0.829981 0.702281
Si Si4 0.811250 0.170067 0.090872
Si Si5 0.692317 0.918394 0.509052
O O1 0.500000 0.085249 0.277200
O O2 0.243005 0.133262 0.194486
O O3 0.258389 0.100683 0.394689
O O4 0.263430 0.000000 0.260875
O O5 0.747552 0.877142 0.795931
O O6 0.000000 0.917167 0.892585
O O7 0.757045 0.000000 0.895063
O O8 0.755715 0.876939 0.995340
O O9 0.500000 0.829454 0.702123
O O10 0.250000 0.750000 0.711694
O O11 0.254186 0.866124 0.597375
O O12 0.750000 0.250000 0.082888
O O13 0.000000 0.171413 0.088611
O O14 0.500000 0.918055 0.509238
O O15 0.740643 0.000000 0.529421
#
# Coordination Sequence:
#
# PCOD9349938 Si02
#       5
#     8   8   8   8   8
#     4   9  18  35  59  84 111 144 182 224 270 322
#     4  10  22  40  60  82 109 140 177 225 277 326
#     4  11  22  36  56  82 113 147 183 223 269 322
#     4  11  23  38  56  80 112 146 181 224 273 323
#     4   8  16  33  56  81 109 142 181 225 271 319
#
# _framework density 18.995906999999999
#
# number of rings (size 3 to 8) (size 9 to 14) (size 15 to 20)
#    0.000    2.200    0.000    4.200    0.000    6.400 
#    0.000    4.000    0.000    2.400    0.000    0.000 
#    0.000    0.000    0.000    0.000    0.000    0.000 
#
# Total GULP energy -111697.009786 kJ/mol
# GULP energy per Si atom -5584.850489 kJ/mol
# Density = 1.895267 g / cm^3
# Si number density = 18.995907 Si / 1000 Ang^3
#
#
#
# Elastic Constant Matrix: (Units=GPa)
#
#
# Indices 1 2 3 4 5 6 
#
# 1 17.3941 33.2487 29.2977 0.0000 0.0000 0.0000
# 2 33.2487 192.4316 137.1962 0.0000 0.0000 0.0000
# 3 29.2977 137.1962 180.1102 0.0000 0.0000 0.0000
# 4 0.0000 0.0000 0.0000 -39.2621 0.0000 0.0000
# 5 0.0000 0.0000 0.0000 0.0000 -45.4284 0.0000
# 6 0.0000 0.0000 0.0000 0.0000 0.0000 0.2670
#
#
#
# Elastic Compliance Matrix: (Units=1/GPa)
#
#
# Indices 1 2 3 4 5 6 
#
# 1 0.088737 -0.011033 -0.006031 0.000000 0.000000 0.000000
# 2 -0.011033 0.012745 -0.007914 0.000000 0.000000 0.000000
# 3 -0.006031 -0.007914 0.012561 0.000000 0.000000 0.000000
# 4 0.000000 0.000000 0.000000 -0.025470 0.000000 0.000000
# 5 0.000000 0.000000 0.000000 0.000000 -0.022013 0.000000
# 6 0.000000 0.000000 0.000000 0.000000 0.000000 3.745238
#
#
# Mechanical properties :
#
#
# Convention : Reuss Voigt Hill
#
# Bulk Modulus (GPa) = 15.60309 87.71344 51.65827
# Shear Modulus (GPa) = 1.28763 -4.20515 -1.45876
#
# Velocity S-wave (km/s) = 0.82421 -1.48947 -0.87727
# Velocity P-wave (km/s) = 3.02283 6.58158 5.12126
#
# Compressibility (1/GPa) = 0.06408987
#
# Stress axis : x y z
#
# Youngs Moduli (GPa) = 11.26920 78.46165 79.60966
#
# Poissons Ratio (x) = 0.86564 0.48009
# Poissons Ratio (y) = 0.12433 0.63001
# Poissons Ratio (z) = 0.06796 0.62092
#
# Static dielectric constant tensor:
#      x y z
#    x 1.650580 0.000000 0.000000 
#    y 0.000000 1.628160 0.000000 
#    z 0.000000 0.000000 1.647340 
# 
# From -- ./inp_files/11003.got.cif
#   From: 2010.05.17/outbox.cif.g08.bks.cpg/sg35_6_cif.got.tgz:11003.got - 2010.06.03 17:29:28.
