data_PCOD9349763
_publ_section_title
;
Structure prediction by ZEFSAII (Michael W. Deem and Ramdas Pophale) SiO2 
 PCOD9349763
Probable space group: C M M 2
;
_chemical_formula_sum "Si O2"
_cell_formula_units_Z 48
_cell_length_a 15.912450
_cell_length_b 8.029369
_cell_length_c 18.122689
_cell_angle_alpha 90.000000
_cell_angle_beta 90.000000
_cell_angle_gamma 90.000000
_cell_volume 2315.480387
_symmetry_space_group_name_H-M "C M M 2"
_symmetry_group_IT_number 35
_symmetry_cell_setting 'orthorhombic'
loop_
_space_group_symop_operation_xyz
x,y,z
-x,-y,z
-x,y,z
x,-y,z
1/2+x,1/2+y,z
1/2-x,1/2-y,z
1/2-x,1/2+y,z
1/2+x,1/2-y,z
loop_
_atom_site_type_symbol
_atom_site_label
_atom_site_fract_x
_atom_site_fract_y
_atom_site_fract_z
Si Si1 0.000000 0.801912 0.837960
Si Si2 0.652463 0.198879 0.734356
Si Si3 0.096745 0.299151 0.257140
Si Si4 0.152880 0.298916 0.572156
Si Si5 0.340870 0.697846 0.100273
Si Si6 0.000000 0.204782 0.006339
Si Si7 0.100522 0.309051 0.414545
O O1 0.915734 0.751054 0.794464
O O2 0.000000 0.737728 0.921906
O O3 0.000000 0.000000 0.841917
O O4 0.750000 0.250000 0.747345
O O5 0.623166 0.261186 0.652725
O O6 0.652800 0.000000 0.731364
O O7 0.094667 0.500000 0.263268
O O8 0.147521 0.254532 0.184630
O O9 0.129943 0.233906 0.336454
O O10 0.000000 0.241176 0.246165
O O11 0.140429 0.500000 0.571694
O O12 0.250000 0.250000 0.571233
O O13 0.117812 0.232036 0.494543
O O14 0.345589 0.500000 0.100003
O O15 0.250000 0.750000 0.071851
O O16 0.417613 0.761814 0.050658
O O17 0.000000 0.000000 0.006417
O O18 0.133308 0.500000 0.417881
O O19 0.000000 0.317178 0.406767
#
# Coordination Sequence:
#
# PCOD9349763 Si02
#       7
#     4   8   8   8   8   4   8
#     4  11  23  41  65  90 117 150 188 237 297 355
#     4  10  21  38  60  89 121 156 197 240 288 345
#     4   9  17  32  54  81 113 149 191 235 280 331
#     4   9  18  32  52  74 106 147 187 230 277 326
#     4  11  22  39  61  86 114 149 189 230 283 341
#     4   9  22  43  63  84 115 148 182 231 289 345
#     4   8  15  28  49  76 106 144 187 229 272 320
#
# _framework density 20.730039000000001
#
# number of rings (size 3 to 8) (size 9 to 14) (size 15 to 20)
#    0.000    2.500    0.833    2.250    1.167    2.000 
#    0.000    7.500    0.000    1.000    0.000    0.000 
#    0.000    0.000    0.000    0.000    0.000    0.000 
#
# Total GULP energy -133790.480730 kJ/mol
# GULP energy per Si atom -5574.603364 kJ/mol
# Density = 2.068286 g / cm^3
# Si number density = 20.730039 Si / 1000 Ang^3
#
#
#
# Elastic Constant Matrix: (Units=GPa)
#
#
# Indices 1 2 3 4 5 6 
#
# 1 106.6888 7.1199 88.6188 0.0000 0.0000 0.0000
# 2 7.1199 24.4801 16.7196 0.0000 0.0000 0.0000
# 3 88.6188 16.7196 203.8157 0.0000 0.0000 0.0000
# 4 0.0000 0.0000 0.0000 -0.1674 0.0000 0.0000
# 5 0.0000 0.0000 0.0000 0.0000 -1.7304 0.0000
# 6 0.0000 0.0000 0.0000 0.0000 0.0000 23.6588
#
#
#
# Elastic Compliance Matrix: (Units=1/GPa)
#
#
# Indices 1 2 3 4 5 6 
#
# 1 0.014672 0.000095 -0.006387 0.000000 0.000000 0.000000
# 2 0.000095 0.043275 -0.003591 0.000000 0.000000 0.000000
# 3 -0.006387 -0.003591 0.007978 0.000000 0.000000 0.000000
# 4 0.000000 0.000000 0.000000 -5.974488 0.000000 0.000000
# 5 0.000000 0.000000 0.000000 0.000000 -0.577899 0.000000
# 6 0.000000 0.000000 0.000000 0.000000 0.000000 0.042268
#
#
# Mechanical properties :
#
#
# Convention : Reuss Voigt Hill
#
# Bulk Modulus (GPa) = 21.66467 62.21124 41.93796
# Shear Modulus (GPa) = -0.78015 19.18730 9.20358
#
# Velocity S-wave (km/s) = -0.61413 3.04563 2.10935
# Velocity P-wave (km/s) = 3.15764 6.51484 5.11927
#
# Compressibility (1/GPa) = 0.04615809
#
# Stress axis : x y z
#
# Youngs Moduli (GPa) = 68.15654 23.10821 125.34240
#
# Poissons Ratio (x) = -0.00220 0.80059
# Poissons Ratio (y) = -0.00648 0.45014
# Poissons Ratio (z) = 0.43533 0.08299
#
# Static dielectric constant tensor:
#      x y z
#    x 1.839350 0.000000 0.000000 
#    y 0.000000 1.789860 0.000000 
#    z 0.000000 0.000000 1.799660 
# 
# From -- ./inp_files/17909.got.cif
#   From: 2010.05.17/outbox.cif.g08.bks.cpg/sg35_9_cif.got.tgz:17909.got - 2010.06.03 17:29:28.
