data_PCOD9349287
_publ_section_title
;
Structure prediction by ZEFSAII (Michael W. Deem and Ramdas Pophale) SiO2 
 PCOD9349287
Probable space group: C M M 2
;
_chemical_formula_sum "Si O2"
_cell_formula_units_Z 60
_cell_length_a 24.556210
_cell_length_b 20.868923
_cell_length_c 6.898378
_cell_angle_alpha 90.000000
_cell_angle_beta 90.000000
_cell_angle_gamma 90.000000
_cell_volume 3535.154211
_symmetry_space_group_name_H-M "C M M 2"
_symmetry_group_IT_number 35
_symmetry_cell_setting 'orthorhombic'
loop_
_space_group_symop_operation_xyz
x,y,z
-x,-y,z
-x,y,z
x,-y,z
1/2+x,1/2+y,z
1/2-x,1/2-y,z
1/2-x,1/2+y,z
1/2+x,1/2-y,z
loop_
_atom_site_type_symbol
_atom_site_label
_atom_site_fract_x
_atom_site_fract_y
_atom_site_fract_z
Si Si1 0.389313 0.758840 0.314840
Si Si2 0.250000 0.250000 0.759459
Si Si3 0.062089 0.208738 0.711708
Si Si4 0.703446 0.852428 0.475140
Si Si5 0.845581 0.426024 0.824504
Si Si6 0.756965 0.075383 0.114562
Si Si7 0.657030 0.676072 0.972816
Si Si8 0.939765 0.664664 0.979618
O O1 0.418989 0.727148 0.496812
O O2 0.338332 0.801609 0.382765
O O3 0.368455 0.704581 0.168307
O O4 0.427745 0.805688 0.190309
O O5 0.260174 0.189337 0.621823
O O6 0.302016 0.269019 0.888720
O O7 0.062371 0.275064 0.833384
O O8 0.000000 0.183712 0.715947
O O9 0.108434 0.166825 0.818174
O O10 0.670214 0.900952 0.611688
O O11 0.737302 0.889033 0.310573
O O12 0.861340 0.500000 0.817518
O O13 0.893148 0.383652 0.915759
O O14 0.792812 0.419675 0.962380
O O15 0.807368 0.114097 0.023344
O O16 0.767961 0.000000 0.147837
O O17 0.000000 0.636101 0.971714
#
# Coordination Sequence:
#
# PCOD9349287 Si02
#       8
#     8   4   8   8   8   8   8   8
#     4  11  19  34  58  83 111 148 182 239 292 342
#     4  12  20  34  56  90 120 140 184 236 292 344
#     4  10  21  37  58  87 116 143 180 234 296 344
#     4  12  20  35  55  82 114 150 185 234 286 341
#     4  11  22  37  54  75 111 154 194 235 277 329
#     4  11  24  39  56  81 118 156 192 231 279 346
#     4  11  22  36  57  88 116 148 185 232 290 347
#     4  10  20  36  54  77 110 148 195 239 281 332
#
# _framework density 16.972386
#
# number of rings (size 3 to 8) (size 9 to 14) (size 15 to 20)
#    0.000    1.067    5.333    3.200    0.000    0.800 
#    0.000    0.000    0.000    0.400    0.000    0.000 
#    0.000    0.000    0.000    0.000    0.000    0.000 
#
# Total GULP energy -167531.687124 kJ/mol
# GULP energy per Si atom -5584.389571 kJ/mol
# Density = 1.693376 g / cm^3
# Si number density = 16.972386 Si / 1000 Ang^3
#
#
#
# Elastic Constant Matrix: (Units=GPa)
#
#
# Indices 1 2 3 4 5 6 
#
# 1 119.8336 40.5977 44.9637 0.0000 0.0000 0.0000
# 2 40.5977 61.0137 19.5643 0.0000 0.0000 0.0000
# 3 44.9637 19.5643 103.7501 0.0000 0.0000 0.0000
# 4 0.0000 0.0000 0.0000 17.3116 0.0000 0.0000
# 5 0.0000 0.0000 0.0000 0.0000 17.4553 0.0000
# 6 0.0000 0.0000 0.0000 0.0000 0.0000 15.4678
#
#
#
# Elastic Compliance Matrix: (Units=1/GPa)
#
#
# Indices 1 2 3 4 5 6 
#
# 1 0.012143 -0.006804 -0.003980 0.000000 0.000000 0.000000
# 2 -0.006804 0.021257 -0.001060 0.000000 0.000000 0.000000
# 3 -0.003980 -0.001060 0.011563 0.000000 0.000000 0.000000
# 4 0.000000 0.000000 0.000000 0.057765 0.000000 0.000000
# 5 0.000000 0.000000 0.000000 0.000000 0.057289 0.000000
# 6 0.000000 0.000000 0.000000 0.000000 0.000000 0.064650
#
#
# Mechanical properties :
#
#
# Convention : Reuss Voigt Hill
#
# Bulk Modulus (GPa) = 47.00003 54.98321 50.99162
# Shear Modulus (GPa) = 19.57363 22.01173 20.79268
#
# Velocity S-wave (km/s) = 3.39966 3.60518 3.50392
# Velocity P-wave (km/s) = 6.56981 7.05661 6.81756
#
# Compressibility (1/GPa) = 0.02127658
#
# Stress axis : x y z
#
# Youngs Moduli (GPa) = 82.35080 47.04385 86.48198
#
# Poissons Ratio (x) = 0.32008 0.34417
# Poissons Ratio (y) = 0.56030 0.09165
# Poissons Ratio (z) = 0.32773 0.04985
#
# Static dielectric constant tensor:
#      x y z
#    x 1.592950 0.000000 0.000000 
#    y 0.000000 1.551080 0.000000 
#    z 0.000000 0.000000 1.582360 
# 
# From -- ./inp_files/3435.got.cif
#   From: 2010.05.17/outbox.cif.g08.bks.cpg/sg35_2_cif.got.tgz:3435.got - 2010.06.03 17:29:28.
