data_PCOD9349168
_publ_section_title
;
Structure prediction by ZEFSAII (Michael W. Deem and Ramdas Pophale) SiO2 
 PCOD9349168
Probable space group: C M M 2
;
_chemical_formula_sum "Si O2"
_cell_formula_units_Z 64
_cell_length_a 24.172016
_cell_length_b 14.927348
_cell_length_c 8.986525
_cell_angle_alpha 90.000000
_cell_angle_beta 90.000000
_cell_angle_gamma 90.000000
_cell_volume 3242.554748
_symmetry_space_group_name_H-M "C M M 2"
_symmetry_group_IT_number 35
_symmetry_cell_setting 'orthorhombic'
loop_
_space_group_symop_operation_xyz
x,y,z
-x,-y,z
-x,y,z
x,-y,z
1/2+x,1/2+y,z
1/2-x,1/2-y,z
1/2-x,1/2+y,z
1/2+x,1/2-y,z
loop_
_atom_site_type_symbol
_atom_site_label
_atom_site_fract_x
_atom_site_fract_y
_atom_site_fract_z
Si Si1 0.438186 0.398820 0.160470
Si Si2 0.350888 0.106490 0.861835
Si Si3 0.435127 0.764368 0.700136
Si Si4 0.830626 0.398540 0.213627
Si Si5 0.612030 0.266965 0.373058
Si Si6 0.227908 0.849950 0.403090
Si Si7 0.236547 0.101666 0.737496
Si Si8 0.880783 0.105616 0.856319
O O1 0.500000 0.396173 0.093261
O O2 0.431032 0.500000 0.222173
O O3 0.433290 0.320770 0.280238
O O4 0.393341 0.385190 0.030861
O O5 0.401996 0.163976 0.801146
O O6 0.295126 0.142262 0.782413
O O7 0.359019 0.000000 0.828541
O O8 0.338900 0.114354 0.037681
O O9 0.500000 0.784807 0.691932
O O10 0.407978 0.758274 0.536926
O O11 0.424403 0.667156 0.771902
O O12 0.847782 0.500000 0.251159
O O13 0.866542 0.323311 0.295284
O O14 0.767407 0.387315 0.273195
O O15 0.663710 0.336251 0.369664
O O16 0.250000 0.750000 0.432862
O O17 0.233202 0.899521 0.559614
O O18 0.180172 0.138802 0.807536
O O19 0.239160 0.000000 0.796378
O O20 0.885464 0.000000 0.818411
#
# Coordination Sequence:
#
# PCOD9349168 Si02
#       8
#     8   8   8   8   8   8   8   8
#     4  10  22  40  61  86 124 169 212 264 318 378
#     4  10  23  42  65  95 126 161 211 268 324 383
#     4  12  25  42  66  90 124 172 217 269 323 377
#     4  10  22  40  63  91 127 166 204 260 328 387
#     4  11  23  40  59  92 124 166 217 263 314 390
#     4  10  20  35  55  88 125 162 200 246 313 379
#     4  10  20  36  60  90 124 161 199 251 318 379
#     4  10  22  39  61  92 124 164 211 257 317 380
#
# _framework density 19.737524000000001
#
# number of rings (size 3 to 8) (size 9 to 14) (size 15 to 20)
#    0.000    1.625    1.250    3.375    1.750    4.000 
#    2.250    0.625    0.000    2.625    0.000    0.000 
#    0.000    0.000    0.000    0.000    0.000    0.000 
#
# Total GULP energy -178601.072582 kJ/mol
# GULP energy per Si atom -5581.283518 kJ/mol
# Density = 1.969260 g / cm^3
# Si number density = 19.737524 Si / 1000 Ang^3
#
#
#
# Elastic Constant Matrix: (Units=GPa)
#
#
# Indices 1 2 3 4 5 6 
#
# 1 116.2361 40.3132 51.5220 0.0000 0.0000 0.0000
# 2 40.3132 94.7457 53.8178 0.0000 0.0000 0.0000
# 3 51.5220 53.8178 100.2444 0.0000 0.0000 0.0000
# 4 0.0000 0.0000 0.0000 31.4263 0.0000 0.0000
# 5 0.0000 0.0000 0.0000 0.0000 26.0190 0.0000
# 6 0.0000 0.0000 0.0000 0.0000 0.0000 20.6675
#
#
#
# Elastic Compliance Matrix: (Units=1/GPa)
#
#
# Indices 1 2 3 4 5 6 
#
# 1 0.011452 -0.002200 -0.004704 0.000000 0.000000 0.000000
# 2 -0.002200 0.015608 -0.007249 0.000000 0.000000 0.000000
# 3 -0.004704 -0.007249 0.016285 0.000000 0.000000 0.000000
# 4 0.000000 0.000000 0.000000 0.031820 0.000000 0.000000
# 5 0.000000 0.000000 0.000000 0.000000 0.038433 0.000000
# 6 0.000000 0.000000 0.000000 0.000000 0.000000 0.048385
#
#
# Mechanical properties :
#
#
# Convention : Reuss Voigt Hill
#
# Bulk Modulus (GPa) = 66.49771 66.94800 66.72285
# Shear Modulus (GPa) = 25.60123 26.66077 26.13100
#
# Velocity S-wave (km/s) = 3.60541 3.67926 3.64253
# Velocity P-wave (km/s) = 7.14816 7.21402 7.18116
#
# Compressibility (1/GPa) = 0.01503811
#
# Stress axis : x y z
#
# Youngs Moduli (GPa) = 87.32459 64.06908 61.40596
#
# Poissons Ratio (x) = 0.14097 0.28888
# Poissons Ratio (y) = 0.19214 0.44511
# Poissons Ratio (z) = 0.41081 0.46441
#
# Static dielectric constant tensor:
#      x y z
#    x 1.728630 0.000000 0.000000 
#    y 0.000000 1.696390 0.000000 
#    z 0.000000 0.000000 1.679340 
# 
# From -- ./inp_files/7880.got.cif
#   From: 2010.05.17/outbox.cif.g08.bks.cpg/sg35_4_cif.got.tgz:7880.got - 2010.06.03 17:29:28.
