data_PCOD9349194
_publ_section_title
;
Structure prediction by ZEFSAII (Michael W. Deem and Ramdas Pophale) SiO2 
 PCOD9349194
Probable space group: C M M 2
;
_chemical_formula_sum "Si O2"
_cell_formula_units_Z 56
_cell_length_a 7.710698
_cell_length_b 21.159791
_cell_length_c 15.107797
_cell_angle_alpha 90.000000
_cell_angle_beta 90.000000
_cell_angle_gamma 90.000000
_cell_volume 2464.939181
_symmetry_space_group_name_H-M "C M M 2"
_symmetry_group_IT_number 35
_symmetry_cell_setting 'orthorhombic'
loop_
_space_group_symop_operation_xyz
x,y,z
-x,-y,z
-x,y,z
x,-y,z
1/2+x,1/2+y,z
1/2-x,1/2-y,z
1/2-x,1/2+y,z
1/2+x,1/2-y,z
loop_
_atom_site_type_symbol
_atom_site_label
_atom_site_fract_x
_atom_site_fract_y
_atom_site_fract_z
Si Si1 0.790291 0.000000 0.060941
Si Si2 0.711926 0.574404 0.705104
Si Si3 0.708467 0.680541 0.842492
Si Si4 0.804174 0.121873 0.372227
Si Si5 0.208209 0.133126 0.023398
Si Si6 0.714239 0.500000 0.266792
Si Si7 0.696460 0.183599 0.205878
Si Si8 0.291202 0.676117 0.555911
O O1 0.728443 0.000000 0.163903
O O2 0.746233 0.061009 0.004310
O O3 0.000000 0.000000 0.069765
O O4 0.500000 0.572117 0.705128
O O5 0.768042 0.500000 0.702996
O O6 0.766651 0.618880 0.787809
O O7 0.764902 0.620308 0.623127
O O8 0.500000 0.676543 0.844731
O O9 0.750000 0.750000 0.804542
O O10 0.774624 0.675827 0.943624
O O11 0.726127 0.060862 0.322821
O O12 0.809466 0.170750 0.291491
O O13 0.726214 0.154496 0.458563
O O14 0.000000 0.102761 0.397429
O O15 0.000000 0.141294 0.029350
O O16 0.276548 0.139572 0.122525
O O17 0.500000 0.500000 0.264081
O O18 0.500000 0.182297 0.235741
O O19 0.750000 0.250000 0.166317
O O20 0.500000 0.674793 0.556278
O O21 0.250000 0.750000 0.575048
#
# Coordination Sequence:
#
# PCOD9349194 Si02
#       8
#     4   8   8   8   8   4   8   8
#     4   9  16  30  54  79 107 143 186 233 277 330
#     4   9  19  36  59  91 120 143 184 240 288 333
#     4  10  21  36  59  86 116 152 189 235 286 339
#     4  10  20  35  56  83 112 148 191 233 281 336
#     4  10  20  35  56  83 112 148 191 233 281 336
#     4   9  16  30  54  79 107 143 186 233 277 330
#     4  12  24  37  54  77 109 148 188 236 285 336
#     4  10  21  36  59  86 116 152 189 235 286 339
#
# _framework density 22.718613999999999
#
# number of rings (size 3 to 8) (size 9 to 14) (size 15 to 20)
#    0.000    2.000    1.429    2.571    2.000    3.429 
#    0.000    1.429    0.000    1.714    0.000    0.000 
#    0.000    0.000    0.000    0.000    0.000    0.000 
#
# Total GULP energy -156040.029978 kJ/mol
# GULP energy per Si atom -5572.858214 kJ/mol
# Density = 2.266691 g / cm^3
# Si number density = 22.718614 Si / 1000 Ang^3
#
#
#
# Elastic Constant Matrix: (Units=GPa)
#
#
# Indices 1 2 3 4 5 6 
#
# 1 46.2459 3.3365 6.6484 0.0000 0.0000 0.0000
# 2 3.3365 159.2121 50.9856 0.0000 0.0000 0.0000
# 3 6.6484 50.9856 125.4654 0.0000 0.0000 0.0000
# 4 0.0000 0.0000 0.0000 30.7029 0.0000 0.0000
# 5 0.0000 0.0000 0.0000 0.0000 -47.2028 0.0000
# 6 0.0000 0.0000 0.0000 0.0000 0.0000 19.2577
#
#
#
# Elastic Compliance Matrix: (Units=1/GPa)
#
#
# Indices 1 2 3 4 5 6 
#
# 1 0.021791 -0.000100 -0.001114 0.000000 0.000000 0.000000
# 2 -0.000100 0.007221 -0.002929 0.000000 0.000000 0.000000
# 3 -0.001114 -0.002929 0.009220 0.000000 0.000000 0.000000
# 4 0.000000 0.000000 0.000000 0.032570 0.000000 0.000000
# 5 0.000000 0.000000 0.000000 0.000000 -0.021185 0.000000
# 6 0.000000 0.000000 0.000000 0.000000 0.000000 0.051927
#
#
# Mechanical properties :
#
#
# Convention : Reuss Voigt Hill
#
# Bulk Modulus (GPa) = 33.39412 50.31827 41.85620
# Shear Modulus (GPa) = 41.73204 18.54841 30.14023
#
# Velocity S-wave (km/s) = 4.29057 2.86044 3.64631
# Velocity P-wave (km/s) = 6.26707 5.75379 6.01591
#
# Compressibility (1/GPa) = 0.02994539
#
# Stress axis : x y z
#
# Youngs Moduli (GPa) = 45.89066 138.48420 108.46361
#
# Poissons Ratio (x) = 0.01383 0.12084
# Poissons Ratio (y) = 0.00458 0.31770
# Poissons Ratio (z) = 0.05113 0.40564
#
# Static dielectric constant tensor:
#      x y z
#    x 1.921120 0.000000 0.000000 
#    y 0.000000 1.928230 0.000000 
#    z 0.000000 0.000000 1.823600 
# 
# From -- ./inp_files/15793.got.cif
#   From: 2010.05.17/outbox.cif.g08.bks.cpg/sg35_8_cif.got.tgz:15793.got - 2010.06.03 17:29:28.
