data_PCOD9349393
_publ_section_title
;
Structure prediction by ZEFSAII (Michael W. Deem and Ramdas Pophale) SiO2 
 PCOD9349393
Probable space group: C M M 2
;
_chemical_formula_sum "Si O2"
_cell_formula_units_Z 42
_cell_length_a 19.003472
_cell_length_b 8.648856
_cell_length_c 11.461817
_cell_angle_alpha 90.000000
_cell_angle_beta 90.000000
_cell_angle_gamma 90.000000
_cell_volume 1883.844675
_symmetry_space_group_name_H-M "C M M 2"
_symmetry_group_IT_number 35
_symmetry_cell_setting 'orthorhombic'
loop_
_space_group_symop_operation_xyz
x,y,z
-x,-y,z
-x,y,z
x,-y,z
1/2+x,1/2+y,z
1/2-x,1/2-y,z
1/2-x,1/2+y,z
1/2+x,1/2-y,z
loop_
_atom_site_type_symbol
_atom_site_label
_atom_site_fract_x
_atom_site_fract_y
_atom_site_fract_z
Si Si1 0.622545 0.764900 0.833910
Si Si2 0.111334 0.000000 0.675768
Si Si3 0.276023 0.000000 0.417432
Si Si4 0.500000 0.000000 0.896248
Si Si5 0.218936 0.500000 0.694034
Si Si6 0.891179 0.324530 0.293949
Si Si7 0.107239 0.000000 0.404306
Si Si8 0.326539 0.677923 0.081710
O O1 0.587051 0.650332 0.742720
O O2 0.562154 0.869774 0.886830
O O3 0.681340 0.858321 0.760138
O O4 0.657549 0.683435 0.944846
O O5 0.196652 0.000000 0.696830
O O6 0.092385 0.000000 0.541570
O O7 0.295230 0.000000 0.554899
O O8 0.316207 0.856539 0.357358
O O9 0.193015 0.000000 0.397486
O O10 0.923221 0.500000 0.304497
O O11 0.918601 0.163901 0.350122
O O12 0.878928 0.281408 0.159222
O O13 0.329195 0.500000 0.122030
O O14 0.250000 0.750000 0.099999
#
# Coordination Sequence:
#
# PCOD9349393 Si02
#       8
#     8   4   4   2   4   8   4   8
#     4  11  24  41  61  90 120 162 209 255 319 370
#     4  11  21  36  64  96 127 161 194 255 317 378
#     4   9  19  30  50  81 124 178 201 230 290 371
#     4  10  28  46  64  78 122 162 220 264 304 380
#     4  10  20  36  59  93 135 159 196 246 312 380
#     4  10  22  32  51  83 130 179 206 237 294 375
#     4  11  18  34  53  85 130 166 203 238 297 377
#     4  12  23  36  59  93 132 166 204 255 317 384
#
# _framework density 22.294832
#
# number of rings (size 3 to 8) (size 9 to 14) (size 15 to 20)
#    0.571    0.762    1.905    5.143    5.333    3.429 
#    0.000    0.000    0.000    0.000    0.000   25.333 
#    0.000    0.000    0.000    0.000    0.000    0.000 
#
# Total GULP energy -116933.279761 kJ/mol
# GULP energy per Si atom -5568.251417 kJ/mol
# Density = 2.224409 g / cm^3
# Si number density = 22.294832 Si / 1000 Ang^3
#
#
#
# Elastic Constant Matrix: (Units=GPa)
#
#
# Indices 1 2 3 4 5 6 
#
# 1 73.5356 15.1549 4.0519 0.0000 0.0000 0.0000
# 2 15.1549 180.9706 42.9538 0.0000 0.0000 0.0000
# 3 4.0519 42.9538 155.2525 0.0000 0.0000 0.0000
# 4 0.0000 0.0000 0.0000 28.1525 0.0000 0.0000
# 5 0.0000 0.0000 0.0000 0.0000 -16.6962 0.0000
# 6 0.0000 0.0000 0.0000 0.0000 0.0000 -46.7586
#
#
#
# Elastic Compliance Matrix: (Units=1/GPa)
#
#
# Indices 1 2 3 4 5 6 
#
# 1 0.013838 -0.001149 -0.000043 0.000000 0.000000 0.000000
# 2 -0.001149 0.006009 -0.001633 0.000000 0.000000 0.000000
# 3 -0.000043 -0.001633 0.006894 0.000000 0.000000 0.000000
# 4 0.000000 0.000000 0.000000 0.035521 0.000000 0.000000
# 5 0.000000 0.000000 0.000000 0.000000 -0.059894 0.000000
# 6 0.000000 0.000000 0.000000 0.000000 0.000000 -0.021386
#
#
# Mechanical properties :
#
#
# Convention : Reuss Voigt Hill
#
# Bulk Modulus (GPa) = 47.41090 59.34223 53.37657
# Shear Modulus (GPa) = -788.86888 16.11274 -386.37807
#
# Velocity S-wave (km/s) = -18.83091 2.69125 -13.17877
# Velocity P-wave (km/s) = 21.24835 6.02759 14.40765
#
# Compressibility (1/GPa) = 0.02109220
#
# Stress axis : x y z
#
# Youngs Moduli (GPa) = 72.26511 166.40442 145.05443
#
# Poissons Ratio (x) = 0.19112 0.00629
# Poissons Ratio (y) = 0.08300 0.23683
# Poissons Ratio (z) = 0.00314 0.27168
#
# Static dielectric constant tensor:
#      x y z
#    x 1.814940 0.000000 0.000000 
#    y 0.000000 1.886560 0.000000 
#    z 0.000000 0.000000 1.769050 
# 
# From -- ./inp_files/14068.got.cif
#   From: 2010.05.17/outbox.cif.g08.bks.cpg/sg35_8_cif.got.tgz:14068.got - 2010.06.03 17:29:28.
