data_PCOD9349750
_publ_section_title
;
Structure prediction by ZEFSAII (Michael W. Deem and Ramdas Pophale) SiO2 
 PCOD9349750
Probable space group: C M M 2
;
_chemical_formula_sum "Si O2"
_cell_formula_units_Z 52
_cell_length_a 23.472260
_cell_length_b 16.180425
_cell_length_c 6.854037
_cell_angle_alpha 90.000000
_cell_angle_beta 90.000000
_cell_angle_gamma 90.000000
_cell_volume 2603.102543
_symmetry_space_group_name_H-M "C M M 2"
_symmetry_group_IT_number 35
_symmetry_cell_setting 'orthorhombic'
loop_
_space_group_symop_operation_xyz
x,y,z
-x,-y,z
-x,y,z
x,-y,z
1/2+x,1/2+y,z
1/2-x,1/2-y,z
1/2-x,1/2+y,z
1/2+x,1/2-y,z
loop_
_atom_site_type_symbol
_atom_site_label
_atom_site_fract_x
_atom_site_fract_y
_atom_site_fract_z
Si Si1 0.500000 0.783588 0.930380
Si Si2 0.699080 0.404770 0.578082
Si Si3 0.211548 0.831279 0.988609
Si Si4 0.000000 0.596030 0.557434
Si Si5 0.500000 0.592518 0.036352
Si Si6 0.586018 0.823140 0.271277
Si Si7 0.607180 0.355269 0.279597
Si Si8 0.206544 0.405790 0.267211
O O1 0.500000 0.837588 0.733949
O O2 0.500000 0.681903 0.919509
O O3 0.553595 0.811588 0.065283
O O4 0.708299 0.500000 0.634485
O O5 0.695853 0.348901 0.767267
O O6 0.642374 0.400298 0.447369
O O7 0.752092 0.377417 0.442653
O O8 0.250000 0.750000 0.009603
O O9 0.154502 0.832147 0.116491
O O10 0.253296 0.900583 0.077864
O O11 0.053355 0.615349 0.415698
O O12 0.000000 0.500000 0.621788
O O13 0.500000 0.500000 0.940668
O O14 0.444066 0.598345 0.173259
O O15 0.584003 0.731385 0.361503
O O16 0.650401 0.852158 0.247149
O O17 0.189970 0.500000 0.303837
#
# Coordination Sequence:
#
# PCOD9349750 Si02
#       8
#     4   8   8   4   4   8   8   8
#     4   9  23  41  61  92 128 162 215 269 321 387
#     4  10  23  38  59  92 127 161 206 260 312 378
#     4  11  22  37  62  91 123 167 205 253 316 376
#     4  11  24  41  63  89 123 166 212 265 327 382
#     4  10  21  42  70  95 127 174 217 268 330 385
#     4  10  21  40  62  87 120 162 210 260 317 380
#     4  10  22  41  65  91 125 167 212 263 320 384
#     4  10  21  38  59  86 122 160 205 256 309 374
#
# _framework density 19.976163
#
# number of rings (size 3 to 8) (size 9 to 14) (size 15 to 20)
#    0.000    1.846    1.538    1.846    2.154    7.385 
#    0.000    0.769    0.000    8.308    0.000    0.000 
#    0.000    0.000    0.000    0.000    0.000    0.000 
#
# Total GULP energy -145054.317637 kJ/mol
# GULP energy per Si atom -5579.012217 kJ/mol
# Density = 1.993070 g / cm^3
# Si number density = 19.976163 Si / 1000 Ang^3
#
#
#
# Elastic Constant Matrix: (Units=GPa)
#
#
# Indices 1 2 3 4 5 6 
#
# 1 100.8963 27.6898 23.3370 0.0000 0.0000 0.0000
# 2 27.6898 101.7796 32.5817 0.0000 0.0000 0.0000
# 3 23.3370 32.5817 76.9320 0.0000 0.0000 0.0000
# 4 0.0000 0.0000 0.0000 23.4758 0.0000 0.0000
# 5 0.0000 0.0000 0.0000 0.0000 4.1918 0.0000
# 6 0.0000 0.0000 0.0000 0.0000 0.0000 23.6984
#
#
#
# Elastic Compliance Matrix: (Units=1/GPa)
#
#
# Indices 1 2 3 4 5 6 
#
# 1 0.011085 -0.002243 -0.002412 0.000000 0.000000 0.000000
# 2 -0.002243 0.011820 -0.004325 0.000000 0.000000 0.000000
# 3 -0.002412 -0.004325 0.015562 0.000000 0.000000 0.000000
# 4 0.000000 0.000000 0.000000 0.042597 0.000000 0.000000
# 5 0.000000 0.000000 0.000000 0.000000 0.238562 0.000000
# 6 0.000000 0.000000 0.000000 0.000000 0.000000 0.042197
#
#
# Mechanical properties :
#
#
# Convention : Reuss Voigt Hill
#
# Bulk Modulus (GPa) = 48.76962 49.64719 49.20841
# Shear Modulus (GPa) = 12.93258 23.33982 18.13620
#
# Velocity S-wave (km/s) = 2.54717 3.42187 3.01639
# Velocity P-wave (km/s) = 5.75479 6.36549 6.06783
#
# Compressibility (1/GPa) = 0.02050457
#
# Stress axis : x y z
#
# Youngs Moduli (GPa) = 90.21332 84.60125 64.25841
#
# Poissons Ratio (x) = 0.18980 0.15502
# Poissons Ratio (y) = 0.20239 0.27795
# Poissons Ratio (z) = 0.21763 0.36594
#
# Static dielectric constant tensor:
#      x y z
#    x 1.695630 0.000000 0.000000 
#    y 0.000000 1.740790 0.000000 
#    z 0.000000 0.000000 1.685800 
# 
# From -- ./inp_files/3754.got.cif
#   From: 2010.05.17/outbox.cif.g08.bks.cpg/sg35_2_cif.got.tgz:3754.got - 2010.06.03 17:29:28.
