data_PCOD9349344
_publ_section_title
;
Structure prediction by ZEFSAII (Michael W. Deem and Ramdas Pophale) SiO2 
 PCOD9349344
Probable space group: C M M 2
;
_chemical_formula_sum "Si O2"
_cell_formula_units_Z 64
_cell_length_a 15.087229
_cell_length_b 19.605742
_cell_length_c 9.994632
_cell_angle_alpha 90.000000
_cell_angle_beta 90.000000
_cell_angle_gamma 90.000000
_cell_volume 2956.375358
_symmetry_space_group_name_H-M "C M M 2"
_symmetry_group_IT_number 35
_symmetry_cell_setting 'orthorhombic'
loop_
_space_group_symop_operation_xyz
x,y,z
-x,-y,z
-x,y,z
x,-y,z
1/2+x,1/2+y,z
1/2-x,1/2-y,z
1/2-x,1/2+y,z
1/2+x,1/2-y,z
loop_
_atom_site_type_symbol
_atom_site_label
_atom_site_fract_x
_atom_site_fract_y
_atom_site_fract_z
Si Si1 0.107895 0.343463 0.934550
Si Si2 0.397721 0.576848 0.963187
Si Si3 0.394213 0.074007 0.683625
Si Si4 0.340633 0.078168 0.196549
Si Si5 0.144852 0.666021 0.436868
Si Si6 0.131897 0.922760 0.264867
Si Si7 0.892163 0.798419 0.789266
Si Si8 0.645312 0.313354 0.474034
O O1 0.134934 0.401385 0.828411
O O2 0.134849 0.271019 0.867485
O O3 0.000000 0.342236 0.946990
O O4 0.146848 0.369424 0.074448
O O5 0.500000 0.570694 0.919856
O O6 0.357999 0.500000 0.956921
O O7 0.358069 0.636025 0.871916
O O8 0.399808 0.599501 0.117934
O O9 0.500000 0.068667 0.689515
O O10 0.375461 0.132628 0.578332
O O11 0.356690 0.000000 0.644950
O O12 0.385900 0.113253 0.324501
O O13 0.238014 0.075008 0.240913
O O14 0.369810 0.000000 0.167913
O O15 0.250659 0.678107 0.440409
O O16 0.108129 0.741749 0.420175
O O17 0.105833 0.875515 0.388893
O O18 0.102066 0.000000 0.287815
O O19 0.864506 0.807863 0.634499
O O20 0.000000 0.796931 0.789299
#
# Coordination Sequence:
#
# PCOD9349344 Si02
#       8
#     8   8   8   8   8   8   8   8
#     4  10  21  37  56  83 116 150 192 239 287 344
#     4   9  19  37  58  81 111 144 183 231 284 345
#     4  10  20  36  58  82 114 156 196 237 288 344
#     4  10  21  37  56  81 115 151 190 238 286 338
#     4  10  21  37  55  81 114 150 194 238 286 341
#     4   9  20  38  58  84 113 146 188 234 287 343
#     4  10  21  38  58  83 115 150 189 238 291 345
#     4  10  21  37  57  81 115 150 190 238 289 345
#
# _framework density 21.648132
#
# number of rings (size 3 to 8) (size 9 to 14) (size 15 to 20)
#    0.000    2.250    1.250    0.750    1.750    3.750 
#    0.000    1.250    0.000    0.000    0.000    0.000 
#    0.000    0.000    0.000    0.000    0.000    0.000 
#
# Total GULP energy -178464.891738 kJ/mol
# GULP energy per Si atom -5577.027867 kJ/mol
# Density = 2.159886 g / cm^3
# Si number density = 21.648132 Si / 1000 Ang^3
#
#
#
# Elastic Constant Matrix: (Units=GPa)
#
#
# Indices 1 2 3 4 5 6 
#
# 1 34.5709 19.8210 7.8151 0.0000 0.0000 0.0000
# 2 19.8210 139.2392 69.0710 0.0000 0.0000 0.0000
# 3 7.8151 69.0710 113.6259 0.0000 0.0000 0.0000
# 4 0.0000 0.0000 0.0000 45.5417 0.0000 0.0000
# 5 0.0000 0.0000 0.0000 0.0000 20.9652 0.0000
# 6 0.0000 0.0000 0.0000 0.0000 0.0000 44.6194
#
#
#
# Elastic Compliance Matrix: (Units=1/GPa)
#
#
# Indices 1 2 3 4 5 6 
#
# 1 0.031548 -0.004889 0.000802 0.000000 0.000000 0.000000
# 2 -0.004889 0.011040 -0.006375 0.000000 0.000000 0.000000
# 3 0.000802 -0.006375 0.012621 0.000000 0.000000 0.000000
# 4 0.000000 0.000000 0.000000 0.021958 0.000000 0.000000
# 5 0.000000 0.000000 0.000000 0.000000 0.047698 0.000000
# 6 0.000000 0.000000 0.000000 0.000000 0.000000 0.022412
#
#
# Mechanical properties :
#
#
# Convention : Reuss Voigt Hill
#
# Bulk Modulus (GPa) = 29.16693 53.42780 41.29737
# Shear Modulus (GPa) = 27.83528 34.94050 31.38789
#
# Velocity S-wave (km/s) = 3.58970 4.02184 3.81190
# Velocity P-wave (km/s) = 5.53929 6.80446 6.20421
#
# Compressibility (1/GPa) = 0.03428540
#
# Stress axis : x y z
#
# Youngs Moduli (GPa) = 31.69802 90.57891 79.23440
#
# Poissons Ratio (x) = 0.44281 -0.06354
# Poissons Ratio (y) = 0.15496 0.50511
# Poissons Ratio (z) = -0.02542 0.57742
#
# Static dielectric constant tensor:
#      x y z
#    x 1.863170 0.000000 0.000000 
#    y 0.000000 1.814740 0.000000 
#    z 0.000000 0.000000 1.738740 
# 
# From -- ./inp_files/8755.got.cif
#   From: 2010.05.17/outbox.cif.g08.bks.cpg/sg35_5_cif.got.tgz:8755.got - 2010.06.03 17:29:28.
