data_PCOD9349867
_publ_section_title
;
Structure prediction by ZEFSAII (Michael W. Deem and Ramdas Pophale) SiO2 
 PCOD9349867
Probable space group: C M M 2
;
_chemical_formula_sum "Si O2"
_cell_formula_units_Z 64
_cell_length_a 16.224353
_cell_length_b 18.889547
_cell_length_c 9.931783
_cell_angle_alpha 90.000000
_cell_angle_beta 90.000000
_cell_angle_gamma 90.000000
_cell_volume 3043.800275
_symmetry_space_group_name_H-M "C M M 2"
_symmetry_group_IT_number 35
_symmetry_cell_setting 'orthorhombic'
loop_
_space_group_symop_operation_xyz
x,y,z
-x,-y,z
-x,y,z
x,-y,z
1/2+x,1/2+y,z
1/2-x,1/2-y,z
1/2-x,1/2+y,z
1/2+x,1/2-y,z
loop_
_atom_site_type_symbol
_atom_site_label
_atom_site_fract_x
_atom_site_fract_y
_atom_site_fract_z
Si Si1 0.700747 0.680136 0.133500
Si Si2 0.836650 0.582239 0.000483
Si Si3 0.405394 0.342098 0.389819
Si Si4 0.594772 0.841706 0.737547
Si Si5 0.899133 0.081051 0.661487
Si Si6 0.093904 0.809491 0.878417
Si Si7 0.594304 0.082497 0.286192
Si Si8 0.831505 0.299835 0.464358
O O1 0.750000 0.750000 0.177951
O O2 0.759311 0.625062 0.058493
O O3 0.650681 0.649317 0.258768
O O4 0.639065 0.705011 0.016856
O O5 0.816856 0.500000 0.984331
O O6 0.900968 0.589371 0.124316
O O7 0.869997 0.612931 0.860859
O O8 0.500000 0.361454 0.361578
O O9 0.374375 0.386755 0.517790
O O10 0.400346 0.259790 0.433167
O O11 0.500000 0.862516 0.707316
O O12 0.593972 0.761018 0.790117
O O13 0.650195 0.839029 0.604616
O O14 0.868863 0.128931 0.784938
O O15 0.000000 0.084961 0.662903
O O16 0.874521 0.000000 0.675138
O O17 0.000000 0.829275 0.909978
O O18 0.500000 0.096296 0.330703
O O19 0.656646 0.138806 0.352847
O O20 0.614533 0.000000 0.317727
O O21 0.750000 0.250000 0.471347
#
# Coordination Sequence:
#
# PCOD9349867 Si02
#       8
#     8   8   8   8   8   8   8   8
#     4  12  24  40  62  92 130 173 215 274 327 390
#     4  11  25  43  65  96 134 175 217 270 339 398
#     4  11  22  39  63  95 129 171 224 271 323 391
#     4  11  23  41  67  95 127 171 222 273 323 391
#     4   9  19  38  63  90 122 159 204 260 317 375
#     4  10  21  40  65  94 123 166 220 269 322 386
#     4  10  22  44  71  97 131 178 230 279 330 395
#     4  12  25  40  65  99 137 173 212 278 342 400
#
# _framework density 21.026347999999999
#
# number of rings (size 3 to 8) (size 9 to 14) (size 15 to 20)
#    0.000    1.250    2.500    3.750    1.750    2.250 
#    0.000    0.625    0.000    3.750    0.000    0.000 
#    0.000    0.000    0.000    0.000    0.000    0.000 
#
# Total GULP energy -178855.465511 kJ/mol
# GULP energy per Si atom -5589.233297 kJ/mol
# Density = 2.097849 g / cm^3
# Si number density = 21.026348 Si / 1000 Ang^3
#
#
#
# Elastic Constant Matrix: (Units=GPa)
#
#
# Indices 1 2 3 4 5 6 
#
# 1 81.9206 25.5603 40.4255 0.0000 0.0000 0.0000
# 2 25.5603 100.1541 29.3425 0.0000 0.0000 0.0000
# 3 40.4255 29.3425 115.8227 0.0000 0.0000 0.0000
# 4 0.0000 0.0000 0.0000 35.2315 0.0000 0.0000
# 5 0.0000 0.0000 0.0000 0.0000 30.6447 0.0000
# 6 0.0000 0.0000 0.0000 0.0000 0.0000 20.9596
#
#
#
# Elastic Compliance Matrix: (Units=1/GPa)
#
#
# Indices 1 2 3 4 5 6 
#
# 1 0.015319 -0.002531 -0.004705 0.000000 0.000000 0.000000
# 2 -0.002531 0.011203 -0.001955 0.000000 0.000000 0.000000
# 3 -0.004705 -0.001955 0.010771 0.000000 0.000000 0.000000
# 4 0.000000 0.000000 0.000000 0.028384 0.000000 0.000000
# 5 0.000000 0.000000 0.000000 0.000000 0.032632 0.000000
# 6 0.000000 0.000000 0.000000 0.000000 0.000000 0.047711
#
#
# Mechanical properties :
#
#
# Convention : Reuss Voigt Hill
#
# Bulk Modulus (GPa) = 52.87959 54.28378 53.58168
# Shear Modulus (GPa) = 29.29013 30.87177 30.08095
#
# Velocity S-wave (km/s) = 3.73637 3.83592 3.78647
# Velocity P-wave (km/s) = 6.61950 6.74479 6.68243
#
# Compressibility (1/GPa) = 0.01891089
#
# Stress axis : x y z
#
# Youngs Moduli (GPa) = 65.28001 89.25982 92.83771
#
# Poissons Ratio (x) = 0.22591 0.43685
# Poissons Ratio (y) = 0.16522 0.18149
# Poissons Ratio (z) = 0.30717 0.17449
#
# Static dielectric constant tensor:
#      x y z
#    x 1.825220 0.000000 0.000000 
#    y 0.000000 1.717890 0.000000 
#    z 0.000000 0.000000 1.750460 
# 
# From -- ./inp_files/8742.got.cif
#   From: 2010.05.17/outbox.cif.g08.bks.cpg/sg35_5_cif.got.tgz:8742.got - 2010.06.03 17:29:28.
