data_PCOD9349169
_publ_section_title
;
Structure prediction by ZEFSAII (Michael W. Deem and Ramdas Pophale) SiO2 
 PCOD9349169
Probable space group: C M M 2
;
_chemical_formula_sum "Si O2"
_cell_formula_units_Z 48
_cell_length_a 8.015753
_cell_length_b 15.291078
_cell_length_c 17.915557
_cell_angle_alpha 90.000000
_cell_angle_beta 90.000000
_cell_angle_gamma 90.000000
_cell_volume 2195.900942
_symmetry_space_group_name_H-M "C M M 2"
_symmetry_group_IT_number 35
_symmetry_cell_setting 'orthorhombic'
loop_
_space_group_symop_operation_xyz
x,y,z
-x,-y,z
-x,y,z
x,-y,z
1/2+x,1/2+y,z
1/2-x,1/2-y,z
1/2-x,1/2+y,z
1/2+x,1/2-y,z
loop_
_atom_site_type_symbol
_atom_site_label
_atom_site_fract_x
_atom_site_fract_y
_atom_site_fract_z
Si Si1 0.800055 0.100140 0.248420
Si Si2 0.700384 0.100662 0.406397
Si Si3 0.500000 0.106741 0.982177
Si Si4 0.193005 0.107387 0.084698
Si Si5 0.199541 0.347148 0.569875
Si Si6 0.679788 0.600351 0.723207
Si Si7 0.500000 0.892143 0.809819
O O1 0.751826 0.141823 0.327408
O O2 0.751736 0.137383 0.167914
O O3 0.000000 0.095621 0.246361
O O4 0.732481 0.000000 0.250611
O O5 0.500000 0.101425 0.408218
O O6 0.759791 0.138953 0.484968
O O7 0.759346 0.000000 0.405926
O O8 0.332019 0.134735 0.025361
O O9 0.500000 0.000000 0.983720
O O10 0.500000 0.133402 0.896111
O O11 0.000000 0.133556 0.070086
O O12 0.191455 0.000000 0.087026
O O13 0.250000 0.250000 0.591183
O O14 0.281402 0.402697 0.635096
O O15 0.000000 0.360798 0.571372
O O16 0.500000 0.642761 0.735814
O O17 0.669320 0.500000 0.749343
O O18 0.836179 0.639582 0.766374
O O19 0.500000 0.000000 0.806411
#
# Coordination Sequence:
#
# PCOD9349169 Si02
#       7
#     8   8   4   8   8   8   4
#     4   8  14  24  38  59  90 127 165 205 240 282
#     4   9  18  30  47  70  96 131 170 209 253 298
#     4   9  16  24  40  63  91 131 163 195 250 297
#     4   8  14  23  35  57  91 128 164 198 237 290
#     4  11  22  36  52  73 103 135 169 219 261 307
#     4  10  20  35  56  77 100 136 175 210 256 312
#     4   9  18  32  48  71 101 131 168 211 250 301
#
# _framework density 21.858909000000001
#
# number of rings (size 3 to 8) (size 9 to 14) (size 15 to 20)
#    0.000    2.833    0.833    2.000    1.167    2.667 
#    0.000    5.000    0.000    0.000    0.000    0.000 
#    0.000    1.333    2.000    0.000    0.000    0.000 
#
# Total GULP energy -133826.634049 kJ/mol
# GULP energy per Si atom -5576.109752 kJ/mol
# Density = 2.180916 g / cm^3
# Si number density = 21.858909 Si / 1000 Ang^3
#
#
#
# Elastic Constant Matrix: (Units=GPa)
#
#
# Indices 1 2 3 4 5 6 
#
# 1 129.3462 5.3809 92.0359 0.0000 0.0000 0.0000
# 2 5.3809 33.3208 1.2452 0.0000 0.0000 0.0000
# 3 92.0359 1.2452 178.3006 0.0000 0.0000 0.0000
# 4 0.0000 0.0000 0.0000 -26.2077 0.0000 0.0000
# 5 0.0000 0.0000 0.0000 0.0000 -13.6217 0.0000
# 6 0.0000 0.0000 0.0000 0.0000 0.0000 7.1326
#
#
#
# Elastic Compliance Matrix: (Units=1/GPa)
#
#
# Indices 1 2 3 4 5 6 
#
# 1 0.012321 -0.001752 -0.006347 0.000000 0.000000 0.000000
# 2 -0.001752 0.030268 0.000693 0.000000 0.000000 0.000000
# 3 -0.006347 0.000693 0.008880 0.000000 0.000000 0.000000
# 4 0.000000 0.000000 0.000000 -0.038157 0.000000 0.000000
# 5 0.000000 0.000000 0.000000 0.000000 -0.073413 0.000000
# 6 0.000000 0.000000 0.000000 0.000000 0.000000 0.140202
#
#
# Mechanical properties :
#
#
# Convention : Reuss Voigt Hill
#
# Bulk Modulus (GPa) = 27.28090 59.81018 43.54554
# Shear Modulus (GPa) = 46.67052 9.61434 28.14243
#
# Velocity S-wave (km/s) = 4.62571 2.09950 3.59201
# Velocity P-wave (km/s) = 6.40602 5.77049 6.09654
#
# Compressibility (1/GPa) = 0.03665569
#
# Stress axis : x y z
#
# Youngs Moduli (GPa) = 81.16477 33.03780 112.61104
#
# Poissons Ratio (x) = 0.05790 0.71479
# Poissons Ratio (y) = 0.14224 -0.07806
# Poissons Ratio (z) = 0.51519 -0.02290
#
# Static dielectric constant tensor:
#      x y z
#    x 1.796220 0.000000 0.000000 
#    y 0.000000 1.782410 0.000000 
#    z 0.000000 0.000000 1.805110 
# 
# From -- ./inp_files/15173.got.cif
#   From: 2010.05.17/outbox.cif.g08.bks.cpg/sg35_8_cif.got.tgz:15173.got - 2010.06.03 17:29:28.
