data_PCOD9349341
_publ_section_title
;
Structure prediction by ZEFSAII (Michael W. Deem and Ramdas Pophale) SiO2 
 PCOD9349341
Probable space group: C M M 2
;
_chemical_formula_sum "Si O2"
_cell_formula_units_Z 36
_cell_length_a 13.367500
_cell_length_b 22.329411
_cell_length_c 6.315449
_cell_angle_alpha 90.000000
_cell_angle_beta 90.000000
_cell_angle_gamma 90.000000
_cell_volume 1885.088277
_symmetry_space_group_name_H-M "C M M 2"
_symmetry_group_IT_number 35
_symmetry_cell_setting 'orthorhombic'
loop_
_space_group_symop_operation_xyz
x,y,z
-x,-y,z
-x,y,z
x,-y,z
1/2+x,1/2+y,z
1/2-x,1/2-y,z
1/2-x,1/2+y,z
1/2+x,1/2-y,z
loop_
_atom_site_type_symbol
_atom_site_label
_atom_site_fract_x
_atom_site_fract_y
_atom_site_fract_z
Si Si1 0.885069 0.430437 0.735790
Si Si2 0.197562 0.069097 0.430685
Si Si3 0.750000 0.750000 0.366994
Si Si4 0.614497 0.676969 0.679966
Si Si5 0.260487 0.145230 0.053462
O O1 0.877766 0.500000 0.808815
O O2 0.806754 0.424577 0.542944
O O3 0.000000 0.419268 0.675744
O O4 0.847675 0.385369 0.917111
O O5 0.126310 0.112577 0.564455
O O6 0.207841 0.093941 0.194065
O O7 0.168290 0.000000 0.437968
O O8 0.664264 0.723524 0.517491
O O9 0.710012 0.803239 0.218379
O O10 0.500000 0.690722 0.725120
O O11 0.681475 0.673293 0.889658
#
# Coordination Sequence:
#
# PCOD9349341 Si02
#       5
#     8   8   4   8   8
#     4   9  18  33  55  85 118 148 180 222 272 326
#     4   9  19  36  56  82 116 148 181 224 273 326
#     4  10  22  40  58  80 110 144 184 228 276 324
#     4  10  22  40  59  81 111 144 181 227 275 324
#     4  10  20  36  58  82 110 146 186 227 272 324
#
# _framework density 19.097249999999999
#
# number of rings (size 3 to 8) (size 9 to 14) (size 15 to 20)
#    0.000    2.444    0.000    1.333    0.000    6.667 
#    0.000   17.778    0.000    0.000    0.000    0.000 
#    0.000    0.000    0.000    0.000    0.000    0.000 
#
# Total GULP energy -100458.124887 kJ/mol
# GULP energy per Si atom -5581.006938 kJ/mol
# Density = 1.905378 g / cm^3
# Si number density = 19.097250 Si / 1000 Ang^3
#
#
#
# Elastic Constant Matrix: (Units=GPa)
#
#
# Indices 1 2 3 4 5 6 
#
# 1 95.9271 31.6764 29.8723 0.0000 0.0000 0.0000
# 2 31.6764 94.4642 40.0398 0.0000 0.0000 0.0000
# 3 29.8723 40.0398 95.5893 0.0000 0.0000 0.0000
# 4 0.0000 0.0000 0.0000 26.1579 0.0000 0.0000
# 5 0.0000 0.0000 0.0000 0.0000 3.8165 0.0000
# 6 0.0000 0.0000 0.0000 0.0000 0.0000 13.9283
#
#
#
# Elastic Compliance Matrix: (Units=1/GPa)
#
#
# Indices 1 2 3 4 5 6 
#
# 1 0.012215 -0.003013 -0.002555 0.000000 0.000000 0.000000
# 2 -0.003013 0.013614 -0.004761 0.000000 0.000000 0.000000
# 3 -0.002555 -0.004761 0.013254 0.000000 0.000000 0.000000
# 4 0.000000 0.000000 0.000000 0.038229 0.000000 0.000000
# 5 0.000000 0.000000 0.000000 0.000000 0.262019 0.000000
# 6 0.000000 0.000000 0.000000 0.000000 0.000000 0.071796
#
#
# Mechanical properties :
#
#
# Convention : Reuss Voigt Hill
#
# Bulk Modulus (GPa) = 54.27377 54.35083 54.31230
# Shear Modulus (GPa) = 11.41737 21.07336 16.24537
#
# Velocity S-wave (km/s) = 2.44776 3.32547 2.91978
# Velocity P-wave (km/s) = 6.03905 6.57775 6.31414
#
# Compressibility (1/GPa) = 0.01842511
#
# Stress axis : x y z
#
# Youngs Moduli (GPa) = 81.86489 73.45152 75.44738
#
# Poissons Ratio (x) = 0.22131 0.19279
# Poissons Ratio (y) = 0.24666 0.35921
# Poissons Ratio (z) = 0.20919 0.34971
#
# Static dielectric constant tensor:
#      x y z
#    x 1.617600 0.000000 0.000000 
#    y 0.000000 1.689810 0.000000 
#    z 0.000000 0.000000 1.654280 
# 
# From -- ./inp_files/1168.got.cif
#   From: 2010.05.17/outbox.cif.g08.bks.cpg/sg35_1_cif.got.tgz:1168.got - 2010.06.03 17:29:28.
