data_PCOD9349308
_publ_section_title
;
Structure prediction by ZEFSAII (Michael W. Deem and Ramdas Pophale) SiO2 
 PCOD9349308
Probable space group: C M M 2
;
_chemical_formula_sum "Si O2"
_cell_formula_units_Z 60
_cell_length_a 24.402593
_cell_length_b 21.466285
_cell_length_c 5.377110
_cell_angle_alpha 90.000000
_cell_angle_beta 90.000000
_cell_angle_gamma 90.000000
_cell_volume 2816.707749
_symmetry_space_group_name_H-M "C M M 2"
_symmetry_group_IT_number 35
_symmetry_cell_setting 'orthorhombic'
loop_
_space_group_symop_operation_xyz
x,y,z
-x,-y,z
-x,y,z
x,-y,z
1/2+x,1/2+y,z
1/2-x,1/2-y,z
1/2-x,1/2+y,z
1/2+x,1/2-y,z
loop_
_atom_site_type_symbol
_atom_site_label
_atom_site_fract_x
_atom_site_fract_y
_atom_site_fract_z
Si Si1 0.750000 0.250000 0.944731
Si Si2 0.161988 0.310237 0.225637
Si Si3 0.876291 0.426986 0.492989
Si Si4 0.122746 0.067992 0.603310
Si Si5 0.934971 0.242087 0.969731
Si Si6 0.845101 0.201533 0.602001
Si Si7 0.063002 0.897766 0.115039
Si Si8 0.560059 0.926162 0.984758
O O1 0.799470 0.218058 0.800972
O O2 0.782859 0.307239 0.068938
O O3 0.162140 0.371571 0.394714
O O4 0.167512 0.246645 0.378163
O O5 0.103375 0.296769 0.085466
O O6 0.857662 0.500000 0.498628
O O7 0.898516 0.407528 0.764065
O O8 0.921804 0.423544 0.272435
O O9 0.158367 0.128828 0.549461
O O10 0.078976 0.072849 0.378526
O O11 0.148943 0.000000 0.592981
O O12 0.097662 0.078254 0.878900
O O13 0.904433 0.221935 0.714268
O O14 0.000000 0.255269 0.944351
O O15 0.930463 0.177652 0.127677
O O16 0.000000 0.910668 0.057864
O O17 0.500000 0.897964 0.949591
O O18 0.555849 0.000000 0.933881
#
# Coordination Sequence:
#
# PCOD9349308 Si02
#       8
#     4   8   8   8   8   8   8   8
#     4  10  24  44  70  88 114 160 222 268 322 386
#     4  11  22  41  66  90 121 168 212 264 321 379
#     4  10  22  37  59  91 126 163 209 262 313 374
#     4  11  22  37  60  90 126 165 208 262 316 373
#     4   9  20  36  58  92 131 168 207 256 312 372
#     4  10  22  42  64  91 122 164 215 265 316 382
#     4  10  20  36  56  85 129 176 217 252 297 369
#     4   9  18  35  56  83 126 174 212 248 298 369
#
# _framework density 21.301465
#
# number of rings (size 3 to 8) (size 9 to 14) (size 15 to 20)
#    0.000    2.000    1.333    1.600    3.733    5.333 
#    0.000    0.667    0.000    3.200    0.000    0.000 
#    0.000    0.000    0.000    0.000    0.000    0.000 
#
# Total GULP energy -167151.232203 kJ/mol
# GULP energy per Si atom -5571.707740 kJ/mol
# Density = 2.125298 g / cm^3
# Si number density = 21.301465 Si / 1000 Ang^3
#
#
#
# Elastic Constant Matrix: (Units=GPa)
#
#
# Indices 1 2 3 4 5 6 
#
# 1 65.0297 5.7720 11.2371 0.0000 0.0000 0.0000
# 2 5.7720 134.0542 13.8803 0.0000 0.0000 0.0000
# 3 11.2371 13.8803 65.3994 0.0000 0.0000 0.0000
# 4 0.0000 0.0000 0.0000 18.1148 0.0000 0.0000
# 5 0.0000 0.0000 0.0000 0.0000 11.9464 0.0000
# 6 0.0000 0.0000 0.0000 0.0000 0.0000 2.2747
#
#
#
# Elastic Compliance Matrix: (Units=1/GPa)
#
#
# Indices 1 2 3 4 5 6 
#
# 1 0.015870 -0.000410 -0.002640 0.000000 0.000000 0.000000
# 2 -0.000410 0.007638 -0.001551 0.000000 0.000000 0.000000
# 3 -0.002640 -0.001551 0.016073 0.000000 0.000000 0.000000
# 4 0.000000 0.000000 0.000000 0.055203 0.000000 0.000000
# 5 0.000000 0.000000 0.000000 0.000000 0.083708 0.000000
# 6 0.000000 0.000000 0.000000 0.000000 0.000000 0.439620
#
#
# Mechanical properties :
#
#
# Convention : Reuss Voigt Hill
#
# Bulk Modulus (GPa) = 32.91583 36.25132 34.58357
# Shear Modulus (GPa) = 7.84388 22.04010 14.94199
#
# Velocity S-wave (km/s) = 1.92102 3.22013 2.65137
# Velocity P-wave (km/s) = 4.51734 5.55705 5.06395
#
# Compressibility (1/GPa) = 0.03038052
#
# Stress axis : x y z
#
# Youngs Moduli (GPa) = 63.01143 130.92642 62.21480
#
# Poissons Ratio (x) = 0.05368 0.16424
# Poissons Ratio (y) = 0.02583 0.09647
# Poissons Ratio (z) = 0.16634 0.20302
#
# Static dielectric constant tensor:
#      x y z
#    x 1.764600 0.000000 0.000000 
#    y 0.000000 1.851660 0.000000 
#    z 0.000000 0.000000 1.822730 
# 
# From -- ./inp_files/3444.got.cif
#   From: 2010.05.17/outbox.cif.g08.bks.cpg/sg35_2_cif.got.tgz:3444.got - 2010.06.03 17:29:28.
