data_PCOD9349798
_publ_section_title
;
Structure prediction by ZEFSAII (Michael W. Deem and Ramdas Pophale) SiO2 
 PCOD9349798
Probable space group: C M M 2
;
_chemical_formula_sum "Si O2"
_cell_formula_units_Z 40
_cell_length_a 20.224603
_cell_length_b 18.709101
_cell_length_c 5.117216
_cell_angle_alpha 90.000000
_cell_angle_beta 90.000000
_cell_angle_gamma 90.000000
_cell_volume 1936.273376
_symmetry_space_group_name_H-M "C M M 2"
_symmetry_group_IT_number 35
_symmetry_cell_setting 'orthorhombic'
loop_
_space_group_symop_operation_xyz
x,y,z
-x,-y,z
-x,y,z
x,-y,z
1/2+x,1/2+y,z
1/2-x,1/2-y,z
1/2-x,1/2+y,z
1/2+x,1/2-y,z
loop_
_atom_site_type_symbol
_atom_site_label
_atom_site_fract_x
_atom_site_fract_y
_atom_site_fract_z
Si Si1 0.831565 0.000000 0.976280
Si Si2 0.423884 0.635558 0.972062
Si Si3 0.858270 0.623513 0.589706
Si Si4 0.928074 0.583307 0.087874
Si Si5 0.577470 0.267724 0.472049
Si Si6 0.254202 0.000000 0.475874
O O1 0.805411 0.000000 0.680642
O O2 0.875094 0.929632 0.020232
O O3 0.770940 0.000000 0.179493
O O4 0.500000 0.610474 0.987439
O O5 0.415592 0.696698 0.189743
O O6 0.413550 0.671692 0.690948
O O7 0.912598 0.589618 0.392973
O O8 0.867980 0.706246 0.513985
O O9 0.796094 0.572461 0.531112
O O10 0.875609 0.618302 0.894965
O O11 0.927963 0.500000 0.019492
O O12 0.000000 0.614886 0.032318
O O13 0.500000 0.242260 0.498636
#
# Coordination Sequence:
#
# PCOD9349798 Si02
#       6
#     4   8   8   8   8   4
#     4  12  25  46  68  90 119 160 212 270 310 368
#     4  10  22  43  70  98 120 147 198 267 340 384
#     4  12  22  40  57  87 135 172 208 254 295 356
#     4  11  20  32  54  84 117 163 220 261 295 339
#     4  10  21  38  64  97 129 159 196 253 324 383
#     4  12  26  42  60  90 128 178 222 244 284 360
#
# _framework density 20.658239999999999
#
# number of rings (size 3 to 8) (size 9 to 14) (size 15 to 20)
#    0.000    1.000    2.000    5.700    0.000    3.200 
#    0.000   10.000    0.000    0.000    0.000    0.000 
#    0.000    0.000    0.000    0.000    0.000    0.000 
#
# Total GULP energy -111684.319453 kJ/mol
# GULP energy per Si atom -5584.215973 kJ/mol
# Density = 2.061122 g / cm^3
# Si number density = 20.658240 Si / 1000 Ang^3
#
#
#
# Elastic Constant Matrix: (Units=GPa)
#
#
# Indices 1 2 3 4 5 6 
#
# 1 44.2213 31.3341 -11.2239 0.0000 0.0000 0.0000
# 2 31.3341 73.7027 -15.3941 0.0000 0.0000 0.0000
# 3 -11.2239 -15.3941 53.2720 0.0000 0.0000 0.0000
# 4 0.0000 0.0000 0.0000 18.5273 0.0000 0.0000
# 5 0.0000 0.0000 0.0000 0.0000 34.0765 0.0000
# 6 0.0000 0.0000 0.0000 0.0000 0.0000 25.4270
#
#
#
# Elastic Compliance Matrix: (Units=1/GPa)
#
#
# Indices 1 2 3 4 5 6 
#
# 1 0.032827 -0.013315 0.003069 0.000000 0.000000 0.000000
# 2 -0.013315 0.019840 0.002928 0.000000 0.000000 0.000000
# 3 0.003069 0.002928 0.020264 0.000000 0.000000 0.000000
# 4 0.000000 0.000000 0.000000 0.053974 0.000000 0.000000
# 5 0.000000 0.000000 0.000000 0.000000 0.029346 0.000000
# 6 0.000000 0.000000 0.000000 0.000000 0.000000 0.039328
#
#
# Mechanical properties :
#
#
# Convention : Reuss Voigt Hill
#
# Bulk Modulus (GPa) = 17.15427 20.06979 18.61203
# Shear Modulus (GPa) = 21.77234 26.70483 24.23858
#
# Velocity S-wave (km/s) = 3.24995 3.59931 3.42908
# Velocity P-wave (km/s) = 4.73337 5.19708 4.97063
#
# Compressibility (1/GPa) = 0.05829452
#
# Stress axis : x y z
#
# Youngs Moduli (GPa) = 30.46248 50.40205 49.34807
#
# Poissons Ratio (x) = 0.67112 -0.15143
# Poissons Ratio (y) = 0.40562 -0.14449
# Poissons Ratio (z) = -0.09348 -0.14757
#
# Static dielectric constant tensor:
#      x y z
#    x 1.755130 0.000000 0.000000 
#    y 0.000000 1.749550 0.000000 
#    z 0.000000 0.000000 1.701100 
# 
# From -- ./inp_files/2365.got.cif
#   From: 2010.05.17/outbox.cif.g08.bks.cpg/sg35_2_cif.got.tgz:2365.got - 2010.06.03 17:29:28.
