data_PCOD9349388
_publ_section_title
;
Structure prediction by ZEFSAII (Michael W. Deem and Ramdas Pophale) SiO2 
 PCOD9349388
Probable space group: C M M 2
;
_chemical_formula_sum "Si O2"
_cell_formula_units_Z 58
_cell_length_a 7.927087
_cell_length_b 19.523015
_cell_length_c 18.053731
_cell_angle_alpha 90.000000
_cell_angle_beta 90.000000
_cell_angle_gamma 90.000000
_cell_volume 2794.006935
_symmetry_space_group_name_H-M "C M M 2"
_symmetry_group_IT_number 35
_symmetry_cell_setting 'orthorhombic'
loop_
_space_group_symop_operation_xyz
x,y,z
-x,-y,z
-x,y,z
x,-y,z
1/2+x,1/2+y,z
1/2-x,1/2-y,z
1/2-x,1/2+y,z
1/2+x,1/2-y,z
loop_
_atom_site_type_symbol
_atom_site_label
_atom_site_fract_x
_atom_site_fract_y
_atom_site_fract_z
Si Si1 0.203998 0.829896 0.147660
Si Si2 0.701575 0.828223 0.707277
Si Si3 0.500000 0.500000 0.522435
Si Si4 0.301239 0.422789 0.282451
Si Si5 0.202024 0.670894 0.872741
Si Si6 0.701205 0.107099 0.552730
Si Si7 0.701725 0.578359 0.010010
Si Si8 0.194108 0.675216 0.404481
O O1 0.250000 0.750000 0.146436
O O2 0.266862 0.871057 0.220017
O O3 0.265360 0.872792 0.076226
O O4 0.000000 0.831586 0.147559
O O5 0.500000 0.831983 0.711547
O O6 0.750000 0.750000 0.692551
O O7 0.767261 0.845646 0.789558
O O8 0.748360 0.873097 0.636714
O O9 0.347901 0.557519 0.525837
O O10 0.500000 0.429470 0.266822
O O11 0.229585 0.500000 0.281707
O O12 0.285316 0.385650 0.361170
O O13 0.250000 0.750000 0.889585
O O14 0.000000 0.667672 0.872413
O O15 0.264892 0.617564 0.933399
O O16 0.500000 0.084905 0.551772
O O17 0.709418 0.168105 0.492850
O O18 0.500000 0.573782 0.019394
O O19 0.767443 0.500000 0.011787
O O20 0.250000 0.750000 0.379522
O O21 0.000000 0.666216 0.385041
#
# Coordination Sequence:
#
# PCOD9349388 Si02
#       8
#     8   8   2   8   8   8   8   8
#     4  10  21  38  60  86 116 154 198 247 301 357
#     4   9  19  37  61  86 119 155 199 258 309 360
#     4  12  26  40  68  90 124 176 206 260 312 394
#     4  10  22  39  62  88 120 159 200 243 299 370
#     4  10  20  36  59  87 117 156 200 248 304 359
#     4  10  24  43  62  93 128 164 213 264 311 369
#     4  10  21  38  58  83 118 156 197 247 303 363
#     4  11  24  40  63  90 123 159 203 258 307 362
#
# _framework density 20.758717000000001
#
# number of rings (size 3 to 8) (size 9 to 14) (size 15 to 20)
#    0.000    1.931    0.000    2.690    3.862    6.069 
#    1.241    0.000    0.000    2.483    0.000    0.000 
#    0.000    0.000    0.000    0.000    0.000    0.000 
#
# Total GULP energy -161505.090678 kJ/mol
# GULP energy per Si atom -5569.141058 kJ/mol
# Density = 2.071147 g / cm^3
# Si number density = 20.758717 Si / 1000 Ang^3
#
#
#
# Elastic Constant Matrix: (Units=GPa)
#
#
# Indices 1 2 3 4 5 6 
#
# 1 45.5797 24.2642 11.6605 0.0000 0.0000 0.0000
# 2 24.2642 161.5395 76.0319 0.0000 0.0000 0.0000
# 3 11.6605 76.0319 120.3650 0.0000 0.0000 0.0000
# 4 0.0000 0.0000 0.0000 -967.2316 0.0000 0.0000
# 5 0.0000 0.0000 0.0000 0.0000 8.1273 0.0000
# 6 0.0000 0.0000 0.0000 0.0000 0.0000 37.7008
#
#
#
# Elastic Compliance Matrix: (Units=1/GPa)
#
#
# Indices 1 2 3 4 5 6 
#
# 1 0.023847 -0.003550 -0.000068 0.000000 0.000000 0.000000
# 2 -0.003550 0.009338 -0.005555 0.000000 0.000000 0.000000
# 3 -0.000068 -0.005555 0.011823 0.000000 0.000000 0.000000
# 4 0.000000 0.000000 0.000000 -0.001034 0.000000 0.000000
# 5 0.000000 0.000000 0.000000 0.000000 0.123042 0.000000
# 6 0.000000 0.000000 0.000000 0.000000 0.000000 0.026525
#
#
# Mechanical properties :
#
#
# Convention : Reuss Voigt Hill
#
# Bulk Modulus (GPa) = 37.50474 61.26639 49.38557
# Shear Modulus (GPa) = 22.64761 -169.91219 -73.63229
#
# Velocity S-wave (km/s) = 3.30660 -9.05697 -5.96218
# Velocity P-wave (km/s) = 5.71702 8.93275 4.85333
#
# Compressibility (1/GPa) = 0.02666329
#
# Stress axis : x y z
#
# Youngs Moduli (GPa) = 41.93437 107.08756 84.57768
#
# Poissons Ratio (x) = 0.38017 0.00572
# Poissons Ratio (y) = 0.14887 0.46981
# Poissons Ratio (z) = 0.00284 0.59485
#
# Static dielectric constant tensor:
#      x y z
#    x 1.753800 0.000000 0.000000 
#    y 0.000000 1.839710 0.000000 
#    z 0.000000 0.000000 1.773910 
# 
# From -- ./inp_files/18163.got.cif
#   From: 2010.05.17/outbox.cif.g08.bks.cpg/sg35_10_cif.got.tgz:18163.got - 2010.06.03 17:29:28.
