data_PCOD9349458
_publ_section_title
;
Structure prediction by ZEFSAII (Michael W. Deem and Ramdas Pophale) SiO2 
 PCOD9349458
Probable space group: C M M 2
;
_chemical_formula_sum "Si O2"
_cell_formula_units_Z 48
_cell_length_a 8.909837
_cell_length_b 15.249900
_cell_length_c 19.360700
_cell_angle_alpha 90.000000
_cell_angle_beta 90.000000
_cell_angle_gamma 90.000000
_cell_volume 2630.618138
_symmetry_space_group_name_H-M "C M M 2"
_symmetry_group_IT_number 35
_symmetry_cell_setting 'orthorhombic'
loop_
_space_group_symop_operation_xyz
x,y,z
-x,-y,z
-x,y,z
x,-y,z
1/2+x,1/2+y,z
1/2-x,1/2-y,z
1/2-x,1/2+y,z
1/2+x,1/2-y,z
loop_
_atom_site_type_symbol
_atom_site_label
_atom_site_fract_x
_atom_site_fract_y
_atom_site_fract_z
Si Si1 0.180707 0.500000 0.232540
Si Si2 0.674265 0.894764 0.839717
Si Si3 0.180810 0.342282 0.994955
Si Si4 0.318739 0.000000 0.448133
Si Si5 0.178496 0.840696 0.697633
Si Si6 0.818709 0.000000 0.599524
Si Si7 0.819188 0.651933 0.341848
Si Si8 0.679514 0.500000 0.081634
O O1 0.216858 0.411869 0.276621
O O2 0.265416 0.500000 0.160394
O O3 0.000000 0.500000 0.222208
O O4 0.500000 0.870013 0.828341
O O5 0.768972 0.861494 0.775364
O O6 0.683162 0.000000 0.842382
O O7 0.720834 0.859406 0.914508
O O8 0.250000 0.250000 0.015889
O O9 0.251877 0.416869 0.042037
O O10 0.000000 0.343996 0.000076
O O11 0.252355 0.000000 0.524294
O O12 0.274310 0.088598 0.406249
O O13 0.500000 0.000000 0.449900
O O14 0.250000 0.750000 0.675508
O O15 0.000000 0.835632 0.696814
O O16 0.226736 0.916612 0.645320
O O17 0.000000 0.000000 0.593445
O O18 0.750000 0.750000 0.340885
O O19 0.000000 0.661413 0.343650
O O20 0.500000 0.500000 0.077554
#
# Coordination Sequence:
#
# PCOD9349458 Si02
#       8
#     4   8   8   4   8   4   8   4
#     4   9  20  40  61  83 119 158 188 231 284 338
#     4  10  20  37  61  86 111 146 192 242 296 349
#     4  11  23  41  61  86 117 153 197 246 298 354
#     4   9  20  38  59  85 117 152 188 225 278 340
#     4  11  23  39  57  82 113 150 194 242 292 345
#     4  10  23  40  56  80 116 152 191 236 284 336
#     4   9  19  37  62  90 117 149 188 229 278 335
#     4  12  25  40  60  88 120 158 199 240 290 348
#
# _framework density 18.246662000000001
#
# number of rings (size 3 to 8) (size 9 to 14) (size 15 to 20)
#    0.000    1.833    1.667    3.250    0.000    6.667 
#    0.000    6.667    0.000    0.000    0.000    0.000 
#    0.000    0.000    0.000    0.000    0.000    0.000 
#
# Total GULP energy -134015.257680 kJ/mol
# GULP energy per Si atom -5583.969070 kJ/mol
# Density = 1.820513 g / cm^3
# Si number density = 18.246662 Si / 1000 Ang^3
#
#
#
# Elastic Constant Matrix: (Units=GPa)
#
#
# Indices 1 2 3 4 5 6 
#
# 1 57.2830 63.9047 65.4691 0.0000 0.0000 0.0000
# 2 63.9047 193.8823 99.3689 0.0000 0.0000 0.0000
# 3 65.4691 99.3689 156.3276 0.0000 0.0000 0.0000
# 4 0.0000 0.0000 0.0000 119.6806 0.0000 0.0000
# 5 0.0000 0.0000 0.0000 0.0000 6.8344 0.0000
# 6 0.0000 0.0000 0.0000 0.0000 0.0000 32.6977
#
#
#
# Elastic Compliance Matrix: (Units=1/GPa)
#
#
# Indices 1 2 3 4 5 6 
#
# 1 0.038367 -0.006542 -0.011909 0.000000 0.000000 0.000000
# 2 -0.006542 0.008766 -0.002832 0.000000 0.000000 0.000000
# 3 -0.011909 -0.002832 0.013184 0.000000 0.000000 0.000000
# 4 0.000000 0.000000 0.000000 0.008356 0.000000 0.000000
# 5 0.000000 0.000000 0.000000 0.000000 0.146318 0.000000
# 6 0.000000 0.000000 0.000000 0.000000 0.000000 0.030583
#
#
# Mechanical properties :
#
#
# Convention : Reuss Voigt Hill
#
# Bulk Modulus (GPa) = 56.33804 96.10869 76.22337
# Shear Modulus (GPa) = 17.00352 43.75923 30.38137
#
# Velocity S-wave (km/s) = 3.05597 4.90246 4.08491
# Velocity P-wave (km/s) = 6.58747 9.21042 8.00707
#
# Compressibility (1/GPa) = 0.01775000
#
# Stress axis : x y z
#
# Youngs Moduli (GPa) = 26.06423 114.08317 75.84665
#
# Poissons Ratio (x) = 0.74635 0.90328
# Poissons Ratio (y) = 0.17052 0.21480
# Poissons Ratio (z) = 0.31041 0.32308
#
# Static dielectric constant tensor:
#      x y z
#    x 1.611970 0.000000 0.000000 
#    y 0.000000 1.506350 0.000000 
#    z 0.000000 0.000000 1.606900 
# 
# From -- ./inp_files/17966.got.cif
#   From: 2010.05.17/outbox.cif.g08.bks.cpg/sg35_9_cif.got.tgz:17966.got - 2010.06.03 17:29:28.
