data_PCOD9349018
_publ_section_title
;
Structure prediction by ZEFSAII (Michael W. Deem and Ramdas Pophale) SiO2 
 PCOD9349018
Probable space group: C M M 2
;
_chemical_formula_sum "Si O2"
_cell_formula_units_Z 64
_cell_length_a 29.194112
_cell_length_b 7.971998
_cell_length_c 13.432012
_cell_angle_alpha 90.000000
_cell_angle_beta 90.000000
_cell_angle_gamma 90.000000
_cell_volume 3126.104719
_symmetry_space_group_name_H-M "C M M 2"
_symmetry_group_IT_number 35
_symmetry_cell_setting 'orthorhombic'
loop_
_space_group_symop_operation_xyz
x,y,z
-x,-y,z
-x,y,z
x,-y,z
1/2+x,1/2+y,z
1/2-x,1/2-y,z
1/2-x,1/2+y,z
1/2+x,1/2-y,z
loop_
_atom_site_type_symbol
_atom_site_label
_atom_site_fract_x
_atom_site_fract_y
_atom_site_fract_z
Si Si1 0.803296 0.702269 0.760060
Si Si2 0.051356 0.198576 0.089921
Si Si3 0.303389 0.799035 0.979309
Si Si4 0.642700 0.299736 0.175333
Si Si5 0.356200 0.202570 0.563986
Si Si6 0.052106 0.705476 0.652058
Si Si7 0.055616 0.309573 0.871548
Si Si8 0.302883 0.301000 0.365603
O O1 0.806527 0.500000 0.760448
O O2 0.750000 0.750000 0.751123
O O3 0.830310 0.763823 0.663564
O O4 0.819751 0.759650 0.869558
O O5 0.091447 0.269828 0.158964
O O6 0.000000 0.270606 0.101356
O O7 0.048192 0.000000 0.108188
O O8 0.066334 0.220295 0.974632
O O9 0.250000 0.750000 0.986873
O O10 0.330234 0.727610 0.072843
O O11 0.307066 0.000000 0.982773
O O12 0.638302 0.500000 0.189738
O O13 0.671045 0.229585 0.268537
O O14 0.409192 0.256064 0.573947
O O15 0.330056 0.255932 0.465414
O O16 0.355562 0.000000 0.566305
O O17 0.051064 0.500000 0.656493
O O18 0.067823 0.760343 0.763113
O O19 0.000000 0.760959 0.632776
O O20 0.073537 0.500000 0.878700
O O21 0.000000 0.316529 0.867527
O O22 0.302943 0.500000 0.356168
O O23 0.250000 0.250000 0.370570
#
# Coordination Sequence:
#
# PCOD9349018 Si02
#       8
#     8   8   8   8   8   8   8   8
#     4   9  19  33  50  76 108 139 171 214 268 326
#     4   9  18  33  52  76 109 147 184 221 265 318
#     4  10  20  34  54  80 111 142 175 218 271 331
#     4  10  22  38  56  79 108 143 184 226 272 325
#     4  10  20  35  57  82 110 143 184 225 270 324
#     4   8  15  29  51  79 112 149 185 220 262 315
#     4   8  14  26  47  75 107 144 182 219 259 306
#     4  11  24  42  61  81 106 137 181 232 281 330
#
# _framework density 20.472763
#
# number of rings (size 3 to 8) (size 9 to 14) (size 15 to 20)
#    0.000    2.625    0.000    2.250    1.750    4.500 
#    0.000    1.250    0.000    1.875    0.000    0.000 
#    0.000    0.000    0.000    0.000    0.000    0.000 
#
# Total GULP energy -178536.161997 kJ/mol
# GULP energy per Si atom -5579.255062 kJ/mol
# Density = 2.042617 g / cm^3
# Si number density = 20.472763 Si / 1000 Ang^3
#
#
#
# Elastic Constant Matrix: (Units=GPa)
#
#
# Indices 1 2 3 4 5 6 
#
# 1 153.8663 9.0777 106.7049 0.0000 0.0000 0.0000
# 2 9.0777 17.4131 7.9049 0.0000 0.0000 0.0000
# 3 106.7049 7.9049 152.4722 0.0000 0.0000 0.0000
# 4 0.0000 0.0000 0.0000 18.3989 0.0000 0.0000
# 5 0.0000 0.0000 0.0000 0.0000 44.8274 0.0000
# 6 0.0000 0.0000 0.0000 0.0000 0.0000 6.1934
#
#
#
# Elastic Compliance Matrix: (Units=1/GPa)
#
#
# Indices 1 2 3 4 5 6 
#
# 1 0.012747 -0.002658 -0.008783 0.000000 0.000000 0.000000
# 2 -0.002658 0.059367 -0.001218 0.000000 0.000000 0.000000
# 3 -0.008783 -0.001218 0.012768 0.000000 0.000000 0.000000
# 4 0.000000 0.000000 0.000000 0.054351 0.000000 0.000000
# 5 0.000000 0.000000 0.000000 0.000000 0.022308 0.000000
# 6 0.000000 0.000000 0.000000 0.000000 0.000000 0.161463
#
#
# Mechanical properties :
#
#
# Convention : Reuss Voigt Hill
#
# Bulk Modulus (GPa) = 16.78850 63.45852 40.12351
# Shear Modulus (GPa) = 13.58048 27.22153 20.40100
#
# Velocity S-wave (km/s) = 2.57834 3.65039 3.16016
# Velocity P-wave (km/s) = 4.13304 6.98791 5.74077
#
# Compressibility (1/GPa) = 0.05956457
#
# Stress axis : x y z
#
# Youngs Moduli (GPa) = 78.45139 16.84447 78.31976
#
# Poissons Ratio (x) = 0.04477 0.68786
# Poissons Ratio (y) = 0.20853 0.09537
# Poissons Ratio (z) = 0.68902 0.02051
#
# Static dielectric constant tensor:
#      x y z
#    x 1.762470 0.000000 0.000000 
#    y 0.000000 1.734910 0.000000 
#    z 0.000000 0.000000 1.723960 
# 
# From -- ./inp_files/11987.got.cif
#   From: 2010.05.17/outbox.cif.g08.bks.cpg/sg35_6_cif.got.tgz:11987.got - 2010.06.03 17:29:28.
