data_PCOD9349899
_publ_section_title
;
Structure prediction by ZEFSAII (Michael W. Deem and Ramdas Pophale) SiO2 
 PCOD9349899
Probable space group: C M M 2
;
_chemical_formula_sum "Si O2"
_cell_formula_units_Z 48
_cell_length_a 8.408466
_cell_length_b 31.768840
_cell_length_c 9.619419
_cell_angle_alpha 90.000000
_cell_angle_beta 90.000000
_cell_angle_gamma 90.000000
_cell_volume 2569.608569
_symmetry_space_group_name_H-M "C M M 2"
_symmetry_group_IT_number 35
_symmetry_cell_setting 'orthorhombic'
loop_
_space_group_symop_operation_xyz
x,y,z
-x,-y,z
-x,y,z
x,-y,z
1/2+x,1/2+y,z
1/2-x,1/2-y,z
1/2-x,1/2+y,z
1/2+x,1/2-y,z
loop_
_atom_site_type_symbol
_atom_site_label
_atom_site_fract_x
_atom_site_fract_y
_atom_site_fract_z
Si Si1 0.310087 0.902459 0.387450
Si Si2 0.689259 0.500000 0.015792
Si Si3 0.693230 0.000000 0.329511
Si Si4 0.188328 0.868117 0.669595
Si Si5 0.818369 0.584923 0.904688
Si Si6 0.689304 0.202734 0.881787
Si Si7 0.681733 0.645933 0.116159
O O1 0.500000 0.901435 0.400655
O O2 0.232855 0.874500 0.509433
O O3 0.263219 0.878538 0.244168
O O4 0.264488 0.952917 0.390430
O O5 0.500000 0.500000 0.990990
O O6 0.724542 0.500000 0.179270
O O7 0.778065 0.538791 0.947991
O O8 0.500000 0.000000 0.316112
O O9 0.284001 0.905459 0.745743
O O10 0.242188 0.826772 0.756993
O O11 0.000000 0.872424 0.685496
O O12 0.000000 0.596611 0.940193
O O13 0.694602 0.612439 0.991689
O O14 0.500000 0.200863 0.872289
O O15 0.750000 0.250000 0.865076
O O16 0.739546 0.185346 0.035171
O O17 0.500000 0.655589 0.152258
#
# Coordination Sequence:
#
# PCOD9349899 Si02
#       7
#     8   4   4   8   8   8   8
#     4  11  22  39  60  87 123 166 208 249 301 359
#     4  12  22  33  54  83 114 150 202 258 302 347
#     4  10  22  37  58  83 118 162 208 250 300 357
#     4  11  23  40  60  87 121 159 201 248 301 359
#     4  11  21  36  56  80 112 153 199 245 297 353
#     4  11  22  41  67  94 121 155 196 246 304 366
#     4  11  21  36  59  89 119 153 196 245 295 351
#
# _framework density 18.679887999999998
#
# number of rings (size 3 to 8) (size 9 to 14) (size 15 to 20)
#    0.000    1.000    1.667    9.250    0.000    1.333 
#    0.000    3.333    0.000    0.000    0.000    0.000 
#    0.000    0.000    0.000    0.000    0.000    0.000 
#
# Total GULP energy -133759.041271 kJ/mol
# GULP energy per Si atom -5573.293386 kJ/mol
# Density = 1.863737 g / cm^3
# Si number density = 18.679888 Si / 1000 Ang^3
#
#
#
# Elastic Constant Matrix: (Units=GPa)
#
#
# Indices 1 2 3 4 5 6 
#
# 1 105.8299 36.1251 18.6456 0.0000 0.0000 0.0000
# 2 36.1251 118.2195 37.8923 0.0000 0.0000 0.0000
# 3 18.6456 37.8923 88.8218 0.0000 0.0000 0.0000
# 4 0.0000 0.0000 0.0000 -31.8100 0.0000 0.0000
# 5 0.0000 0.0000 0.0000 0.0000 29.5923 0.0000
# 6 0.0000 0.0000 0.0000 0.0000 0.0000 30.1067
#
#
#
# Elastic Compliance Matrix: (Units=1/GPa)
#
#
# Indices 1 2 3 4 5 6 
#
# 1 0.010623 -0.002932 -0.000979 0.000000 0.000000 0.000000
# 2 -0.002932 0.010608 -0.003910 0.000000 0.000000 0.000000
# 3 -0.000979 -0.003910 0.013132 0.000000 0.000000 0.000000
# 4 0.000000 0.000000 0.000000 -0.031437 0.000000 0.000000
# 5 0.000000 0.000000 0.000000 0.000000 0.033793 0.000000
# 6 0.000000 0.000000 0.000000 0.000000 0.000000 0.033215
#
#
# Mechanical properties :
#
#
# Convention : Reuss Voigt Hill
#
# Bulk Modulus (GPa) = 53.41793 55.35525 54.38659
# Shear Modulus (GPa) = 54.45654 20.25833 37.35743
#
# Velocity S-wave (km/s) = 5.40516 3.29675 4.47685
# Velocity P-wave (km/s) = 8.22271 6.64751 7.47671
#
# Compressibility (1/GPa) = 0.01872031
#
# Stress axis : x y z
#
# Youngs Moduli (GPa) = 94.13965 94.26747 76.14952
#
# Poissons Ratio (x) = 0.27641 0.07455
# Poissons Ratio (y) = 0.27604 0.29774
# Poissons Ratio (z) = 0.09216 0.36859
#
# Static dielectric constant tensor:
#      x y z
#    x 1.643360 0.000000 0.000000 
#    y 0.000000 1.720600 0.000000 
#    z 0.000000 0.000000 1.639590 
# 
# From -- ./inp_files/5433.got.cif
#   From: 2010.05.17/outbox.cif.g08.bks.cpg/sg35_3_cif.got.tgz:5433.got - 2010.06.03 17:29:28.
