data_PCOD9349663
_publ_section_title
;
Structure prediction by ZEFSAII (Michael W. Deem and Ramdas Pophale) SiO2 
 PCOD9349663
Probable space group: C M M 2
;
_chemical_formula_sum "Si O2"
_cell_formula_units_Z 56
_cell_length_a 21.865907
_cell_length_b 23.437470
_cell_length_c 5.133425
_cell_angle_alpha 90.000000
_cell_angle_beta 90.000000
_cell_angle_gamma 90.000000
_cell_volume 2630.785546
_symmetry_space_group_name_H-M "C M M 2"
_symmetry_group_IT_number 35
_symmetry_cell_setting 'orthorhombic'
loop_
_space_group_symop_operation_xyz
x,y,z
-x,-y,z
-x,y,z
x,-y,z
1/2+x,1/2+y,z
1/2-x,1/2-y,z
1/2-x,1/2+y,z
1/2+x,1/2-y,z
loop_
_atom_site_type_symbol
_atom_site_label
_atom_site_fract_x
_atom_site_fract_y
_atom_site_fract_z
Si Si1 0.569694 0.852546 0.484560
Si Si2 0.931034 0.725636 0.985782
Si Si3 0.305432 0.125740 0.661162
Si Si4 0.740827 0.184822 0.186433
Si Si5 0.433629 0.438854 0.301092
Si Si6 0.184262 0.063098 0.667996
Si Si7 0.867489 0.156476 0.054007
O O1 0.500000 0.876333 0.478095
O O2 0.570119 0.803463 0.704855
O O3 0.625346 0.892010 0.587016
O O4 0.581682 0.821991 0.206988
O O5 0.000000 0.745636 0.041321
O O6 0.887815 0.780159 0.986636
O O7 0.293886 0.177422 0.457741
O O8 0.254031 0.078503 0.593115
O O9 0.291688 0.149014 0.953219
O O10 0.750000 0.250000 0.103686
O O11 0.809720 0.163009 0.244911
O O12 0.500000 0.436284 0.440059
O O13 0.434626 0.500000 0.152954
O O14 0.371065 0.440994 0.462997
O O15 0.424784 0.380848 0.144895
O O16 0.186350 0.000000 0.797401
O O17 0.162543 0.116541 0.837142
#
# Coordination Sequence:
#
# PCOD9349663 Si02
#       7
#     8   8   8   8   8   8   8
#     4  10  21  38  58  85 119 153 188 231 286 352
#     4  10  22  36  56  85 121 155 189 233 284 345
#     4  11  21  38  58  84 111 153 189 235 293 348
#     4  11  22  34  56  84 117 146 190 233 283 341
#     4  10  21  37  55  76 105 144 192 241 284 329
#     4  10  23  40  57  81 112 149 198 249 296 343
#     4  11  21  35  55  79 110 152 192 236 285 338
#
# _framework density 21.286418000000001
#
# number of rings (size 3 to 8) (size 9 to 14) (size 15 to 20)
#    0.000    1.571    1.429    3.857    2.000    2.286 
#    0.000    1.429    0.000    0.429    0.000    0.000 
#    0.000    6.000    0.000    0.000    0.000    1.000 
#
# Total GULP energy -155898.086235 kJ/mol
# GULP energy per Si atom -5567.788794 kJ/mol
# Density = 2.123797 g / cm^3
# Si number density = 21.286418 Si / 1000 Ang^3
#
#
#
# Elastic Constant Matrix: (Units=GPa)
#
#
# Indices 1 2 3 4 5 6 
#
# 1 170.1479 46.7722 8.7760 0.0000 0.0000 0.0000
# 2 46.7722 22.8555 6.0965 0.0000 0.0000 0.0000
# 3 8.7760 6.0965 50.2987 0.0000 0.0000 0.0000
# 4 0.0000 0.0000 0.0000 19.6245 0.0000 0.0000
# 5 0.0000 0.0000 0.0000 0.0000 26.2733 0.0000
# 6 0.0000 0.0000 0.0000 0.0000 0.0000 22.2828
#
#
#
# Elastic Compliance Matrix: (Units=1/GPa)
#
#
# Indices 1 2 3 4 5 6 
#
# 1 0.013486 -0.027872 0.001025 0.000000 0.000000 0.000000
# 2 -0.027872 0.102818 -0.007599 0.000000 0.000000 0.000000
# 3 0.001025 -0.007599 0.020623 0.000000 0.000000 0.000000
# 4 0.000000 0.000000 0.000000 0.050957 0.000000 0.000000
# 5 0.000000 0.000000 0.000000 0.000000 0.038061 0.000000
# 6 0.000000 0.000000 0.000000 0.000000 0.000000 0.044878
#
#
# Mechanical properties :
#
#
# Convention : Reuss Voigt Hill
#
# Bulk Modulus (GPa) = 14.69808 40.73239 27.71523
# Shear Modulus (GPa) = 13.79715 25.74661 19.77188
#
# Velocity S-wave (km/s) = 2.54867 3.48161 3.05101
# Velocity P-wave (km/s) = 3.94726 5.94466 5.04579
#
# Compressibility (1/GPa) = 0.06803609
#
# Stress axis : x y z
#
# Youngs Moduli (GPa) = 74.15037 9.72592 48.48856
#
# Poissons Ratio (x) = 0.27108 -0.04971
# Poissons Ratio (y) = 2.06671 0.36847
# Poissons Ratio (z) = -0.07602 0.07391
#
# Static dielectric constant tensor:
#      x y z
#    x 1.901080 0.000000 0.000000 
#    y 0.000000 1.742140 0.000000 
#    z 0.000000 0.000000 1.789350 
# 
# From -- ./inp_files/3081.got.cif
#   From: 2010.05.17/outbox.cif.g08.bks.cpg/sg35_2_cif.got.tgz:3081.got - 2010.06.03 17:29:28.
