data_PCOD9349472
_publ_section_title
;
Structure prediction by ZEFSAII (Michael W. Deem and Ramdas Pophale) SiO2 
 PCOD9349472
Probable space group: C M M 2
;
_chemical_formula_sum "Si O2"
_cell_formula_units_Z 58
_cell_length_a 22.105629
_cell_length_b 14.940101
_cell_length_c 6.831445
_cell_angle_alpha 90.000000
_cell_angle_beta 90.000000
_cell_angle_gamma 90.000000
_cell_volume 2256.155280
_symmetry_space_group_name_H-M "C M M 2"
_symmetry_group_IT_number 35
_symmetry_cell_setting 'orthorhombic'
loop_
_space_group_symop_operation_xyz
x,y,z
-x,-y,z
-x,y,z
x,-y,z
1/2+x,1/2+y,z
1/2-x,1/2-y,z
1/2-x,1/2+y,z
1/2+x,1/2-y,z
loop_
_atom_site_type_symbol
_atom_site_label
_atom_site_fract_x
_atom_site_fract_y
_atom_site_fract_z
Si Si1 0.702753 0.395448 0.803940
Si Si2 0.567698 0.108695 0.032682
Si Si3 0.500000 0.500000 0.532683
Si Si4 0.161557 0.392089 0.284404
Si Si5 0.900689 0.840810 0.532682
Si Si6 0.567330 0.858747 0.532681
Si Si7 0.838443 0.392089 0.780959
Si Si8 0.702754 0.604552 0.261423
O O1 0.700020 0.500000 0.739754
O O2 0.646424 0.344590 0.711405
O O3 0.769259 0.356731 0.766227
O O4 0.693970 0.395296 0.032682
O O5 0.500000 0.151146 0.032682
O O6 0.583508 0.124057 0.784476
O O7 0.562230 0.000000 0.032681
O O8 0.647433 0.130614 0.032682
O O9 0.446860 0.422148 0.532683
O O10 0.169008 0.500000 0.271274
O O11 0.083508 0.375943 0.280887
O O12 0.230741 0.356731 0.299137
O O13 0.934705 0.748244 0.532681
O O14 0.853576 0.844590 0.353958
O O15 0.500000 0.899921 0.532682
O O16 0.644137 0.880715 0.532682
O O17 0.830992 0.500000 0.794089
O O18 0.700021 0.500000 0.325609
#
# Coordination Sequence:
#
# PCOD9349472 Si02
#       8
#     8   8   2   8   8   8   8   8
#     4  10  20  40  71 102 127 167 222 271 331 398
#     4   9  16  30  54  83 122 174 214 241 292 365
#     4  12  24  52  78  88 130 174 218 288 342 396
#     4  10  20  37  61  93 132 170 210 258 311 392
#     4  12  25  46  70  95 126 171 219 289 345 384
#     4  12  26  40  58  90 133 173 222 270 325 397
#     4  10  20  37  61  93 132 170 210 258 311 392
#     4  10  20  40  71 102 127 167 222 271 331 398
#
# _framework density 25.707452
#
# number of rings (size 3 to 8) (size 9 to 14) (size 15 to 20)
#    0.000    1.517    3.448    2.069    0.000    6.621 
#    2.483    2.759    0.000    0.000    0.000    0.000 
#    0.000    0.000    0.000    0.000    0.000    0.000 
#
# Total GULP energy -161678.035486 kJ/mol
# GULP energy per Si atom -5575.104672 kJ/mol
# Density = 2.564894 g / cm^3
# Si number density = 25.707452 Si / 1000 Ang^3
#
#
#
# Elastic Constant Matrix: (Units=GPa)
#
#
# Indices 1 2 3 4 5 6 
#
# 1 248.5197 39.4544 92.9611 0.0000 0.0000 0.0000
# 2 39.4544 112.4147 26.2575 0.0000 0.0000 0.0000
# 3 92.9611 26.2575 238.0889 0.0000 0.0000 0.0000
# 4 0.0000 0.0000 0.0000 36.3934 0.0000 0.0000
# 5 0.0000 0.0000 0.0000 0.0000 26.8753 0.0000
# 6 0.0000 0.0000 0.0000 0.0000 0.0000 -25.3020
#
#
#
# Elastic Compliance Matrix: (Units=1/GPa)
#
#
# Indices 1 2 3 4 5 6 
#
# 1 0.004891 -0.001304 -0.001766 0.000000 0.000000 0.000000
# 2 -0.001304 0.009479 -0.000536 0.000000 0.000000 0.000000
# 3 -0.001766 -0.000536 0.004949 0.000000 0.000000 0.000000
# 4 0.000000 0.000000 0.000000 0.027477 0.000000 0.000000
# 5 0.000000 0.000000 0.000000 0.000000 0.037209 0.000000
# 6 0.000000 0.000000 0.000000 0.000000 0.000000 -0.039523
#
#
# Mechanical properties :
#
#
# Convention : Reuss Voigt Hill
#
# Bulk Modulus (GPa) = 82.60306 101.81883 92.21094
# Shear Modulus (GPa) = 89.71695 36.95003 63.33349
#
# Velocity S-wave (km/s) = 5.91396 3.79532 4.96888
# Velocity P-wave (km/s) = 8.87891 7.67455 8.29860
#
# Compressibility (1/GPa) = 0.01210609
#
# Stress axis : x y z
#
# Youngs Moduli (GPa) = 204.43680 105.50065 202.07021
#
# Poissons Ratio (x) = 0.13760 0.35686
# Poissons Ratio (y) = 0.26664 0.10833
# Poissons Ratio (z) = 0.36104 0.05656
#
# Static dielectric constant tensor:
#      x y z
#    x 1.989020 0.000000 0.000000 
#    y 0.000000 1.867480 0.000000 
#    z 0.000000 0.000000 2.338030 
# 
# From -- ./inp_files/8608.got.cif
#   From: 2010.05.17/outbox.cif.g08.bks.cpg/sg35_5_cif.got.tgz:8608.got - 2010.06.03 17:29:28.
