data_PCOD9349621
_publ_section_title
;
Structure prediction by ZEFSAII (Michael W. Deem and Ramdas Pophale) SiO2 
 PCOD9349621
Probable space group: C M M 2
;
_chemical_formula_sum "Si O2"
_cell_formula_units_Z 56
_cell_length_a 8.802125
_cell_length_b 19.528882
_cell_length_c 18.320621
_cell_angle_alpha 90.000000
_cell_angle_beta 90.000000
_cell_angle_gamma 90.000000
_cell_volume 3149.235247
_symmetry_space_group_name_H-M "C M M 2"
_symmetry_group_IT_number 35
_symmetry_cell_setting 'orthorhombic'
loop_
_space_group_symop_operation_xyz
x,y,z
-x,-y,z
-x,y,z
x,-y,z
1/2+x,1/2+y,z
1/2-x,1/2-y,z
1/2-x,1/2+y,z
1/2+x,1/2-y,z
loop_
_atom_site_type_symbol
_atom_site_label
_atom_site_fract_x
_atom_site_fract_y
_atom_site_fract_z
Si Si1 0.320189 0.919072 0.486850
Si Si2 0.183001 0.326197 0.771964
Si Si3 0.818022 0.919913 0.645137
Si Si4 0.315129 0.921457 0.906069
Si Si5 0.681074 0.674815 0.195367
Si Si6 0.182307 0.825790 0.361099
Si Si7 0.181510 0.580800 0.071113
O O1 0.500000 0.905908 0.493074
O O2 0.240194 0.903272 0.563866
O O3 0.250151 0.875763 0.421399
O O4 0.298266 0.000000 0.473145
O O5 0.250000 0.250000 0.771237
O O6 0.241277 0.370183 0.703431
O O7 0.232255 0.368146 0.844393
O O8 0.000000 0.322928 0.770741
O O9 0.000000 0.913546 0.648397
O O10 0.778260 0.000000 0.659756
O O11 0.500000 0.922711 0.906344
O O12 0.266023 0.000000 0.890690
O O13 0.267774 0.902178 0.988325
O O14 0.500000 0.679463 0.191936
O O15 0.750000 0.750000 0.184065
O O16 0.722403 0.652522 0.278045
O O17 0.740350 0.624388 0.133531
O O18 0.250000 0.750000 0.371561
O O19 0.000000 0.823394 0.367102
O O20 0.209489 0.500000 0.081296
O O21 0.000000 0.591704 0.074884
#
# Coordination Sequence:
#
# PCOD9349621 Si02
#       7
#     8   8   8   8   8   8   8
#     4  10  21  37  58  84 111 140 177 218 262 316
#     4  11  22  36  55  80 111 143 179 222 266 315
#     4  10  21  38  59  82 109 140 176 219 267 318
#     4   8  16  33  56  79 104 139 180 220 266 319
#     4  10  21  36  54  77 107 143 182 223 268 319
#     4  10  21  37  56  78 107 143 181 222 269 319
#     4   9  18  34  56  81 109 141 178 220 267 319
#
# _framework density 17.782095000000002
#
# number of rings (size 3 to 8) (size 9 to 14) (size 15 to 20)
#    0.000    2.286    0.000    3.429    0.000    6.000 
#    0.000    8.571    0.000    1.714    0.000    0.000 
#    0.000    0.000    0.000    0.000    0.000    0.000 
#
# Total GULP energy -156297.025829 kJ/mol
# GULP energy per Si atom -5582.036637 kJ/mol
# Density = 1.774162 g / cm^3
# Si number density = 17.782095 Si / 1000 Ang^3
#
#
#
# Elastic Constant Matrix: (Units=GPa)
#
#
# Indices 1 2 3 4 5 6 
#
# 1 59.0500 59.6865 68.7835 0.0000 0.0000 0.0000
# 2 59.6865 104.7698 117.9233 0.0000 0.0000 0.0000
# 3 68.7835 117.9233 180.3703 0.0000 0.0000 0.0000
# 4 0.0000 0.0000 0.0000 100.8844 0.0000 0.0000
# 5 0.0000 0.0000 0.0000 0.0000 28.2431 0.0000
# 6 0.0000 0.0000 0.0000 0.0000 0.0000 26.5251
#
#
#
# Elastic Compliance Matrix: (Units=1/GPa)
#
#
# Indices 1 2 3 4 5 6 
#
# 1 0.040011 -0.021278 -0.001347 0.000000 0.000000 0.000000
# 2 -0.021278 0.047452 -0.022909 0.000000 0.000000 0.000000
# 3 -0.001347 -0.022909 0.021035 0.000000 0.000000 0.000000
# 4 0.000000 0.000000 0.000000 0.009912 0.000000 0.000000
# 5 0.000000 0.000000 0.000000 0.000000 0.035407 0.000000
# 6 0.000000 0.000000 0.000000 0.000000 0.000000 0.037700
#
#
# Mechanical properties :
#
#
# Convention : Reuss Voigt Hill
#
# Bulk Modulus (GPa) = 57.37089 92.99741 75.18415
# Shear Modulus (GPa) = 17.33737 37.65031 27.49384
#
# Velocity S-wave (km/s) = 3.12587 4.60642 3.93638
# Velocity P-wave (km/s) = 6.73509 8.98354 7.93932
#
# Compressibility (1/GPa) = 0.01743044
#
# Stress axis : x y z
#
# Youngs Moduli (GPa) = 24.99316 21.07411 47.53952
#
# Poissons Ratio (x) = 0.44842 0.06402
# Poissons Ratio (y) = 0.53181 1.08907
# Poissons Ratio (z) = 0.03366 0.48278
#
# Static dielectric constant tensor:
#      x y z
#    x 1.596260 0.000000 0.000000 
#    y 0.000000 1.575880 0.000000 
#    z 0.000000 0.000000 1.596520 
# 
# From -- ./inp_files/15596.got.cif
#   From: 2010.05.17/outbox.cif.g08.bks.cpg/sg35_8_cif.got.tgz:15596.got - 2010.06.03 17:29:28.
