data_PCOD9349911
_publ_section_title
;
Structure prediction by ZEFSAII (Michael W. Deem and Ramdas Pophale) SiO2 
 PCOD9349911
Probable space group: C M M 2
;
_chemical_formula_sum "Si O2"
_cell_formula_units_Z 48
_cell_length_a 7.732465
_cell_length_b 15.965991
_cell_length_c 18.111641
_cell_angle_alpha 90.000000
_cell_angle_beta 90.000000
_cell_angle_gamma 90.000000
_cell_volume 2235.999202
_symmetry_space_group_name_H-M "C M M 2"
_symmetry_group_IT_number 35
_symmetry_cell_setting 'orthorhombic'
loop_
_space_group_symop_operation_xyz
x,y,z
-x,-y,z
-x,y,z
x,-y,z
1/2+x,1/2+y,z
1/2-x,1/2-y,z
1/2-x,1/2+y,z
1/2+x,1/2-y,z
loop_
_atom_site_type_symbol
_atom_site_label
_atom_site_fract_x
_atom_site_fract_y
_atom_site_fract_z
Si Si1 0.292559 0.904256 0.354210
Si Si2 0.791307 0.000000 0.104912
Si Si3 0.198398 0.399725 0.511293
Si Si4 0.208220 0.500000 0.932847
Si Si5 0.292357 0.152191 0.668735
Si Si6 0.204510 0.158193 0.195833
Si Si7 0.291427 0.848410 0.831625
O O1 0.500000 0.908592 0.362787
O O2 0.223647 0.870549 0.433049
O O3 0.257474 0.852607 0.281016
O O4 0.228865 0.000000 0.341926
O O5 0.722970 0.082417 0.146861
O O6 0.000000 0.000000 0.111314
O O7 0.750860 0.000000 0.018808
O O8 0.191123 0.500000 0.503663
O O9 0.278627 0.382005 0.591170
O O10 0.000000 0.367117 0.515013
O O11 0.271147 0.584482 0.891681
O O12 0.000000 0.500000 0.926356
O O13 0.500000 0.136720 0.668647
O O14 0.250000 0.250000 0.667334
O O15 0.228965 0.124201 0.749511
O O16 0.250000 0.250000 0.167832
O O17 0.000000 0.150778 0.194398
O O18 0.500000 0.852306 0.830256
O O19 0.250000 0.750000 0.844364
#
# Coordination Sequence:
#
# PCOD9349911 Si02
#       7
#     8   4   8   4   8   8   8
#     4   9  17  32  54  80 112 148 188 232 277 324
#     4  10  24  44  62  83 114 144 176 223 278 338
#     4   8  15  27  47  76 105 139 183 225 263 309
#     4  10  22  38  60  87 110 140 182 223 272 332
#     4   9  17  30  49  71 103 142 179 221 267 310
#     4  11  23  40  61  86 113 146 187 227 277 335
#     4   9  19  35  55  82 113 145 183 227 271 322
#
# _framework density 21.466913000000002
#
# number of rings (size 3 to 8) (size 9 to 14) (size 15 to 20)
#    0.000    2.667    0.833    1.500    1.167    3.333 
#    0.000    5.833    0.000    1.500    0.000    0.000 
#    0.000    0.000    0.000    0.000    0.000    0.000 
#
# Total GULP energy -133793.050119 kJ/mol
# GULP energy per Si atom -5574.710422 kJ/mol
# Density = 2.141805 g / cm^3
# Si number density = 21.466913 Si / 1000 Ang^3
#
#
#
# Elastic Constant Matrix: (Units=GPa)
#
#
# Indices 1 2 3 4 5 6 
#
# 1 37.4161 3.5223 8.5167 0.0000 0.0000 0.0000
# 2 3.5223 108.6258 93.9892 0.0000 0.0000 0.0000
# 3 8.5167 93.9892 202.9631 0.0000 0.0000 0.0000
# 4 0.0000 0.0000 0.0000 0.6532 0.0000 0.0000
# 5 0.0000 0.0000 0.0000 0.0000 -20.6747 0.0000
# 6 0.0000 0.0000 0.0000 0.0000 0.0000 12.3108
#
#
#
# Elastic Compliance Matrix: (Units=1/GPa)
#
#
# Indices 1 2 3 4 5 6 
#
# 1 0.026986 0.000175 -0.001213 0.000000 0.000000 0.000000
# 2 0.000175 0.015362 -0.007121 0.000000 0.000000 0.000000
# 3 -0.001213 -0.007121 0.008276 0.000000 0.000000 0.000000
# 4 0.000000 0.000000 0.000000 1.530859 0.000000 0.000000
# 5 0.000000 0.000000 0.000000 0.000000 -0.048368 0.000000
# 6 0.000000 0.000000 0.000000 0.000000 0.000000 0.081230
#
#
# Mechanical properties :
#
#
# Convention : Reuss Voigt Hill
#
# Bulk Modulus (GPa) = 29.15088 62.34013 45.74551
# Shear Modulus (GPa) = 3.04489 14.65631 8.85060
#
# Velocity S-wave (km/s) = 1.19226 2.61576 2.03270
# Velocity P-wave (km/s) = 3.93754 6.18273 5.18316
#
# Compressibility (1/GPa) = 0.03430428
#
# Stress axis : x y z
#
# Youngs Moduli (GPa) = 37.05596 65.09604 120.83650
#
# Poissons Ratio (x) = -0.01138 0.14662
# Poissons Ratio (y) = -0.00648 0.86050
# Poissons Ratio (z) = 0.04496 0.46356
#
# Static dielectric constant tensor:
#      x y z
#    x 1.813550 0.000000 0.000000 
#    y 0.000000 1.767640 0.000000 
#    z 0.000000 0.000000 1.817420 
# 
# From -- ./inp_files/15271.got.cif
#   From: 2010.05.17/outbox.cif.g08.bks.cpg/sg35_8_cif.got.tgz:15271.got - 2010.06.03 17:29:28.
