data_PCOD9349351
_publ_section_title
;
Structure prediction by ZEFSAII (Michael W. Deem and Ramdas Pophale) SiO2 
 PCOD9349351
Probable space group: C M M 2
;
_chemical_formula_sum "Si O2"
_cell_formula_units_Z 48
_cell_length_a 8.894054
_cell_length_b 15.542413
_cell_length_c 17.646198
_cell_angle_alpha 90.000000
_cell_angle_beta 90.000000
_cell_angle_gamma 90.000000
_cell_volume 2439.323248
_symmetry_space_group_name_H-M "C M M 2"
_symmetry_group_IT_number 35
_symmetry_cell_setting 'orthorhombic'
loop_
_space_group_symop_operation_xyz
x,y,z
-x,-y,z
-x,y,z
x,-y,z
1/2+x,1/2+y,z
1/2-x,1/2-y,z
1/2-x,1/2+y,z
1/2+x,1/2-y,z
loop_
_atom_site_type_symbol
_atom_site_label
_atom_site_fract_x
_atom_site_fract_y
_atom_site_fract_z
Si Si1 0.828059 0.604713 0.401010
Si Si2 0.681090 0.655718 0.717171
Si Si3 0.321611 0.000000 0.980450
Si Si4 0.322180 0.000000 0.160910
Si Si5 0.678063 0.340537 0.248076
Si Si6 0.818585 0.846328 0.885853
Si Si7 0.670300 0.397925 0.552313
O O1 0.822999 0.500000 0.397830
O O2 0.723130 0.640483 0.335108
O O3 0.773223 0.634094 0.483921
O O4 0.000000 0.631030 0.387036
O O5 0.500000 0.657431 0.715256
O O6 0.750000 0.750000 0.716375
O O7 0.720263 0.620247 0.800362
O O8 0.729315 0.614496 0.637710
O O9 0.247317 0.085035 0.944276
O O10 0.500000 0.000000 0.964504
O O11 0.300924 0.000000 0.070797
O O12 0.248022 0.916686 0.198492
O O13 0.500000 0.000000 0.177963
O O14 0.500000 0.338575 0.239959
O O15 0.750000 0.250000 0.225592
O O16 0.750000 0.750000 0.894620
O O17 0.000000 0.841216 0.892000
O O18 0.500000 0.362075 0.546713
O O19 0.659112 0.500000 0.541264
#
# Coordination Sequence:
#
# PCOD9349351 Si02
#       7
#     8   8   4   4   8   8   8
#     4  10  20  36  58  84 122 163 205 256 307 358
#     4   9  19  34  54  79 112 155 198 250 305 356
#     4  11  25  43  67  96 125 162 203 247 308 373
#     4  11  25  47  69  94 129 160 197 253 308 369
#     4  12  25  42  68  97 126 164 207 250 306 368
#     4  10  21  39  64  92 127 165 208 257 309 366
#     4   9  18  32  52  78 112 155 206 252 298 354
#
# _framework density 19.677589999999999
#
# number of rings (size 3 to 8) (size 9 to 14) (size 15 to 20)
#    0.000    1.833    0.833    3.000    1.167    4.667 
#    0.000    1.667    0.000    0.000    0.000    0.000 
#    0.000    0.000    0.000    0.000    0.000    0.000 
#
# Total GULP energy -134001.556777 kJ/mol
# GULP energy per Si atom -5583.398199 kJ/mol
# Density = 1.963280 g / cm^3
# Si number density = 19.677590 Si / 1000 Ang^3
#
#
#
# Elastic Constant Matrix: (Units=GPa)
#
#
# Indices 1 2 3 4 5 6 
#
# 1 121.5931 60.6524 81.6449 0.0000 0.0000 0.0000
# 2 60.6524 98.2751 62.0172 0.0000 0.0000 0.0000
# 3 81.6449 62.0172 121.6525 0.0000 0.0000 0.0000
# 4 0.0000 0.0000 0.0000 -113.9127 0.0000 0.0000
# 5 0.0000 0.0000 0.0000 0.0000 29.7160 0.0000
# 6 0.0000 0.0000 0.0000 0.0000 0.0000 30.1001
#
#
#
# Elastic Compliance Matrix: (Units=1/GPa)
#
#
# Indices 1 2 3 4 5 6 
#
# 1 0.016296 -0.004652 -0.008565 0.000000 0.000000 0.000000
# 2 -0.004652 0.016330 -0.005202 0.000000 0.000000 0.000000
# 3 -0.008565 -0.005202 0.016621 0.000000 0.000000 0.000000
# 4 0.000000 0.000000 0.000000 -0.008779 0.000000 0.000000
# 5 0.000000 0.000000 0.000000 0.000000 0.033652 0.000000
# 6 0.000000 0.000000 0.000000 0.000000 0.000000 0.033222
#
#
# Mechanical properties :
#
#
# Convention : Reuss Voigt Hill
#
# Bulk Modulus (GPa) = 80.60152 83.34997 81.97574
# Shear Modulus (GPa) = 33.71160 -1.67225 16.01968
#
# Velocity S-wave (km/s) = 4.14357 -0.92286 2.85635
# Velocity P-wave (km/s) = 7.99639 6.42761 7.25453
#
# Compressibility (1/GPa) = 0.01240671
#
# Stress axis : x y z
#
# Youngs Moduli (GPa) = 61.36555 61.23761 60.16664
#
# Poissons Ratio (x) = 0.28490 0.51532
# Poissons Ratio (y) = 0.28549 0.31302
# Poissons Ratio (z) = 0.52559 0.31859
#
# Static dielectric constant tensor:
#      x y z
#    x 1.678670 0.000000 0.000000 
#    y 0.000000 1.673920 0.000000 
#    z 0.000000 0.000000 1.704310 
# 
# From -- ./inp_files/17896.got.cif
#   From: 2010.05.17/outbox.cif.g08.bks.cpg/sg35_9_cif.got.tgz:17896.got - 2010.06.03 17:29:28.
