data_PCOD9349846
_publ_section_title
;
Structure prediction by ZEFSAII (Michael W. Deem and Ramdas Pophale) SiO2 
 PCOD9349846
Probable space group: C M M 2
;
_chemical_formula_sum "Si O2"
_cell_formula_units_Z 58
_cell_length_a 23.515686
_cell_length_b 19.474460
_cell_length_c 5.534886
_cell_angle_alpha 90.000000
_cell_angle_beta 90.000000
_cell_angle_gamma 90.000000
_cell_volume 2534.730303
_symmetry_space_group_name_H-M "C M M 2"
_symmetry_group_IT_number 35
_symmetry_cell_setting 'orthorhombic'
loop_
_space_group_symop_operation_xyz
x,y,z
-x,-y,z
-x,y,z
x,-y,z
1/2+x,1/2+y,z
1/2-x,1/2-y,z
1/2-x,1/2+y,z
1/2+x,1/2-y,z
loop_
_atom_site_type_symbol
_atom_site_label
_atom_site_fract_x
_atom_site_fract_y
_atom_site_fract_z
Si Si1 0.123611 0.323894 0.001880
Si Si2 0.435310 0.739644 0.647993
Si Si3 0.500000 0.500000 0.545188
Si Si4 0.561543 0.886923 0.379823
Si Si5 0.679938 0.421332 0.020568
Si Si6 0.234750 0.674076 0.285459
Si Si7 0.389996 0.599927 0.515241
Si Si8 0.323924 0.923650 0.614037
O O1 0.070143 0.366314 0.101518
O O2 0.170186 0.312189 0.203614
O O3 0.101484 0.254729 0.884868
O O4 0.157043 0.372888 0.821774
O O5 0.500000 0.720507 0.706365
O O6 0.436865 0.813158 0.514918
O O7 0.405315 0.680272 0.500843
O O8 0.448979 0.558820 0.542886
O O9 0.500000 0.918459 0.425861
O O10 0.618260 0.926601 0.453503
O O11 0.703627 0.500000 0.016551
O O12 0.725109 0.359822 0.079026
O O13 0.639829 0.419262 0.261291
O O14 0.646871 0.411371 0.763508
O O15 0.250000 0.750000 0.377423
O O16 0.227847 0.612986 0.477737
O O17 0.309726 0.000000 0.691563
#
# Coordination Sequence:
#
# PCOD9349846 Si02
#       8
#     8   8   2   8   8   8   8   8
#     4  10  22  40  65  96 131 174 230 285 350 417
#     4  10  21  39  66 101 134 182 224 290 352 427
#     4  12  24  54  68 110 148 190 238 290 362 430
#     4   9  20  39  63  96 136 170 225 281 346 414
#     4  12  27  48  70 104 144 186 244 295 358 430
#     4  11  26  44  69  96 130 180 231 300 348 420
#     4  12  27  45  73 104 143 189 236 291 359 430
#     4  10  23  42  65  95 132 178 226 279 354 421
#
# _framework density 22.882117999999998
#
# number of rings (size 3 to 8) (size 9 to 14) (size 15 to 20)
#    0.000    1.379    2.069    1.655    9.655    5.241 
#    0.000    0.000    0.000    0.000    0.000    0.000 
#    0.000    0.000    0.000    0.000    0.000    0.000 
#
# Total GULP energy -161557.137559 kJ/mol
# GULP energy per Si atom -5570.935778 kJ/mol
# Density = 2.283004 g / cm^3
# Si number density = 22.882118 Si / 1000 Ang^3
#
#
#
# Elastic Constant Matrix: (Units=GPa)
#
#
# Indices 1 2 3 4 5 6 
#
# 1 124.9312 33.0678 42.7597 0.0000 0.0000 0.0000
# 2 33.0678 105.3603 -4.5115 0.0000 0.0000 0.0000
# 3 42.7597 -4.5115 69.5125 0.0000 0.0000 0.0000
# 4 0.0000 0.0000 0.0000 -2.0801 0.0000 0.0000
# 5 0.0000 0.0000 0.0000 0.0000 17.5391 0.0000
# 6 0.0000 0.0000 0.0000 0.0000 0.0000 29.1075
#
#
#
# Elastic Compliance Matrix: (Units=1/GPa)
#
#
# Indices 1 2 3 4 5 6 
#
# 1 0.011574 -0.003948 -0.007376 0.000000 0.000000 0.000000
# 2 -0.003948 0.010865 0.003134 0.000000 0.000000 0.000000
# 3 -0.007376 0.003134 0.019126 0.000000 0.000000 0.000000
# 4 0.000000 0.000000 0.000000 -0.480740 0.000000 0.000000
# 5 0.000000 0.000000 0.000000 0.000000 0.057016 0.000000
# 6 0.000000 0.000000 0.000000 0.000000 0.000000 0.034355
#
#
# Mechanical properties :
#
#
# Convention : Reuss Voigt Hill
#
# Bulk Modulus (GPa) = 39.70694 49.15954 44.43324
# Shear Modulus (GPa) = -15.47852 24.14583 4.33365
#
# Velocity S-wave (km/s) = -2.60368 3.25195 1.37768
# Velocity P-wave (km/s) = 2.88992 5.96915 4.68947
#
# Compressibility (1/GPa) = 0.02518451
#
# Stress axis : x y z
#
# Youngs Moduli (GPa) = 86.40054 92.04157 52.28360
#
# Poissons Ratio (x) = 0.36342 0.38564
# Poissons Ratio (y) = 0.34114 -0.16385
# Poissons Ratio (z) = 0.63728 -0.28845
#
# Static dielectric constant tensor:
#      x y z
#    x 1.865040 0.000000 0.000000 
#    y 0.000000 1.860590 0.000000 
#    z 0.000000 0.000000 1.960090 
# 
# From -- ./inp_files/3763.got.cif
#   From: 2010.05.17/outbox.cif.g08.bks.cpg/sg35_2_cif.got.tgz:3763.got - 2010.06.03 17:29:28.
