data_PCOD9349180
_publ_section_title
;
Structure prediction by ZEFSAII (Michael W. Deem and Ramdas Pophale) SiO2 
 PCOD9349180
Probable space group: C M M 2
;
_chemical_formula_sum "Si O2"
_cell_formula_units_Z 48
_cell_length_a 15.844310
_cell_length_b 8.714737
_cell_length_c 17.954117
_cell_angle_alpha 90.000000
_cell_angle_beta 90.000000
_cell_angle_gamma 90.000000
_cell_volume 2479.086424
_symmetry_space_group_name_H-M "C M M 2"
_symmetry_group_IT_number 35
_symmetry_cell_setting 'orthorhombic'
loop_
_space_group_symop_operation_xyz
x,y,z
-x,-y,z
-x,y,z
x,-y,z
1/2+x,1/2+y,z
1/2-x,1/2-y,z
1/2-x,1/2+y,z
1/2+x,1/2-y,z
loop_
_atom_site_type_symbol
_atom_site_label
_atom_site_fract_x
_atom_site_fract_y
_atom_site_fract_z
Si Si1 0.843603 0.685262 0.373670
Si Si2 0.345603 0.685086 0.896183
Si Si3 0.845415 0.815862 0.527761
Si Si4 0.500000 0.315508 0.637043
Si Si5 0.656827 0.682289 0.062890
Si Si6 0.000000 0.682751 0.801698
Si Si7 0.401272 0.829778 0.213397
O O1 0.848502 0.500000 0.374872
O O2 0.750000 0.750000 0.379387
O O3 0.882386 0.750561 0.449661
O O4 0.872866 0.739167 0.292134
O O5 0.341830 0.500000 0.890672
O O6 0.250000 0.750000 0.885645
O O7 0.415617 0.749653 0.840382
O O8 0.375421 0.726992 0.980661
O O9 0.750000 0.750000 0.541046
O O10 0.914627 0.778677 0.590789
O O11 0.837780 0.000000 0.521925
O O12 0.500000 0.500000 0.648719
O O13 0.500000 0.231339 0.715654
O O14 0.658843 0.500000 0.064701
O O15 0.750000 0.750000 0.066505
O O16 0.613083 0.740651 0.137313
O O17 0.000000 0.500000 0.809783
O O18 0.500000 0.847314 0.221860
O O19 0.361042 0.000000 0.205730
#
# Coordination Sequence:
#
# PCOD9349180 Si02
#       7
#     8   8   8   4   8   4   8
#     4  10  20  35  56  80 112 152 195 241 292 345
#     4  10  22  42  66  93 127 163 206 256 308 366
#     4  10  21  39  63  90 119 156 199 245 300 357
#     4  10  24  44  64  89 124 159 194 245 304 363
#     4  10  21  37  59  84 112 152 198 244 295 349
#     4  12  26  42  66  97 126 163 204 245 308 373
#     4  10  22  36  51  79 117 156 196 243 294 343
#
# _framework density 19.361969999999999
#
# number of rings (size 3 to 8) (size 9 to 14) (size 15 to 20)
#    0.000    1.833    0.000    4.250    2.333    7.000 
#    0.000    1.667    0.000    0.000    0.000    0.000 
#    0.000    0.000    0.000    0.000    0.000    0.000 
#
# Total GULP energy -133827.746365 kJ/mol
# GULP energy per Si atom -5576.156099 kJ/mol
# Density = 1.931790 g / cm^3
# Si number density = 19.361970 Si / 1000 Ang^3
#
#
#
# Elastic Constant Matrix: (Units=GPa)
#
#
# Indices 1 2 3 4 5 6 
#
# 1 82.1930 35.2912 73.2224 0.0000 0.0000 0.0000
# 2 35.2912 66.8318 62.3152 0.0000 0.0000 0.0000
# 3 73.2224 62.3152 171.9941 0.0000 0.0000 0.0000
# 4 0.0000 0.0000 0.0000 34.6996 0.0000 0.0000
# 5 0.0000 0.0000 0.0000 0.0000 42.4379 0.0000
# 6 0.0000 0.0000 0.0000 0.0000 0.0000 19.5953
#
#
#
# Elastic Compliance Matrix: (Units=1/GPa)
#
#
# Indices 1 2 3 4 5 6 
#
# 1 0.020290 -0.004017 -0.007182 0.000000 0.000000 0.000000
# 2 -0.004017 0.023392 -0.006765 0.000000 0.000000 0.000000
# 3 -0.007182 -0.006765 0.011323 0.000000 0.000000 0.000000
# 4 0.000000 0.000000 0.000000 0.028819 0.000000 0.000000
# 5 0.000000 0.000000 0.000000 0.000000 0.023564 0.000000
# 6 0.000000 0.000000 0.000000 0.000000 0.000000 0.051033
#
#
# Mechanical properties :
#
#
# Convention : Reuss Voigt Hill
#
# Bulk Modulus (GPa) = 52.42295 73.63072 63.02684
# Shear Modulus (GPa) = 24.91179 29.35921 27.13550
#
# Velocity S-wave (km/s) = 3.59086 3.89824 3.74770
# Velocity P-wave (km/s) = 6.65781 7.64021 7.16586
#
# Compressibility (1/GPa) = 0.01907561
#
# Stress axis : x y z
#
# Youngs Moduli (GPa) = 49.28544 42.74959 88.31644
#
# Poissons Ratio (x) = 0.17174 0.63433
# Poissons Ratio (y) = 0.19799 0.59745
# Poissons Ratio (z) = 0.35399 0.28920
#
# Static dielectric constant tensor:
#      x y z
#    x 1.640500 0.000000 0.000000 
#    y 0.000000 1.700070 0.000000 
#    z 0.000000 0.000000 1.755170 
# 
# From -- ./inp_files/17081.got.cif
#   From: 2010.05.17/outbox.cif.g08.bks.cpg/sg35_9_cif.got.tgz:17081.got - 2010.06.03 17:29:28.
