data_PCOD9349923
_publ_section_title
;
Structure prediction by ZEFSAII (Michael W. Deem and Ramdas Pophale) SiO2 
 PCOD9349923
Probable space group: C M M 2
;
_chemical_formula_sum "Si O2"
_cell_formula_units_Z 48
_cell_length_a 18.057090
_cell_length_b 7.830275
_cell_length_c 17.767399
_cell_angle_alpha 90.000000
_cell_angle_beta 90.000000
_cell_angle_gamma 90.000000
_cell_volume 2512.167731
_symmetry_space_group_name_H-M "C M M 2"
_symmetry_group_IT_number 35
_symmetry_cell_setting 'orthorhombic'
loop_
_space_group_symop_operation_xyz
x,y,z
-x,-y,z
-x,y,z
x,-y,z
1/2+x,1/2+y,z
1/2-x,1/2-y,z
1/2-x,1/2+y,z
1/2+x,1/2-y,z
loop_
_atom_site_type_symbol
_atom_site_label
_atom_site_fract_x
_atom_site_fract_y
_atom_site_fract_z
Si Si1 0.909694 0.000000 0.651820
Si Si2 0.663431 0.205735 0.923596
Si Si3 0.916794 0.296058 0.077356
Si Si4 0.335337 0.297231 0.230665
Si Si5 0.913477 0.206873 0.381432
Si Si6 0.089112 0.000000 0.826393
Si Si7 0.409730 0.189537 0.547783
O O1 0.888157 0.000000 0.738717
O O2 0.884680 0.834253 0.605317
O O3 0.000000 0.000000 0.650604
O O4 0.750000 0.250000 0.918925
O O5 0.620393 0.329258 0.866106
O O6 0.652542 0.000000 0.912188
O O7 0.633303 0.255571 0.006628
O O8 0.921890 0.500000 0.072107
O O9 0.880846 0.256710 0.157460
O O10 0.000000 0.224324 0.071815
O O11 0.341196 0.500000 0.235123
O O12 0.250000 0.250000 0.222051
O O13 0.368655 0.229436 0.309097
O O14 0.886472 0.275014 0.461833
O O15 0.000000 0.253366 0.372070
O O16 0.910123 0.000000 0.385260
O O17 0.000000 0.000000 0.831510
O O18 0.500000 0.196611 0.546290
O O19 0.387446 0.000000 0.570991
#
# Coordination Sequence:
#
# PCOD9349923 Si02
#       7
#     4   8   8   8   8   4   8
#     4   9  18  34  54  85 125 152 187 247 303 360
#     4  11  23  42  66  94 126 169 211 256 310 385
#     4  10  22  39  60  87 120 152 196 256 306 354
#     4  11  23  36  53  79 113 161 202 245 294 356
#     4   9  17  32  53  78 109 146 194 250 300 350
#     4  11  24  40  66  99 128 166 207 261 326 372
#     4   9  16  28  52  83 114 150 191 241 302 360
#
# _framework density 19.107005000000001
#
# number of rings (size 3 to 8) (size 9 to 14) (size 15 to 20)
#    0.000    2.000    1.667    2.000    1.167    5.333 
#    0.000    3.333    0.000    1.000    0.000    0.000 
#    0.000    0.000    0.000    0.000    0.000    0.000 
#
# Total GULP energy -133967.040746 kJ/mol
# GULP energy per Si atom -5581.960031 kJ/mol
# Density = 1.906352 g / cm^3
# Si number density = 19.107005 Si / 1000 Ang^3
#
#
#
# Elastic Constant Matrix: (Units=GPa)
#
#
# Indices 1 2 3 4 5 6 
#
# 1 83.6217 29.2156 51.8168 0.0000 0.0000 0.0000
# 2 29.2156 103.3831 73.2859 0.0000 0.0000 0.0000
# 3 51.8168 73.2859 173.7382 0.0000 0.0000 0.0000
# 4 0.0000 0.0000 0.0000 -8.7464 0.0000 0.0000
# 5 0.0000 0.0000 0.0000 0.0000 -8.4670 0.0000
# 6 0.0000 0.0000 0.0000 0.0000 0.0000 4.9791
#
#
#
# Elastic Compliance Matrix: (Units=1/GPa)
#
#
# Indices 1 2 3 4 5 6 
#
# 1 0.014832 -0.001506 -0.003788 0.000000 0.000000 0.000000
# 2 -0.001506 0.013952 -0.005436 0.000000 0.000000 0.000000
# 3 -0.003788 -0.005436 0.009179 0.000000 0.000000 0.000000
# 4 0.000000 0.000000 0.000000 -0.114333 0.000000 0.000000
# 5 0.000000 0.000000 0.000000 0.000000 -0.118106 0.000000
# 6 0.000000 0.000000 0.000000 0.000000 0.000000 0.200839
#
#
# Mechanical properties :
#
#
# Convention : Reuss Voigt Hill
#
# Bulk Modulus (GPa) = 60.59884 74.37550 67.48717
# Shear Modulus (GPa) = 150.04229 11.31480 80.67854
#
# Velocity S-wave (km/s) = 8.87118 2.43612 6.50509
# Velocity P-wave (km/s) = 11.69251 6.85005 9.58222
#
# Compressibility (1/GPa) = 0.01650197
#
# Stress axis : x y z
#
# Youngs Moduli (GPa) = 67.42044 71.67543 108.94847
#
# Poissons Ratio (x) = 0.10794 0.41274
# Poissons Ratio (y) = 0.10154 0.59224
# Poissons Ratio (z) = 0.25542 0.38962
#
# Static dielectric constant tensor:
#      x y z
#    x 1.642820 0.000000 0.000000 
#    y 0.000000 1.680710 0.000000 
#    z 0.000000 0.000000 1.650150 
# 
# From -- ./inp_files/15266.got.cif
#   From: 2010.05.17/outbox.cif.g08.bks.cpg/sg35_8_cif.got.tgz:15266.got - 2010.06.03 17:29:28.
