data_PCOD9349606
_publ_section_title
;
Structure prediction by ZEFSAII (Michael W. Deem and Ramdas Pophale) SiO2 
 PCOD9349606
Probable space group: C M M 2
;
_chemical_formula_sum "Si O2"
_cell_formula_units_Z 40
_cell_length_a 18.647921
_cell_length_b 8.473400
_cell_length_c 13.778670
_cell_angle_alpha 90.000000
_cell_angle_beta 90.000000
_cell_angle_gamma 90.000000
_cell_volume 2177.185474
_symmetry_space_group_name_H-M "C M M 2"
_symmetry_group_IT_number 35
_symmetry_cell_setting 'orthorhombic'
loop_
_space_group_symop_operation_xyz
x,y,z
-x,-y,z
-x,y,z
x,-y,z
1/2+x,1/2+y,z
1/2-x,1/2-y,z
1/2-x,1/2+y,z
1/2+x,1/2-y,z
loop_
_atom_site_type_symbol
_atom_site_label
_atom_site_fract_x
_atom_site_fract_y
_atom_site_fract_z
Si Si1 0.417471 0.691051 0.869630
Si Si2 0.331683 0.308969 0.679849
Si Si3 0.168379 0.312612 0.054927
Si Si4 0.832348 0.189573 0.258617
Si Si5 0.667918 0.690475 0.468166
O O1 0.500000 0.741737 0.870294
O O2 0.415719 0.500000 0.870343
O O3 0.377886 0.745132 0.771366
O O4 0.376421 0.750817 0.964235
O O5 0.330470 0.500000 0.681117
O O6 0.250000 0.250000 0.688951
O O7 0.361368 0.259276 0.573442
O O8 0.170859 0.500000 0.054472
O O9 0.250000 0.250000 0.047102
O O10 0.136852 0.255661 0.158454
O O11 0.750000 0.250000 0.259972
O O12 0.864100 0.239302 0.363627
O O13 0.832327 0.000000 0.253059
O O14 0.668339 0.500000 0.467354
O O15 0.750000 0.750000 0.468397
#
# Coordination Sequence:
#
# PCOD9349606 Si02
#       5
#     8   8   8   8   8
#     4  10  21  36  52  70  96 130 166 205 248 292
#     4   9  17  30  49  73  98 125 158 197 240 286
#     4  11  21  33  51  74 100 129 164 205 245 289
#     4   9  15  25  43  68  98 127 156 194 239 286
#     4   8  14  24  41  67  97 124 152 190 235 283
#
# _framework density 18.372343999999998
#
# number of rings (size 3 to 8) (size 9 to 14) (size 15 to 20)
#    0.000    2.600    0.000    4.200    0.000    3.600 
#    0.000    0.000    0.000    1.200    0.000    5.600 
#    0.000    0.000    0.000    0.000    0.000    0.000 
#
# Total GULP energy -111385.472707 kJ/mol
# GULP energy per Si atom -5569.273635 kJ/mol
# Density = 1.833053 g / cm^3
# Si number density = 18.372344 Si / 1000 Ang^3
#
#
#
# Elastic Constant Matrix: (Units=GPa)
#
#
# Indices 1 2 3 4 5 6 
#
# 1 54.5295 15.6548 72.0477 0.0000 0.0000 0.0000
# 2 15.6548 29.6662 32.8806 0.0000 0.0000 0.0000
# 3 72.0477 32.8806 251.2558 0.0000 0.0000 0.0000
# 4 0.0000 0.0000 0.0000 30.1170 0.0000 0.0000
# 5 0.0000 0.0000 0.0000 0.0000 -5.0592 0.0000
# 6 0.0000 0.0000 0.0000 0.0000 0.0000 12.6257
#
#
#
# Elastic Compliance Matrix: (Units=1/GPa)
#
#
# Indices 1 2 3 4 5 6 
#
# 1 0.030920 -0.007590 -0.007873 0.000000 0.000000 0.000000
# 2 -0.007590 0.041290 -0.003227 0.000000 0.000000 0.000000
# 3 -0.007873 -0.003227 0.006660 0.000000 0.000000 0.000000
# 4 0.000000 0.000000 0.000000 0.033204 0.000000 0.000000
# 5 0.000000 0.000000 0.000000 0.000000 -0.197659 0.000000
# 6 0.000000 0.000000 0.000000 0.000000 0.000000 0.079204
#
#
# Mechanical properties :
#
#
# Convention : Reuss Voigt Hill
#
# Bulk Modulus (GPa) = 24.10240 64.06864 44.08552
# Shear Modulus (GPa) = 111.53328 21.86127 66.69727
#
# Velocity S-wave (km/s) = 7.79993 3.45324 6.03174
# Velocity P-wave (km/s) = 9.70906 7.13077 8.51803
#
# Compressibility (1/GPa) = 0.04148965
#
# Stress axis : x y z
#
# Youngs Moduli (GPa) = 32.34137 24.21871 150.15260
#
# Poissons Ratio (x) = 0.18383 1.18216
# Poissons Ratio (y) = 0.24549 0.48453
# Poissons Ratio (z) = 0.25462 0.07815
#
# Static dielectric constant tensor:
#      x y z
#    x 1.594690 0.000000 0.000000 
#    y 0.000000 1.615610 0.000000 
#    z 0.000000 0.000000 1.710620 
# 
# From -- ./inp_files/11022.got.cif
#   From: 2010.05.17/outbox.cif.g08.bks.cpg/sg35_6_cif.got.tgz:11022.got - 2010.06.03 17:29:28.
