data_PCOD9349680
_publ_section_title
;
Structure prediction by ZEFSAII (Michael W. Deem and Ramdas Pophale) SiO2 
 PCOD9349680
Probable space group: C M M 2
;
_chemical_formula_sum "Si O2"
_cell_formula_units_Z 56
_cell_length_a 18.694768
_cell_length_b 8.705770
_cell_length_c 18.793581
_cell_angle_alpha 90.000000
_cell_angle_beta 90.000000
_cell_angle_gamma 90.000000
_cell_volume 3058.699480
_symmetry_space_group_name_H-M "C M M 2"
_symmetry_group_IT_number 35
_symmetry_cell_setting 'orthorhombic'
loop_
_space_group_symop_operation_xyz
x,y,z
-x,-y,z
-x,y,z
x,-y,z
1/2+x,1/2+y,z
1/2-x,1/2-y,z
1/2-x,1/2+y,z
1/2+x,1/2-y,z
loop_
_atom_site_type_symbol
_atom_site_label
_atom_site_fract_x
_atom_site_fract_y
_atom_site_fract_z
Si Si1 0.916035 0.815427 0.767490
Si Si2 0.670326 0.684108 0.483472
Si Si3 0.583771 0.183643 0.615906
Si Si4 0.330823 0.684471 0.061968
Si Si5 0.830576 0.317015 0.208874
Si Si6 0.829964 0.185335 0.906082
Si Si7 0.583539 0.685328 0.341679
O O1 0.891790 0.739764 0.693766
O O2 0.874467 0.762941 0.837741
O O3 0.000000 0.780936 0.776033
O O4 0.908416 0.000000 0.761247
O O5 0.673523 0.500000 0.485773
O O6 0.750000 0.750000 0.478864
O O7 0.630529 0.744342 0.553563
O O8 0.624751 0.729572 0.413846
O O9 0.500000 0.229752 0.607786
O O10 0.587633 0.000000 0.612413
O O11 0.329189 0.500000 0.068695
O O12 0.250000 0.750000 0.059873
O O13 0.362046 0.755480 0.133899
O O14 0.361625 0.725556 0.984147
O O15 0.825819 0.500000 0.206798
O O16 0.750000 0.250000 0.216612
O O17 0.877951 0.260937 0.274472
O O18 0.750000 0.250000 0.901628
O O19 0.826495 0.000000 0.904365
O O20 0.500000 0.727053 0.345770
O O21 0.588189 0.500000 0.334760
#
# Coordination Sequence:
#
# PCOD9349680 Si02
#       7
#     8   8   8   8   8   8   8
#     4   9  18  34  54  75 103 140 180 219 262 316
#     4  11  23  39  60  85 111 140 176 218 265 315
#     4  10  21  37  57  81 109 142 180 221 267 318
#     4   9  16  29  49  74 104 137 176 220 268 318
#     4  11  21  34  55  81 109 142 181 223 268 317
#     4   9  18  31  50  76 103 135 176 221 268 316
#     4  10  22  40  60  82 109 141 177 217 264 318
#
# _framework density 18.308436
#
# number of rings (size 3 to 8) (size 9 to 14) (size 15 to 20)
#    0.000    2.143    0.000    4.286    0.000    5.714 
#    0.000    2.143    0.000    2.571    0.000    0.000 
#    0.000    0.000    0.000    0.000    0.000    0.000 
#
# Total GULP energy -156259.214832 kJ/mol
# GULP energy per Si atom -5580.686244 kJ/mol
# Density = 1.826676 g / cm^3
# Si number density = 18.308436 Si / 1000 Ang^3
#
#
#
# Elastic Constant Matrix: (Units=GPa)
#
#
# Indices 1 2 3 4 5 6 
#
# 1 89.1493 40.3329 95.7109 0.0000 0.0000 0.0000
# 2 40.3329 52.1380 66.2612 0.0000 0.0000 0.0000
# 3 95.7109 66.2612 228.1612 0.0000 0.0000 0.0000
# 4 0.0000 0.0000 0.0000 5.4512 0.0000 0.0000
# 5 0.0000 0.0000 0.0000 0.0000 105.0867 0.0000
# 6 0.0000 0.0000 0.0000 0.0000 0.0000 22.7793
#
#
#
# Elastic Compliance Matrix: (Units=1/GPa)
#
#
# Indices 1 2 3 4 5 6 
#
# 1 0.022613 -0.008619 -0.006983 0.000000 0.000000 0.000000
# 2 -0.008619 0.033685 -0.006167 0.000000 0.000000 0.000000
# 3 -0.006983 -0.006167 0.009103 0.000000 0.000000 0.000000
# 4 0.000000 0.000000 0.000000 0.183447 0.000000 0.000000
# 5 0.000000 0.000000 0.000000 0.000000 0.009516 0.000000
# 6 0.000000 0.000000 0.000000 0.000000 0.000000 0.043899
#
#
# Mechanical properties :
#
#
# Convention : Reuss Voigt Hill
#
# Bulk Modulus (GPa) = 45.73787 86.00651 65.87219
# Shear Modulus (GPa) = 14.16073 37.80632 25.98353
#
# Velocity S-wave (km/s) = 2.78412 4.54912 3.77133
# Velocity P-wave (km/s) = 5.94737 8.64124 7.41762
#
# Compressibility (1/GPa) = 0.02186372
#
# Stress axis : x y z
#
# Youngs Moduli (GPa) = 44.22141 29.68707 109.85124
#
# Poissons Ratio (x) = 0.25586 0.76710
# Poissons Ratio (y) = 0.38113 0.67746
# Poissons Ratio (z) = 0.30880 0.18308
#
# Static dielectric constant tensor:
#      x y z
#    x 1.604400 0.000000 0.000000 
#    y 0.000000 1.622880 0.000000 
#    z 0.000000 0.000000 1.645220 
# 
# From -- ./inp_files/17417.got.cif
#   From: 2010.05.17/outbox.cif.g08.bks.cpg/sg35_9_cif.got.tgz:17417.got - 2010.06.03 17:29:28.
