data_PCOD9349541
_publ_section_title
;
Structure prediction by ZEFSAII (Michael W. Deem and Ramdas Pophale) SiO2 
 PCOD9349541
Probable space group: C M M 2
;
_chemical_formula_sum "Si O2"
_cell_formula_units_Z 56
_cell_length_a 26.934857
_cell_length_b 17.726797
_cell_length_c 5.239163
_cell_angle_alpha 90.000000
_cell_angle_beta 90.000000
_cell_angle_gamma 90.000000
_cell_volume 2501.536568
_symmetry_space_group_name_H-M "C M M 2"
_symmetry_group_IT_number 35
_symmetry_cell_setting 'orthorhombic'
loop_
_space_group_symop_operation_xyz
x,y,z
-x,-y,z
-x,y,z
x,-y,z
1/2+x,1/2+y,z
1/2-x,1/2-y,z
1/2-x,1/2+y,z
1/2+x,1/2-y,z
loop_
_atom_site_type_symbol
_atom_site_label
_atom_site_fract_x
_atom_site_fract_y
_atom_site_fract_z
Si Si1 0.557092 0.136409 0.164450
Si Si2 0.146978 0.789111 0.762307
Si Si3 0.134321 0.084893 0.376640
Si Si4 0.220918 0.859603 0.074387
Si Si5 0.556525 0.315198 0.114344
Si Si6 0.728172 0.084477 0.561293
Si Si7 0.118602 0.623173 0.647022
O O1 0.500000 0.114041 0.118306
O O2 0.556985 0.227857 0.203666
O O3 0.579706 0.105077 0.424901
O O4 0.591922 0.116999 0.922360
O O5 0.159251 0.856847 0.572584
O O6 0.137951 0.709894 0.630290
O O7 0.190437 0.785607 0.976214
O O8 0.093990 0.811924 0.878621
O O9 0.173260 0.087761 0.142651
O O10 0.082840 0.125024 0.299498
O O11 0.127495 0.000000 0.467073
O O12 0.255535 0.862441 0.324322
O O13 0.251538 0.888646 0.833846
O O14 0.500000 0.335287 0.055557
O O15 0.669244 0.080150 0.596405
O O16 0.747582 0.000000 0.503479
#
# Coordination Sequence:
#
# PCOD9349541 Si02
#       7
#     8   8   8   8   8   8   8
#     4  10  20  39  68  94 123 164 204 246 312 388
#     4  10  22  40  59  90 122 161 213 262 311 365
#     4  11  21  37  59  82 120 164 208 255 301 365
#     4  11  24  42  63  88 123 169 215 250 310 382
#     4   9  20  36  56  84 120 159 204 255 306 362
#     4  12  25  43  66  92 126 168 210 260 321 385
#     4  11  23  41  64  97 129 157 208 266 312 367
#
# _framework density 22.386241999999999
#
# number of rings (size 3 to 8) (size 9 to 14) (size 15 to 20)
#    0.000    1.429    2.857    2.571    0.000    4.857 
#    2.571    0.000    0.000    2.571    0.000    0.000 
#    0.000    0.000    0.000    0.000    0.000    0.000 
#
# Total GULP energy -156317.724875 kJ/mol
# GULP energy per Si atom -5582.775888 kJ/mol
# Density = 2.233529 g / cm^3
# Si number density = 22.386242 Si / 1000 Ang^3
#
#
#
# Elastic Constant Matrix: (Units=GPa)
#
#
# Indices 1 2 3 4 5 6 
#
# 1 153.1047 21.7837 53.2104 0.0000 0.0000 0.0000
# 2 21.7837 34.2309 30.3193 0.0000 0.0000 0.0000
# 3 53.2104 30.3193 119.5708 0.0000 0.0000 0.0000
# 4 0.0000 0.0000 0.0000 5.6166 0.0000 0.0000
# 5 0.0000 0.0000 0.0000 0.0000 32.9075 0.0000
# 6 0.0000 0.0000 0.0000 0.0000 0.0000 13.1691
#
#
#
# Elastic Compliance Matrix: (Units=1/GPa)
#
#
# Indices 1 2 3 4 5 6 
#
# 1 0.007884 -0.002463 -0.002884 0.000000 0.000000 0.000000
# 2 -0.002463 0.038444 -0.008652 0.000000 0.000000 0.000000
# 3 -0.002884 -0.008652 0.011841 0.000000 0.000000 0.000000
# 4 0.000000 0.000000 0.000000 0.178044 0.000000 0.000000
# 5 0.000000 0.000000 0.000000 0.000000 0.030388 0.000000
# 6 0.000000 0.000000 0.000000 0.000000 0.000000 0.075936
#
#
# Mechanical properties :
#
#
# Convention : Reuss Voigt Hill
#
# Bulk Modulus (GPa) = 33.14465 57.50370 45.32417
# Shear Modulus (GPa) = 13.13744 23.77817 18.45780
#
# Velocity S-wave (km/s) = 2.42513 3.26264 2.87455
# Velocity P-wave (km/s) = 4.76232 6.31949 5.59534
#
# Compressibility (1/GPa) = 0.03017078
#
# Stress axis : x y z
#
# Youngs Moduli (GPa) = 126.83552 26.01176 84.45505
#
# Poissons Ratio (x) = 0.06406 0.24358
# Poissons Ratio (y) = 0.31237 0.73072
# Poissons Ratio (z) = 0.36580 0.22506
#
# Static dielectric constant tensor:
#      x y z
#    x 1.811320 0.000000 0.000000 
#    y 0.000000 1.882910 0.000000 
#    z 0.000000 0.000000 1.862470 
# 
# From -- ./inp_files/3776.got.cif
#   From: 2010.05.17/outbox.cif.g08.bks.cpg/sg35_2_cif.got.tgz:3776.got - 2010.06.03 17:29:28.
