data_PCOD9349706
_publ_section_title
;
Structure prediction by ZEFSAII (Michael W. Deem and Ramdas Pophale) SiO2 
 PCOD9349706
Probable space group: C M M 2
;
_chemical_formula_sum "Si O2"
_cell_formula_units_Z 64
_cell_length_a 28.577624
_cell_length_b 8.723708
_cell_length_c 13.240802
_cell_angle_alpha 90.000000
_cell_angle_beta 90.000000
_cell_angle_gamma 90.000000
_cell_volume 3300.969637
_symmetry_space_group_name_H-M "C M M 2"
_symmetry_group_IT_number 35
_symmetry_cell_setting 'orthorhombic'
loop_
_space_group_symop_operation_xyz
x,y,z
-x,-y,z
-x,y,z
x,-y,z
1/2+x,1/2+y,z
1/2-x,1/2-y,z
1/2-x,1/2+y,z
1/2+x,1/2-y,z
loop_
_atom_site_type_symbol
_atom_site_label
_atom_site_fract_x
_atom_site_fract_y
_atom_site_fract_z
Si Si1 0.054470 0.818012 0.942340
Si Si2 0.302472 0.316924 0.823556
Si Si3 0.646233 0.316301 0.416927
Si Si4 0.802235 0.683608 0.222224
Si Si5 0.302680 0.183728 0.613242
Si Si6 0.443187 0.826502 0.729110
Si Si7 0.144733 0.682381 0.015408
Si Si8 0.446577 0.683917 0.515100
O O1 0.068068 0.772867 0.827384
O O2 0.090636 0.732058 0.014301
O O3 0.000000 0.774775 0.957225
O O4 0.058623 0.000000 0.954536
O O5 0.300631 0.500000 0.814204
O O6 0.250000 0.250000 0.834598
O O7 0.322434 0.245203 0.719905
O O8 0.331048 0.267168 0.921580
O O9 0.651801 0.500000 0.417527
O O10 0.669781 0.248508 0.317738
O O11 0.670671 0.247149 0.516131
O O12 0.591203 0.279106 0.429621
O O13 0.799807 0.500000 0.229649
O O14 0.750000 0.750000 0.220963
O O15 0.829051 0.723756 0.118765
O O16 0.250000 0.250000 0.607945
O O17 0.301901 0.000000 0.613457
O O18 0.500000 0.831902 0.727227
O O19 0.430438 0.756962 0.621064
O O20 0.425442 0.000000 0.740629
O O21 0.148595 0.500000 0.000606
O O22 0.500000 0.732574 0.493783
O O23 0.446750 0.500000 0.528432
#
# Coordination Sequence:
#
# PCOD9349706 Si02
#       8
#     8   8   8   8   8   8   8   8
#     4  10  21  37  58  86 122 163 206 252 301 358
#     4  11  22  38  60  88 123 158 197 245 304 370
#     4  11  23  39  62  89 120 158 203 250 305 362
#     4  11  25  45  68  92 119 153 199 252 307 366
#     4  11  22  38  59  85 121 158 197 245 302 366
#     4   9  17  30  51  80 116 158 200 244 294 349
#     4  11  24  41  63  90 120 158 204 252 307 366
#     4   9  19  36  57  83 118 159 203 248 295 352
#
# _framework density 19.388242999999999
#
# number of rings (size 3 to 8) (size 9 to 14) (size 15 to 20)
#    0.000    1.625    0.000    5.625    1.750    6.250 
#    0.000    0.625    0.000    2.250    0.000    0.000 
#    0.000    0.000    0.000    0.000    0.000    0.000 
#
# Total GULP energy -178901.585919 kJ/mol
# GULP energy per Si atom -5590.674560 kJ/mol
# Density = 1.934411 g / cm^3
# Si number density = 19.388243 Si / 1000 Ang^3
#
#
#
# Elastic Constant Matrix: (Units=GPa)
#
#
# Indices 1 2 3 4 5 6 
#
# 1 117.0495 48.8582 80.9651 0.0000 0.0000 0.0000
# 2 48.8582 92.3512 63.0154 0.0000 0.0000 0.0000
# 3 80.9651 63.0154 144.7851 0.0000 0.0000 0.0000
# 4 0.0000 0.0000 0.0000 28.4514 0.0000 0.0000
# 5 0.0000 0.0000 0.0000 0.0000 37.7366 0.0000
# 6 0.0000 0.0000 0.0000 0.0000 0.0000 25.3353
#
#
#
# Elastic Compliance Matrix: (Units=1/GPa)
#
#
# Indices 1 2 3 4 5 6 
#
# 1 0.014510 -0.003044 -0.006790 0.000000 0.000000 0.000000
# 2 -0.003044 0.016041 -0.005279 0.000000 0.000000 0.000000
# 3 -0.006790 -0.005279 0.013001 0.000000 0.000000 0.000000
# 4 0.000000 0.000000 0.000000 0.035148 0.000000 0.000000
# 5 0.000000 0.000000 0.000000 0.000000 0.026499 0.000000
# 6 0.000000 0.000000 0.000000 0.000000 0.000000 0.039471
#
#
# Mechanical properties :
#
#
# Convention : Reuss Voigt Hill
#
# Bulk Modulus (GPa) = 75.03543 82.20702 78.62122
# Shear Modulus (GPa) = 27.88023 29.06112 28.47067
#
# Velocity S-wave (km/s) = 3.79621 3.87577 3.83619
# Velocity P-wave (km/s) = 7.61580 7.90704 7.76279
#
# Compressibility (1/GPa) = 0.01332704
#
# Stress axis : x y z
#
# Youngs Moduli (GPa) = 68.91620 62.34032 76.91523
#
# Poissons Ratio (x) = 0.18976 0.52222
# Poissons Ratio (y) = 0.20977 0.40607
# Poissons Ratio (z) = 0.46791 0.32912
#
# Static dielectric constant tensor:
#      x y z
#    x 1.727930 0.000000 0.000000 
#    y 0.000000 1.650360 0.000000 
#    z 0.000000 0.000000 1.639630 
# 
# From -- ./inp_files/11875.got.cif
#   From: 2010.05.17/outbox.cif.g08.bks.cpg/sg35_6_cif.got.tgz:11875.got - 2010.06.03 17:29:28.
