data_PCOD9349430
_publ_section_title
;
Structure prediction by ZEFSAII (Michael W. Deem and Ramdas Pophale) SiO2 
 PCOD9349430
Probable space group: C M M 2
;
_chemical_formula_sum "Si O2"
_cell_formula_units_Z 64
_cell_length_a 17.786975
_cell_length_b 15.581707
_cell_length_c 10.842743
_cell_angle_alpha 90.000000
_cell_angle_beta 90.000000
_cell_angle_gamma 90.000000
_cell_volume 3005.081759
_symmetry_space_group_name_H-M "C M M 2"
_symmetry_group_IT_number 35
_symmetry_cell_setting 'orthorhombic'
loop_
_space_group_symop_operation_xyz
x,y,z
-x,-y,z
-x,y,z
x,-y,z
1/2+x,1/2+y,z
1/2-x,1/2-y,z
1/2-x,1/2+y,z
1/2+x,1/2-y,z
loop_
_atom_site_type_symbol
_atom_site_label
_atom_site_fract_x
_atom_site_fract_y
_atom_site_fract_z
Si Si1 0.846219 0.902946 0.346520
Si Si2 0.913119 0.103639 0.079231
Si Si3 0.583540 0.899603 0.054394
Si Si4 0.673077 0.765907 0.456055
Si Si5 0.915890 0.677728 0.788045
Si Si6 0.168039 0.404073 0.288487
Si Si7 0.288960 0.905322 0.661072
Si Si8 0.186790 0.820233 0.859875
O O1 0.886530 0.876125 0.218643
O O2 0.860576 0.829520 0.450680
O O3 0.756969 0.910249 0.315657
O O4 0.870893 0.000000 0.380683
O O5 0.000000 0.131620 0.059372
O O6 0.910785 0.000000 0.069445
O O7 0.857078 0.141073 0.975910
O O8 0.500000 0.889576 0.110744
O O9 0.648869 0.878072 0.149407
O O10 0.591337 0.000000 0.019322
O O11 0.585602 0.843236 0.932770
O O12 0.750000 0.750000 0.379450
O O13 0.628637 0.836034 0.378171
O O14 0.705698 0.824245 0.568128
O O15 0.870308 0.602184 0.723424
O O16 0.871969 0.766893 0.776203
O O17 0.000000 0.683619 0.742282
O O18 0.136799 0.500000 0.304785
O O19 0.229260 0.886543 0.769466
O O20 0.276514 0.000000 0.605554
O O21 0.250000 0.750000 0.897128
#
# Coordination Sequence:
#
# PCOD9349430 Si02
#       8
#     8   8   8   8   8   8   8   8
#     4   9  20  35  56  86 119 159 206 259 321 385
#     4  10  21  38  60  89 129 171 209 258 322 386
#     4   9  18  32  51  79 117 158 199 247 311 380
#     4  10  20  37  59  83 117 154 207 257 313 370
#     4  10  21  37  57  84 122 164 205 253 316 380
#     4   9  18  32  53  80 111 152 199 250 306 367
#     4  11  23  40  63  90 121 163 216 268 315 372
#     4  10  22  36  58  90 123 162 213 264 314 379
#
# _framework density 21.297257999999999
#
# number of rings (size 3 to 8) (size 9 to 14) (size 15 to 20)
#    0.000    2.250    0.000    2.625    5.250    1.750 
#    0.000    1.250    0.000    1.500    0.000    0.000 
#    0.000    0.000    0.000    0.000    0.000    0.000 
#
# Total GULP energy -178187.800483 kJ/mol
# GULP energy per Si atom -5568.368765 kJ/mol
# Density = 2.124878 g / cm^3
# Si number density = 21.297258 Si / 1000 Ang^3
#
#
#
# Elastic Constant Matrix: (Units=GPa)
#
#
# Indices 1 2 3 4 5 6 
#
# 1 80.4957 31.4865 25.3632 0.0000 0.0000 0.0000
# 2 31.4865 123.3120 51.9752 0.0000 0.0000 0.0000
# 3 25.3632 51.9752 69.5980 0.0000 0.0000 0.0000
# 4 0.0000 0.0000 0.0000 34.0122 0.0000 0.0000
# 5 0.0000 0.0000 0.0000 0.0000 -1.0104 0.0000
# 6 0.0000 0.0000 0.0000 0.0000 0.0000 10.5742
#
#
#
# Elastic Compliance Matrix: (Units=1/GPa)
#
#
# Indices 1 2 3 4 5 6 
#
# 1 0.014411 -0.002140 -0.003654 0.000000 0.000000 0.000000
# 2 -0.002140 0.012152 -0.008296 0.000000 0.000000 0.000000
# 3 -0.003654 -0.008296 0.021895 0.000000 0.000000 0.000000
# 4 0.000000 0.000000 0.000000 0.029401 0.000000 0.000000
# 5 0.000000 0.000000 0.000000 0.000000 -0.989704 0.000000
# 6 0.000000 0.000000 0.000000 0.000000 0.000000 0.094570
#
#
# Mechanical properties :
#
#
# Convention : Reuss Voigt Hill
#
# Bulk Modulus (GPa) = 49.30913 54.56172 51.93543
# Shear Modulus (GPa) = -6.39111 19.68724 6.64806
#
# Velocity S-wave (km/s) = -1.73419 3.04370 1.76871
# Velocity P-wave (km/s) = 4.38100 6.16659 5.34883
#
# Compressibility (1/GPa) = 0.02028022
#
# Stress axis : x y z
#
# Youngs Moduli (GPa) = 69.39005 82.28851 45.67284
#
# Poissons Ratio (x) = 0.17607 0.16689
# Poissons Ratio (y) = 0.14847 0.37888
# Poissons Ratio (z) = 0.25355 0.68263
#
# Static dielectric constant tensor:
#      x y z
#    x 1.808430 0.000000 0.000000 
#    y 0.000000 1.855900 0.000000 
#    z 0.000000 0.000000 1.819580 
# 
# From -- ./inp_files/13612.got.cif
#   From: 2010.05.17/outbox.cif.g08.bks.cpg/sg35_7_cif.got.tgz:13612.got - 2010.06.03 17:29:28.
