data_PCOD9349583
_publ_section_title
;
Structure prediction by ZEFSAII (Michael W. Deem and Ramdas Pophale) SiO2 
 PCOD9349583
Probable space group: C M M 2
;
_chemical_formula_sum "Si O2"
_cell_formula_units_Z 48
_cell_length_a 37.856862
_cell_length_b 14.331768
_cell_length_c 5.158659
_cell_angle_alpha 90.000000
_cell_angle_beta 90.000000
_cell_angle_gamma 90.000000
_cell_volume 2798.860172
_symmetry_space_group_name_H-M "C M M 2"
_symmetry_group_IT_number 35
_symmetry_cell_setting 'orthorhombic'
loop_
_space_group_symop_operation_xyz
x,y,z
-x,-y,z
-x,y,z
x,-y,z
1/2+x,1/2+y,z
1/2-x,1/2-y,z
1/2-x,1/2+y,z
1/2+x,1/2-y,z
loop_
_atom_site_type_symbol
_atom_site_label
_atom_site_fract_x
_atom_site_fract_y
_atom_site_fract_z
Si Si1 0.754458 0.103132 0.211380
Si Si2 0.039696 0.388535 0.135832
Si Si3 0.722076 0.174091 0.731101
Si Si4 0.662288 0.613218 0.197871
Si Si5 0.646185 0.732218 0.708044
Si Si6 0.914233 0.387261 0.628562
O O1 0.733212 0.154545 0.436862
O O2 0.758494 0.000000 0.322556
O O3 0.731448 0.099171 0.949739
O O4 0.795310 0.132608 0.172466
O O5 0.036609 0.500000 0.169868
O O6 0.057269 0.374552 0.857194
O O7 0.000000 0.349259 0.156206
O O8 0.066685 0.360293 0.360523
O O9 0.750000 0.250000 0.827437
O O10 0.682949 0.212187 0.737016
O O11 0.657523 0.500000 0.198570
O O12 0.643351 0.664848 0.957832
O O13 0.649394 0.664148 0.459349
O O14 0.617067 0.813639 0.678563
O O15 0.904500 0.500000 0.623967
#
# Coordination Sequence:
#
# PCOD9349583 Si02
#       6
#     8   8   8   8   8   8
#     4  11  22  36  53  73  95 130 187 241 274 323
#     4   9  17  33  57  81 111 151 184 213 249 306
#     4  12  21  36  53  73 100 136 185 224 283 337
#     4  11  22  38  56  77  99 136 189 243 282 313
#     4  12  23  36  57  77 113 146 174 230 286 327
#     4  10  21  35  52  83 121 149 179 212 261 330
#
# _framework density 17.149839
#
# number of rings (size 3 to 8) (size 9 to 14) (size 15 to 20)
#    0.000    1.167    3.333    4.000    0.000    6.000 
#    0.000    1.667    0.000    0.000    0.000    0.000 
#    0.000   46.667    0.000    0.000    0.000    0.000 
#
# Total GULP energy -133687.868836 kJ/mol
# GULP energy per Si atom -5570.327868 kJ/mol
# Density = 1.711081 g / cm^3
# Si number density = 17.149839 Si / 1000 Ang^3
#
#
#
# Elastic Constant Matrix: (Units=GPa)
#
#
# Indices 1 2 3 4 5 6 
#
# 1 66.3089 34.8590 -3.0918 0.0000 0.0000 0.0000
# 2 34.8590 83.3763 25.3889 0.0000 0.0000 0.0000
# 3 -3.0918 25.3889 85.0309 0.0000 0.0000 0.0000
# 4 0.0000 0.0000 0.0000 49.3898 0.0000 0.0000
# 5 0.0000 0.0000 0.0000 0.0000 -10.5422 0.0000
# 6 0.0000 0.0000 0.0000 0.0000 0.0000 24.2620
#
#
#
# Elastic Compliance Matrix: (Units=1/GPa)
#
#
# Indices 1 2 3 4 5 6 
#
# 1 0.020282 -0.009575 0.003596 0.000000 0.000000 0.000000
# 2 -0.009575 0.017714 -0.005637 0.000000 0.000000 0.000000
# 3 0.003596 -0.005637 0.013574 0.000000 0.000000 0.000000
# 4 0.000000 0.000000 0.000000 0.020247 0.000000 0.000000
# 5 0.000000 0.000000 0.000000 0.000000 -0.094856 0.000000
# 6 0.000000 0.000000 0.000000 0.000000 0.000000 0.041217
#
#
# Mechanical properties :
#
#
# Convention : Reuss Voigt Hill
#
# Bulk Modulus (GPa) = 35.28734 38.78093 37.03413
# Shear Modulus (GPa) = 98.31807 24.45926 61.38867
#
# Velocity S-wave (km/s) = 7.57980 3.78062 5.98942
# Velocity P-wave (km/s) = 9.86027 6.45906 8.33500
#
# Compressibility (1/GPa) = 0.02833878
#
# Stress axis : x y z
#
# Youngs Moduli (GPa) = 49.30413 56.45368 73.66817
#
# Poissons Ratio (x) = 0.54055 -0.26494
# Poissons Ratio (y) = 0.47209 0.41528
# Poissons Ratio (z) = -0.17732 0.31824
#
# Static dielectric constant tensor:
#      x y z
#    x 1.567630 0.000000 0.000000 
#    y 0.000000 1.617520 0.000000 
#    z 0.000000 0.000000 1.612120 
# 
# From -- ./inp_files/3995.got.cif
#   From: 2010.05.17/outbox.cif.g08.bks.cpg/sg35_2_cif.got.tgz:3995.got - 2010.06.03 17:29:28.
