data_PCOD9349803
_publ_section_title
;
Structure prediction by ZEFSAII (Michael W. Deem and Ramdas Pophale) SiO2 
 PCOD9349803
Probable space group: C M M 2
;
_chemical_formula_sum "Si O2"
_cell_formula_units_Z 58
_cell_length_a 18.227900
_cell_length_b 25.790908
_cell_length_c 6.337864
_cell_angle_alpha 90.000000
_cell_angle_beta 90.000000
_cell_angle_gamma 90.000000
_cell_volume 2979.519179
_symmetry_space_group_name_H-M "C M M 2"
_symmetry_group_IT_number 35
_symmetry_cell_setting 'orthorhombic'
loop_
_space_group_symop_operation_xyz
x,y,z
-x,-y,z
-x,y,z
x,-y,z
1/2+x,1/2+y,z
1/2-x,1/2-y,z
1/2-x,1/2+y,z
1/2+x,1/2-y,z
loop_
_atom_site_type_symbol
_atom_site_label
_atom_site_fract_x
_atom_site_fract_y
_atom_site_fract_z
Si Si1 0.419157 0.097415 0.481780
Si Si2 0.321700 0.633669 0.410211
Si Si3 0.218395 0.940765 0.788563
Si Si4 0.500000 0.000000 0.639049
Si Si5 0.414959 0.301387 0.718608
Si Si6 0.586525 0.182633 0.831497
Si Si7 0.188679 0.379110 0.129695
Si Si8 0.415329 0.601913 0.030607
O O1 0.500000 0.109058 0.383841
O O2 0.398338 0.145503 0.630424
O O3 0.360415 0.089994 0.298893
O O4 0.436766 0.046235 0.618515
O O5 0.288864 0.593241 0.578441
O O6 0.359121 0.679485 0.540599
O O7 0.256057 0.647408 0.252377
O O8 0.384539 0.607793 0.266103
O O9 0.235730 0.000000 0.743275
O O10 0.276116 0.915499 0.950663
O O11 0.139427 0.935321 0.904027
O O12 0.500000 0.304193 0.644655
O O13 0.399813 0.242670 0.783991
O O14 0.408762 0.342196 0.911886
O O15 0.500000 0.176403 0.878311
O O16 0.636269 0.162223 0.019588
O O17 0.500000 0.586305 0.024838
#
# Coordination Sequence:
#
# PCOD9349803 Si02
#       8
#     8   8   8   2   8   8   8   8
#     4   9  20  39  60  85 115 147 199 247 290 340
#     4  10  21  39  58  86 119 155 196 233 293 357
#     4  10  23  40  58  82 117 156 194 241 295 351
#     4   8  20  40  62  88 112 150 202 252 292 344
#     4   9  19  38  65  88 116 152 195 243 292 344
#     4  10  21  40  61  90 120 152 195 247 294 342
#     4  11  22  39  58  84 119 156 197 239 287 357
#     4   9  19  38  62  88 113 148 196 240 289 355
#
# _framework density 19.466229999999999
#
# number of rings (size 3 to 8) (size 9 to 14) (size 15 to 20)
#    0.414    1.931    0.000    1.655    0.966    4.138 
#    3.724   21.379    0.000    0.000    0.000    0.000 
#    0.000    0.000    0.000    0.000    0.000    0.000 
#
# Total GULP energy -161529.609673 kJ/mol
# GULP energy per Si atom -5569.986540 kJ/mol
# Density = 1.942192 g / cm^3
# Si number density = 19.466230 Si / 1000 Ang^3
#
#
#
# Elastic Constant Matrix: (Units=GPa)
#
#
# Indices 1 2 3 4 5 6 
#
# 1 84.6337 23.5346 37.2851 0.0000 0.0000 0.0000
# 2 23.5346 101.3580 21.0443 0.0000 0.0000 0.0000
# 3 37.2851 21.0443 58.0089 0.0000 0.0000 0.0000
# 4 0.0000 0.0000 0.0000 3.5504 0.0000 0.0000
# 5 0.0000 0.0000 0.0000 0.0000 34.0800 0.0000
# 6 0.0000 0.0000 0.0000 0.0000 0.0000 3.3670
#
#
#
# Elastic Compliance Matrix: (Units=1/GPa)
#
#
# Indices 1 2 3 4 5 6 
#
# 1 0.016779 -0.001792 -0.010134 0.000000 0.000000 0.000000
# 2 -0.001792 0.010861 -0.002789 0.000000 0.000000 0.000000
# 3 -0.010134 -0.002789 0.024764 0.000000 0.000000 0.000000
# 4 0.000000 0.000000 0.000000 0.281655 0.000000 0.000000
# 5 0.000000 0.000000 0.000000 0.000000 0.029343 0.000000
# 6 0.000000 0.000000 0.000000 0.000000 0.000000 0.297003
#
#
# Mechanical properties :
#
#
# Convention : Reuss Voigt Hill
#
# Bulk Modulus (GPa) = 43.52647 45.30320 44.41483
# Shear Modulus (GPa) = 7.16854 19.00859 13.08857
#
# Velocity S-wave (km/s) = 1.92108 3.12827 2.59583
# Velocity P-wave (km/s) = 5.22774 6.03087 5.64361
#
# Compressibility (1/GPa) = 0.02297452
#
# Stress axis : x y z
#
# Youngs Moduli (GPa) = 59.60005 92.07250 40.38096
#
# Poissons Ratio (x) = 0.16497 0.40923
# Poissons Ratio (y) = 0.10679 0.11260
# Poissons Ratio (z) = 0.60401 0.25674
#
# Static dielectric constant tensor:
#      x y z
#    x 1.713150 0.000000 0.000000 
#    y 0.000000 1.636520 0.000000 
#    z 0.000000 0.000000 1.686770 
# 
# From -- ./inp_files/2663.got.cif
#   From: 2010.05.17/outbox.cif.g08.bks.cpg/sg35_2_cif.got.tgz:2663.got - 2010.06.03 17:29:28.
