data_PCOD9349526
_publ_section_title
;
Structure prediction by ZEFSAII (Michael W. Deem and Ramdas Pophale) SiO2 
 PCOD9349526
Probable space group: C M M 2
;
_chemical_formula_sum "Si O2"
_cell_formula_units_Z 40
_cell_length_a 7.871993
_cell_length_b 17.981095
_cell_length_c 14.820560
_cell_angle_alpha 90.000000
_cell_angle_beta 90.000000
_cell_angle_gamma 90.000000
_cell_volume 2097.806606
_symmetry_space_group_name_H-M "C M M 2"
_symmetry_group_IT_number 35
_symmetry_cell_setting 'orthorhombic'
loop_
_space_group_symop_operation_xyz
x,y,z
-x,-y,z
-x,y,z
x,-y,z
1/2+x,1/2+y,z
1/2-x,1/2-y,z
1/2-x,1/2+y,z
1/2+x,1/2-y,z
loop_
_atom_site_type_symbol
_atom_site_label
_atom_site_fract_x
_atom_site_fract_y
_atom_site_fract_z
Si Si1 0.188044 0.588785 0.586150
Si Si2 0.204223 0.414835 0.948733
Si Si3 0.203514 0.663142 0.138448
Si Si4 0.500000 0.409536 0.462464
Si Si5 0.000000 0.910469 0.253889
Si Si6 0.303303 0.335062 0.765402
O O1 0.208870 0.500000 0.600389
O O2 0.333925 0.614396 0.517949
O O3 0.204465 0.628057 0.682561
O O4 0.000000 0.601757 0.548588
O O5 0.262275 0.500000 0.959160
O O6 0.276047 0.378585 0.858441
O O7 0.000000 0.415298 0.939413
O O8 0.242706 0.368114 0.038329
O O9 0.250000 0.750000 0.142207
O O10 0.330327 0.620475 0.205763
O O11 0.000000 0.652603 0.155223
O O12 0.500000 0.500000 0.462006
O O13 0.500000 0.386460 0.358635
O O14 0.000000 0.000000 0.248839
O O15 0.500000 0.338468 0.740387
O O16 0.250000 0.250000 0.778259
#
# Coordination Sequence:
#
# PCOD9349526 Si02
#       6
#     8   8   8   4   4   8
#     4  10  20  38  64  90 121 160 203 255 310 368
#     4  10  22  39  60  91 125 162 210 258 307 372
#     4  11  23  42  67  94 132 172 216 261 325 387
#     4   9  20  40  63  93 123 155 207 259 314 372
#     4  11  24  42  69  99 130 165 215 277 325 382
#     4  12  24  37  57  85 125 165 210 252 308 373
#
# _framework density 19.067533999999998
#
# number of rings (size 3 to 8) (size 9 to 14) (size 15 to 20)
#    0.000    1.400    2.000    3.600    1.400    6.400 
#    0.000    3.000    0.000    0.000    0.000    0.000 
#    0.000    0.000    0.000    0.000    0.000    0.000 
#
# Total GULP energy -111757.880780 kJ/mol
# GULP energy per Si atom -5587.894039 kJ/mol
# Density = 1.902414 g / cm^3
# Si number density = 19.067534 Si / 1000 Ang^3
#
#
#
# Elastic Constant Matrix: (Units=GPa)
#
#
# Indices 1 2 3 4 5 6 
#
# 1 119.8284 44.8128 66.4167 0.0000 0.0000 0.0000
# 2 44.8128 97.8160 48.9911 0.0000 0.0000 0.0000
# 3 66.4167 48.9911 134.2137 0.0000 0.0000 0.0000
# 4 0.0000 0.0000 0.0000 -26.3105 0.0000 0.0000
# 5 0.0000 0.0000 0.0000 0.0000 1.4165 0.0000
# 6 0.0000 0.0000 0.0000 0.0000 0.0000 9.3179
#
#
#
# Elastic Compliance Matrix: (Units=1/GPa)
#
#
# Indices 1 2 3 4 5 6 
#
# 1 0.012245 -0.003151 -0.004909 0.000000 0.000000 0.000000
# 2 -0.003151 0.013321 -0.003303 0.000000 0.000000 0.000000
# 3 -0.004909 -0.003303 0.011086 0.000000 0.000000 0.000000
# 4 0.000000 0.000000 0.000000 -0.038008 0.000000 0.000000
# 5 0.000000 0.000000 0.000000 0.000000 0.705984 0.000000
# 6 0.000000 0.000000 0.000000 0.000000 0.000000 0.107321
#
#
# Mechanical properties :
#
#
# Convention : Reuss Voigt Hill
#
# Bulk Modulus (GPa) = 71.81328 74.69993 73.25661
# Shear Modulus (GPa) = 5.95722 9.66059 7.80891
#
# Velocity S-wave (km/s) = 1.76948 2.25333 2.02590
# Velocity P-wave (km/s) = 6.47450 6.78466 6.63139
#
# Compressibility (1/GPa) = 0.01392500
#
# Stress axis : x y z
#
# Youngs Moduli (GPa) = 81.66850 75.06783 90.20428
#
# Poissons Ratio (x) = 0.23653 0.44283
# Poissons Ratio (y) = 0.25733 0.29797
# Poissons Ratio (z) = 0.40093 0.24797
#
# Static dielectric constant tensor:
#      x y z
#    x 1.679710 0.000000 0.000000 
#    y 0.000000 1.633070 0.000000 
#    z 0.000000 0.000000 1.618410 
# 
# From -- ./inp_files/14804.got.cif
#   From: 2010.05.17/outbox.cif.g08.bks.cpg/sg35_8_cif.got.tgz:14804.got - 2010.06.03 17:29:28.
