data_PCOD9349184
_publ_section_title
;
Structure prediction by ZEFSAII (Michael W. Deem and Ramdas Pophale) SiO2 
 PCOD9349184
Probable space group: C M M 2
;
_chemical_formula_sum "Si O2"
_cell_formula_units_Z 64
_cell_length_a 15.049469
_cell_length_b 26.019417
_cell_length_c 7.262913
_cell_angle_alpha 90.000000
_cell_angle_beta 90.000000
_cell_angle_gamma 90.000000
_cell_volume 2843.999921
_symmetry_space_group_name_H-M "C M M 2"
_symmetry_group_IT_number 35
_symmetry_cell_setting 'orthorhombic'
loop_
_space_group_symop_operation_xyz
x,y,z
-x,-y,z
-x,y,z
x,-y,z
1/2+x,1/2+y,z
1/2-x,1/2-y,z
1/2-x,1/2+y,z
1/2+x,1/2-y,z
loop_
_atom_site_type_symbol
_atom_site_label
_atom_site_fract_x
_atom_site_fract_y
_atom_site_fract_z
Si Si1 0.849167 0.557085 0.472560
Si Si2 0.652132 0.636961 0.808516
Si Si3 0.141772 0.752160 0.805816
Si Si4 0.639087 0.442031 0.523359
Si Si5 0.394511 0.353196 0.229201
Si Si6 0.361936 0.142402 0.748146
Si Si7 0.102932 0.257707 0.238914
Si Si8 0.395833 0.867906 0.179383
O O1 0.887802 0.500000 0.478141
O O2 0.745799 0.553156 0.524728
O O3 0.892717 0.598290 0.610632
O O4 0.852858 0.582843 0.272327
O O5 0.611881 0.691570 0.743502
O O6 0.611786 0.587356 0.710389
O O7 0.754954 0.640422 0.750641
O O8 0.647094 0.635847 0.029220
O O9 0.250000 0.750000 0.810478
O O10 0.110855 0.700997 0.701700
O O11 0.108933 0.747338 0.016082
O O12 0.603931 0.500000 0.501525
O O13 0.618007 0.401129 0.363500
O O14 0.500000 0.346335 0.199287
O O15 0.359760 0.297491 0.303340
O O16 0.387853 0.132579 0.959546
O O17 0.143210 0.314660 0.264745
O O18 0.000000 0.260391 0.295007
O O19 0.500000 0.869194 0.222575
#
# Coordination Sequence:
#
# PCOD9349184 Si02
#       8
#     8   8   8   8   8   8   8   8
#     4  10  22  38  54  75 105 142 183 222 260 307
#     4   9  18  34  55  78 105 138 175 217 265 314
#     4   8  14  27  50  78 103 129 169 217 261 309
#     4  10  22  38  54  75 105 142 183 222 260 307
#     4  10  20  35  56  81 109 140 173 214 264 315
#     4   9  18  34  55  78 105 138 175 217 265 314
#     4   8  16  31  50  76 109 139 167 203 257 321
#     4  10  20  35  56  81 109 140 173 214 264 315
#
# _framework density 22.503519000000001
#
# number of rings (size 3 to 8) (size 9 to 14) (size 15 to 20)
#    0.000    2.750    0.000    0.750    0.000    4.500 
#    0.000    3.750    0.000    4.500    0.000    0.000 
#    0.000    0.000    0.000    0.000    0.000    0.000 
#
# Total GULP energy -178523.664185 kJ/mol
# GULP energy per Si atom -5578.864506 kJ/mol
# Density = 2.245230 g / cm^3
# Si number density = 22.503519 Si / 1000 Ang^3
#
#
#
# Elastic Constant Matrix: (Units=GPa)
#
#
# Indices 1 2 3 4 5 6 
#
# 1 57.6653 8.6157 -13.8371 0.0000 0.0000 0.0000
# 2 8.6157 187.6839 30.7427 0.0000 0.0000 0.0000
# 3 -13.8371 30.7427 56.0035 0.0000 0.0000 0.0000
# 4 0.0000 0.0000 0.0000 31.0362 0.0000 0.0000
# 5 0.0000 0.0000 0.0000 0.0000 66.6303 0.0000
# 6 0.0000 0.0000 0.0000 0.0000 0.0000 6.2499
#
#
#
# Elastic Compliance Matrix: (Units=1/GPa)
#
#
# Indices 1 2 3 4 5 6 
#
# 1 0.018973 -0.001801 0.005676 0.000000 0.000000 0.000000
# 2 -0.001801 0.006025 -0.003753 0.000000 0.000000 0.000000
# 3 0.005676 -0.003753 0.021318 0.000000 0.000000 0.000000
# 4 0.000000 0.000000 0.000000 0.032220 0.000000 0.000000
# 5 0.000000 0.000000 0.000000 0.000000 0.015008 0.000000
# 6 0.000000 0.000000 0.000000 0.000000 0.000000 0.160002
#
#
# Mechanical properties :
#
#
# Convention : Reuss Voigt Hill
#
# Bulk Modulus (GPa) = 21.47668 39.15505 30.31586
# Shear Modulus (GPa) = 18.59965 39.17202 28.88584
#
# Velocity S-wave (km/s) = 2.87805 4.17670 3.58664
# Velocity P-wave (km/s) = 4.53967 6.37943 5.53650
#
# Compressibility (1/GPa) = 0.04656213
#
# Stress axis : x y z
#
# Youngs Moduli (GPa) = 52.70785 165.96308 46.90784
#
# Poissons Ratio (x) = 0.29885 -0.26625
# Poissons Ratio (y) = 0.09491 0.17602
# Poissons Ratio (z) = -0.29918 0.62278
#
# Static dielectric constant tensor:
#      x y z
#    x 1.873640 0.000000 0.000000 
#    y 0.000000 1.892930 0.000000 
#    z 0.000000 0.000000 1.824750 
# 
# From -- ./inp_files/3176.got.cif
#   From: 2010.05.17/outbox.cif.g08.bks.cpg/sg35_2_cif.got.tgz:3176.got - 2010.06.03 17:29:28.
