data_PCOD9349443
_publ_section_title
;
Structure prediction by ZEFSAII (Michael W. Deem and Ramdas Pophale) SiO2 
 PCOD9349443
Probable space group: C M M 2
;
_chemical_formula_sum "Si O2"
_cell_formula_units_Z 48
_cell_length_a 15.263262
_cell_length_b 8.677349
_cell_length_c 19.491601
_cell_angle_alpha 90.000000
_cell_angle_beta 90.000000
_cell_angle_gamma 90.000000
_cell_volume 2581.558297
_symmetry_space_group_name_H-M "C M M 2"
_symmetry_group_IT_number 35
_symmetry_cell_setting 'orthorhombic'
loop_
_space_group_symop_operation_xyz
x,y,z
-x,-y,z
-x,y,z
x,-y,z
1/2+x,1/2+y,z
1/2-x,1/2-y,z
1/2-x,1/2+y,z
1/2+x,1/2-y,z
loop_
_atom_site_type_symbol
_atom_site_label
_atom_site_fract_x
_atom_site_fract_y
_atom_site_fract_z
Si Si1 0.500000 0.815519 0.214571
Si Si2 0.000000 0.185419 0.852249
Si Si3 0.894972 0.679980 0.610401
Si Si4 0.649898 0.313658 0.116456
Si Si5 0.000000 0.186593 0.009912
Si Si6 0.500000 0.687254 0.367261
Si Si7 0.842881 0.685416 0.762286
Si Si8 0.842179 0.817093 0.465586
O O1 0.412295 0.747427 0.178206
O O2 0.500000 0.764378 0.293418
O O3 0.500000 0.000000 0.207329
O O4 0.083128 0.248723 0.811417
O O5 0.000000 0.238074 0.931355
O O6 0.000000 0.000000 0.851010
O O7 0.870846 0.500000 0.603314
O O8 0.859308 0.736756 0.683398
O O9 0.862028 0.765614 0.543222
O O10 0.000000 0.690770 0.613168
O O11 0.654125 0.500000 0.119513
O O12 0.750000 0.250000 0.115789
O O13 0.588819 0.268047 0.050712
O O14 0.000000 0.000000 0.010393
O O15 0.500000 0.500000 0.359674
O O16 0.582970 0.733863 0.413200
O O17 0.845766 0.500000 0.762976
O O18 0.750000 0.750000 0.784766
O O19 0.750000 0.750000 0.443842
O O20 0.839712 0.000000 0.464548
#
# Coordination Sequence:
#
# PCOD9349443 Si02
#       8
#     4   4   8   8   4   4   8   8
#     4  11  23  39  62  92 122 157 197 237 286 342
#     4  11  22  39  61  87 119 157 196 241 294 350
#     4  10  20  37  60  83 111 147 192 247 298 349
#     4  10  20  39  65  92 123 156 192 238 285 341
#     4   8  19  38  60  88 122 156 194 238 288 342
#     4  10  23  42  59  81 119 158 193 238 290 346
#     4  11  23  40  58  84 116 154 200 247 299 354
#     4  11  23  39  59  85 114 150 195 242 293 349
#
# _framework density 18.593419999999998
#
# number of rings (size 3 to 8) (size 9 to 14) (size 15 to 20)
#    0.000    1.667    1.667    3.500    0.000    5.333 
#    0.000    8.333    0.000    0.000    0.000    0.000 
#    0.000    0.000    0.000    0.000    0.000    0.000 
#
# Total GULP energy -134027.942476 kJ/mol
# GULP energy per Si atom -5584.497603 kJ/mol
# Density = 1.855110 g / cm^3
# Si number density = 18.593420 Si / 1000 Ang^3
#
#
#
# Elastic Constant Matrix: (Units=GPa)
#
#
# Indices 1 2 3 4 5 6 
#
# 1 189.1535 56.6966 106.5767 0.0000 0.0000 0.0000
# 2 56.6966 63.5527 49.9096 0.0000 0.0000 0.0000
# 3 106.5767 49.9096 165.5913 0.0000 0.0000 0.0000
# 4 0.0000 0.0000 0.0000 4.2530 0.0000 0.0000
# 5 0.0000 0.0000 0.0000 0.0000 527.6149 0.0000
# 6 0.0000 0.0000 0.0000 0.0000 0.0000 32.4166
#
#
#
# Elastic Compliance Matrix: (Units=1/GPa)
#
#
# Indices 1 2 3 4 5 6 
#
# 1 0.009250 -0.004686 -0.004541 0.000000 0.000000 0.000000
# 2 -0.004686 0.022988 -0.003913 0.000000 0.000000 0.000000
# 3 -0.004541 -0.003913 0.010141 0.000000 0.000000 0.000000
# 4 0.000000 0.000000 0.000000 0.235130 0.000000 0.000000
# 5 0.000000 0.000000 0.000000 0.000000 0.001895 0.000000
# 6 0.000000 0.000000 0.000000 0.000000 0.000000 0.030848
#
#
# Mechanical properties :
#
#
# Convention : Reuss Voigt Hill
#
# Bulk Modulus (GPa) = 62.11322 93.85147 77.98234
# Shear Modulus (GPa) = 14.62422 126.53121 70.57772
#
# Velocity S-wave (km/s) = 2.80755 8.25829 6.16773
# Velocity P-wave (km/s) = 6.63237 11.89612 9.63084
#
# Compressibility (1/GPa) = 0.01609963
#
# Stress axis : x y z
#
# Youngs Moduli (GPa) = 108.11066 43.50080 98.61022
#
# Poissons Ratio (x) = 0.20383 0.44779
# Poissons Ratio (y) = 0.50658 0.38585
# Poissons Ratio (z) = 0.49093 0.17021
#
# Static dielectric constant tensor:
#      x y z
#    x 1.613190 0.000000 0.000000 
#    y 0.000000 1.634460 0.000000 
#    z 0.000000 0.000000 1.629630 
# 
# From -- ./inp_files/17946.got.cif
#   From: 2010.05.17/outbox.cif.g08.bks.cpg/sg35_9_cif.got.tgz:17946.got - 2010.06.03 17:29:28.
