data_PCOD9349041
_publ_section_title
;
Structure prediction by ZEFSAII (Michael W. Deem and Ramdas Pophale) SiO2 
 PCOD9349041
Probable space group: C M M 2
;
_chemical_formula_sum "Si O2"
_cell_formula_units_Z 48
_cell_length_a 14.655754
_cell_length_b 22.031288
_cell_length_c 7.306230
_cell_angle_alpha 90.000000
_cell_angle_beta 90.000000
_cell_angle_gamma 90.000000
_cell_volume 2359.073076
_symmetry_space_group_name_H-M "C M M 2"
_symmetry_group_IT_number 35
_symmetry_cell_setting 'orthorhombic'
loop_
_space_group_symop_operation_xyz
x,y,z
-x,-y,z
-x,y,z
x,-y,z
1/2+x,1/2+y,z
1/2-x,1/2-y,z
1/2-x,1/2+y,z
1/2+x,1/2-y,z
loop_
_atom_site_type_symbol
_atom_site_label
_atom_site_fract_x
_atom_site_fract_y
_atom_site_fract_z
Si Si1 0.106980 0.638857 0.136080
Si Si2 0.393963 0.272872 0.199902
Si Si3 0.364348 0.699711 0.778659
Si Si4 0.152709 0.332332 0.727888
Si Si5 0.798913 0.568397 0.433437
Si Si6 0.396893 0.618196 0.458348
O O1 0.145378 0.704961 0.201883
O O2 0.166426 0.587645 0.232733
O O3 0.000000 0.632774 0.185580
O O4 0.113426 0.641198 0.916397
O O5 0.500000 0.265041 0.245419
O O6 0.361836 0.324576 0.336554
O O7 0.388134 0.295902 0.991434
O O8 0.257169 0.685846 0.767078
O O9 0.389814 0.765601 0.692600
O O10 0.405022 0.645420 0.661544
O O11 0.155279 0.381796 0.568403
O O12 0.826924 0.500000 0.478047
O O13 0.688729 0.573273 0.448640
O O14 0.500000 0.599388 0.399223
#
# Coordination Sequence:
#
# PCOD9349041 Si02
#       6
#     8   8   8   8   8   8
#     4  10  21  37  58  83 110 140 175 220 274 326
#     4   9  17  30  53  85 113 135 166 214 273 333
#     4   9  16  30  54  82 111 138 166 211 274 335
#     4   9  19  34  54  80 108 139 174 217 271 326
#     4  11  24  39  54  75 107 148 192 229 257 299
#     4  10  20  34  55  82 111 143 177 217 268 322
#
# _framework density 20.346973999999999
#
# number of rings (size 3 to 8) (size 9 to 14) (size 15 to 20)
#    0.000    2.333    0.000    2.500    0.000    6.000 
#    0.000    0.000    0.000    0.000    0.000    4.667 
#    0.000    0.000    0.000    0.000    0.000    0.000 
#
# Total GULP energy -133840.714930 kJ/mol
# GULP energy per Si atom -5576.696455 kJ/mol
# Density = 2.030066 g / cm^3
# Si number density = 20.346974 Si / 1000 Ang^3
#
#
#
# Elastic Constant Matrix: (Units=GPa)
#
#
# Indices 1 2 3 4 5 6 
#
# 1 68.3443 5.9113 2.7116 0.0000 0.0000 0.0000
# 2 5.9113 67.1912 30.9528 0.0000 0.0000 0.0000
# 3 2.7116 30.9528 52.5843 0.0000 0.0000 0.0000
# 4 0.0000 0.0000 0.0000 9.7289 0.0000 0.0000
# 5 0.0000 0.0000 0.0000 0.0000 74.0544 0.0000
# 6 0.0000 0.0000 0.0000 0.0000 0.0000 -2.3599
#
#
#
# Elastic Compliance Matrix: (Units=1/GPa)
#
#
# Indices 1 2 3 4 5 6 
#
# 1 0.014744 -0.001299 0.000004 0.000000 0.000000 0.000000
# 2 -0.001299 0.020535 -0.012020 0.000000 0.000000 0.000000
# 3 0.000004 -0.012020 0.026092 0.000000 0.000000 0.000000
# 4 0.000000 0.000000 0.000000 0.102787 0.000000 0.000000
# 5 0.000000 0.000000 0.000000 0.000000 0.013504 0.000000
# 6 0.000000 0.000000 0.000000 0.000000 0.000000 -0.423753
#
#
# Mechanical properties :
#
#
# Convention : Reuss Voigt Hill
#
# Bulk Modulus (GPa) = 28.78454 29.69678 29.24066
# Shear Modulus (GPa) = -24.05214 26.18763 1.06774
#
# Velocity S-wave (km/s) = -3.44190 3.59144 0.72519
# Velocity P-wave (km/s) = 1.27200 5.64135 3.88631
#
# Compressibility (1/GPa) = 0.03474088
#
# Stress axis : x y z
#
# Youngs Moduli (GPa) = 67.82418 48.69837 38.32535
#
# Poissons Ratio (x) = 0.06327 -0.00017
# Poissons Ratio (y) = 0.08812 0.46068
# Poissons Ratio (z) = -0.00030 0.58537
#
# Static dielectric constant tensor:
#      x y z
#    x 1.849400 0.000000 0.000000 
#    y 0.000000 1.721480 0.000000 
#    z 0.000000 0.000000 1.729160 
# 
# From -- ./inp_files/7455.got.cif
#   From: 2010.05.17/outbox.cif.g08.bks.cpg/sg35_4_cif.got.tgz:7455.got - 2010.06.03 17:29:28.
