data_PCOD9349294
_publ_section_title
;
Structure prediction by ZEFSAII (Michael W. Deem and Ramdas Pophale) SiO2 
 PCOD9349294
Probable space group: C M M 2
;
_chemical_formula_sum "Si O2"
_cell_formula_units_Z 40
_cell_length_a 14.790211
_cell_length_b 8.662154
_cell_length_c 17.145715
_cell_angle_alpha 90.000000
_cell_angle_beta 90.000000
_cell_angle_gamma 90.000000
_cell_volume 2196.624741
_symmetry_space_group_name_H-M "C M M 2"
_symmetry_group_IT_number 35
_symmetry_cell_setting 'orthorhombic'
loop_
_space_group_symop_operation_xyz
x,y,z
-x,-y,z
-x,y,z
x,-y,z
1/2+x,1/2+y,z
1/2-x,1/2-y,z
1/2-x,1/2+y,z
1/2+x,1/2-y,z
loop_
_atom_site_type_symbol
_atom_site_label
_atom_site_fract_x
_atom_site_fract_y
_atom_site_fract_z
Si Si1 0.351014 0.315432 0.285330
Si Si2 0.851581 0.814214 0.874287
Si Si3 0.000000 0.685165 0.172093
Si Si4 0.500000 0.185597 0.575422
Si Si5 0.000000 0.314693 0.989517
Si Si6 0.500000 0.685423 0.748682
Si Si7 0.850526 0.314255 0.451525
O O1 0.349606 0.500000 0.286576
O O2 0.250000 0.250000 0.276087
O O3 0.413862 0.253677 0.216757
O O4 0.384551 0.253169 0.369237
O O5 0.750000 0.750000 0.873222
O O6 0.911183 0.767536 0.798335
O O7 0.848800 0.000000 0.877364
O O8 0.911600 0.752604 0.946333
O O9 0.000000 0.724576 0.080794
O O10 0.000000 0.500000 0.179501
O O11 0.500000 0.251836 0.661714
O O12 0.586396 0.231180 0.523527
O O13 0.500000 0.000000 0.580785
O O14 0.000000 0.500000 0.981357
O O15 0.500000 0.500000 0.746212
O O16 0.848896 0.500000 0.445495
O O17 0.750000 0.250000 0.462729
#
# Coordination Sequence:
#
# PCOD9349294 Si02
#       7
#     8   8   4   4   4   4   8
#     4  11  22  37  58  83 111 149 192 233 280 330
#     4  10  21  39  62  86 113 147 184 225 276 332
#     4  11  23  39  58  83 115 148 185 231 280 329
#     4  10  22  36  54  79 110 147 182 225 280 331
#     4  10  22  39  60  86 114 146 184 228 277 330
#     4   9  21  38  56  82 113 143 181 228 273 328
#     4  10  20  36  55  78 109 146 188 232 278 328
#
# _framework density 18.209754
#
# number of rings (size 3 to 8) (size 9 to 14) (size 15 to 20)
#    0.000    1.800    0.000    6.000    0.000    8.000 
#    0.000    4.000    0.000    0.000    0.000    0.000 
#    0.000    0.000    0.000    0.000    0.000    0.000 
#
# Total GULP energy -111726.061152 kJ/mol
# GULP energy per Si atom -5586.303058 kJ/mol
# Density = 1.816831 g / cm^3
# Si number density = 18.209754 Si / 1000 Ang^3
#
#
#
# Elastic Constant Matrix: (Units=GPa)
#
#
# Indices 1 2 3 4 5 6 
#
# 1 154.7120 53.7328 105.9959 0.0000 0.0000 0.0000
# 2 53.7328 89.5960 71.8033 0.0000 0.0000 0.0000
# 3 105.9959 71.8033 200.3029 0.0000 0.0000 0.0000
# 4 0.0000 0.0000 0.0000 34.6779 0.0000 0.0000
# 5 0.0000 0.0000 0.0000 0.0000 17.7832 0.0000
# 6 0.0000 0.0000 0.0000 0.0000 0.0000 31.0712
#
#
#
# Elastic Compliance Matrix: (Units=1/GPa)
#
#
# Indices 1 2 3 4 5 6 
#
# 1 0.010555 -0.002601 -0.004653 0.000000 0.000000 0.000000
# 2 -0.002601 0.016301 -0.004467 0.000000 0.000000 0.000000
# 3 -0.004653 -0.004467 0.009056 0.000000 0.000000 0.000000
# 4 0.000000 0.000000 0.000000 0.028837 0.000000 0.000000
# 5 0.000000 0.000000 0.000000 0.000000 0.056233 0.000000
# 6 0.000000 0.000000 0.000000 0.000000 0.000000 0.032184
#
#
# Mechanical properties :
#
#
# Convention : Reuss Voigt Hill
#
# Bulk Modulus (GPa) = 80.19422 100.85277 90.52350
# Shear Modulus (GPa) = 27.66029 30.91172 29.28600
#
# Velocity S-wave (km/s) = 3.90164 4.12459 4.01466
# Velocity P-wave (km/s) = 8.02694 8.84235 8.44449
#
# Compressibility (1/GPa) = 0.01246973
#
# Stress axis : x y z
#
# Youngs Moduli (GPa) = 94.74345 61.34561 110.42361
#
# Poissons Ratio (x) = 0.15956 0.51380
# Poissons Ratio (y) = 0.24643 0.49327
# Poissons Ratio (z) = 0.44084 0.27404
#
# Static dielectric constant tensor:
#      x y z
#    x 1.603890 0.000000 0.000000 
#    y 0.000000 1.611430 0.000000 
#    z 0.000000 0.000000 1.604020 
# 
# From -- ./inp_files/16646.got.cif
#   From: 2010.05.17/outbox.cif.g08.bks.cpg/sg35_9_cif.got.tgz:16646.got - 2010.06.03 17:29:28.
