data_PCOD9349511
_publ_section_title
;
Structure prediction by ZEFSAII (Michael W. Deem and Ramdas Pophale) SiO2 
 PCOD9349511
Probable space group: C M M 2
;
_chemical_formula_sum "Si O2"
_cell_formula_units_Z 32
_cell_length_a 18.092404
_cell_length_b 7.512413
_cell_length_c 12.728048
_cell_angle_alpha 90.000000
_cell_angle_beta 90.000000
_cell_angle_gamma 90.000000
_cell_volume 1729.965877
_symmetry_space_group_name_H-M "C M M 2"
_symmetry_group_IT_number 35
_symmetry_cell_setting 'orthorhombic'
loop_
_space_group_symop_operation_xyz
x,y,z
-x,-y,z
-x,y,z
x,-y,z
1/2+x,1/2+y,z
1/2-x,1/2-y,z
1/2-x,1/2+y,z
1/2+x,1/2-y,z
loop_
_atom_site_type_symbol
_atom_site_label
_atom_site_fract_x
_atom_site_fract_y
_atom_site_fract_z
Si Si1 0.088704 0.500000 0.833451
Si Si2 0.910070 0.500000 0.591805
Si Si3 0.337773 0.712242 0.979259
Si Si4 0.336818 0.287748 0.214119
Si Si5 0.588925 0.706664 0.427173
O O1 0.114159 0.500000 0.712159
O O2 0.119511 0.672158 0.894136
O O3 0.000000 0.500000 0.835936
O O4 0.886861 0.671848 0.524346
O O5 0.000000 0.500000 0.593531
O O6 0.349851 0.500000 0.969038
O O7 0.250000 0.750000 0.970151
O O8 0.359689 0.773280 0.097682
O O9 0.347438 0.500000 0.212306
O O10 0.250000 0.250000 0.225840
O O11 0.379287 0.222558 0.316791
O O12 0.500000 0.712350 0.421384
O O13 0.611041 0.500000 0.440754
#
# Coordination Sequence:
#
# PCOD9349511 Si02
#       5
#     4   4   8   8   8
#     4  11  24  39  59  89 116 149 207 252 277 336
#     4   9  20  37  55  77 109 149 187 230 282 328
#     4  10  20  38  62  84 116 159 191 231 297 355
#     4   9  19  32  54  83 110 142 179 223 280 345
#     4   9  18  34  55  78 108 144 180 223 277 336
#
# _framework density 18.497474
#
# number of rings (size 3 to 8) (size 9 to 14) (size 15 to 20)
#    0.000    2.500    1.250    0.000    3.500    2.500 
#    0.000    7.500    0.000    0.000    0.000    0.000 
#    0.000    0.000    0.000    0.000    0.000    0.000 
#
# Total GULP energy -89231.032848 kJ/mol
# GULP energy per Si atom -5576.939553 kJ/mol
# Density = 1.845537 g / cm^3
# Si number density = 18.497474 Si / 1000 Ang^3
#
#
#
# Elastic Constant Matrix: (Units=GPa)
#
#
# Indices 1 2 3 4 5 6 
#
# 1 26.2904 24.9044 51.3302 0.0000 0.0000 0.0000
# 2 24.9044 115.1723 87.2985 0.0000 0.0000 0.0000
# 3 51.3302 87.2985 213.0118 0.0000 0.0000 0.0000
# 4 0.0000 0.0000 0.0000 33.5484 0.0000 0.0000
# 5 0.0000 0.0000 0.0000 0.0000 157.1826 0.0000
# 6 0.0000 0.0000 0.0000 0.0000 0.0000 12.4239
#
#
#
# Elastic Compliance Matrix: (Units=1/GPa)
#
#
# Indices 1 2 3 4 5 6 
#
# 1 0.072819 -0.003547 -0.016094 0.000000 0.000000 0.000000
# 2 -0.003547 0.012768 -0.004378 0.000000 0.000000 0.000000
# 3 -0.016094 -0.004378 0.010367 0.000000 0.000000 0.000000
# 4 0.000000 0.000000 0.000000 0.029808 0.000000 0.000000
# 5 0.000000 0.000000 0.000000 0.000000 0.006362 0.000000
# 6 0.000000 0.000000 0.000000 0.000000 0.000000 0.080490
#
#
# Mechanical properties :
#
#
# Convention : Reuss Voigt Hill
#
# Bulk Modulus (GPa) = 20.86987 75.72673 48.29830
# Shear Modulus (GPa) = 18.07513 53.36041 35.71777
#
# Velocity S-wave (km/s) = 3.12936 5.37680 4.39903
# Velocity P-wave (km/s) = 4.93601 8.92046 7.20898
#
# Compressibility (1/GPa) = 0.04791596
#
# Stress axis : x y z
#
# Youngs Moduli (GPa) = 13.73274 78.32028 96.46090
#
# Poissons Ratio (x) = 0.27783 1.55240
# Poissons Ratio (y) = 0.04872 0.42230
# Poissons Ratio (z) = 0.22101 0.34288
#
# Static dielectric constant tensor:
#      x y z
#    x 1.596150 0.000000 0.000000 
#    y 0.000000 1.658870 0.000000 
#    z 0.000000 0.000000 1.641230 
# 
# From -- ./inp_files/10875.got.cif
#   From: 2010.05.17/outbox.cif.g08.bks.cpg/sg35_6_cif.got.tgz:10875.got - 2010.06.03 17:29:28.
