data_PCOD9349881
_publ_section_title
;
Structure prediction by ZEFSAII (Michael W. Deem and Ramdas Pophale) SiO2 
 PCOD9349881
Probable space group: C M M 2
;
_chemical_formula_sum "Si O2"
_cell_formula_units_Z 56
_cell_length_a 30.550384
_cell_length_b 15.089529
_cell_length_c 5.489459
_cell_angle_alpha 90.000000
_cell_angle_beta 90.000000
_cell_angle_gamma 90.000000
_cell_volume 2530.590674
_symmetry_space_group_name_H-M "C M M 2"
_symmetry_group_IT_number 35
_symmetry_cell_setting 'orthorhombic'
loop_
_space_group_symop_operation_xyz
x,y,z
-x,-y,z
-x,y,z
x,-y,z
1/2+x,1/2+y,z
1/2-x,1/2-y,z
1/2-x,1/2+y,z
1/2+x,1/2-y,z
loop_
_atom_site_type_symbol
_atom_site_label
_atom_site_fract_x
_atom_site_fract_y
_atom_site_fract_z
Si Si1 0.634807 0.900918 0.379320
Si Si2 0.799431 0.402948 0.769814
Si Si3 0.549706 0.188842 0.231109
Si Si4 0.449864 0.302230 0.731473
Si Si5 0.862318 0.100240 0.800508
Si Si6 0.282610 0.596096 0.415132
Si Si7 0.314223 0.747024 0.104041
O O1 0.651367 0.898503 0.659069
O O2 0.585424 0.884808 0.297257
O O3 0.660148 0.817204 0.269519
O O4 0.647870 0.000000 0.300278
O O5 0.794156 0.500000 0.889932
O O6 0.762216 0.403078 0.564520
O O7 0.792804 0.312926 0.912383
O O8 0.500000 0.154865 0.218967
O O9 0.552456 0.252273 0.470533
O O10 0.557577 0.239163 0.971610
O O11 0.500000 0.335677 0.757541
O O12 0.411384 0.374408 0.723580
O O13 0.825316 0.102805 0.588954
O O14 0.861794 0.000000 0.899551
O O15 0.847467 0.177405 0.982102
O O16 0.285123 0.500000 0.288416
O O17 0.283420 0.680636 0.247001
#
# Coordination Sequence:
#
# PCOD9349881 Si02
#       7
#     8   8   8   8   8   8   8
#     4  11  24  40  63  96 134 176 222 276 341 412
#     4  10  24  44  65  95 132 171 225 285 342 411
#     4  10  21  41  68  99 134 176 228 285 347 417
#     4  10  21  41  68  99 134 176 228 285 347 417
#     4  11  24  40  63  96 134 176 222 276 341 412
#     4  10  24  44  65  95 132 171 225 285 342 411
#     4  12  22  41  67  92 124 174 223 276 336 413
#
# _framework density 22.129221000000001
#
# number of rings (size 3 to 8) (size 9 to 14) (size 15 to 20)
#    0.000    1.429    1.429    3.429    0.000    5.143 
#    0.000    4.286    0.000    7.714    0.000    0.000 
#    0.000    0.000    0.000    0.000    0.000    0.000 
#
# Total GULP energy -156327.640836 kJ/mol
# GULP energy per Si atom -5583.130030 kJ/mol
# Density = 2.207885 g / cm^3
# Si number density = 22.129221 Si / 1000 Ang^3
#
#
#
# Elastic Constant Matrix: (Units=GPa)
#
#
# Indices 1 2 3 4 5 6 
#
# 1 76.8453 14.0645 6.2883 0.0000 0.0000 0.0000
# 2 14.0645 172.6946 28.7986 0.0000 0.0000 0.0000
# 3 6.2883 28.7986 53.5008 0.0000 0.0000 0.0000
# 4 0.0000 0.0000 0.0000 51.1241 0.0000 0.0000
# 5 0.0000 0.0000 0.0000 0.0000 27.2630 0.0000
# 6 0.0000 0.0000 0.0000 0.0000 0.0000 645.0090
#
#
#
# Elastic Compliance Matrix: (Units=1/GPa)
#
#
# Indices 1 2 3 4 5 6 
#
# 1 0.013266 -0.000901 -0.001074 0.000000 0.000000 0.000000
# 2 -0.000901 0.006423 -0.003351 0.000000 0.000000 0.000000
# 3 -0.001074 -0.003351 0.020622 0.000000 0.000000 0.000000
# 4 0.000000 0.000000 0.000000 0.019560 0.000000 0.000000
# 5 0.000000 0.000000 0.000000 0.000000 0.036680 0.000000
# 6 0.000000 0.000000 0.000000 0.000000 0.000000 0.001550
#
#
# Mechanical properties :
#
#
# Convention : Reuss Voigt Hill
#
# Bulk Modulus (GPa) = 33.71900 44.59373 39.15637
# Shear Modulus (GPa) = 42.14432 161.60517 101.87475
#
# Velocity S-wave (km/s) = 4.36875 8.55491 6.79237
# Velocity P-wave (km/s) = 6.38110 10.85252 8.90212
#
# Compressibility (1/GPa) = 0.02965687
#
# Stress axis : x y z
#
# Youngs Moduli (GPa) = 75.38058 155.69416 48.49300
#
# Poissons Ratio (x) = 0.14033 0.05209
# Poissons Ratio (y) = 0.06794 0.16252
# Poissons Ratio (z) = 0.08097 0.52179
#
# Static dielectric constant tensor:
#      x y z
#    x 1.830700 0.000000 0.000000 
#    y 0.000000 1.765150 0.000000 
#    z 0.000000 0.000000 1.893050 
# 
# From -- ./inp_files/2077.got.cif
#   From: 2010.05.17/outbox.cif.g08.bks.cpg/sg35_2_cif.got.tgz:2077.got - 2010.06.03 17:29:28.
