data_PCOD9349818
_publ_section_title
;
Structure prediction by ZEFSAII (Michael W. Deem and Ramdas Pophale) SiO2 
 PCOD9349818
Probable space group: C M M 2
;
_chemical_formula_sum "Si O2"
_cell_formula_units_Z 64
_cell_length_a 19.261210
_cell_length_b 13.668319
_cell_length_c 12.110152
_cell_angle_alpha 90.000000
_cell_angle_beta 90.000000
_cell_angle_gamma 90.000000
_cell_volume 3188.219888
_symmetry_space_group_name_H-M "C M M 2"
_symmetry_group_IT_number 35
_symmetry_cell_setting 'orthorhombic'
loop_
_space_group_symop_operation_xyz
x,y,z
-x,-y,z
-x,y,z
x,-y,z
1/2+x,1/2+y,z
1/2-x,1/2-y,z
1/2-x,1/2+y,z
1/2+x,1/2-y,z
loop_
_atom_site_type_symbol
_atom_site_label
_atom_site_fract_x
_atom_site_fract_y
_atom_site_fract_z
Si Si1 0.773315 0.882423 0.317270
Si Si2 0.157808 0.116794 0.549666
Si Si3 0.423523 0.198959 0.556029
Si Si4 0.388140 0.118856 0.317270
Si Si5 0.157807 0.883206 0.084873
Si Si6 0.293193 0.117735 0.943194
Si Si7 0.423523 0.198958 0.078511
Si Si8 0.293193 0.117735 0.691346
O O1 0.811928 0.855936 0.429332
O O2 0.693351 0.852549 0.317269
O O3 0.811928 0.855939 0.205208
O O4 0.771312 0.000000 0.317272
O O5 0.091530 0.185166 0.565145
O O6 0.219477 0.142820 0.635077
O O7 0.145141 0.000000 0.554724
O O8 0.500000 0.174277 0.599735
O O9 0.419390 0.162136 0.429513
O O10 0.359018 0.151312 0.620278
O O11 0.419391 0.162135 0.205027
O O12 0.394235 0.000000 0.317270
O O13 0.091530 0.814833 0.069396
O O14 0.145140 0.000000 0.079812
O O15 0.219477 0.857180 0.999463
O O16 0.297640 0.152558 0.817270
O O17 0.294713 0.000000 0.942871
O O18 0.359018 0.151311 0.014263
O O19 0.500000 0.174276 0.034805
O O20 0.294714 0.000000 0.691669
#
# Coordination Sequence:
#
# PCOD9349818 Si02
#       8
#     8   8   8   8   8   8   8   8
#     4   9  17  33  60  87 109 143 191 238 283 329
#     4  10  21  39  62  87 116 151 196 245 286 335
#     4  12  25  37  57  89 122 159 193 228 289 355
#     4  11  22  38  59  88 123 153 191 241 291 345
#     4  10  21  39  62  87 116 151 196 245 286 335
#     4  10  22  41  64  88 113 147 195 247 294 340
#     4  12  25  37  57  89 122 159 193 228 289 355
#     4  10  22  41  64  88 113 147 195 247 294 340
#
# _framework density 20.073896999999999
#
# number of rings (size 3 to 8) (size 9 to 14) (size 15 to 20)
#    0.000    1.500    2.500    2.625    0.000    6.500 
#    0.000    1.250    0.000    3.750    0.000    5.250 
#    0.000    0.000    0.000    0.000    0.000    0.000 
#
# Total GULP energy -178838.407146 kJ/mol
# GULP energy per Si atom -5588.700223 kJ/mol
# Density = 2.002821 g / cm^3
# Si number density = 20.073897 Si / 1000 Ang^3
#
#
#
# Elastic Constant Matrix: (Units=GPa)
#
#
# Indices 1 2 3 4 5 6 
#
# 1 73.5709 14.3126 18.3238 0.0000 0.0000 0.0000
# 2 14.3126 88.6554 14.8780 0.0000 0.0000 0.0000
# 3 18.3238 14.8780 120.5888 0.0000 0.0000 0.0000
# 4 0.0000 0.0000 0.0000 12.8796 0.0000 0.0000
# 5 0.0000 0.0000 0.0000 0.0000 1.7092 0.0000
# 6 0.0000 0.0000 0.0000 0.0000 0.0000 11.3878
#
#
#
# Elastic Compliance Matrix: (Units=1/GPa)
#
#
# Indices 1 2 3 4 5 6 
#
# 1 0.014469 -0.002008 -0.001951 0.000000 0.000000 0.000000
# 2 -0.002008 0.011797 -0.001150 0.000000 0.000000 0.000000
# 3 -0.001951 -0.001150 0.008731 0.000000 0.000000 0.000000
# 4 0.000000 0.000000 0.000000 0.077642 0.000000 0.000000
# 5 0.000000 0.000000 0.000000 0.000000 0.585083 0.000000
# 6 0.000000 0.000000 0.000000 0.000000 0.000000 0.087813
#
#
# Mechanical properties :
#
#
# Convention : Reuss Voigt Hill
#
# Bulk Modulus (GPa) = 40.35889 41.98268 41.17078
# Shear Modulus (GPa) = 6.21880 20.88202 13.55041
#
# Velocity S-wave (km/s) = 1.76201 3.22880 2.60095
# Velocity P-wave (km/s) = 4.92832 5.90421 5.43820
#
# Compressibility (1/GPa) = 0.02477769
#
# Stress axis : x y z
#
# Youngs Moduli (GPa) = 69.11358 84.76790 114.53451
#
# Poissons Ratio (x) = 0.17026 0.22343
# Poissons Ratio (y) = 0.13881 0.13175
# Poissons Ratio (z) = 0.13483 0.09751
#
# Static dielectric constant tensor:
#      x y z
#    x 1.666070 0.000000 0.000000 
#    y 0.000000 1.758620 0.000000 
#    z 0.000000 0.000000 1.687820 
# 
# From -- ./inp_files/13205.got.cif
#   From: 2010.05.17/outbox.cif.g08.bks.cpg/sg35_7_cif.got.tgz:13205.got - 2010.06.03 17:29:28.
