data_PCOD9349567
_publ_section_title
;
Structure prediction by ZEFSAII (Michael W. Deem and Ramdas Pophale) SiO2 
 PCOD9349567
Probable space group: C M M 2
;
_chemical_formula_sum "Si O2"
_cell_formula_units_Z 64
_cell_length_a 19.320101
_cell_length_b 7.632112
_cell_length_c 21.742839
_cell_angle_alpha 90.000000
_cell_angle_beta 90.000000
_cell_angle_gamma 90.000000
_cell_volume 3206.050637
_symmetry_space_group_name_H-M "C M M 2"
_symmetry_group_IT_number 35
_symmetry_cell_setting 'orthorhombic'
loop_
_space_group_symop_operation_xyz
x,y,z
-x,-y,z
-x,y,z
x,-y,z
1/2+x,1/2+y,z
1/2-x,1/2-y,z
1/2-x,1/2+y,z
1/2+x,1/2-y,z
loop_
_atom_site_type_symbol
_atom_site_label
_atom_site_fract_x
_atom_site_fract_y
_atom_site_fract_z
Si Si1 0.580332 0.789442 0.741770
Si Si2 0.579317 0.291467 0.876231
Si Si3 0.080845 0.714067 0.607844
Si Si4 0.669076 0.789388 0.492725
Si Si5 0.579296 0.289995 0.105289
Si Si6 0.169176 0.289356 0.356290
Si Si7 0.421078 0.789198 0.242817
Si Si8 0.168894 0.789072 0.990672
O O1 0.500000 0.730205 0.742955
O O2 0.609476 0.736528 0.807781
O O3 0.608198 0.729948 0.675383
O O4 0.580506 0.000000 0.740789
O O5 0.500000 0.220923 0.879135
O O6 0.573900 0.500000 0.884641
O O7 0.628170 0.222791 0.930331
O O8 0.082697 0.500000 0.607297
O O9 0.124399 0.777855 0.549795
O O10 0.000000 0.762946 0.602756
O O11 0.750000 0.750000 0.501498
O O12 0.648897 0.723921 0.424505
O O13 0.661175 0.000000 0.491777
O O14 0.500000 0.222844 0.099411
O O15 0.575641 0.500000 0.099207
O O16 0.604715 0.252256 0.174286
O O17 0.629468 0.223736 0.051770
O O18 0.161525 0.500000 0.357465
O O19 0.250000 0.250000 0.347621
O O20 0.124836 0.221812 0.299084
O O21 0.500000 0.723567 0.247111
O O22 0.423078 0.000000 0.247433
O O23 0.250000 0.750000 0.990107
O O24 0.163066 0.000000 0.990658
#
# Coordination Sequence:
#
# PCOD9349567 Si02
#       8
#     8   8   8   8   8   8   8   8
#     4   8  14  26  45  69  94 118 148 188 230 271
#     4   9  17  31  51  71  91 119 154 189 226 270
#     4   8  14  26  46  70  92 116 151 193 231 268
#     4   9  17  30  47  66  90 122 157 190 226 270
#     4   9  18  34  54  72  91 120 156 188 222 270
#     4   9  18  31  47  67  92 123 156 189 226 270
#     4   9  18  32  49  71  97 120 147 189 234 270
#     4  10  21  35  50  70  96 123 152 189 229 268
#
# _framework density 19.962254999999999
#
# number of rings (size 3 to 8) (size 9 to 14) (size 15 to 20)
#    0.000    3.125    0.000    1.125    0.000    4.000 
#    0.000    6.250    0.000    7.875    0.000    3.500 
#    0.000    0.000    0.000    0.000    0.000    0.000 
#
# Total GULP energy -178334.364183 kJ/mol
# GULP energy per Si atom -5572.948881 kJ/mol
# Density = 1.991682 g / cm^3
# Si number density = 19.962255 Si / 1000 Ang^3
#
#
#
# Elastic Constant Matrix: (Units=GPa)
#
#
# Indices 1 2 3 4 5 6 
#
# 1 79.6643 1.7121 113.3321 0.0000 0.0000 0.0000
# 2 1.7121 38.0509 8.2276 0.0000 0.0000 0.0000
# 3 113.3321 8.2276 256.8228 0.0000 0.0000 0.0000
# 4 0.0000 0.0000 0.0000 738.1531 0.0000 0.0000
# 5 0.0000 0.0000 0.0000 0.0000 750.5987 0.0000
# 6 0.0000 0.0000 0.0000 0.0000 0.0000 17.2128
#
#
#
# Elastic Compliance Matrix: (Units=1/GPa)
#
#
# Indices 1 2 3 4 5 6 
#
# 1 0.033835 0.001718 -0.014986 0.000000 0.000000 0.000000
# 2 0.001718 0.026551 -0.001609 0.000000 0.000000 0.000000
# 3 -0.014986 -0.001609 0.010558 0.000000 0.000000 0.000000
# 4 0.000000 0.000000 0.000000 0.001355 0.000000 0.000000
# 5 0.000000 0.000000 0.000000 0.000000 0.001332 0.000000
# 6 0.000000 0.000000 0.000000 0.000000 0.000000 0.058096
#
#
# Mechanical properties :
#
#
# Convention : Reuss Voigt Hill
#
# Bulk Modulus (GPa) = 24.27704 69.00907 46.64305
# Shear Modulus (GPa) = 28.53690 317.94401 173.24045
#
# Velocity S-wave (km/s) = 3.78503 12.63402 9.32590
# Velocity P-wave (km/s) = 5.59373 15.73116 11.80591
#
# Compressibility (1/GPa) = 0.04119118
#
# Stress axis : x y z
#
# Youngs Moduli (GPa) = 29.55511 37.66318 94.71166
#
# Poissons Ratio (x) = -0.06470 1.41935
# Poissons Ratio (y) = -0.05078 0.15236
# Poissons Ratio (z) = 0.44291 0.06059
#
# Static dielectric constant tensor:
#      x y z
#    x 1.665590 0.000000 0.000000 
#    y 0.000000 1.745700 0.000000 
#    z 0.000000 0.000000 1.737190 
# 
# From -- ./inp_files/16498.got.cif
#   From: 2010.05.17/outbox.cif.g08.bks.cpg/sg35_9_cif.got.tgz:16498.got - 2010.06.03 17:29:28.
