data_PCOD9349252
_publ_section_title
;
Structure prediction by ZEFSAII (Michael W. Deem and Ramdas Pophale) SiO2 
 PCOD9349252
Probable space group: C M M 2
;
_chemical_formula_sum "Si O2"
_cell_formula_units_Z 64
_cell_length_a 14.650395
_cell_length_b 18.644358
_cell_length_c 12.538849
_cell_angle_alpha 90.000000
_cell_angle_beta 90.000000
_cell_angle_gamma 90.000000
_cell_volume 3424.951611
_symmetry_space_group_name_H-M "C M M 2"
_symmetry_group_IT_number 35
_symmetry_cell_setting 'orthorhombic'
loop_
_space_group_symop_operation_xyz
x,y,z
-x,-y,z
-x,y,z
x,-y,z
1/2+x,1/2+y,z
1/2-x,1/2-y,z
1/2-x,1/2+y,z
1/2+x,1/2-y,z
loop_
_atom_site_type_symbol
_atom_site_label
_atom_site_fract_x
_atom_site_fract_y
_atom_site_fract_z
Si Si1 0.679033 0.082175 0.051180
Si Si2 0.104927 0.795649 0.221942
Si Si3 0.893535 0.413772 0.482133
Si Si4 0.397711 0.824283 0.889290
Si Si5 0.201305 0.355947 0.272202
Si Si6 0.297053 0.086227 0.706367
Si Si7 0.097350 0.085611 0.775303
Si Si8 0.855157 0.172427 0.980152
O O1 0.677603 0.088575 0.178203
O O2 0.687374 0.000000 0.017855
O O3 0.598688 0.122874 0.991015
O O4 0.763547 0.130249 0.010799
O O5 0.147115 0.716287 0.237665
O O6 0.188614 0.843199 0.270500
O O7 0.000000 0.801798 0.262940
O O8 0.101042 0.813690 0.095825
O O9 0.892129 0.500000 0.470353
O O10 0.837525 0.379882 0.385144
O O11 0.844707 0.397198 0.594207
O O12 0.000000 0.391096 0.481857
O O13 0.500000 0.806835 0.853512
O O14 0.344903 0.867717 0.798369
O O15 0.351406 0.750145 0.924982
O O16 0.189322 0.104235 0.711655
O O17 0.307353 0.000000 0.725540
O O18 0.100276 0.122337 0.890949
O O19 0.000000 0.104624 0.723403
O O20 0.099915 0.000000 0.789628
#
# Coordination Sequence:
#
# PCOD9349252 Si02
#       8
#     8   8   8   8   8   8   8   8
#     4  11  22  36  57  87 122 158 196 248 306 354
#     4  10  20  36  57  84 122 161 199 240 299 364
#     4  10  21  40  64  85 111 153 201 249 306 369
#     4  12  23  35  57  88 121 156 195 243 301 366
#     4  10  21  36  60  87 115 153 200 253 297 350
#     4  10  22  39  59  84 118 155 197 251 309 364
#     4  10  20  35  58  86 117 158 205 247 289 349
#     4  11  21  37  56  84 121 167 201 236 290 362
#
# _framework density 18.686395000000001
#
# number of rings (size 3 to 8) (size 9 to 14) (size 15 to 20)
#    0.000    1.500    2.500    3.375    0.000    2.000 
#    0.000    3.125    0.000    9.000    0.000    0.000 
#    0.000    0.000    0.000    0.000    0.000    0.000 
#
# Total GULP energy -178392.190462 kJ/mol
# GULP energy per Si atom -5574.755952 kJ/mol
# Density = 1.864386 g / cm^3
# Si number density = 18.686395 Si / 1000 Ang^3
#
#
#
# Elastic Constant Matrix: (Units=GPa)
#
#
# Indices 1 2 3 4 5 6 
#
# 1 172.9936 35.9291 61.9989 0.0000 0.0000 0.0000
# 2 35.9291 48.5975 23.5927 0.0000 0.0000 0.0000
# 3 61.9989 23.5927 97.7896 0.0000 0.0000 0.0000
# 4 0.0000 0.0000 0.0000 27.1137 0.0000 0.0000
# 5 0.0000 0.0000 0.0000 0.0000 6.0593 0.0000
# 6 0.0000 0.0000 0.0000 0.0000 0.0000 -42.7588
#
#
#
# Elastic Compliance Matrix: (Units=1/GPa)
#
#
# Indices 1 2 3 4 5 6 
#
# 1 0.008101 -0.003960 -0.004181 0.000000 0.000000 0.000000
# 2 -0.003960 0.025242 -0.003579 0.000000 0.000000 0.000000
# 3 -0.004181 -0.003579 0.013740 0.000000 0.000000 0.000000
# 4 0.000000 0.000000 0.000000 0.036882 0.000000 0.000000
# 5 0.000000 0.000000 0.000000 0.000000 0.165036 0.000000
# 6 0.000000 0.000000 0.000000 0.000000 0.000000 -0.023387
#
#
# Mechanical properties :
#
#
# Convention : Reuss Voigt Hill
#
# Bulk Modulus (GPa) = 42.29442 62.49133 52.39287
# Shear Modulus (GPa) = 19.46005 11.27350 15.36678
#
# Velocity S-wave (km/s) = 3.23058 2.45888 2.87078
# Velocity P-wave (km/s) = 6.04966 6.44796 6.25199
#
# Compressibility (1/GPa) = 0.02364378
#
# Stress axis : x y z
#
# Youngs Moduli (GPa) = 123.43580 39.61573 72.77830
#
# Poissons Ratio (x) = 0.15687 0.30428
# Poissons Ratio (y) = 0.48878 0.26051
# Poissons Ratio (z) = 0.51608 0.14180
#
# Static dielectric constant tensor:
#      x y z
#    x 1.720680 0.000000 0.000000 
#    y 0.000000 1.635900 0.000000 
#    z 0.000000 0.000000 1.622700 
# 
# From -- ./inp_files/13199.got.cif
#   From: 2010.05.17/outbox.cif.g08.bks.cpg/sg35_7_cif.got.tgz:13199.got - 2010.06.03 17:29:28.
