data_PCOD9349221
_publ_section_title
;
Structure prediction by ZEFSAII (Michael W. Deem and Ramdas Pophale) SiO2 
 PCOD9349221
Probable space group: C M M 2
;
_chemical_formula_sum "Si O2"
_cell_formula_units_Z 64
_cell_length_a 8.803284
_cell_length_b 18.448810
_cell_length_c 21.236114
_cell_angle_alpha 90.000000
_cell_angle_beta 90.000000
_cell_angle_gamma 90.000000
_cell_volume 3448.959693
_symmetry_space_group_name_H-M "C M M 2"
_symmetry_group_IT_number 35
_symmetry_cell_setting 'orthorhombic'
loop_
_space_group_symop_operation_xyz
x,y,z
-x,-y,z
-x,y,z
x,-y,z
1/2+x,1/2+y,z
1/2-x,1/2-y,z
1/2-x,1/2+y,z
1/2+x,1/2-y,z
loop_
_atom_site_type_symbol
_atom_site_label
_atom_site_fract_x
_atom_site_fract_y
_atom_site_fract_z
Si Si1 0.180491 0.669877 0.287290
Si Si2 0.179494 0.086211 0.403931
Si Si3 0.175290 0.588057 0.534698
Si Si4 0.182550 0.169882 0.792502
Si Si5 0.683552 0.669673 0.042251
Si Si6 0.316294 0.914873 0.674680
Si Si7 0.685034 0.583209 0.917684
Si Si8 0.816718 0.915330 0.169233
O O1 0.250000 0.750000 0.284801
O O2 0.231842 0.630328 0.351215
O O3 0.242552 0.623724 0.228615
O O4 0.000000 0.674418 0.284304
O O5 0.227535 0.109451 0.474282
O O6 0.000000 0.095964 0.394949
O O7 0.213015 0.000000 0.397841
O O8 0.175413 0.500000 0.536780
O O9 0.228826 0.610574 0.604254
O O10 0.000000 0.610733 0.525908
O O11 0.250000 0.250000 0.797072
O O12 0.242089 0.131052 0.729734
O O13 0.230583 0.123457 0.853678
O O14 0.000000 0.173197 0.791436
O O15 0.500000 0.673901 0.040965
O O16 0.750000 0.750000 0.043954
O O17 0.726475 0.625112 0.104713
O O18 0.733741 0.627284 0.979449
O O19 0.500000 0.910115 0.677661
O O20 0.275991 0.000000 0.681737
O O21 0.500000 0.581982 0.918557
O O22 0.736976 0.500000 0.919078
O O23 0.000000 0.910950 0.175359
O O24 0.775584 0.000000 0.166733
#
# Coordination Sequence:
#
# PCOD9349221 Si02
#       8
#     8   8   8   8   8   8   8   8
#     4  12  25  40  58  80 110 147 185 227 276 328
#     4  10  20  35  57  85 115 145 180 224 271 323
#     4   8  15  30  53  80 109 142 180 222 270 324
#     4  11  22  35  53  77 108 145 185 230 278 330
#     4  10  20  35  57  83 113 148 182 221 271 325
#     4   9  18  34  56  81 110 143 180 225 275 327
#     4   9  18  34  56  81 107 139 183 230 275 326
#     4  10  21  38  60  85 112 144 184 228 273 323
#
# _framework density 18.556319999999999
#
# number of rings (size 3 to 8) (size 9 to 14) (size 15 to 20)
#    0.000    2.125    0.000    4.500    0.000    6.750 
#    0.000    2.500    0.000    5.625    0.000    0.000 
#    0.000    0.000    0.000    0.000    0.000    0.000 
#
# Total GULP energy -178706.042938 kJ/mol
# GULP energy per Si atom -5584.563842 kJ/mol
# Density = 1.851408 g / cm^3
# Si number density = 18.556320 Si / 1000 Ang^3
#
#
#
# Elastic Constant Matrix: (Units=GPa)
#
#
# Indices 1 2 3 4 5 6 
#
# 1 39.4814 51.4454 54.8060 0.0000 0.0000 0.0000
# 2 51.4454 145.5273 102.0282 0.0000 0.0000 0.0000
# 3 54.8060 102.0282 192.7637 0.0000 0.0000 0.0000
# 4 0.0000 0.0000 0.0000 -38.6260 0.0000 0.0000
# 5 0.0000 0.0000 0.0000 0.0000 1.5559 0.0000
# 6 0.0000 0.0000 0.0000 0.0000 0.0000 25.1910
#
#
#
# Elastic Compliance Matrix: (Units=1/GPa)
#
#
# Indices 1 2 3 4 5 6 
#
# 1 0.054352 -0.013324 -0.008401 0.000000 0.000000 0.000000
# 2 -0.013324 0.014192 -0.003724 0.000000 0.000000 0.000000
# 3 -0.008401 -0.003724 0.009547 0.000000 0.000000 0.000000
# 4 0.000000 0.000000 0.000000 -0.025889 0.000000 0.000000
# 5 0.000000 0.000000 0.000000 0.000000 0.642698 0.000000
# 6 0.000000 0.000000 0.000000 0.000000 0.000000 0.039697
#
#
# Mechanical properties :
#
#
# Convention : Reuss Voigt Hill
#
# Bulk Modulus (GPa) = 36.77281 88.25907 62.51594
# Shear Modulus (GPa) = 6.29281 8.92370 7.60825
#
# Velocity S-wave (km/s) = 1.84352 2.19532 2.02706
# Velocity P-wave (km/s) = 4.93875 7.35472 6.26431
#
# Compressibility (1/GPa) = 0.02719400
#
# Stress axis : x y z
#
# Youngs Moduli (GPa) = 18.39874 70.46020 104.74439
#
# Poissons Ratio (x) = 0.93882 0.87993
# Poissons Ratio (y) = 0.24515 0.39003
# Poissons Ratio (z) = 0.15456 0.26237
#
# Static dielectric constant tensor:
#      x y z
#    x 1.627070 0.000000 0.000000 
#    y 0.000000 1.611150 0.000000 
#    z 0.000000 0.000000 1.628900 
# 
# From -- ./inp_files/18403.got.cif
#   From: 2010.05.17/outbox.cif.g08.bks.cpg/sg35_10_cif.got.tgz:18403.got - 2010.06.03 17:29:28.
