data_PCOD9349921
_publ_section_title
;
Structure prediction by ZEFSAII (Michael W. Deem and Ramdas Pophale) SiO2 
 PCOD9349921
Probable space group: C M M 2
;
_chemical_formula_sum "Si O2"
_cell_formula_units_Z 56
_cell_length_a 8.351941
_cell_length_b 22.562767
_cell_length_c 14.898703
_cell_angle_alpha 90.000000
_cell_angle_beta 90.000000
_cell_angle_gamma 90.000000
_cell_volume 2807.554781
_symmetry_space_group_name_H-M "C M M 2"
_symmetry_group_IT_number 35
_symmetry_cell_setting 'orthorhombic'
loop_
_space_group_symop_operation_xyz
x,y,z
-x,-y,z
-x,y,z
x,-y,z
1/2+x,1/2+y,z
1/2-x,1/2-y,z
1/2-x,1/2+y,z
1/2+x,1/2-y,z
loop_
_atom_site_type_symbol
_atom_site_label
_atom_site_fract_x
_atom_site_fract_y
_atom_site_fract_z
Si Si1 0.191621 0.626834 0.785560
Si Si2 0.306257 0.814913 0.963743
Si Si3 0.190423 0.107975 0.455162
Si Si4 0.186134 0.500000 0.573349
Si Si5 0.188090 0.930774 0.265297
Si Si6 0.689948 0.933189 0.066465
Si Si7 0.186316 0.000000 0.773462
Si Si8 0.807778 0.314853 0.604572
O O1 0.247230 0.672676 0.861134
O O2 0.238042 0.560187 0.810374
O O3 0.248506 0.642507 0.685600
O O4 0.000000 0.630060 0.783022
O O5 0.500000 0.814694 0.967108
O O6 0.250000 0.750000 0.994364
O O7 0.249096 0.873846 0.017063
O O8 0.243075 0.106202 0.351641
O O9 0.231126 0.166437 0.510503
O O10 0.000000 0.096722 0.455393
O O11 0.274682 0.056490 0.512390
O O12 0.283370 0.500000 0.665909
O O13 0.000000 0.500000 0.599436
O O14 0.280788 0.923845 0.172574
O O15 0.000000 0.918617 0.248007
O O16 0.200628 0.000000 0.292447
O O17 0.500000 0.935622 0.048625
O O18 0.755090 0.000000 0.044581
O O19 0.000000 0.000000 0.792024
O O20 0.750000 0.250000 0.629724
O O21 0.000000 0.317918 0.597870
#
# Coordination Sequence:
#
# PCOD9349921 Si02
#       8
#     8   8   8   4   8   8   4   8
#     4  10  22  39  60  84 116 155 194 239 293 351
#     4  10  22  40  63  88 117 156 198 245 298 355
#     4  11  21  36  57  83 116 151 190 238 286 341
#     4  12  22  34  54  83 116 151 188 229 282 338
#     4   9  18  34  56  84 116 149 184 232 296 349
#     4   9  19  36  59  88 117 151 195 241 295 356
#     4  12  24  36  56  87 120 155 194 241 292 342
#     4  11  23  38  56  80 111 154 201 241 288 344
#
# _framework density 19.946183999999999
#
# number of rings (size 3 to 8) (size 9 to 14) (size 15 to 20)
#    0.000    1.714    2.143    2.571    1.000    2.857 
#    0.000    0.714    0.000    1.714    0.000    0.000 
#    0.000    0.000    0.000    0.000    0.000    0.000 
#
# Total GULP energy -156294.979675 kJ/mol
# GULP energy per Si atom -5581.963560 kJ/mol
# Density = 1.990079 g / cm^3
# Si number density = 19.946184 Si / 1000 Ang^3
#
#
#
# Elastic Constant Matrix: (Units=GPa)
#
#
# Indices 1 2 3 4 5 6 
#
# 1 8.0764 2.5004 6.7781 0.0000 0.0000 0.0000
# 2 2.5004 119.2621 42.8770 0.0000 0.0000 0.0000
# 3 6.7781 42.8770 75.8791 0.0000 0.0000 0.0000
# 4 0.0000 0.0000 0.0000 28.7200 0.0000 0.0000
# 5 0.0000 0.0000 0.0000 0.0000 16.8028 0.0000
# 6 0.0000 0.0000 0.0000 0.0000 0.0000 29.3698
#
#
#
# Elastic Compliance Matrix: (Units=1/GPa)
#
#
# Indices 1 2 3 4 5 6 
#
# 1 0.134186 0.001878 -0.013047 0.000000 0.000000 0.000000
# 2 0.001878 0.010549 -0.006129 0.000000 0.000000 0.000000
# 3 -0.013047 -0.006129 0.017807 0.000000 0.000000 0.000000
# 4 0.000000 0.000000 0.000000 0.034819 0.000000 0.000000
# 5 0.000000 0.000000 0.000000 0.000000 0.059514 0.000000
# 6 0.000000 0.000000 0.000000 0.000000 0.000000 0.034049
#
#
# Mechanical properties :
#
#
# Convention : Reuss Voigt Hill
#
# Bulk Modulus (GPa) = 7.81584 34.16984 20.99284
# Shear Modulus (GPa) = 13.58071 25.04932 19.31502
#
# Velocity S-wave (km/s) = 2.61218 3.54764 3.11522
# Velocity P-wave (km/s) = 3.60900 5.82659 4.84634
#
# Compressibility (1/GPa) = 0.12794528
#
# Stress axis : x y z
#
# Youngs Moduli (GPa) = 7.45235 94.79697 56.15636
#
# Poissons Ratio (x) = -0.17799 0.73270
# Poissons Ratio (y) = -0.01399 0.34416
# Poissons Ratio (z) = 0.09723 0.58097
#
# Static dielectric constant tensor:
#      x y z
#    x 1.692490 0.000000 0.000000 
#    y 0.000000 1.674340 0.000000 
#    z 0.000000 0.000000 1.705630 
# 
# From -- ./inp_files/15702.got.cif
#   From: 2010.05.17/outbox.cif.g08.bks.cpg/sg35_8_cif.got.tgz:15702.got - 2010.06.03 17:29:28.
