data_PCOD9349212
_publ_section_title
;
Structure prediction by ZEFSAII (Michael W. Deem and Ramdas Pophale) SiO2 
 PCOD9349212
Probable space group: C M M 2
;
_chemical_formula_sum "Si O2"
_cell_formula_units_Z 48
_cell_length_a 19.430260
_cell_length_b 8.689304
_cell_length_c 15.457475
_cell_angle_alpha 90.000000
_cell_angle_beta 90.000000
_cell_angle_gamma 90.000000
_cell_volume 2609.769530
_symmetry_space_group_name_H-M "C M M 2"
_symmetry_group_IT_number 35
_symmetry_cell_setting 'orthorhombic'
loop_
_space_group_symop_operation_xyz
x,y,z
-x,-y,z
-x,y,z
x,-y,z
1/2+x,1/2+y,z
1/2-x,1/2-y,z
1/2-x,1/2+y,z
1/2+x,1/2-y,z
loop_
_atom_site_type_symbol
_atom_site_label
_atom_site_fract_x
_atom_site_fract_y
_atom_site_fract_z
Si Si1 0.325605 0.815442 0.406140
Si Si2 0.175309 0.316442 0.904852
Si Si3 0.919894 0.185576 0.756395
Si Si4 0.080106 0.685576 0.244096
Si Si5 0.325605 0.684558 0.594351
Si Si6 0.175309 0.183558 0.095640
O O1 0.250000 0.750000 0.384522
O O2 0.379684 0.772851 0.331984
O O3 0.344667 0.750000 0.500245
O O4 0.321323 0.000000 0.411290
O O5 0.179388 0.500000 0.909158
O O6 0.250000 0.250000 0.878461
O O7 0.118775 0.262746 0.836529
O O8 0.160496 0.249999 0.000246
O O9 0.879684 0.227150 0.668507
O O10 0.000000 0.227983 0.752463
O O11 0.915389 0.000000 0.765870
O O12 0.084610 0.500000 0.234621
O O13 0.118775 0.762744 0.163962
O O14 0.000000 0.727986 0.248028
O O15 0.321324 0.500000 0.589202
O O16 0.250000 0.750000 0.615969
O O17 0.250000 0.250000 0.122030
O O18 0.179388 0.000000 0.091335
#
# Coordination Sequence:
#
# PCOD9349212 Si02
#       6
#     8   8   8   8   8   8
#     4  10  20  35  57  82 109 144 185 231 278 326
#     4  11  22  38  61  86 112 145 186 231 278 329
#     4  10  22  39  57  81 115 151 186 228 279 332
#     4  10  22  39  57  81 115 151 186 228 279 332
#     4  10  20  35  57  82 109 144 185 231 278 326
#     4  11  22  38  61  86 112 145 186 231 278 329
#
# _framework density 18.392427000000001
#
# number of rings (size 3 to 8) (size 9 to 14) (size 15 to 20)
#    0.000    1.667    0.000    7.000    0.000    7.333 
#    0.000    0.000    0.000    0.000    0.000    0.000 
#    0.000    0.000    0.000    0.000    0.000    0.000 
#
# Total GULP energy -134151.940444 kJ/mol
# GULP energy per Si atom -5589.664185 kJ/mol
# Density = 1.835056 g / cm^3
# Si number density = 18.392427 Si / 1000 Ang^3
#
#
#
# Elastic Constant Matrix: (Units=GPa)
#
#
# Indices 1 2 3 4 5 6 
#
# 1 167.9483 75.2247 129.3159 0.0000 0.0000 0.0000
# 2 75.2247 85.7491 66.1229 0.0000 0.0000 0.0000
# 3 129.3159 66.1229 128.7011 0.0000 0.0000 0.0000
# 4 0.0000 0.0000 0.0000 1962.7028 0.0000 0.0000
# 5 0.0000 0.0000 0.0000 0.0000 -32.2504 0.0000
# 6 0.0000 0.0000 0.0000 0.0000 0.0000 23.7399
#
#
#
# Elastic Compliance Matrix: (Units=1/GPa)
#
#
# Indices 1 2 3 4 5 6 
#
# 1 0.027379 -0.004646 -0.025123 0.000000 0.000000 0.000000
# 2 -0.004646 0.020102 -0.005660 0.000000 0.000000 0.000000
# 3 -0.025123 -0.005660 0.035921 0.000000 0.000000 0.000000
# 4 0.000000 0.000000 0.000000 0.000510 0.000000 0.000000
# 5 0.000000 0.000000 0.000000 0.000000 -0.031007 0.000000
# 6 0.000000 0.000000 0.000000 0.000000 0.000000 0.042123
#
#
# Mechanical properties :
#
#
# Convention : Reuss Voigt Hill
#
# Bulk Modulus (GPa) = 79.71546 102.63616 91.17581
# Shear Modulus (GPa) = 29.40022 398.28745 213.84383
#
# Velocity S-wave (km/s) = 4.00246 14.73159 10.79443
# Velocity P-wave (km/s) = 8.04954 18.58183 14.31921
#
# Compressibility (1/GPa) = 0.01254462
#
# Stress axis : x y z
#
# Youngs Moduli (GPa) = 36.52384 49.74646 27.83892
#
# Poissons Ratio (x) = 0.23112 0.69940
# Poissons Ratio (y) = 0.16969 0.15756
# Poissons Ratio (z) = 0.91760 0.28155
#
# Static dielectric constant tensor:
#      x y z
#    x 1.606170 0.000000 0.000000 
#    y 0.000000 1.617610 0.000000 
#    z 0.000000 0.000000 1.613590 
# 
# From -- ./inp_files/18745.got.cif
#   From: 2010.05.17/outbox.cif.g08.bks.cpg/sg35_10_cif.got.tgz:18745.got - 2010.06.03 17:29:28.
