data_PCOD9349991
_publ_section_title
;
Structure prediction by ZEFSAII (Michael W. Deem and Ramdas Pophale) SiO2 
 PCOD9349991
Probable space group: C M M 2
;
_chemical_formula_sum "Si O2"
_cell_formula_units_Z 40
_cell_length_a 14.680334
_cell_length_b 14.680031
_cell_length_c 9.254606
_cell_angle_alpha 90.000000
_cell_angle_beta 90.000000
_cell_angle_gamma 90.000000
_cell_volume 1994.439392
_symmetry_space_group_name_H-M "C M M 2"
_symmetry_group_IT_number 35
_symmetry_cell_setting 'orthorhombic'
loop_
_space_group_symop_operation_xyz
x,y,z
-x,-y,z
-x,y,z
x,-y,z
1/2+x,1/2+y,z
1/2-x,1/2-y,z
1/2-x,1/2+y,z
1/2+x,1/2-y,z
loop_
_atom_site_type_symbol
_atom_site_label
_atom_site_fract_x
_atom_site_fract_y
_atom_site_fract_z
Si Si1 0.000000 0.890447 0.801420
Si Si2 0.238622 0.000000 0.072506
Si Si3 0.000000 0.775435 0.097266
Si Si4 0.000000 0.389501 0.914620
Si Si5 0.168459 0.107813 0.591249
Si Si6 0.320759 0.330826 0.268071
Si Si7 0.296057 0.846780 0.836097
O O1 0.912084 0.869498 0.704118
O O2 0.000000 0.832042 0.946923
O O3 0.000000 0.000000 0.836453
O O4 0.218408 0.079271 0.193481
O O5 0.257935 0.079089 0.948277
O O6 0.912108 0.804310 0.185129
O O7 0.000000 0.667483 0.063976
O O8 0.094447 0.356320 0.842658
O O9 0.000000 0.500000 0.929243
O O10 0.159842 0.154639 0.437482
O O11 0.260737 0.131828 0.675340
O O12 0.163186 0.000000 0.567665
O O13 0.250000 0.250000 0.251588
O O14 0.250000 0.750000 0.875359
#
# Coordination Sequence:
#
# PCOD9349991 Si02
#       7
#     4   4   4   4   8   8   8
#     4  10  23  38  73 106 145 180 236 303 358 424
#     4  12  22  42  68 100 140 182 236 286 358 412
#     4  12  27  43  69 108 139 185 239 291 366 426
#     4  12  24  45  72 110 146 187 239 306 358 420
#     4  11  22  45  68 104 142 190 237 296 365 430
#     4  12  27  44  68 101 145 188 235 294 362 437
#     4  12  25  44  76 104 144 190 248 301 352 427
#
# _framework density 20.055762999999999
#
# number of rings (size 3 to 8) (size 9 to 14) (size 15 to 20)
#    0.000    0.400    3.000    6.600    4.200    0.000 
#    0.000    3.000    0.000    0.000    0.000    0.000 
#    0.000    0.000    0.000    0.000    0.000    0.000 
#
# Total GULP energy -111376.750367 kJ/mol
# GULP energy per Si atom -5568.837518 kJ/mol
# Density = 2.001012 g / cm^3
# Si number density = 20.055763 Si / 1000 Ang^3
#
#
#
# Elastic Constant Matrix: (Units=GPa)
#
#
# Indices 1 2 3 4 5 6 
#
# 1 118.9440 98.6076 95.7232 0.0000 0.0000 0.0000
# 2 98.6076 179.4197 66.0853 0.0000 0.0000 0.0000
# 3 95.7232 66.0853 165.9359 0.0000 0.0000 0.0000
# 4 0.0000 0.0000 0.0000 40.2147 0.0000 0.0000
# 5 0.0000 0.0000 0.0000 0.0000 17.4622 0.0000
# 6 0.0000 0.0000 0.0000 0.0000 0.0000 3.4515
#
#
#
# Elastic Compliance Matrix: (Units=1/GPa)
#
#
# Indices 1 2 3 4 5 6 
#
# 1 0.025108 -0.009919 -0.010533 0.000000 0.000000 0.000000
# 2 -0.009919 0.010450 0.001560 0.000000 0.000000 0.000000
# 3 -0.010533 0.001560 0.011481 0.000000 0.000000 0.000000
# 4 0.000000 0.000000 0.000000 0.024867 0.000000 0.000000
# 5 0.000000 0.000000 0.000000 0.000000 0.057267 0.000000
# 6 0.000000 0.000000 0.000000 0.000000 0.000000 0.289731
#
#
# Mechanical properties :
#
#
# Convention : Reuss Voigt Hill
#
# Bulk Modulus (GPa) = 108.05504 109.45911 108.75707
# Shear Modulus (GPa) = 10.87492 25.81789 18.34641
#
# Velocity S-wave (km/s) = 2.33112 3.59180 3.02780
# Velocity P-wave (km/s) = 7.82558 8.47922 8.15895
#
# Compressibility (1/GPa) = 0.00925454
#
# Stress axis : x y z
#
# Youngs Moduli (GPa) = 39.82859 95.69016 87.09684
#
# Poissons Ratio (x) = 0.94917 0.91742
# Poissons Ratio (y) = 0.39507 -0.13588
# Poissons Ratio (z) = 0.41953 -0.14929
#
# Static dielectric constant tensor:
#      x y z
#    x 1.748600 0.000000 0.000000 
#    y 0.000000 1.721810 0.000000 
#    z 0.000000 0.000000 1.682190 
# 
# From -- ./inp_files/7032.got.cif
#   From: 2010.05.17/outbox.cif.g08.bks.cpg/sg35_4_cif.got.tgz:7032.got - 2010.06.03 17:29:28.
