data_PCOD9349326
_publ_section_title
;
Structure prediction by ZEFSAII (Michael W. Deem and Ramdas Pophale) SiO2 
 PCOD9349326
Probable space group: C M M 2
;
_chemical_formula_sum "Si O2"
_cell_formula_units_Z 64
_cell_length_a 8.756852
_cell_length_b 28.709275
_cell_length_c 13.263145
_cell_angle_alpha 90.000000
_cell_angle_beta 90.000000
_cell_angle_gamma 90.000000
_cell_volume 3334.392747
_symmetry_space_group_name_H-M "C M M 2"
_symmetry_group_IT_number 35
_symmetry_cell_setting 'orthorhombic'
loop_
_space_group_symop_operation_xyz
x,y,z
-x,-y,z
-x,y,z
x,-y,z
1/2+x,1/2+y,z
1/2-x,1/2-y,z
1/2-x,1/2+y,z
1/2+x,1/2-y,z
loop_
_atom_site_type_symbol
_atom_site_label
_atom_site_fract_x
_atom_site_fract_y
_atom_site_fract_z
Si Si1 0.183679 0.801792 0.419510
Si Si2 0.683797 0.697951 0.022958
Si Si3 0.183995 0.197653 0.644133
Si Si4 0.673237 0.556518 0.519833
Si Si5 0.681997 0.857376 0.833406
Si Si6 0.684760 0.554281 0.745962
Si Si7 0.318413 0.946609 0.307613
Si Si8 0.183742 0.858290 0.223533
O O1 0.250000 0.750000 0.411284
O O2 0.222332 0.820340 0.531318
O O3 0.236702 0.832023 0.325077
O O4 0.000000 0.798873 0.415019
O O5 0.500000 0.700192 0.017807
O O6 0.750000 0.750000 0.022434
O O7 0.728299 0.671083 0.125536
O O8 0.746978 0.669160 0.928473
O O9 0.250000 0.250000 0.650325
O O10 0.256650 0.168162 0.733192
O O11 0.000000 0.198256 0.654539
O O12 0.500000 0.574772 0.507409
O O13 0.664591 0.500000 0.522592
O O14 0.730825 0.568649 0.631406
O O15 0.768073 0.567964 0.420799
O O16 0.500000 0.855311 0.837585
O O17 0.739922 0.910386 0.823480
O O18 0.500000 0.558091 0.749200
O O19 0.723873 0.500000 0.761612
O O20 0.500000 0.945796 0.301377
O O21 0.248125 0.910221 0.229806
O O22 0.265503 0.000000 0.292309
O O23 0.000000 0.860580 0.225729
#
# Coordination Sequence:
#
# PCOD9349326 Si02
#       8
#     8   8   8   8   8   8   8   8
#     4   9  19  35  56  84 116 148 184 231 289 352
#     4  11  24  44  68  91 117 150 197 251 302 358
#     4  10  20  36  57  83 118 154 191 237 293 356
#     4   8  15  30  53  79 111 154 197 237 284 340
#     4  12  25  39  59  87 120 156 200 245 297 357
#     4   9  19  37  60  86 118 157 201 247 296 351
#     4  10  21  35  53  83 122 160 199 244 291 341
#     4  10  22  39  61  88 115 151 198 242 293 356
#
# _framework density 19.193899999999999
#
# number of rings (size 3 to 8) (size 9 to 14) (size 15 to 20)
#    0.000    2.125    0.000    3.750    1.750    3.500 
#    0.000    1.875    0.000    0.750    0.000    0.000 
#    0.000    0.000    0.000    0.000    0.000    0.000 
#
# Total GULP energy -178741.493439 kJ/mol
# GULP energy per Si atom -5585.671670 kJ/mol
# Density = 1.915021 g / cm^3
# Si number density = 19.193900 Si / 1000 Ang^3
#
#
#
# Elastic Constant Matrix: (Units=GPa)
#
#
# Indices 1 2 3 4 5 6 
#
# 1 49.1805 45.1194 50.4918 0.0000 0.0000 0.0000
# 2 45.1194 135.5011 93.4242 0.0000 0.0000 0.0000
# 3 50.4918 93.4242 139.3594 0.0000 0.0000 0.0000
# 4 0.0000 0.0000 0.0000 38.4276 0.0000 0.0000
# 5 0.0000 0.0000 0.0000 0.0000 14.8718 0.0000
# 6 0.0000 0.0000 0.0000 0.0000 0.0000 31.0617
#
#
#
# Elastic Compliance Matrix: (Units=1/GPa)
#
#
# Indices 1 2 3 4 5 6 
#
# 1 0.034313 -0.005307 -0.008874 0.000000 0.000000 0.000000
# 2 -0.005307 0.014544 -0.007827 0.000000 0.000000 0.000000
# 3 -0.008874 -0.007827 0.015638 0.000000 0.000000 0.000000
# 4 0.000000 0.000000 0.000000 0.026023 0.000000 0.000000
# 5 0.000000 0.000000 0.000000 0.000000 0.067241 0.000000
# 6 0.000000 0.000000 0.000000 0.000000 0.000000 0.032194
#
#
# Mechanical properties :
#
#
# Convention : Reuss Voigt Hill
#
# Bulk Modulus (GPa) = 48.83281 78.01243 63.42262
# Shear Modulus (GPa) = 20.76445 25.87257 23.31851
#
# Velocity S-wave (km/s) = 3.29268 3.67544 3.48931
# Velocity P-wave (km/s) = 6.32082 7.66449 7.02485
#
# Compressibility (1/GPa) = 0.02047804
#
# Stress axis : x y z
#
# Youngs Moduli (GPa) = 29.14342 68.75841 63.94628
#
# Poissons Ratio (x) = 0.36490 0.56748
# Poissons Ratio (y) = 0.15466 0.50051
# Poissons Ratio (z) = 0.25863 0.53818
#
# Static dielectric constant tensor:
#      x y z
#    x 1.641540 0.000000 0.000000 
#    y 0.000000 1.691940 0.000000 
#    z 0.000000 0.000000 1.660800 
# 
# From -- ./inp_files/11907.got.cif
#   From: 2010.05.17/outbox.cif.g08.bks.cpg/sg35_6_cif.got.tgz:11907.got - 2010.06.03 17:29:28.
