data_PCOD9349191
_publ_section_title
;
Structure prediction by ZEFSAII (Michael W. Deem and Ramdas Pophale) SiO2 
 PCOD9349191
Probable space group: C M M 2
;
_chemical_formula_sum "Si O2"
_cell_formula_units_Z 64
_cell_length_a 17.097303
_cell_length_b 16.879418
_cell_length_c 11.964349
_cell_angle_alpha 90.000000
_cell_angle_beta 90.000000
_cell_angle_gamma 90.000000
_cell_volume 3452.821676
_symmetry_space_group_name_H-M "C M M 2"
_symmetry_group_IT_number 35
_symmetry_cell_setting 'orthorhombic'
loop_
_space_group_symop_operation_xyz
x,y,z
-x,-y,z
-x,y,z
x,-y,z
1/2+x,1/2+y,z
1/2-x,1/2-y,z
1/2-x,1/2+y,z
1/2+x,1/2-y,z
loop_
_atom_site_type_symbol
_atom_site_label
_atom_site_fract_x
_atom_site_fract_y
_atom_site_fract_z
Si Si1 0.199954 0.827562 0.658610
Si Si2 0.589511 0.094401 0.456834
Si Si3 0.643941 0.908940 0.710109
Si Si4 0.908186 0.243535 0.097551
Si Si5 0.408186 0.756465 0.837453
Si Si6 0.910489 0.905599 0.478169
Si Si7 0.199954 0.327562 0.276395
Si Si8 0.643941 0.591060 0.224894
O O1 0.250000 0.750000 0.626004
O O2 0.263642 0.891633 0.698103
O O3 0.143907 0.800146 0.759458
O O4 0.149112 0.859303 0.556461
O O5 0.500000 0.117722 0.433682
O O6 0.608060 0.106937 0.587228
O O7 0.649112 0.140697 0.378542
O O8 0.597511 0.000000 0.436406
O O9 0.608335 0.845392 0.794520
O O10 0.628644 0.000000 0.739627
O O11 0.856093 0.300145 0.175546
O O12 0.891665 0.154608 0.140483
O O13 0.000000 0.261869 0.109990
O O14 0.886828 0.250000 0.967502
O O15 0.500000 0.738132 0.825012
O O16 0.891940 0.893063 0.347776
O O17 0.000000 0.882277 0.501321
O O18 0.902490 0.000000 0.498597
O O19 0.250000 0.250000 0.309001
O O20 0.263642 0.391633 0.236900
O O21 0.628644 0.500000 0.195376
#
# Coordination Sequence:
#
# PCOD9349191 Si02
#       8
#     8   8   8   8   8   8   8   8
#     4  10  21  35  55  83 113 145 179 222 273 322
#     4  10  20  35  56  82 113 146 181 222 268 322
#     4  10  21  37  58  82 110 145 182 221 269 326
#     4  10  22  40  59  79 107 143 185 230 271 318
#     4  10  22  40  59  79 107 143 185 230 271 318
#     4  10  20  35  56  82 113 146 181 222 268 322
#     4  10  21  35  55  83 113 145 179 222 273 322
#     4  10  21  37  58  82 110 145 182 221 269 326
#
# _framework density 18.535564999999998
#
# number of rings (size 3 to 8) (size 9 to 14) (size 15 to 20)
#    0.000    2.000    0.000    3.000    0.000   15.000 
#    0.000   10.000    0.000    3.000    0.000    0.000 
#    0.000    0.000    0.000    0.000    0.000    0.000 
#
# Total GULP energy -178830.302133 kJ/mol
# GULP energy per Si atom -5588.446942 kJ/mol
# Density = 1.849338 g / cm^3
# Si number density = 18.535565 Si / 1000 Ang^3
#
#
#
# Elastic Constant Matrix: (Units=GPa)
#
#
# Indices 1 2 3 4 5 6 
#
# 1 91.0909 16.8256 46.0176 0.0000 0.0000 0.0000
# 2 16.8256 26.3584 41.9626 0.0000 0.0000 0.0000
# 3 46.0176 41.9626 104.7370 0.0000 0.0000 0.0000
# 4 0.0000 0.0000 0.0000 2.9470 0.0000 0.0000
# 5 0.0000 0.0000 0.0000 0.0000 70.4387 0.0000
# 6 0.0000 0.0000 0.0000 0.0000 0.0000 13.3905
#
#
#
# Elastic Compliance Matrix: (Units=1/GPa)
#
#
# Indices 1 2 3 4 5 6 
#
# 1 0.014164 0.002391 -0.007181 0.000000 0.000000 0.000000
# 2 0.002391 0.105157 -0.043181 0.000000 0.000000 0.000000
# 3 -0.007181 -0.043181 0.030003 0.000000 0.000000 0.000000
# 4 0.000000 0.000000 0.000000 0.339327 0.000000 0.000000
# 5 0.000000 0.000000 0.000000 0.000000 0.014197 0.000000
# 6 0.000000 0.000000 0.000000 0.000000 0.000000 0.074680
#
#
# Mechanical properties :
#
#
# Convention : Reuss Voigt Hill
#
# Bulk Modulus (GPa) = 18.73316 47.97754 33.35535
# Shear Modulus (GPa) = 7.23311 25.18061 16.20686
#
# Velocity S-wave (km/s) = 1.97756 3.68979 2.96018
# Velocity P-wave (km/s) = 3.91700 6.64025 5.45141
#
# Compressibility (1/GPa) = 0.05338128
#
# Stress axis : x y z
#
# Youngs Moduli (GPa) = 70.60046 9.50958 33.32972
#
# Poissons Ratio (x) = -0.02273 0.23934
# Poissons Ratio (y) = -0.16878 1.43922
# Poissons Ratio (z) = 0.50698 0.41064
#
# Static dielectric constant tensor:
#      x y z
#    x 1.648740 0.000000 0.000000 
#    y 0.000000 1.639020 0.000000 
#    z 0.000000 0.000000 1.601700 
# 
# From -- ./inp_files/13158.got.cif
#   From: 2010.05.17/outbox.cif.g08.bks.cpg/sg35_7_cif.got.tgz:13158.got - 2010.06.03 17:29:28.
