data_PCOD9349657
_publ_section_title
;
Structure prediction by ZEFSAII (Michael W. Deem and Ramdas Pophale) SiO2 
 PCOD9349657
Probable space group: C M M 2
;
_chemical_formula_sum "Si O2"
_cell_formula_units_Z 48
_cell_length_a 22.742634
_cell_length_b 19.053902
_cell_length_c 5.387903
_cell_angle_alpha 90.000000
_cell_angle_beta 90.000000
_cell_angle_gamma 90.000000
_cell_volume 2334.771900
_symmetry_space_group_name_H-M "C M M 2"
_symmetry_group_IT_number 35
_symmetry_cell_setting 'orthorhombic'
loop_
_space_group_symop_operation_xyz
x,y,z
-x,-y,z
-x,y,z
x,-y,z
1/2+x,1/2+y,z
1/2-x,1/2-y,z
1/2-x,1/2+y,z
1/2+x,1/2-y,z
loop_
_atom_site_type_symbol
_atom_site_label
_atom_site_fract_x
_atom_site_fract_y
_atom_site_fract_z
Si Si1 0.435700 0.922368 0.446320
Si Si2 0.565199 0.222340 0.748096
Si Si3 0.315654 0.730750 0.489546
Si Si4 0.716566 0.076821 0.804548
Si Si5 0.710155 0.578857 0.305803
Si Si6 0.362424 0.836862 0.109706
O O1 0.500000 0.922553 0.319969
O O2 0.436740 0.855557 0.626792
O O3 0.384063 0.904766 0.256776
O O4 0.428716 0.000000 0.558102
O O5 0.500000 0.253599 0.712412
O O6 0.623727 0.260992 0.646540
O O7 0.580358 0.207705 0.035490
O O8 0.250000 0.750000 0.601387
O O9 0.319846 0.652674 0.372799
O O10 0.321273 0.788236 0.272558
O O11 0.764646 0.083689 0.025983
O O12 0.671214 0.137170 0.867189
O O13 0.689898 0.000000 0.840221
O O14 0.741803 0.078481 0.528669
O O15 0.682017 0.500000 0.324144
#
# Coordination Sequence:
#
# PCOD9349657 Si02
#       6
#     8   8   8   8   8   8
#     4   9  19  35  52  75 111 157 209 253 295 356
#     4  10  23  39  57  83 120 162 208 260 318 380
#     4  11  22  38  62  91 118 158 203 263 311 382
#     4  10  21  36  57  88 128 163 202 254 312 370
#     4  10  22  40  60  89 125 161 202 258 322 378
#     4  11  21  33  55  84 118 161 206 253 306 372
#
# _framework density 20.558755000000001
#
# number of rings (size 3 to 8) (size 9 to 14) (size 15 to 20)
#    0.000    1.833    1.667    2.000    4.667    2.667 
#    0.000    1.667    0.000    0.500    0.000    0.000 
#    0.000    0.000    0.000    0.000    0.000    0.000 
#
# Total GULP energy -133674.616261 kJ/mol
# GULP energy per Si atom -5569.775678 kJ/mol
# Density = 2.051196 g / cm^3
# Si number density = 20.558755 Si / 1000 Ang^3
#
#
#
# Elastic Constant Matrix: (Units=GPa)
#
#
# Indices 1 2 3 4 5 6 
#
# 1 111.8209 42.9906 23.4813 0.0000 0.0000 0.0000
# 2 42.9906 110.3779 -4.5314 0.0000 0.0000 0.0000
# 3 23.4813 -4.5314 37.5848 0.0000 0.0000 0.0000
# 4 0.0000 0.0000 0.0000 17.2762 0.0000 0.0000
# 5 0.0000 0.0000 0.0000 0.0000 21.2263 0.0000
# 6 0.0000 0.0000 0.0000 0.0000 0.0000 25.4517
#
#
#
# Elastic Compliance Matrix: (Units=1/GPa)
#
#
# Indices 1 2 3 4 5 6 
#
# 1 0.012815 -0.005346 -0.008651 0.000000 0.000000 0.000000
# 2 -0.005346 0.011335 0.004707 0.000000 0.000000 0.000000
# 3 -0.008651 0.004707 0.032579 0.000000 0.000000 0.000000
# 4 0.000000 0.000000 0.000000 0.057883 0.000000 0.000000
# 5 0.000000 0.000000 0.000000 0.000000 0.047111 0.000000
# 6 0.000000 0.000000 0.000000 0.000000 0.000000 0.039290
#
#
# Mechanical properties :
#
#
# Convention : Reuss Voigt Hill
#
# Bulk Modulus (GPa) = 26.21359 42.62942 34.42150
# Shear Modulus (GPa) = 21.52299 25.98040 23.75169
#
# Velocity S-wave (km/s) = 3.23910 3.55873 3.40267
# Velocity P-wave (km/s) = 5.17371 6.13731 5.67599
#
# Compressibility (1/GPa) = 0.03814815
#
# Stress axis : x y z
#
# Youngs Moduli (GPa) = 78.03411 88.21961 30.69506
#
# Poissons Ratio (x) = 0.47165 0.26554
# Poissons Ratio (y) = 0.41720 -0.14448
# Poissons Ratio (z) = 0.67505 -0.41523
#
# Static dielectric constant tensor:
#      x y z
#    x 1.789720 0.000000 0.000000 
#    y 0.000000 1.768980 0.000000 
#    z 0.000000 0.000000 1.824680 
# 
# From -- ./inp_files/2563.got.cif
#   From: 2010.05.17/outbox.cif.g08.bks.cpg/sg35_2_cif.got.tgz:2563.got - 2010.06.03 17:29:28.
