data_PCOD9349759
_publ_section_title
;
Structure prediction by ZEFSAII (Michael W. Deem and Ramdas Pophale) SiO2 
 PCOD9349759
Probable space group: C M M 2
;
_chemical_formula_sum "Si O2"
_cell_formula_units_Z 48
_cell_length_a 16.155427
_cell_length_b 8.829623
_cell_length_c 17.106130
_cell_angle_alpha 90.000000
_cell_angle_beta 90.000000
_cell_angle_gamma 90.000000
_cell_volume 2440.126662
_symmetry_space_group_name_H-M "C M M 2"
_symmetry_group_IT_number 35
_symmetry_cell_setting 'orthorhombic'
loop_
_space_group_symop_operation_xyz
x,y,z
-x,-y,z
-x,y,z
x,-y,z
1/2+x,1/2+y,z
1/2-x,1/2-y,z
1/2-x,1/2+y,z
1/2+x,1/2-y,z
loop_
_atom_site_type_symbol
_atom_site_label
_atom_site_fract_x
_atom_site_fract_y
_atom_site_fract_z
Si Si1 0.904085 0.176890 0.487590
Si Si2 0.595990 0.818092 0.813861
Si Si3 0.162284 0.182903 0.321552
Si Si4 0.000000 0.318646 0.237816
Si Si5 0.340773 0.819390 0.643624
Si Si6 0.835361 0.180432 0.968037
Si Si7 0.000000 0.816970 0.065788
O O1 0.850222 0.224491 0.413169
O O2 0.888772 0.266881 0.566711
O O3 0.000000 0.189973 0.464025
O O4 0.886645 0.000000 0.503517
O O5 0.500000 0.781857 0.828537
O O6 0.618756 0.771124 0.725784
O O7 0.650016 0.739633 0.880128
O O8 0.606303 0.000000 0.819450
O O9 0.250000 0.250000 0.294143
O O10 0.082962 0.249770 0.276791
O O11 0.161666 0.000000 0.315368
O O12 0.000000 0.500000 0.246150
O O13 0.000000 0.268026 0.147739
O O14 0.250000 0.750000 0.639122
O O15 0.336446 0.000000 0.644084
O O16 0.750000 0.250000 0.999185
O O17 0.828774 0.000000 0.967544
O O18 0.917020 0.222244 0.017517
O O19 0.000000 0.000000 0.077714
#
# Coordination Sequence:
#
# PCOD9349759 Si02
#       7
#     8   8   8   4   8   8   4
#     4  10  21  39  62  89 121 163 210 260 317 371
#     4  10  21  38  60  87 122 163 209 261 315 370
#     4  11  23  43  68  97 133 171 214 266 320 382
#     4  12  26  44  70 101 130 169 212 257 322 387
#     4  11  23  37  54  83 121 164 211 262 313 367
#     4  11  23  41  66  96 127 166 211 257 313 374
#     4  10  24  46  68  93 130 167 204 259 318 379
#
# _framework density 19.671108
#
# number of rings (size 3 to 8) (size 9 to 14) (size 15 to 20)
#    0.000    1.333    1.667    3.750    0.000    8.333 
#    0.000    1.667    0.000    0.000    0.000    0.000 
#    0.000    0.000    0.000    0.000    0.000    0.000 
#
# Total GULP energy -134173.228811 kJ/mol
# GULP energy per Si atom -5590.551200 kJ/mol
# Density = 1.962634 g / cm^3
# Si number density = 19.671108 Si / 1000 Ang^3
#
#
#
# Elastic Constant Matrix: (Units=GPa)
#
#
# Indices 1 2 3 4 5 6 
#
# 1 146.0663 52.2086 59.0171 0.0000 0.0000 0.0000
# 2 52.2086 50.4820 46.5136 0.0000 0.0000 0.0000
# 3 59.0171 46.5136 111.1618 0.0000 0.0000 0.0000
# 4 0.0000 0.0000 0.0000 27.2550 0.0000 0.0000
# 5 0.0000 0.0000 0.0000 0.0000 9.2410 0.0000
# 6 0.0000 0.0000 0.0000 0.0000 0.0000 30.6924
#
#
#
# Elastic Compliance Matrix: (Units=1/GPa)
#
#
# Indices 1 2 3 4 5 6 
#
# 1 0.011071 -0.009820 -0.001769 0.000000 0.000000 0.000000
# 2 -0.009820 0.040948 -0.011921 0.000000 0.000000 0.000000
# 3 -0.001769 -0.011921 0.014923 0.000000 0.000000 0.000000
# 4 0.000000 0.000000 0.000000 0.036691 0.000000 0.000000
# 5 0.000000 0.000000 0.000000 0.000000 0.108213 0.000000
# 6 0.000000 0.000000 0.000000 0.000000 0.000000 0.032581
#
#
# Mechanical properties :
#
#
# Convention : Reuss Voigt Hill
#
# Bulk Modulus (GPa) = 50.19144 69.24320 59.71732
# Shear Modulus (GPa) = 16.77368 23.43573 20.10470
#
# Velocity S-wave (km/s) = 2.92328 3.45538 3.20041
# Velocity P-wave (km/s) = 6.07987 7.15517 6.63932
#
# Compressibility (1/GPa) = 0.01992372
#
# Stress axis : x y z
#
# Youngs Moduli (GPa) = 90.32851 24.42115 67.01128
#
# Poissons Ratio (x) = 0.23981 0.11852
# Poissons Ratio (y) = 0.88700 0.79881
# Poissons Ratio (z) = 0.15976 0.29111
#
# Static dielectric constant tensor:
#      x y z
#    x 1.690070 0.000000 0.000000 
#    y 0.000000 1.665480 0.000000 
#    z 0.000000 0.000000 1.687960 
# 
# From -- ./inp_files/15217.got.cif
#   From: 2010.05.17/outbox.cif.g08.bks.cpg/sg35_8_cif.got.tgz:15217.got - 2010.06.03 17:29:28.
