data_PCOD9349315
_publ_section_title
;
Structure prediction by ZEFSAII (Michael W. Deem and Ramdas Pophale) SiO2 
 PCOD9349315
Probable space group: C M M 2
;
_chemical_formula_sum "Si O2"
_cell_formula_units_Z 48
_cell_length_a 30.802339
_cell_length_b 8.659320
_cell_length_c 9.813174
_cell_angle_alpha 90.000000
_cell_angle_beta 90.000000
_cell_angle_gamma 90.000000
_cell_volume 2617.441505
_symmetry_space_group_name_H-M "C M M 2"
_symmetry_group_IT_number 35
_symmetry_cell_setting 'orthorhombic'
loop_
_space_group_symop_operation_xyz
x,y,z
-x,-y,z
-x,y,z
x,-y,z
1/2+x,1/2+y,z
1/2-x,1/2-y,z
1/2-x,1/2+y,z
1/2+x,1/2-y,z
loop_
_atom_site_type_symbol
_atom_site_label
_atom_site_fract_x
_atom_site_fract_y
_atom_site_fract_z
Si Si1 0.376179 0.813738 0.196670
Si Si2 0.050138 0.184676 0.388665
Si Si3 0.127397 0.687081 0.882180
Si Si4 0.049784 0.313873 0.685038
Si Si5 0.798021 0.815571 0.691087
Si Si6 0.797869 0.685673 0.393683
O O1 0.417700 0.748775 0.275328
O O2 0.333199 0.768950 0.281136
O O3 0.378642 0.000000 0.199083
O O4 0.374081 0.764555 0.039590
O O5 0.062696 0.247228 0.538077
O O6 0.000000 0.232445 0.364780
O O7 0.051968 0.000000 0.390506
O O8 0.130826 0.500000 0.877708
O O9 0.083689 0.731968 0.801176
O O10 0.167889 0.757851 0.802145
O O11 0.050406 0.500000 0.675639
O O12 0.000000 0.265665 0.713315
O O13 0.750000 0.750000 0.719913
O O14 0.810676 0.750997 0.541870
O O15 0.796431 0.000000 0.686024
O O16 0.795948 0.500000 0.401999
O O17 0.750000 0.750000 0.362331
#
# Coordination Sequence:
#
# PCOD9349315 Si02
#       6
#     8   8   8   8   8   8
#     4  10  22  37  55  80 111 146 180 218 266 322
#     4  10  21  36  55  80 109 141 180 226 271 316
#     4  10  21  37  55  80 113 144 178 221 268 319
#     4   9  18  34  57  81 105 139 182 224 267 318
#     4  11  22  37  58  82 107 140 181 223 269 318
#     4  10  20  36  57  81 107 138 179 224 269 317
#
# _framework density 18.338519000000002
#
# number of rings (size 3 to 8) (size 9 to 14) (size 15 to 20)
#    0.000    2.000    0.000    4.500    0.000    9.000 
#    0.000    3.333    0.000    2.000    0.000    0.000 
#    0.000    0.000    0.000    0.000    0.000    0.000 
#
# Total GULP energy -134069.850584 kJ/mol
# GULP energy per Si atom -5586.243774 kJ/mol
# Density = 1.829678 g / cm^3
# Si number density = 18.338519 Si / 1000 Ang^3
#
#
#
# Elastic Constant Matrix: (Units=GPa)
#
#
# Indices 1 2 3 4 5 6 
#
# 1 123.1621 41.1155 130.4700 0.0000 0.0000 0.0000
# 2 41.1155 39.8073 49.6492 0.0000 0.0000 0.0000
# 3 130.4700 49.6492 198.9771 0.0000 0.0000 0.0000
# 4 0.0000 0.0000 0.0000 12.2652 0.0000 0.0000
# 5 0.0000 0.0000 0.0000 0.0000 -15.2395 0.0000
# 6 0.0000 0.0000 0.0000 0.0000 0.0000 28.9790
#
#
#
# Elastic Compliance Matrix: (Units=1/GPa)
#
#
# Indices 1 2 3 4 5 6 
#
# 1 0.028621 -0.008936 -0.016537 0.000000 0.000000 0.000000
# 2 -0.008936 0.039261 -0.003937 0.000000 0.000000 0.000000
# 3 -0.016537 -0.003937 0.016852 0.000000 0.000000 0.000000
# 4 0.000000 0.000000 0.000000 0.081531 0.000000 0.000000
# 5 0.000000 0.000000 0.000000 0.000000 -0.065619 0.000000
# 6 0.000000 0.000000 0.000000 0.000000 0.000000 0.034508
#
#
# Mechanical properties :
#
#
# Convention : Reuss Voigt Hill
#
# Bulk Modulus (GPa) = 38.59021 89.37955 63.98488
# Shear Modulus (GPa) = 24.67773 14.58172 19.62973
#
# Velocity S-wave (km/s) = 3.67233 2.82288 3.27526
# Velocity P-wave (km/s) = 6.25062 7.71164 7.01925
#
# Compressibility (1/GPa) = 0.02591331
#
# Stress axis : x y z
#
# Youngs Moduli (GPa) = 34.93974 25.47040 59.34156
#
# Poissons Ratio (x) = 0.22759 0.98134
# Poissons Ratio (y) = 0.31221 0.23365
# Poissons Ratio (z) = 0.57780 0.10029
#
# Static dielectric constant tensor:
#      x y z
#    x 1.624040 0.000000 0.000000 
#    y 0.000000 1.619800 0.000000 
#    z 0.000000 0.000000 1.600260 
# 
# From -- ./inp_files/5269.got.cif
#   From: 2010.05.17/outbox.cif.g08.bks.cpg/sg35_3_cif.got.tgz:5269.got - 2010.06.03 17:29:28.
