data_PCOD9349791
_publ_section_title
;
Structure prediction by ZEFSAII (Michael W. Deem and Ramdas Pophale) SiO2 
 PCOD9349791
Probable space group: C M M 2
;
_chemical_formula_sum "Si O2"
_cell_formula_units_Z 40
_cell_length_a 11.818147
_cell_length_b 18.981810
_cell_length_c 7.706372
_cell_angle_alpha 90.000000
_cell_angle_beta 90.000000
_cell_angle_gamma 90.000000
_cell_volume 1728.769051
_symmetry_space_group_name_H-M "C M M 2"
_symmetry_group_IT_number 35
_symmetry_cell_setting 'orthorhombic'
loop_
_space_group_symop_operation_xyz
x,y,z
-x,-y,z
-x,y,z
x,-y,z
1/2+x,1/2+y,z
1/2-x,1/2-y,z
1/2-x,1/2+y,z
1/2+x,1/2-y,z
loop_
_atom_site_type_symbol
_atom_site_label
_atom_site_fract_x
_atom_site_fract_y
_atom_site_fract_z
Si Si1 0.623465 0.226003 0.095290
Si Si2 0.877496 0.915868 0.304655
Si Si3 0.794374 0.580882 0.602778
Si Si4 0.294374 0.080882 0.006532
Si Si5 0.376535 0.226003 0.514021
O O1 0.500000 0.255747 0.035431
O O2 0.750000 0.250000 0.030626
O O3 0.626890 0.233685 0.304656
O O4 0.620357 0.143252 0.047046
O O5 0.809362 0.899630 0.477305
O O6 0.000000 0.883424 0.304656
O O7 0.887150 0.000000 0.304655
O O8 0.809363 0.899630 0.132004
O O9 0.830231 0.500000 0.561661
O O10 0.763754 0.582103 0.804655
O O11 0.879644 0.643252 0.562265
O O12 0.330230 0.000000 0.047650
O O13 0.500000 0.255747 0.573880
O O14 0.250000 0.250000 0.578685
#
# Coordination Sequence:
#
# PCOD9349791 Si02
#       5
#     8   8   8   8   8
#     4  10  22  41  64  93 129 170 216 265 320 383
#     4   9  18  34  56  85 126 171 209 253 312 375
#     4  10  21  38  62  94 128 163 210 266 322 380
#     4  10  21  38  62  94 128 163 210 266 322 380
#     4  10  22  41  64  93 129 170 216 265 320 383
#
# _framework density 23.137848999999999
#
# number of rings (size 3 to 8) (size 9 to 14) (size 15 to 20)
#    0.000    2.200    2.000    0.000    0.000    4.800 
#    0.000    8.000    0.000    0.000    0.000    0.000 
#    0.000    0.000    0.000    0.000    0.000    0.000 
#
# Total GULP energy -111478.202099 kJ/mol
# GULP energy per Si atom -5573.910105 kJ/mol
# Density = 2.308519 g / cm^3
# Si number density = 23.137849 Si / 1000 Ang^3
#
#
#
# Elastic Constant Matrix: (Units=GPa)
#
#
# Indices 1 2 3 4 5 6 
#
# 1 221.2187 59.3750 41.6316 0.0000 0.0000 0.0000
# 2 59.3750 105.5724 5.0090 0.0000 0.0000 0.0000
# 3 41.6316 5.0090 63.9095 0.0000 0.0000 0.0000
# 4 0.0000 0.0000 0.0000 26.7632 0.0000 0.0000
# 5 0.0000 0.0000 0.0000 0.0000 76.6537 0.0000
# 6 0.0000 0.0000 0.0000 0.0000 0.0000 26.1703
#
#
#
# Elastic Compliance Matrix: (Units=1/GPa)
#
#
# Indices 1 2 3 4 5 6 
#
# 1 0.006091 -0.003250 -0.003713 0.000000 0.000000 0.000000
# 2 -0.003250 0.011241 0.001236 0.000000 0.000000 0.000000
# 3 -0.003713 0.001236 0.017969 0.000000 0.000000 0.000000
# 4 0.000000 0.000000 0.000000 0.037365 0.000000 0.000000
# 5 0.000000 0.000000 0.000000 0.000000 0.013046 0.000000
# 6 0.000000 0.000000 0.000000 0.000000 0.000000 0.038211
#
#
# Mechanical properties :
#
#
# Convention : Reuss Voigt Hill
#
# Bulk Modulus (GPa) = 41.93321 66.97020 54.45171
# Shear Modulus (GPa) = 34.88520 44.89643 39.89082
#
# Velocity S-wave (km/s) = 3.88714 4.40976 4.15667
# Velocity P-wave (km/s) = 6.18943 7.41181 6.82803
#
# Compressibility (1/GPa) = 0.02384745
#
# Stress axis : x y z
#
# Youngs Moduli (GPa) = 164.16417 88.95836 55.65080
#
# Poissons Ratio (x) = 0.28909 0.20665
# Poissons Ratio (y) = 0.53349 -0.06878
# Poissons Ratio (z) = 0.60960 -0.10994
#
# Static dielectric constant tensor:
#      x y z
#    x 1.916470 0.000000 0.000000 
#    y 0.000000 1.934860 0.000000 
#    z 0.000000 0.000000 1.822350 
# 
# From -- ./inp_files/5906.got.cif
#   From: 2010.05.17/outbox.cif.g08.bks.cpg/sg35_3_cif.got.tgz:5906.got - 2010.06.03 17:29:28.
