data_PCOD9349529
_publ_section_title
;
Structure prediction by ZEFSAII (Michael W. Deem and Ramdas Pophale) SiO2 
 PCOD9349529
Probable space group: C M M 2
;
_chemical_formula_sum "Si O2"
_cell_formula_units_Z 58
_cell_length_a 8.107789
_cell_length_b 19.431743
_cell_length_c 17.921567
_cell_angle_alpha 90.000000
_cell_angle_beta 90.000000
_cell_angle_gamma 90.000000
_cell_volume 2823.515499
_symmetry_space_group_name_H-M "C M M 2"
_symmetry_group_IT_number 35
_symmetry_cell_setting 'orthorhombic'
loop_
_space_group_symop_operation_xyz
x,y,z
-x,-y,z
-x,y,z
x,-y,z
1/2+x,1/2+y,z
1/2-x,1/2-y,z
1/2-x,1/2+y,z
1/2+x,1/2-y,z
loop_
_atom_site_type_symbol
_atom_site_label
_atom_site_fract_x
_atom_site_fract_y
_atom_site_fract_z
Si Si1 0.809978 0.324795 0.816630
Si Si2 0.500000 0.500000 0.688433
Si Si3 0.802701 0.828964 0.348709
Si Si4 0.803885 0.922373 0.939220
Si Si5 0.195968 0.421001 0.211955
Si Si6 0.301517 0.671070 0.519262
Si Si7 0.305093 0.671092 0.073184
Si Si8 0.690609 0.104188 0.667812
O O1 0.750000 0.250000 0.840390
O O2 0.720105 0.386103 0.859849
O O3 0.795144 0.334360 0.727967
O O4 0.000000 0.331420 0.837172
O O5 0.349998 0.557988 0.685579
O O6 0.750000 0.750000 0.332763
O O7 0.732896 0.882645 0.289518
O O8 0.753844 0.846172 0.433926
O O9 0.000000 0.831096 0.344593
O O10 0.000000 0.927994 0.951805
O O11 0.735441 0.000000 0.941820
O O12 0.734358 0.871370 0.002588
O O13 0.258842 0.500000 0.210158
O O14 0.267634 0.373571 0.146463
O O15 0.000000 0.423377 0.201541
O O16 0.500000 0.664022 0.526115
O O17 0.250000 0.750000 0.530548
O O18 0.213530 0.627095 0.582543
O O19 0.500000 0.674318 0.063375
O O20 0.250000 0.750000 0.078905
O O21 0.500000 0.078101 0.677680
#
# Coordination Sequence:
#
# PCOD9349529 Si02
#       8
#     8   2   8   8   8   8   8   8
#     4  11  25  41  64  95 127 165 216 266 317 379
#     4  12  26  44  68  90 136 176 210 280 324 402
#     4  10  21  38  63  92 125 163 210 260 313 375
#     4  10  23  41  65  93 126 166 205 252 315 379
#     4  11  24  41  61  88 123 163 206 255 318 378
#     4  10  20  38  64  94 126 166 214 270 326 380
#     4  11  23  41  65  93 123 159 207 257 310 375
#     4  11  25  43  66  97 129 173 224 270 328 393
#
# _framework density 20.541768999999999
#
# number of rings (size 3 to 8) (size 9 to 14) (size 15 to 20)
#    0.000    1.379    0.690    3.931    2.897    6.897 
#    1.241    0.000    0.000    0.000    0.000    0.000 
#    0.000    0.000    0.000    0.000    0.000    0.000 
#
# Total GULP energy -161669.635122 kJ/mol
# GULP energy per Si atom -5574.815004 kJ/mol
# Density = 2.049502 g / cm^3
# Si number density = 20.541769 Si / 1000 Ang^3
#
#
#
# Elastic Constant Matrix: (Units=GPa)
#
#
# Indices 1 2 3 4 5 6 
#
# 1 79.3229 33.2422 8.4294 0.0000 0.0000 0.0000
# 2 33.2422 156.4755 64.4258 0.0000 0.0000 0.0000
# 3 8.4294 64.4258 94.5578 0.0000 0.0000 0.0000
# 4 0.0000 0.0000 0.0000-2288.4520 0.0000 0.0000
# 5 0.0000 0.0000 0.0000 0.0000 11.3800 0.0000
# 6 0.0000 0.0000 0.0000 0.0000 0.0000 -2.8565
#
#
#
# Elastic Compliance Matrix: (Units=1/GPa)
#
#
# Indices 1 2 3 4 5 6 
#
# 1 0.013917 -0.003399 0.001076 0.000000 0.000000 0.000000
# 2 -0.003399 0.009713 -0.006315 0.000000 0.000000 0.000000
# 3 0.001076 -0.006315 0.014782 0.000000 0.000000 0.000000
# 4 0.000000 0.000000 0.000000 -0.000437 0.000000 0.000000
# 5 0.000000 0.000000 0.000000 0.000000 0.087874 0.000000
# 6 0.000000 0.000000 0.000000 0.000000 0.000000 -0.350081
#
#
# Mechanical properties :
#
#
# Convention : Reuss Voigt Hill
#
# Bulk Modulus (GPa) = 47.31531 60.28344 53.79938
# Shear Modulus (GPa) = -25.01131 -441.03511 -233.02321
#
# Velocity S-wave (km/s) = -3.49317 -14.66860 -10.66232
# Velocity P-wave (km/s) = 2.61037 16.04618 11.19522
#
# Compressibility (1/GPa) = 0.02113481
#
# Stress axis : x y z
#
# Youngs Moduli (GPa) = 71.85454 102.95548 67.64914
#
# Poissons Ratio (x) = 0.34999 -0.07276
# Poissons Ratio (y) = 0.24426 0.42719
# Poissons Ratio (z) = -0.07728 0.65014
#
# Static dielectric constant tensor:
#      x y z
#    x 1.724770 0.000000 0.000000 
#    y 0.000000 1.807630 0.000000 
#    z 0.000000 0.000000 1.737960 
# 
# From -- ./inp_files/18139.got.cif
#   From: 2010.05.17/outbox.cif.g08.bks.cpg/sg35_10_cif.got.tgz:18139.got - 2010.06.03 17:29:28.
