data_PCOD9349208
_publ_section_title
;
Structure prediction by ZEFSAII (Michael W. Deem and Ramdas Pophale) SiO2 
 PCOD9349208
Probable space group: C M M 2
;
_chemical_formula_sum "Si O2"
_cell_formula_units_Z 64
_cell_length_a 18.600706
_cell_length_b 14.092910
_cell_length_c 12.656114
_cell_angle_alpha 90.000000
_cell_angle_beta 90.000000
_cell_angle_gamma 90.000000
_cell_volume 3317.649368
_symmetry_space_group_name_H-M "C M M 2"
_symmetry_group_IT_number 35
_symmetry_cell_setting 'orthorhombic'
loop_
_space_group_symop_operation_xyz
x,y,z
-x,-y,z
-x,y,z
x,-y,z
1/2+x,1/2+y,z
1/2-x,1/2-y,z
1/2-x,1/2+y,z
1/2+x,1/2-y,z
loop_
_atom_site_type_symbol
_atom_site_label
_atom_site_fract_x
_atom_site_fract_y
_atom_site_fract_z
Si Si1 0.318185 0.887438 0.069640
Si Si2 0.699172 0.610808 0.737978
Si Si3 0.914488 0.889461 0.354323
Si Si4 0.422936 0.885382 0.881224
Si Si5 0.662736 0.386388 0.978899
Si Si6 0.365765 0.889768 0.666220
Si Si7 0.083546 0.769923 0.143732
Si Si8 0.833305 0.227750 0.532447
O O1 0.361534 0.818859 0.147660
O O2 0.327091 0.000000 0.092125
O O3 0.357527 0.865298 0.958184
O O4 0.234519 0.868571 0.048957
O O5 0.679423 0.500000 0.728354
O O6 0.679104 0.640967 0.857080
O O7 0.784722 0.616646 0.714654
O O8 0.665085 0.670673 0.643560
O O9 0.902695 0.840712 0.241064
O O10 0.871134 0.832167 0.442469
O O11 0.000000 0.884851 0.376634
O O12 0.893277 0.000000 0.352242
O O13 0.500000 0.855286 0.925519
O O14 0.413793 0.851744 0.762006
O O15 0.423061 0.000000 0.873826
O O16 0.649866 0.500000 0.979976
O O17 0.600511 0.328405 0.036559
O O18 0.369817 0.827467 0.561772
O O19 0.380981 0.000000 0.645741
O O20 0.000000 0.740629 0.148774
O O21 0.750000 0.250000 0.506679
#
# Coordination Sequence:
#
# PCOD9349208 Si02
#       8
#     8   8   8   8   8   8   8   8
#     4  10  20  35  56  86 119 153 193 231 279 343
#     4   9  17  32  53  81 117 153 188 233 290 344
#     4  10  23  46  67  80 106 151 201 248 295 352
#     4   9  16  27  45  71 110 156 191 216 252 321
#     4  10  20  35  59  87 119 156 191 235 290 346
#     4   9  17  30  48  78 119 154 184 220 276 342
#     4  11  24  39  59  84 112 151 197 244 297 349
#     4  10  21  34  59  89 114 144 193 245 294 336
#
# _framework density 19.290766000000001
#
# number of rings (size 3 to 8) (size 9 to 14) (size 15 to 20)
#    0.000    2.250    1.250    1.500    1.750    4.500 
#    0.000    1.250    0.000    1.500    0.000    0.000 
#    0.000    0.000    0.000    0.000    0.000    0.000 
#
# Total GULP energy -178548.208628 kJ/mol
# GULP energy per Si atom -5579.631520 kJ/mol
# Density = 1.924686 g / cm^3
# Si number density = 19.290766 Si / 1000 Ang^3
#
#
#
# Elastic Constant Matrix: (Units=GPa)
#
#
# Indices 1 2 3 4 5 6 
#
# 1 37.5780 20.4792 22.7387 0.0000 0.0000 0.0000
# 2 20.4792 97.8471 57.2737 0.0000 0.0000 0.0000
# 3 22.7387 57.2737 85.8430 0.0000 0.0000 0.0000
# 4 0.0000 0.0000 0.0000 38.6851 0.0000 0.0000
# 5 0.0000 0.0000 0.0000 0.0000 22.6643 0.0000
# 6 0.0000 0.0000 0.0000 0.0000 0.0000 23.7926
#
#
#
# Elastic Compliance Matrix: (Units=1/GPa)
#
#
# Indices 1 2 3 4 5 6 
#
# 1 0.032173 -0.002864 -0.006611 0.000000 0.000000 0.000000
# 2 -0.002864 0.017024 -0.010599 0.000000 0.000000 0.000000
# 3 -0.006611 -0.010599 0.020472 0.000000 0.000000 0.000000
# 4 0.000000 0.000000 0.000000 0.025850 0.000000 0.000000
# 5 0.000000 0.000000 0.000000 0.000000 0.044122 0.000000
# 6 0.000000 0.000000 0.000000 0.000000 0.000000 0.042030
#
#
# Mechanical properties :
#
#
# Convention : Reuss Voigt Hill
#
# Bulk Modulus (GPa) = 33.87617 46.91684 40.39650
# Shear Modulus (GPa) = 21.58339 25.08017 23.33178
#
# Velocity S-wave (km/s) = 3.34854 3.60962 3.48153
# Velocity P-wave (km/s) = 5.70520 6.46113 6.09489
#
# Compressibility (1/GPa) = 0.02951928
#
# Stress axis : x y z
#
# Youngs Moduli (GPa) = 31.08234 58.74166 48.84635
#
# Poissons Ratio (x) = 0.16822 0.32295
# Poissons Ratio (y) = 0.08901 0.51775
# Poissons Ratio (z) = 0.20550 0.62263
#
# Static dielectric constant tensor:
#      x y z
#    x 1.715340 0.000000 0.000000 
#    y 0.000000 1.714540 0.000000 
#    z 0.000000 0.000000 1.653340 
# 
# From -- ./inp_files/13155.got.cif
#   From: 2010.05.17/outbox.cif.g08.bks.cpg/sg35_7_cif.got.tgz:13155.got - 2010.06.03 17:29:28.
