data_PCOD9349410
_publ_section_title
;
Structure prediction by ZEFSAII (Michael W. Deem and Ramdas Pophale) SiO2 
 PCOD9349410
Probable space group: C M M 2
;
_chemical_formula_sum "Si O2"
_cell_formula_units_Z 48
_cell_length_a 9.049913
_cell_length_b 16.598001
_cell_length_c 17.516587
_cell_angle_alpha 90.000000
_cell_angle_beta 90.000000
_cell_angle_gamma 90.000000
_cell_volume 2631.174679
_symmetry_space_group_name_H-M "C M M 2"
_symmetry_group_IT_number 35
_symmetry_cell_setting 'orthorhombic'
loop_
_space_group_symop_operation_xyz
x,y,z
-x,-y,z
-x,y,z
x,-y,z
1/2+x,1/2+y,z
1/2-x,1/2-y,z
1/2-x,1/2+y,z
1/2+x,1/2-y,z
loop_
_atom_site_type_symbol
_atom_site_label
_atom_site_fract_x
_atom_site_fract_y
_atom_site_fract_z
Si Si1 0.176672 0.500000 0.256220
Si Si2 0.667663 0.408285 0.381969
Si Si3 0.177113 0.094729 0.838298
Si Si4 0.178316 0.165195 0.998840
Si Si5 0.822790 0.334402 0.526414
Si Si6 0.678194 0.500000 0.090822
Si Si7 0.166571 0.595888 0.685926
O O1 0.243922 0.576462 0.303276
O O2 0.238819 0.500000 0.171344
O O3 0.000000 0.500000 0.259649
O O4 0.500000 0.378553 0.369807
O O5 0.657339 0.500000 0.412596
O O6 0.755440 0.360765 0.445757
O O7 0.225619 0.145468 0.911730
O O8 0.238902 0.125239 0.757575
O O9 0.000000 0.096532 0.835919
O O10 0.218985 0.000000 0.849522
O O11 0.250000 0.250000 0.024122
O O12 0.000000 0.173310 0.001039
O O13 0.214349 0.083291 0.046075
O O14 0.750000 0.250000 0.545148
O O15 0.781875 0.388046 0.599810
O O16 0.000000 0.332103 0.520077
O O17 0.500000 0.500000 0.102075
O O18 0.160867 0.500000 0.694247
O O19 0.000000 0.628891 0.692232
#
# Coordination Sequence:
#
# PCOD9349410 Si02
#       7
#     4   8   8   8   8   4   8
#     4  10  20  36  62  91 114 141 180 227 282 339
#     4   9  19  36  59  84 108 138 182 224 273 339
#     4   9  17  33  55  78 106 147 194 238 286 343
#     4  10  21  37  59  86 118 155 196 241 295 350
#     4  11  22  35  52  76 112 152 191 238 291 340
#     4  10  20  40  64  85 118 157 192 237 290 357
#     4   9  19  34  52  76 106 145 191 239 288 334
#
# _framework density 18.242802000000001
#
# number of rings (size 3 to 8) (size 9 to 14) (size 15 to 20)
#    0.500    1.833    0.833    2.000    0.000    4.000 
#    0.000    5.833    0.000    2.000    0.000    0.000 
#    0.000    0.000    0.000    0.000    0.000    0.000 
#
# Total GULP energy -133609.321630 kJ/mol
# GULP energy per Si atom -5567.055068 kJ/mol
# Density = 1.820128 g / cm^3
# Si number density = 18.242802 Si / 1000 Ang^3
#
#
#
# Elastic Constant Matrix: (Units=GPa)
#
#
# Indices 1 2 3 4 5 6 
#
# 1 72.9855 33.9169 62.0196 0.0000 0.0000 0.0000
# 2 33.9169 64.5368 38.3275 0.0000 0.0000 0.0000
# 3 62.0196 38.3275 137.4694 0.0000 0.0000 0.0000
# 4 0.0000 0.0000 0.0000 4.0595 0.0000 0.0000
# 5 0.0000 0.0000 0.0000 0.0000 31.7627 0.0000
# 6 0.0000 0.0000 0.0000 0.0000 0.0000 24.0347
#
#
#
# Elastic Compliance Matrix: (Units=1/GPa)
#
#
# Indices 1 2 3 4 5 6 
#
# 1 0.025080 -0.007743 -0.009156 0.000000 0.000000 0.000000
# 2 -0.007743 0.020960 -0.002351 0.000000 0.000000 0.000000
# 3 -0.009156 -0.002351 0.012061 0.000000 0.000000 0.000000
# 4 0.000000 0.000000 0.000000 0.246334 0.000000 0.000000
# 5 0.000000 0.000000 0.000000 0.000000 0.031483 0.000000
# 6 0.000000 0.000000 0.000000 0.000000 0.000000 0.041606
#
#
# Mechanical properties :
#
#
# Convention : Reuss Voigt Hill
#
# Bulk Modulus (GPa) = 51.01667 60.39105 55.70386
# Shear Modulus (GPa) = 11.83270 21.35325 16.59297
#
# Velocity S-wave (km/s) = 2.54957 3.42497 3.01917
# Velocity P-wave (km/s) = 6.05749 6.98688 6.53872
#
# Compressibility (1/GPa) = 0.01960143
#
# Stress axis : x y z
#
# Youngs Moduli (GPa) = 39.87254 47.70920 82.91530
#
# Poissons Ratio (x) = 0.36941 0.75918
# Poissons Ratio (y) = 0.30873 0.19490
# Poissons Ratio (z) = 0.36508 0.11215
#
# Static dielectric constant tensor:
#      x y z
#    x 1.631600 0.000000 0.000000 
#    y 0.000000 1.618940 0.000000 
#    z 0.000000 0.000000 1.621120 
# 
# From -- ./inp_files/17889.got.cif
#   From: 2010.05.17/outbox.cif.g08.bks.cpg/sg35_9_cif.got.tgz:17889.got - 2010.06.03 17:29:28.
