data_PCOD9349866
_publ_section_title
;
Structure prediction by ZEFSAII (Michael W. Deem and Ramdas Pophale) SiO2 
 PCOD9349866
Probable space group: C M M 2
;
_chemical_formula_sum "Si O2"
_cell_formula_units_Z 48
_cell_length_a 15.731987
_cell_length_b 8.668478
_cell_length_c 17.805450
_cell_angle_alpha 90.000000
_cell_angle_beta 90.000000
_cell_angle_gamma 90.000000
_cell_volume 2428.171651
_symmetry_space_group_name_H-M "C M M 2"
_symmetry_group_IT_number 35
_symmetry_cell_setting 'orthorhombic'
loop_
_space_group_symop_operation_xyz
x,y,z
-x,-y,z
-x,y,z
x,-y,z
1/2+x,1/2+y,z
1/2-x,1/2-y,z
1/2-x,1/2+y,z
1/2+x,1/2-y,z
loop_
_atom_site_type_symbol
_atom_site_label
_atom_site_fract_x
_atom_site_fract_y
_atom_site_fract_z
Si Si1 0.400318 0.671210 0.818000
Si Si2 0.846929 0.815227 0.129763
Si Si3 0.844729 0.316237 0.661972
Si Si4 0.000000 0.316212 0.227836
Si Si5 0.345999 0.684877 0.505541
Si Si6 0.000000 0.185770 0.394119
Si Si7 0.655440 0.816497 0.972897
O O1 0.500000 0.651258 0.818408
O O2 0.358494 0.500000 0.820131
O O3 0.379873 0.756491 0.740716
O O4 0.380052 0.765473 0.892837
O O5 0.750000 0.750000 0.139765
O O6 0.914903 0.753746 0.189793
O O7 0.842248 0.000000 0.131388
O O8 0.881673 0.759475 0.048244
O O9 0.846396 0.500000 0.659610
O O10 0.750000 0.250000 0.660207
O O11 0.882077 0.249309 0.584689
O O12 0.000000 0.500000 0.217400
O O13 0.000000 0.271247 0.315116
O O14 0.339102 0.500000 0.511268
O O15 0.250000 0.750000 0.492786
O O16 0.414736 0.723178 0.441531
O O17 0.000000 0.000000 0.382228
O O18 0.750000 0.750000 0.972222
O O19 0.653633 0.000000 0.980639
#
# Coordination Sequence:
#
# PCOD9349866 Si02
#       7
#     8   8   8   4   8   4   8
#     4  11  24  39  56  82 119 161 206 253 308 363
#     4  11  23  43  69  97 131 170 215 263 319 380
#     4  11  22  38  60  86 118 157 204 253 306 363
#     4  12  26  44  68  99 132 169 212 260 318 383
#     4  10  21  40  65  93 125 165 209 256 313 373
#     4  10  24  44  66  93 128 167 206 254 316 381
#     4  11  22  39  62  88 121 159 206 255 307 366
#
# _framework density 19.767959000000001
#
# number of rings (size 3 to 8) (size 9 to 14) (size 15 to 20)
#    0.000    1.167    0.000    8.750    2.333    3.333 
#    0.000    1.667    0.000    0.000    0.000    0.000 
#    0.000    0.000    0.000    0.000    0.000    0.000 
#
# Total GULP energy -134051.123646 kJ/mol
# GULP energy per Si atom -5585.463485 kJ/mol
# Density = 1.972297 g / cm^3
# Si number density = 19.767959 Si / 1000 Ang^3
#
#
#
# Elastic Constant Matrix: (Units=GPa)
#
#
# Indices 1 2 3 4 5 6 
#
# 1 82.3197 52.8706 69.5884 0.0000 0.0000 0.0000
# 2 52.8706 186.8083 92.6615 0.0000 0.0000 0.0000
# 3 69.5884 92.6615 180.2707 0.0000 0.0000 0.0000
# 4 0.0000 0.0000 0.0000 40.8157 0.0000 0.0000
# 5 0.0000 0.0000 0.0000 0.0000 39.1200 0.0000
# 6 0.0000 0.0000 0.0000 0.0000 0.0000 23.0086
#
#
#
# Elastic Compliance Matrix: (Units=1/GPa)
#
#
# Indices 1 2 3 4 5 6 
#
# 1 0.018742 -0.002303 -0.006051 0.000000 0.000000 0.000000
# 2 -0.002303 0.007468 -0.002950 0.000000 0.000000 0.000000
# 3 -0.006051 -0.002950 0.009399 0.000000 0.000000 0.000000
# 4 0.000000 0.000000 0.000000 0.024500 0.000000 0.000000
# 5 0.000000 0.000000 0.000000 0.000000 0.025562 0.000000
# 6 0.000000 0.000000 0.000000 0.000000 0.000000 0.043462
#
#
# Mechanical properties :
#
#
# Convention : Reuss Voigt Hill
#
# Bulk Modulus (GPa) = 76.91167 97.73772 87.32469
# Shear Modulus (GPa) = 32.03582 36.20743 34.12162
#
# Velocity S-wave (km/s) = 4.03003 4.28439 4.15915
# Velocity P-wave (km/s) = 7.78759 8.60375 8.20582
#
# Compressibility (1/GPa) = 0.01300193
#
# Stress axis : x y z
#
# Youngs Moduli (GPa) = 53.35580 133.90554 106.39145
#
# Poissons Ratio (x) = 0.30837 0.64379
# Poissons Ratio (y) = 0.12287 0.31382
# Poissons Ratio (z) = 0.32286 0.39498
#
# Static dielectric constant tensor:
#      x y z
#    x 1.671910 0.000000 0.000000 
#    y 0.000000 1.705960 0.000000 
#    z 0.000000 0.000000 1.804670 
# 
# From -- ./inp_files/18801.got.cif
#   From: 2010.05.17/outbox.cif.g08.bks.cpg/sg35_10_cif.got.tgz:18801.got - 2010.06.03 17:29:28.
