data_PCOD9349561
_publ_section_title
;
Structure prediction by ZEFSAII (Michael W. Deem and Ramdas Pophale) SiO2 
 PCOD9349561
Probable space group: C M M 2
;
_chemical_formula_sum "Si O2"
_cell_formula_units_Z 48
_cell_length_a 15.620846
_cell_length_b 9.027758
_cell_length_c 17.617752
_cell_angle_alpha 90.000000
_cell_angle_beta 90.000000
_cell_angle_gamma 90.000000
_cell_volume 2484.476836
_symmetry_space_group_name_H-M "C M M 2"
_symmetry_group_IT_number 35
_symmetry_cell_setting 'orthorhombic'
loop_
_space_group_symop_operation_xyz
x,y,z
-x,-y,z
-x,y,z
x,-y,z
1/2+x,1/2+y,z
1/2-x,1/2-y,z
1/2-x,1/2+y,z
1/2+x,1/2-y,z
loop_
_atom_site_type_symbol
_atom_site_label
_atom_site_fract_x
_atom_site_fract_y
_atom_site_fract_z
Si Si1 0.662326 0.822061 0.283050
Si Si2 0.345204 0.178497 0.645988
Si Si3 0.842471 0.324525 0.818449
Si Si4 0.000000 0.821952 0.552498
Si Si5 0.500000 0.821853 0.388191
Si Si6 0.398863 0.335827 0.967090
Si Si7 0.103554 0.674313 0.117486
O O1 0.750000 0.750000 0.309834
O O2 0.583207 0.787210 0.337676
O O3 0.642213 0.771669 0.196917
O O4 0.669990 0.000000 0.281054
O O5 0.250000 0.250000 0.637432
O O6 0.375756 0.204341 0.733274
O O7 0.415317 0.253198 0.592059
O O8 0.340224 0.000000 0.634328
O O9 0.836720 0.500000 0.827414
O O10 0.750000 0.250000 0.820122
O O11 0.889626 0.256324 0.890297
O O12 0.000000 0.768386 0.465642
O O13 0.000000 0.000000 0.558959
O O14 0.500000 0.000000 0.403483
O O15 0.500000 0.348790 0.980543
O O16 0.361626 0.500000 0.956923
O O17 0.364280 0.258158 0.042767
O O18 0.121872 0.500000 0.108923
O O19 0.000000 0.687841 0.123515
#
# Coordination Sequence:
#
# PCOD9349561 Si02
#       7
#     8   8   8   4   4   8   8
#     4  10  21  38  63  91 118 155 199 245 301 360
#     4  10  22  42  66  94 126 162 206 256 309 366
#     4  10  21  37  58  82 113 153 197 246 299 352
#     4  12  26  42  66  97 126 163 204 245 306 373
#     4  10  22  44  66  87 122 159 196 245 300 365
#     4  10  21  34  51  81 118 157 200 246 294 342
#     4   9  17  34  57  79 110 155 204 248 295 352
#
# _framework density 19.319962
#
# number of rings (size 3 to 8) (size 9 to 14) (size 15 to 20)
#    0.000    2.000    0.833    2.250    1.167    5.667 
#    0.000    3.333    0.000    0.000    0.000    0.000 
#    0.000    0.000    0.000    0.000    0.000    0.000 
#
# Total GULP energy -133974.202537 kJ/mol
# GULP energy per Si atom -5582.258439 kJ/mol
# Density = 1.927599 g / cm^3
# Si number density = 19.319962 Si / 1000 Ang^3
#
#
#
# Elastic Constant Matrix: (Units=GPa)
#
#
# Indices 1 2 3 4 5 6 
#
# 1 94.6298 51.8153 70.7511 0.0000 0.0000 0.0000
# 2 51.8153 95.2411 81.6215 0.0000 0.0000 0.0000
# 3 70.7511 81.6215 155.3481 0.0000 0.0000 0.0000
# 4 0.0000 0.0000 0.0000 30.0231 0.0000 0.0000
# 5 0.0000 0.0000 0.0000 0.0000 -50.1478 0.0000
# 6 0.0000 0.0000 0.0000 0.0000 0.0000 27.6227
#
#
#
# Elastic Compliance Matrix: (Units=1/GPa)
#
#
# Indices 1 2 3 4 5 6 
#
# 1 0.017149 -0.004796 -0.005290 0.000000 0.000000 0.000000
# 2 -0.004796 0.020441 -0.008556 0.000000 0.000000 0.000000
# 3 -0.005290 -0.008556 0.013342 0.000000 0.000000 0.000000
# 4 0.000000 0.000000 0.000000 0.033308 0.000000 0.000000
# 5 0.000000 0.000000 0.000000 0.000000 -0.019941 0.000000
# 6 0.000000 0.000000 0.000000 0.000000 0.000000 0.036202
#
#
# Mechanical properties :
#
#
# Convention : Reuss Voigt Hill
#
# Bulk Modulus (GPa) = 73.27180 83.73277 78.50228
# Shear Modulus (GPa) = 35.12859 10.90168 23.01513
#
# Velocity S-wave (km/s) = 4.26872 2.37801 3.45521
# Velocity P-wave (km/s) = 7.89327 7.13961 7.52588
#
# Compressibility (1/GPa) = 0.01364782
#
# Stress axis : x y z
#
# Youngs Moduli (GPa) = 58.31247 48.92099 74.95172
#
# Poissons Ratio (x) = 0.23462 0.39653
# Poissons Ratio (y) = 0.27966 0.64127
# Poissons Ratio (z) = 0.30850 0.41856
#
# Static dielectric constant tensor:
#      x y z
#    x 1.668730 0.000000 0.000000 
#    y 0.000000 1.662590 0.000000 
#    z 0.000000 0.000000 1.676490 
# 
# From -- ./inp_files/17121.got.cif
#   From: 2010.05.17/outbox.cif.g08.bks.cpg/sg35_9_cif.got.tgz:17121.got - 2010.06.03 17:29:28.
