data_PCOD9349962
_publ_section_title
;
Structure prediction by ZEFSAII (Michael W. Deem and Ramdas Pophale) SiO2 
 PCOD9349962
Probable space group: C M M 2
;
_chemical_formula_sum "Si O2"
_cell_formula_units_Z 64
_cell_length_a 8.769504
_cell_length_b 31.656380
_cell_length_c 12.122120
_cell_angle_alpha 90.000000
_cell_angle_beta 90.000000
_cell_angle_gamma 90.000000
_cell_volume 3365.230837
_symmetry_space_group_name_H-M "C M M 2"
_symmetry_group_IT_number 35
_symmetry_cell_setting 'orthorhombic'
loop_
_space_group_symop_operation_xyz
x,y,z
-x,-y,z
-x,y,z
x,-y,z
1/2+x,1/2+y,z
1/2-x,1/2-y,z
1/2-x,1/2+y,z
1/2+x,1/2-y,z
loop_
_atom_site_type_symbol
_atom_site_label
_atom_site_fract_x
_atom_site_fract_y
_atom_site_fract_z
Si Si1 0.816756 0.451983 0.989860
Si Si2 0.816606 0.205261 0.987148
Si Si3 0.183494 0.174315 0.744874
Si Si4 0.182456 0.952280 0.519214
Si Si5 0.317180 0.876577 0.375325
Si Si6 0.317380 0.793960 0.517345
Si Si7 0.317017 0.624199 0.130952
Si Si8 0.182735 0.579903 0.744716
O O1 0.770896 0.500000 0.016056
O O2 0.783346 0.441914 0.861648
O O3 0.000000 0.448723 0.003325
O O4 0.738020 0.417073 0.065276
O O5 0.750000 0.250000 0.023157
O O6 0.768179 0.165848 0.062590
O O7 0.000000 0.207269 0.990231
O O8 0.771206 0.195649 0.860609
O O9 0.251509 0.197758 0.639227
O O10 0.246533 0.126673 0.744759
O O11 0.000000 0.173699 0.737947
O O12 0.252230 0.916812 0.440379
O O13 0.248430 0.944813 0.641352
O O14 0.000000 0.947590 0.522150
O O15 0.219107 0.000000 0.482712
O O16 0.500000 0.879182 0.372853
O O17 0.274956 0.834054 0.442069
O O18 0.252238 0.875163 0.252533
O O19 0.500000 0.791451 0.522814
O O20 0.250000 0.750000 0.474395
O O21 0.500000 0.624127 0.136995
O O22 0.000000 0.582796 0.732182
#
# Coordination Sequence:
#
# PCOD9349962 Si02
#       8
#     8   8   8   8   8   8   8   8
#     4  10  22  40  63  92 125 163 205 249 302 364
#     4  10  23  40  61  91 124 160 202 249 303 362
#     4  11  21  37  62  92 128 164 202 250 305 367
#     4  11  24  41  64  94 126 163 205 251 307 367
#     4  11  25  44  65  90 120 161 210 256 307 366
#     4  11  24  41  63  93 125 161 205 252 308 369
#     4  11  24  43  64  89 121 160 207 258 310 361
#     4  11  21  36  62  94 128 165 202 248 307 369
#
# _framework density 19.018011999999999
#
# number of rings (size 3 to 8) (size 9 to 14) (size 15 to 20)
#    0.000    1.250    2.500    3.000    0.000    7.750 
#    0.000    2.500    0.000    0.000    0.000    0.000 
#    0.000    0.000    0.000    0.000    0.000    0.000 
#
# Total GULP energy -178965.702522 kJ/mol
# GULP energy per Si atom -5592.678204 kJ/mol
# Density = 1.897473 g / cm^3
# Si number density = 19.018012 Si / 1000 Ang^3
#
#
#
# Elastic Constant Matrix: (Units=GPa)
#
#
# Indices 1 2 3 4 5 6 
#
# 1 53.5829 62.0373 54.4902 0.0000 0.0000 0.0000
# 2 62.0373 192.7187 87.4485 0.0000 0.0000 0.0000
# 3 54.4902 87.4485 152.2868 0.0000 0.0000 0.0000
# 4 0.0000 0.0000 0.0000 -1.9488 0.0000 0.0000
# 5 0.0000 0.0000 0.0000 0.0000 31.9968 0.0000
# 6 0.0000 0.0000 0.0000 0.0000 0.0000 30.4953
#
#
#
# Elastic Compliance Matrix: (Units=1/GPa)
#
#
# Indices 1 2 3 4 5 6 
#
# 1 0.036428 -0.007860 -0.008521 0.000000 0.000000 0.000000
# 2 -0.007860 0.008713 -0.002191 0.000000 0.000000 0.000000
# 3 -0.008521 -0.002191 0.010874 0.000000 0.000000 0.000000
# 4 0.000000 0.000000 0.000000 -0.513126 0.000000 0.000000
# 5 0.000000 0.000000 0.000000 0.000000 0.031253 0.000000
# 6 0.000000 0.000000 0.000000 0.000000 0.000000 0.032792
#
#
# Mechanical properties :
#
#
# Convention : Reuss Voigt Hill
#
# Bulk Modulus (GPa) = 52.99133 89.61561 71.30347
# Shear Modulus (GPa) = -14.30076 25.08281 5.39103
#
# Velocity S-wave (km/s) = -2.74516 3.63560 1.68548
# Velocity P-wave (km/s) = 4.22805 8.05278 6.43131
#
# Compressibility (1/GPa) = 0.01887101
#
# Stress axis : x y z
#
# Youngs Moduli (GPa) = 27.45141 114.76709 91.96504
#
# Poissons Ratio (x) = 0.90206 0.78363
# Poissons Ratio (y) = 0.21576 0.20151
# Poissons Ratio (z) = 0.23391 0.25147
#
# Static dielectric constant tensor:
#      x y z
#    x 1.637930 0.000000 0.000000 
#    y 0.000000 1.658920 0.000000 
#    z 0.000000 0.000000 1.631890 
# 
# From -- ./inp_files/11995.got.cif
#   From: 2010.05.17/outbox.cif.g08.bks.cpg/sg35_6_cif.got.tgz:11995.got - 2010.06.03 17:29:28.
