data_PCOD9349540
_publ_section_title
;
Structure prediction by ZEFSAII (Michael W. Deem and Ramdas Pophale) SiO2 
 PCOD9349540
Probable space group: C M M 2
;
_chemical_formula_sum "Si O2"
_cell_formula_units_Z 40
_cell_length_a 13.800058
_cell_length_b 14.219698
_cell_length_c 9.426578
_cell_angle_alpha 90.000000
_cell_angle_beta 90.000000
_cell_angle_gamma 90.000000
_cell_volume 1849.802449
_symmetry_space_group_name_H-M "C M M 2"
_symmetry_group_IT_number 35
_symmetry_cell_setting 'orthorhombic'
loop_
_space_group_symop_operation_xyz
x,y,z
-x,-y,z
-x,y,z
x,-y,z
1/2+x,1/2+y,z
1/2-x,1/2-y,z
1/2-x,1/2+y,z
1/2+x,1/2-y,z
loop_
_atom_site_type_symbol
_atom_site_label
_atom_site_fract_x
_atom_site_fract_y
_atom_site_fract_z
Si Si1 0.615281 0.703225 0.255520
Si Si2 0.615663 0.199170 0.542823
Si Si3 0.804934 0.000000 0.283481
Si Si4 0.383972 0.320737 0.799571
Si Si5 0.884853 0.500000 0.408889
Si Si6 0.250000 0.250000 0.033045
Si Si7 0.613359 0.500000 0.598592
O O1 0.500000 0.708107 0.245023
O O2 0.645856 0.731810 0.415062
O O3 0.650255 0.596853 0.225984
O O4 0.665461 0.775139 0.145905
O O5 0.500000 0.207601 0.542918
O O6 0.642425 0.232094 0.699128
O O7 0.637569 0.093381 0.499048
O O8 0.688657 0.000000 0.277434
O O9 0.830401 0.000000 0.451612
O O10 0.500000 0.317271 0.839206
O O11 0.370727 0.409667 0.697042
O O12 0.310096 0.319150 0.930213
O O13 0.000000 0.500000 0.374423
O O14 0.500000 0.500000 0.556083
#
# Coordination Sequence:
#
# PCOD9349540 Si02
#       7
#     8   8   4   8   4   4   4
#     4  11  23  42  66  98 132 170 225 282 340 409
#     4   9  19  39  65  88 123 169 222 285 330 382
#     4  12  22  37  72 100 129 169 227 289 352 394
#     4  10  22  41  65  94 129 172 225 283 343 403
#     4  10  22  36  56  94 134 170 217 275 332 391
#     4  12  26  38  58  88 140 184 210 248 338 420
#     4  10  20  39  68 102 127 159 222 302 354 385
#
# _framework density 21.623930000000001
#
# number of rings (size 3 to 8) (size 9 to 14) (size 15 to 20)
#    0.000    1.600    2.000    2.700    2.800    1.600 
#    0.000    5.000    0.000    0.000    0.000    9.800 
#    0.000    0.000    0.000    0.000    0.000    0.000 
#
# Total GULP energy -111611.728088 kJ/mol
# GULP energy per Si atom -5580.586404 kJ/mol
# Density = 2.157471 g / cm^3
# Si number density = 21.623930 Si / 1000 Ang^3
#
#
#
# Elastic Constant Matrix: (Units=GPa)
#
#
# Indices 1 2 3 4 5 6 
#
# 1 147.6499 36.6184 40.8812 0.0000 0.0000 0.0000
# 2 36.6184 81.8123 20.3853 0.0000 0.0000 0.0000
# 3 40.8812 20.3853 98.1920 0.0000 0.0000 0.0000
# 4 0.0000 0.0000 0.0000 16.4023 0.0000 0.0000
# 5 0.0000 0.0000 0.0000 0.0000 39.7657 0.0000
# 6 0.0000 0.0000 0.0000 0.0000 0.0000 20.5063
#
#
#
# Elastic Compliance Matrix: (Units=1/GPa)
#
#
# Indices 1 2 3 4 5 6 
#
# 1 0.008304 -0.003011 -0.002832 0.000000 0.000000 0.000000
# 2 -0.003011 0.013982 -0.001649 0.000000 0.000000 0.000000
# 3 -0.002832 -0.001649 0.011706 0.000000 0.000000 0.000000
# 4 0.000000 0.000000 0.000000 0.060967 0.000000 0.000000
# 5 0.000000 0.000000 0.000000 0.000000 0.025147 0.000000
# 6 0.000000 0.000000 0.000000 0.000000 0.000000 0.048765
#
#
# Mechanical properties :
#
#
# Convention : Reuss Voigt Hill
#
# Bulk Modulus (GPa) = 52.61304 58.15822 55.38563
# Shear Modulus (GPa) = 26.28941 30.65280 28.47111
#
# Velocity S-wave (km/s) = 3.49055 3.76911 3.63250
# Velocity P-wave (km/s) = 6.37409 6.77460 6.57740
#
# Compressibility (1/GPa) = 0.01900669
#
# Stress axis : x y z
#
# Youngs Moduli (GPa) = 120.42887 71.52208 85.42927
#
# Poissons Ratio (x) = 0.21535 0.24194
# Poissons Ratio (y) = 0.36261 0.14088
# Poissons Ratio (z) = 0.34106 0.11795
#
# Static dielectric constant tensor:
#      x y z
#    x 1.830660 0.000000 0.000000 
#    y 0.000000 1.800320 0.000000 
#    z 0.000000 0.000000 1.807330 
# 
# From -- ./inp_files/7042.got.cif
#   From: 2010.05.17/outbox.cif.g08.bks.cpg/sg35_4_cif.got.tgz:7042.got - 2010.06.03 17:29:28.
