data_PCOD9349466
_publ_section_title
;
Structure prediction by ZEFSAII (Michael W. Deem and Ramdas Pophale) SiO2 
 PCOD9349466
Probable space group: C M M 2
;
_chemical_formula_sum "Si O2"
_cell_formula_units_Z 48
_cell_length_a 8.807509
_cell_length_b 15.464925
_cell_length_c 17.545396
_cell_angle_alpha 90.000000
_cell_angle_beta 90.000000
_cell_angle_gamma 90.000000
_cell_volume 2389.813931
_symmetry_space_group_name_H-M "C M M 2"
_symmetry_group_IT_number 35
_symmetry_cell_setting 'orthorhombic'
loop_
_space_group_symop_operation_xyz
x,y,z
-x,-y,z
-x,y,z
x,-y,z
1/2+x,1/2+y,z
1/2-x,1/2-y,z
1/2-x,1/2+y,z
1/2+x,1/2-y,z
loop_
_atom_site_type_symbol
_atom_site_label
_atom_site_fract_x
_atom_site_fract_y
_atom_site_fract_z
Si Si1 0.673644 0.605263 0.813900
Si Si2 0.317830 0.000000 0.394991
Si Si3 0.817321 0.847119 0.293909
Si Si4 0.680938 0.345498 0.121834
Si Si5 0.330784 0.898170 0.966920
Si Si6 0.820066 0.657872 0.658769
Si Si7 0.681828 0.500000 0.564082
O O1 0.500000 0.632650 0.800166
O O2 0.675948 0.500000 0.811034
O O3 0.730431 0.635363 0.896852
O O4 0.779969 0.639821 0.747109
O O5 0.255958 0.084927 0.351469
O O6 0.252592 0.000000 0.480150
O O7 0.500000 0.000000 0.395449
O O8 0.750000 0.750000 0.302102
O O9 0.785764 0.879054 0.207012
O O10 0.000000 0.843659 0.303294
O O11 0.500000 0.343976 0.113000
O O12 0.750000 0.250000 0.120845
O O13 0.754304 0.390255 0.049112
O O14 0.500000 0.859288 0.967811
O O15 0.345291 0.000000 0.951766
O O16 0.750000 0.750000 0.637464
O O17 0.740728 0.583207 0.609954
O O18 0.000000 0.656195 0.647311
O O19 0.500000 0.500000 0.560793
#
# Coordination Sequence:
#
# PCOD9349466 Si02
#       7
#     8   4   8   8   8   8   4
#     4  10  20  37  61  88 124 167 213 264 320 375
#     4  12  26  44  70 101 130 169 212 256 318 385
#     4  10  22  42  66  96 131 170 214 266 320 380
#     4  10  21  37  58  83 118 160 206 257 314 370
#     4  10  21  35  54  84 121 162 210 260 312 367
#     4  12  25  43  69 100 133 171 215 261 317 381
#     4  12  26  48  72  99 134 167 208 262 318 381
#
# _framework density 20.085245
#
# number of rings (size 3 to 8) (size 9 to 14) (size 15 to 20)
#    0.000    1.333    0.833    5.000    1.167    5.000 
#    0.000    6.667    0.000    0.000    0.000    0.000 
#    0.000    0.000    0.000    0.000    0.000    0.000 
#
# Total GULP energy -134172.087834 kJ/mol
# GULP energy per Si atom -5590.503660 kJ/mol
# Density = 2.003953 g / cm^3
# Si number density = 20.085245 Si / 1000 Ang^3
#
#
#
# Elastic Constant Matrix: (Units=GPa)
#
#
# Indices 1 2 3 4 5 6 
#
# 1 152.0004 46.2064 62.3188 0.0000 0.0000 0.0000
# 2 46.2064 90.7371 54.2772 0.0000 0.0000 0.0000
# 3 62.3188 54.2772 137.6127 0.0000 0.0000 0.0000
# 4 0.0000 0.0000 0.0000 -157.9364 0.0000 0.0000
# 5 0.0000 0.0000 0.0000 0.0000 25.0904 0.0000
# 6 0.0000 0.0000 0.0000 0.0000 0.0000 30.3820
#
#
#
# Elastic Compliance Matrix: (Units=1/GPa)
#
#
# Indices 1 2 3 4 5 6 
#
# 1 0.008545 -0.002665 -0.002818 0.000000 0.000000 0.000000
# 2 -0.002665 0.015255 -0.004810 0.000000 0.000000 0.000000
# 3 -0.002818 -0.004810 0.010440 0.000000 0.000000 0.000000
# 4 0.000000 0.000000 0.000000 -0.006332 0.000000 0.000000
# 5 0.000000 0.000000 0.000000 0.000000 0.039856 0.000000
# 6 0.000000 0.000000 0.000000 0.000000 0.000000 0.032914
#
#
# Mechanical properties :
#
#
# Convention : Reuss Voigt Hill
#
# Bulk Modulus (GPa) = 73.24399 78.43943 75.84171
# Shear Modulus (GPa) = 39.74032 -5.98961 16.87536
#
# Velocity S-wave (km/s) = 4.45295 -1.72875 2.90174
# Velocity P-wave (km/s) = 7.93625 5.92902 7.00491
#
# Compressibility (1/GPa) = 0.01365300
#
# Stress axis : x y z
#
# Youngs Moduli (GPa) = 117.03270 65.55055 95.78397
#
# Poissons Ratio (x) = 0.17472 0.26994
# Poissons Ratio (y) = 0.31194 0.46072
# Poissons Ratio (z) = 0.32982 0.31530
#
# Static dielectric constant tensor:
#      x y z
#    x 1.685120 0.000000 0.000000 
#    y 0.000000 1.720470 0.000000 
#    z 0.000000 0.000000 1.702910 
# 
# From -- ./inp_files/17877.got.cif
#   From: 2010.05.17/outbox.cif.g08.bks.cpg/sg35_9_cif.got.tgz:17877.got - 2010.06.03 17:29:28.
