data_PCOD9349206
_publ_section_title
;
Structure prediction by ZEFSAII (Michael W. Deem and Ramdas Pophale) SiO2 
 PCOD9349206
Probable space group: C M M 2
;
_chemical_formula_sum "Si O2"
_cell_formula_units_Z 64
_cell_length_a 30.494123
_cell_length_b 8.513847
_cell_length_c 12.659836
_cell_angle_alpha 90.000000
_cell_angle_beta 90.000000
_cell_angle_gamma 90.000000
_cell_volume 3286.775710
_symmetry_space_group_name_H-M "C M M 2"
_symmetry_group_IT_number 35
_symmetry_cell_setting 'orthorhombic'
loop_
_space_group_symop_operation_xyz
x,y,z
-x,-y,z
-x,y,z
x,-y,z
1/2+x,1/2+y,z
1/2-x,1/2-y,z
1/2-x,1/2+y,z
1/2+x,1/2-y,z
loop_
_atom_site_type_symbol
_atom_site_label
_atom_site_fract_x
_atom_site_fract_y
_atom_site_fract_z
Si Si1 0.893278 0.688008 0.875000
Si Si2 0.796420 0.311976 0.404225
Si Si3 0.953763 0.689605 0.316541
Si Si4 0.184292 0.817084 0.170877
Si Si5 0.907598 0.686975 0.114432
Si Si6 0.796041 0.312527 0.940119
Si Si7 0.112121 0.689979 0.491538
Si Si8 0.448950 0.687443 0.680270
O O1 0.892766 0.500000 0.856384
O O2 0.841904 0.740227 0.884968
O O3 0.923577 0.765671 0.787313
O O4 0.913328 0.716805 0.991259
O O5 0.796419 0.500000 0.402965
O O6 0.750000 0.250000 0.444041
O O7 0.801937 0.256118 0.282590
O O8 0.837673 0.257902 0.475416
O O9 0.954416 0.500000 0.327870
O O10 0.947154 0.719640 0.193108
O O11 0.913316 0.743226 0.386041
O O12 0.000000 0.753045 0.356033
O O13 0.132592 0.787960 0.157518
O O14 0.195897 0.000000 0.170484
O O15 0.201986 0.738618 0.063270
O O16 0.896078 0.500000 0.124876
O O17 0.795935 0.500000 0.936350
O O18 0.750000 0.250000 0.895229
O O19 0.112868 0.500000 0.496386
O O20 0.082330 0.747772 0.587555
O O21 0.500000 0.744982 0.676275
O O22 0.450464 0.500000 0.671940
#
# Coordination Sequence:
#
# PCOD9349206 Si02
#       8
#     8   8   8   8   8   8   8   8
#     4   9  20  37  60  86 115 152 196 244 288 343
#     4  11  22  37  57  84 117 154 195 241 290 343
#     4   9  16  29  54  86 115 145 182 230 291 350
#     4  11  20  31  51  80 117 162 201 236 280 337
#     4   9  17  33  54  82 119 153 189 239 290 341
#     4  10  20  35  56  85 120 156 197 242 287 340
#     4  10  21  39  63  85 113 151 195 244 289 346
#     4  11  25  43  63  87 116 150 192 246 299 348
#
# _framework density 19.471969000000001
#
# number of rings (size 3 to 8) (size 9 to 14) (size 15 to 20)
#    0.000    2.000    1.250    3.750    0.000    5.500 
#    0.000    1.875    0.000    0.375    0.000    0.000 
#    0.000    0.000    0.000    0.000    0.000    0.000 
#
# Total GULP energy -178445.898648 kJ/mol
# GULP energy per Si atom -5576.434333 kJ/mol
# Density = 1.942765 g / cm^3
# Si number density = 19.471969 Si / 1000 Ang^3
#
#
#
# Elastic Constant Matrix: (Units=GPa)
#
#
# Indices 1 2 3 4 5 6 
#
# 1 174.6400 33.5052 70.9836 0.0000 0.0000 0.0000
# 2 33.5052 40.6550 23.4034 0.0000 0.0000 0.0000
# 3 70.9836 23.4034 88.5694 0.0000 0.0000 0.0000
# 4 0.0000 0.0000 0.0000 13.6682 0.0000 0.0000
# 5 0.0000 0.0000 0.0000 0.0000 5.5463 0.0000
# 6 0.0000 0.0000 0.0000 0.0000 0.0000 25.4515
#
#
#
# Elastic Compliance Matrix: (Units=1/GPa)
#
#
# Indices 1 2 3 4 5 6 
#
# 1 0.008973 -0.003839 -0.006177 0.000000 0.000000 0.000000
# 2 -0.003839 0.030653 -0.005023 0.000000 0.000000 0.000000
# 3 -0.006177 -0.005023 0.017568 0.000000 0.000000 0.000000
# 4 0.000000 0.000000 0.000000 0.073162 0.000000 0.000000
# 5 0.000000 0.000000 0.000000 0.000000 0.180300 0.000000
# 6 0.000000 0.000000 0.000000 0.000000 0.000000 0.039290
#
#
# Mechanical properties :
#
#
# Convention : Reuss Voigt Hill
#
# Bulk Modulus (GPa) = 36.87826 62.18320 49.53073
# Shear Modulus (GPa) = 12.85135 20.66468 16.75802
#
# Velocity S-wave (km/s) = 2.57182 3.26122 2.93682
# Velocity P-wave (km/s) = 5.27250 6.79594 6.08211
#
# Compressibility (1/GPa) = 0.02711625
#
# Stress axis : x y z
#
# Youngs Moduli (GPa) = 111.44007 32.62365 56.92020
#
# Poissons Ratio (x) = 0.12525 0.35161
# Poissons Ratio (y) = 0.42786 0.28588
# Poissons Ratio (z) = 0.68839 0.16385
#
# Static dielectric constant tensor:
#      x y z
#    x 1.739990 0.000000 0.000000 
#    y 0.000000 1.671120 0.000000 
#    z 0.000000 0.000000 1.672750 
# 
# From -- ./inp_files/14544.got.cif
#   From: 2010.05.17/outbox.cif.g08.bks.cpg/sg35_8_cif.got.tgz:14544.got - 2010.06.03 17:29:28.
