data_PCOD9349804
_publ_section_title
;
Structure prediction by ZEFSAII (Michael W. Deem and Ramdas Pophale) SiO2 
 PCOD9349804
Probable space group: C M M 2
;
_chemical_formula_sum "Si O2"
_cell_formula_units_Z 64
_cell_length_a 15.062522
_cell_length_b 18.712458
_cell_length_c 12.096395
_cell_angle_alpha 90.000000
_cell_angle_beta 90.000000
_cell_angle_gamma 90.000000
_cell_volume 3409.451311
_symmetry_space_group_name_H-M "C M M 2"
_symmetry_group_IT_number 35
_symmetry_cell_setting 'orthorhombic'
loop_
_space_group_symop_operation_xyz
x,y,z
-x,-y,z
-x,y,z
x,-y,z
1/2+x,1/2+y,z
1/2-x,1/2-y,z
1/2-x,1/2+y,z
1/2+x,1/2-y,z
loop_
_atom_site_type_symbol
_atom_site_label
_atom_site_fract_x
_atom_site_fract_y
_atom_site_fract_z
Si Si1 0.142892 0.265133 0.743930
Si Si2 0.804426 0.917228 0.501533
Si Si3 0.602048 0.604349 0.741372
Si Si4 0.207924 0.920367 0.963272
Si Si5 0.651633 0.718293 0.096356
Si Si6 0.666897 0.194857 0.508913
Si Si7 0.899948 0.803545 0.346758
Si Si8 0.598687 0.146256 0.955682
O O1 0.250000 0.250000 0.754695
O O2 0.099587 0.188879 0.760206
O O3 0.117031 0.291604 0.622518
O O4 0.113233 0.321381 0.834040
O O5 0.855370 0.908172 0.619498
O O6 0.705800 0.884341 0.511207
O O7 0.845099 0.865388 0.408214
O O8 0.806685 0.000000 0.471787
O O9 0.500000 0.578014 0.747385
O O10 0.668410 0.578434 0.838217
O O11 0.313386 0.902289 0.972217
O O12 0.191761 0.000000 0.009837
O O13 0.159398 0.854225 0.024635
O O14 0.750000 0.750000 0.111885
O O15 0.614804 0.700318 0.216647
O O16 0.603175 0.783336 0.034173
O O17 0.750000 0.250000 0.519516
O O18 0.620859 0.225967 0.400646
O O19 0.000000 0.821111 0.373392
O O20 0.500000 0.113794 0.966816
#
# Coordination Sequence:
#
# PCOD9349804 Si02
#       8
#     8   8   8   8   8   8   8   8
#     4  11  16  33  58  85 113 144 191 239 281 328
#     4  11  22  36  55  82 115 151 188 225 275 339
#     4  12  22  35  56  85 119 152 189 234 283 339
#     4  11  24  40  57  83 119 154 188 228 284 351
#     4  10  21  39  59  81 109 144 189 236 282 333
#     4   9  18  35  56  78 110 146 186 227 275 323
#     4  11  22  36  58  85 110 141 185 237 284 334
#     4  11  21  36  62  87 111 145 190 243 287 332
#
# _framework density 18.771348
#
# number of rings (size 3 to 8) (size 9 to 14) (size 15 to 20)
#    0.000    1.250    6.250    3.000    0.000    3.500 
#    0.000    0.000    0.000    0.375    0.000    0.000 
#    0.000    0.000    0.000    0.000    0.000    0.000 
#
# Total GULP energy -178365.155716 kJ/mol
# GULP energy per Si atom -5573.911116 kJ/mol
# Density = 1.872862 g / cm^3
# Si number density = 18.771348 Si / 1000 Ang^3
#
#
#
# Elastic Constant Matrix: (Units=GPa)
#
#
# Indices 1 2 3 4 5 6 
#
# 1 65.9991 18.7946 8.8966 0.0000 0.0000 0.0000
# 2 18.7946 90.2795 17.4163 0.0000 0.0000 0.0000
# 3 8.8966 17.4163 85.8490 0.0000 0.0000 0.0000
# 4 0.0000 0.0000 0.0000 6.1485 0.0000 0.0000
# 5 0.0000 0.0000 0.0000 0.0000 -43.7246 0.0000
# 6 0.0000 0.0000 0.0000 0.0000 0.0000 -8.6485
#
#
#
# Elastic Compliance Matrix: (Units=1/GPa)
#
#
# Indices 1 2 3 4 5 6 
#
# 1 0.016194 -0.003172 -0.001035 0.000000 0.000000 0.000000
# 2 -0.003172 0.012149 -0.002136 0.000000 0.000000 0.000000
# 3 -0.001035 -0.002136 0.012189 0.000000 0.000000 0.000000
# 4 0.000000 0.000000 0.000000 0.162641 0.000000 0.000000
# 5 0.000000 0.000000 0.000000 0.000000 -0.022870 0.000000
# 6 0.000000 0.000000 0.000000 0.000000 0.000000 -0.115627
#
#
# Mechanical properties :
#
#
# Convention : Reuss Voigt Hill
#
# Bulk Modulus (GPa) = 35.91006 36.92693 36.41850
# Shear Modulus (GPa) = 57.70750 3.88976 30.79863
#
# Velocity S-wave (km/s) = 5.55059 1.44107 4.05498
# Velocity P-wave (km/s) = 7.76212 4.74169 6.43172
#
# Compressibility (1/GPa) = 0.02784735
#
# Stress axis : x y z
#
# Youngs Moduli (GPa) = 61.74960 82.31072 82.04164
#
# Poissons Ratio (x) = 0.26107 0.08489
# Poissons Ratio (y) = 0.19586 0.17524
# Poissons Ratio (z) = 0.06390 0.17582
#
# Static dielectric constant tensor:
#      x y z
#    x 1.723920 0.000000 0.000000 
#    y 0.000000 1.639620 0.000000 
#    z 0.000000 0.000000 1.667630 
# 
# From -- ./inp_files/13170.got.cif
#   From: 2010.05.17/outbox.cif.g08.bks.cpg/sg35_7_cif.got.tgz:13170.got - 2010.06.03 17:29:28.
