data_PCOD9349949
_publ_section_title
;
Structure prediction by ZEFSAII (Michael W. Deem and Ramdas Pophale) SiO2 
 PCOD9349949
Probable space group: C M M 2
;
_chemical_formula_sum "Si O2"
_cell_formula_units_Z 64
_cell_length_a 31.776596
_cell_length_b 8.596926
_cell_length_c 12.173274
_cell_angle_alpha 90.000000
_cell_angle_beta 90.000000
_cell_angle_gamma 90.000000
_cell_volume 3325.507704
_symmetry_space_group_name_H-M "C M M 2"
_symmetry_group_IT_number 35
_symmetry_cell_setting 'orthorhombic'
loop_
_space_group_symop_operation_xyz
x,y,z
-x,-y,z
-x,y,z
x,-y,z
1/2+x,1/2+y,z
1/2-x,1/2-y,z
1/2-x,1/2+y,z
1/2+x,1/2-y,z
loop_
_atom_site_type_symbol
_atom_site_label
_atom_site_fract_x
_atom_site_fract_y
_atom_site_fract_z
Si Si1 0.677508 0.814917 0.222160
Si Si2 0.794576 0.815019 0.454195
Si Si3 0.417021 0.313417 0.221359
Si Si4 0.547061 0.689240 0.984056
Si Si5 0.452665 0.187603 0.445960
Si Si6 0.125735 0.188274 0.837811
Si Si7 0.794700 0.186613 0.987616
Si Si8 0.126909 0.313492 0.591848
O O1 0.698754 0.741179 0.329213
O O2 0.628542 0.766320 0.224498
O O3 0.696867 0.752063 0.109246
O O4 0.681694 0.000000 0.227345
O O5 0.750000 0.750000 0.494949
O O6 0.833490 0.752011 0.524887
O O7 0.794257 0.000000 0.457637
O O8 0.411185 0.500000 0.221293
O O9 0.442622 0.262297 0.328247
O O10 0.440280 0.269075 0.108511
O O11 0.500000 0.743965 0.957450
O O12 0.546712 0.500000 0.980460
O O13 0.583661 0.740952 0.901661
O O14 0.500000 0.228656 0.481562
O O15 0.416165 0.235474 0.530419
O O16 0.450505 0.000000 0.434597
O O17 0.127521 0.254442 0.716028
O O18 0.125164 0.000000 0.832765
O O19 0.166558 0.233124 0.909389
O O20 0.750000 0.250000 0.947248
O O21 0.793667 0.000000 0.993160
O O22 0.128821 0.500000 0.589693
#
# Coordination Sequence:
#
# PCOD9349949 Si02
#       8
#     8   8   8   8   8   8   8   8
#     4  12  23  38  62  93 128 164 200 245 306 370
#     4  12  25  43  67  94 125 161 203 251 306 368
#     4  11  20  35  61  93 125 162 203 251 306 367
#     4   9  18  35  60  90 123 158 199 250 305 359
#     4  10  22  40  61  88 126 167 205 253 310 368
#     4  10  22  41  62  86 120 161 208 259 307 357
#     4  11  23  41  63  91 123 160 203 251 305 362
#     4  11  24  42  63  89 123 164 210 258 309 363
#
# _framework density 19.245183000000001
#
# number of rings (size 3 to 8) (size 9 to 14) (size 15 to 20)
#    0.000    1.250    2.500    4.125    0.000    3.250 
#    0.000    1.250    0.000    1.500    0.000    0.000 
#    0.000    0.000    0.000    0.000    0.000    0.000 
#
# Total GULP energy -178950.800067 kJ/mol
# GULP energy per Si atom -5592.212502 kJ/mol
# Density = 1.920138 g / cm^3
# Si number density = 19.245183 Si / 1000 Ang^3
#
#
#
# Elastic Constant Matrix: (Units=GPa)
#
#
# Indices 1 2 3 4 5 6 
#
# 1 189.8015 44.7665 86.2430 0.0000 0.0000 0.0000
# 2 44.7665 55.5510 42.5885 0.0000 0.0000 0.0000
# 3 86.2430 42.5885 155.4217 0.0000 0.0000 0.0000
# 4 0.0000 0.0000 0.0000 19.3467 0.0000 0.0000
# 5 0.0000 0.0000 0.0000 0.0000 7.9292 0.0000
# 6 0.0000 0.0000 0.0000 0.0000 0.0000 23.1870
#
#
#
# Elastic Compliance Matrix: (Units=1/GPa)
#
#
# Indices 1 2 3 4 5 6 
#
# 1 0.007589 -0.003655 -0.003210 0.000000 0.000000 0.000000
# 2 -0.003655 0.024549 -0.004699 0.000000 0.000000 0.000000
# 3 -0.003210 -0.004699 0.009503 0.000000 0.000000 0.000000
# 4 0.000000 0.000000 0.000000 0.051688 0.000000 0.000000
# 5 0.000000 0.000000 0.000000 0.000000 0.126117 0.000000
# 6 0.000000 0.000000 0.000000 0.000000 0.000000 0.043128
#
#
# Mechanical properties :
#
#
# Convention : Reuss Voigt Hill
#
# Bulk Modulus (GPa) = 54.01280 83.10777 68.56028
# Shear Modulus (GPa) = 17.13076 25.23764 21.18420
#
# Velocity S-wave (km/s) = 2.98675 3.62522 3.32136
# Velocity P-wave (km/s) = 6.32620 7.79746 7.10004
#
# Compressibility (1/GPa) = 0.01851413
#
# Stress axis : x y z
#
# Youngs Moduli (GPa) = 131.76670 40.73426 105.23361
#
# Poissons Ratio (x) = 0.14889 0.33776
# Poissons Ratio (y) = 0.48163 0.49447
# Poissons Ratio (z) = 0.42292 0.19140
#
# Static dielectric constant tensor:
#      x y z
#    x 1.677950 0.000000 0.000000 
#    y 0.000000 1.652090 0.000000 
#    z 0.000000 0.000000 1.630870 
# 
# From -- ./inp_files/11958.got.cif
#   From: 2010.05.17/outbox.cif.g08.bks.cpg/sg35_6_cif.got.tgz:11958.got - 2010.06.03 17:29:28.
