data_PCOD9349384
_publ_section_title
;
Structure prediction by ZEFSAII (Michael W. Deem and Ramdas Pophale) SiO2 
 PCOD9349384
Probable space group: C M M 2
;
_chemical_formula_sum "Si O2"
_cell_formula_units_Z 40
_cell_length_a 8.711967
_cell_length_b 18.587075
_cell_length_c 13.057200
_cell_angle_alpha 90.000000
_cell_angle_beta 90.000000
_cell_angle_gamma 90.000000
_cell_volume 2114.352187
_symmetry_space_group_name_H-M "C M M 2"
_symmetry_group_IT_number 35
_symmetry_cell_setting 'orthorhombic'
loop_
_space_group_symop_operation_xyz
x,y,z
-x,-y,z
-x,y,z
x,-y,z
1/2+x,1/2+y,z
1/2-x,1/2-y,z
1/2-x,1/2+y,z
1/2+x,1/2-y,z
loop_
_atom_site_type_symbol
_atom_site_label
_atom_site_fract_x
_atom_site_fract_y
_atom_site_fract_z
Si Si1 0.684360 0.584095 0.161860
Si Si2 0.816502 0.330220 0.737380
Si Si3 0.816119 0.084545 0.546718
Si Si4 0.684015 0.670617 0.957297
Si Si5 0.817225 0.669805 0.352970
O O1 0.500000 0.590458 0.177287
O O2 0.724352 0.500000 0.165994
O O3 0.767603 0.628182 0.250486
O O4 0.719548 0.618024 0.051172
O O5 0.750000 0.250000 0.719218
O O6 0.755215 0.382181 0.649305
O O7 0.756589 0.352872 0.849500
O O8 0.000000 0.327123 0.736651
O O9 0.750444 0.127189 0.449785
O O10 0.000000 0.092782 0.549610
O O11 0.780304 0.000000 0.537829
O O12 0.500000 0.675382 0.945753
O O13 0.750000 0.750000 0.980051
O O14 0.750000 0.750000 0.350903
O O15 0.000000 0.673107 0.360886
#
# Coordination Sequence:
#
# PCOD9349384 Si02
#       5
#     8   8   8   8   8
#     4  10  22  40  61  87 121 158 195 239 293 350
#     4  11  22  38  61  88 120 156 198 245 291 344
#     4  11  24  42  63  87 119 156 193 238 294 352
#     4  10  20  36  59  86 117 156 201 245 291 344
#     4  12  25  41  63  89 118 153 196 243 291 347
#
# _framework density 18.918323000000001
#
# number of rings (size 3 to 8) (size 9 to 14) (size 15 to 20)
#    0.000    1.200    0.000    7.800    0.000    8.400 
#    0.000    2.000    0.000    0.000    0.000    0.000 
#    0.000    0.000    0.000    0.000    0.000    0.000 
#
# Total GULP energy -111898.839278 kJ/mol
# GULP energy per Si atom -5594.941964 kJ/mol
# Density = 1.887526 g / cm^3
# Si number density = 18.918323 Si / 1000 Ang^3
#
#
#
# Elastic Constant Matrix: (Units=GPa)
#
#
# Indices 1 2 3 4 5 6 
#
# 1 127.6354 95.2799 93.6106 0.0000 0.0000 0.0000
# 2 95.2799 156.3203 122.7919 0.0000 0.0000 0.0000
# 3 93.6106 122.7919 161.4475 0.0000 0.0000 0.0000
# 4 0.0000 0.0000 0.0000 114.5619 0.0000 0.0000
# 5 0.0000 0.0000 0.0000 0.0000 8.7207 0.0000
# 6 0.0000 0.0000 0.0000 0.0000 0.0000 28.0377
#
#
#
# Elastic Compliance Matrix: (Units=1/GPa)
#
#
# Indices 1 2 3 4 5 6 
#
# 1 0.015590 -0.005966 -0.004502 0.000000 0.000000 0.000000
# 2 -0.005966 0.018174 -0.010363 0.000000 0.000000 0.000000
# 3 -0.004502 -0.010363 0.016686 0.000000 0.000000 0.000000
# 4 0.000000 0.000000 0.000000 0.008729 0.000000 0.000000
# 5 0.000000 0.000000 0.000000 0.000000 0.114669 0.000000
# 6 0.000000 0.000000 0.000000 0.000000 0.000000 0.035666
#
#
# Mechanical properties :
#
#
# Convention : Reuss Voigt Hill
#
# Bulk Modulus (GPa) = 113.79326 118.75200 116.27263
# Shear Modulus (GPa) = 19.67667 39.17880 29.42773
#
# Velocity S-wave (km/s) = 3.22853 4.55570 3.94828
# Velocity P-wave (km/s) = 8.61268 9.51734 9.07629
#
# Compressibility (1/GPa) = 0.00878787
#
# Stress axis : x y z
#
# Youngs Moduli (GPa) = 64.14167 55.02264 59.92956
#
# Poissons Ratio (x) = 0.32829 0.26979
# Poissons Ratio (y) = 0.38270 0.62107
# Poissons Ratio (z) = 0.28875 0.57022
#
# Static dielectric constant tensor:
#      x y z
#    x 1.634100 0.000000 0.000000 
#    y 0.000000 1.621600 0.000000 
#    z 0.000000 0.000000 1.630000 
# 
# From -- ./inp_files/11009.got.cif
#   From: 2010.05.17/outbox.cif.g08.bks.cpg/sg35_6_cif.got.tgz:11009.got - 2010.06.03 17:29:28.
