data_PCOD9349331
_publ_section_title
;
Structure prediction by ZEFSAII (Michael W. Deem and Ramdas Pophale) SiO2 
 PCOD9349331
Probable space group: C M M 2
;
_chemical_formula_sum "Si O2"
_cell_formula_units_Z 64
_cell_length_a 8.752953
_cell_length_b 28.682067
_cell_length_c 13.272283
_cell_angle_alpha 90.000000
_cell_angle_beta 90.000000
_cell_angle_gamma 90.000000
_cell_volume 3332.043602
_symmetry_space_group_name_H-M "C M M 2"
_symmetry_group_IT_number 35
_symmetry_cell_setting 'orthorhombic'
loop_
_space_group_symop_operation_xyz
x,y,z
-x,-y,z
-x,y,z
x,-y,z
1/2+x,1/2+y,z
1/2-x,1/2-y,z
1/2-x,1/2+y,z
1/2+x,1/2-y,z
loop_
_atom_site_type_symbol
_atom_site_label
_atom_site_fract_x
_atom_site_fract_y
_atom_site_fract_z
Si Si1 0.184028 0.801908 0.430300
Si Si2 0.816331 0.697870 0.044880
Si Si3 0.183580 0.197817 0.653396
Si Si4 0.825498 0.556617 0.550795
Si Si5 0.682259 0.857011 0.842101
Si Si6 0.681601 0.553909 0.763038
Si Si7 0.315214 0.945862 0.326257
Si Si8 0.183424 0.858669 0.232704
O O1 0.250000 0.750000 0.420530
O O2 0.228297 0.820111 0.541554
O O3 0.233031 0.832226 0.335273
O O4 0.000000 0.799251 0.428549
O O5 0.750000 0.750000 0.045865
O O6 0.752936 0.668559 0.138633
O O7 0.000000 0.700201 0.050208
O O8 0.772491 0.671250 0.941930
O O9 0.250000 0.250000 0.661401
O O10 0.248284 0.168016 0.744486
O O11 0.000000 0.199186 0.659366
O O12 0.832419 0.500000 0.547619
O O13 0.727733 0.568153 0.648819
O O14 0.765764 0.569189 0.439780
O O15 0.000000 0.573568 0.563793
O O16 0.500000 0.856429 0.835183
O O17 0.740493 0.910006 0.838415
O O18 0.500000 0.556565 0.772705
O O19 0.729562 0.500000 0.777385
O O20 0.500000 0.943121 0.325112
O O21 0.243998 0.911070 0.245824
O O22 0.273262 0.000000 0.310979
O O23 0.000000 0.858117 0.226733
#
# Coordination Sequence:
#
# PCOD9349331 Si02
#       8
#     8   8   8   8   8   8   8   8
#     4   9  20  36  54  82 117 151 187 232 288 351
#     4  11  25  45  67  90 117 151 197 251 303 356
#     4  10  20  36  57  84 120 155 190 236 294 356
#     4   8  15  30  52  79 114 157 200 240 285 341
#     4  11  24  40  61  88 116 153 201 247 299 357
#     4  10  21  36  56  85 121 159 199 246 298 351
#     4   9  19  36  57  84 120 161 204 248 295 348
#     4  11  23  38  60  89 120 155 200 246 298 357
#
# _framework density 19.207432000000001
#
# number of rings (size 3 to 8) (size 9 to 14) (size 15 to 20)
#    0.000    2.125    0.000    3.375    1.750    7.000 
#    0.000    1.875    0.000    0.750    0.000    0.000 
#    0.000    0.000    0.000    0.000    0.000    0.000 
#
# Total GULP energy -178735.121313 kJ/mol
# GULP energy per Si atom -5585.472541 kJ/mol
# Density = 1.916371 g / cm^3
# Si number density = 19.207432 Si / 1000 Ang^3
#
#
#
# Elastic Constant Matrix: (Units=GPa)
#
#
# Indices 1 2 3 4 5 6 
#
# 1 39.6970 39.2397 47.9225 0.0000 0.0000 0.0000
# 2 39.2397 129.7266 91.7930 0.0000 0.0000 0.0000
# 3 47.9225 91.7930 138.4100 0.0000 0.0000 0.0000
# 4 0.0000 0.0000 0.0000 35.4921 0.0000 0.0000
# 5 0.0000 0.0000 0.0000 0.0000 27.7101 0.0000
# 6 0.0000 0.0000 0.0000 0.0000 0.0000 30.4612
#
#
#
# Elastic Compliance Matrix: (Units=1/GPa)
#
#
# Indices 1 2 3 4 5 6 
#
# 1 0.044850 -0.004858 -0.012307 0.000000 0.000000 0.000000
# 2 -0.004858 0.015051 -0.008299 0.000000 0.000000 0.000000
# 3 -0.012307 -0.008299 0.016990 0.000000 0.000000 0.000000
# 4 0.000000 0.000000 0.000000 0.028175 0.000000 0.000000
# 5 0.000000 0.000000 0.000000 0.000000 0.036088 0.000000
# 6 0.000000 0.000000 0.000000 0.000000 0.000000 0.032829
#
#
# Mechanical properties :
#
#
# Convention : Reuss Voigt Hill
#
# Bulk Modulus (GPa) = 38.51803 73.97155 56.24479
# Shear Modulus (GPa) = 21.40737 27.32457 24.36597
#
# Velocity S-wave (km/s) = 3.34209 3.77583 3.56556
# Velocity P-wave (km/s) = 5.91523 7.58978 6.80422
#
# Compressibility (1/GPa) = 0.02596187
#
# Stress axis : x y z
#
# Youngs Moduli (GPa) = 22.29676 66.44268 58.85781
#
# Poissons Ratio (x) = 0.32278 0.72435
# Poissons Ratio (y) = 0.10832 0.48849
# Poissons Ratio (z) = 0.27440 0.55144
#
# Static dielectric constant tensor:
#      x y z
#    x 1.647720 0.000000 0.000000 
#    y 0.000000 1.687100 0.000000 
#    z 0.000000 0.000000 1.662200 
# 
# From -- ./inp_files/11861.got.cif
#   From: 2010.05.17/outbox.cif.g08.bks.cpg/sg35_6_cif.got.tgz:11861.got - 2010.06.03 17:29:28.
