data_PCOD9349682
_publ_section_title
;
Structure prediction by ZEFSAII (Michael W. Deem and Ramdas Pophale) SiO2 
 PCOD9349682
Probable space group: C M M 2
;
_chemical_formula_sum "Si O2"
_cell_formula_units_Z 48
_cell_length_a 8.833303
_cell_length_b 30.967562
_cell_length_c 9.690044
_cell_angle_alpha 90.000000
_cell_angle_beta 90.000000
_cell_angle_gamma 90.000000
_cell_volume 2650.671403
_symmetry_space_group_name_H-M "C M M 2"
_symmetry_group_IT_number 35
_symmetry_cell_setting 'orthorhombic'
loop_
_space_group_symop_operation_xyz
x,y,z
-x,-y,z
-x,y,z
x,-y,z
1/2+x,1/2+y,z
1/2-x,1/2-y,z
1/2-x,1/2+y,z
1/2+x,1/2-y,z
loop_
_atom_site_type_symbol
_atom_site_label
_atom_site_fract_x
_atom_site_fract_y
_atom_site_fract_z
Si Si1 0.819191 0.703186 0.140350
Si Si2 0.318112 0.549721 0.158391
Si Si3 0.817522 0.872974 0.959201
Si Si4 0.318236 0.374636 0.638669
Si Si5 0.181461 0.297051 0.461731
Si Si6 0.319319 0.949503 0.457045
O O1 0.750000 0.750000 0.108317
O O2 0.781369 0.693271 0.300874
O O3 0.000000 0.705076 0.128741
O O4 0.753515 0.666959 0.040655
O O5 0.500000 0.552181 0.177694
O O6 0.280290 0.500000 0.123959
O O7 0.239175 0.560836 0.303007
O O8 0.274810 0.583214 0.039662
O O9 0.772924 0.873893 0.799241
O O10 0.000000 0.869289 0.964909
O O11 0.500000 0.373243 0.630367
O O12 0.249871 0.333752 0.558463
O O13 0.258597 0.417658 0.564461
O O14 0.250000 0.250000 0.493730
O O15 0.000000 0.295789 0.474994
O O16 0.500000 0.944118 0.462204
O O17 0.283194 0.000000 0.482946
#
# Coordination Sequence:
#
# PCOD9349682 Si02
#       6
#     8   8   8   8   8   8
#     4  10  21  37  59  83 107 139 180 225 272 322
#     4   9  18  35  59  83 107 140 182 226 271 321
#     4  10  22  37  54  80 113 146 181 222 269 322
#     4  11  23  37  55  81 113 149 185 223 271 325
#     4  10  21  38  60  85 111 142 183 228 273 323
#     4  10  21  37  57  82 111 143 182 228 275 324
#
# _framework density 18.108620999999999
#
# number of rings (size 3 to 8) (size 9 to 14) (size 15 to 20)
#    0.000    2.000    0.000    3.000    0.000    9.000 
#    0.000    1.667    0.000    2.000    0.000    0.000 
#    0.000    0.000    0.000    0.000    0.000    0.000 
#
# Total GULP energy -134082.455111 kJ/mol
# GULP energy per Si atom -5586.768963 kJ/mol
# Density = 1.806740 g / cm^3
# Si number density = 18.108621 Si / 1000 Ang^3
#
#
#
# Elastic Constant Matrix: (Units=GPa)
#
#
# Indices 1 2 3 4 5 6 
#
# 1 45.6183 57.9545 63.7889 0.0000 0.0000 0.0000
# 2 57.9545 141.3004 129.1559 0.0000 0.0000 0.0000
# 3 63.7889 129.1559 164.7932 0.0000 0.0000 0.0000
# 4 0.0000 0.0000 0.0000 -15.3647 0.0000 0.0000
# 5 0.0000 0.0000 0.0000 0.0000 24.3316 0.0000
# 6 0.0000 0.0000 0.0000 0.0000 0.0000 34.8864
#
#
#
# Elastic Compliance Matrix: (Units=1/GPa)
#
#
# Indices 1 2 3 4 5 6 
#
# 1 0.051692 -0.010268 -0.011962 0.000000 0.000000 0.000000
# 2 -0.010268 0.026993 -0.017181 0.000000 0.000000 0.000000
# 3 -0.011962 -0.017181 0.024164 0.000000 0.000000 0.000000
# 4 0.000000 0.000000 0.000000 -0.065084 0.000000 0.000000
# 5 0.000000 0.000000 0.000000 0.000000 0.041099 0.000000
# 6 0.000000 0.000000 0.000000 0.000000 0.000000 0.028664
#
#
# Mechanical properties :
#
#
# Convention : Reuss Voigt Hill
#
# Bulk Modulus (GPa) = 41.61905 94.83452 68.22678
# Shear Modulus (GPa) = 25.72575 15.49149 20.60862
#
# Velocity S-wave (km/s) = 3.77322 2.92802 3.37717
# Velocity P-wave (km/s) = 6.48196 7.99466 7.27772
#
# Compressibility (1/GPa) = 0.02402746
#
# Stress axis : x y z
#
# Youngs Moduli (GPa) = 19.34544 37.04697 41.38390
#
# Poissons Ratio (x) = 0.38039 0.49503
# Poissons Ratio (y) = 0.19863 0.71102
# Poissons Ratio (z) = 0.23141 0.63650
#
# Static dielectric constant tensor:
#      x y z
#    x 1.605720 0.000000 0.000000 
#    y 0.000000 1.599480 0.000000 
#    z 0.000000 0.000000 1.593230 
# 
# From -- ./inp_files/5272.got.cif
#   From: 2010.05.17/outbox.cif.g08.bks.cpg/sg35_3_cif.got.tgz:5272.got - 2010.06.03 17:29:28.
