data_PCOD9349136
_publ_section_title
;
Structure prediction by ZEFSAII (Michael W. Deem and Ramdas Pophale) SiO2 
 PCOD9349136
Probable space group: C M M 2
;
_chemical_formula_sum "Si O2"
_cell_formula_units_Z 64
_cell_length_a 8.672878
_cell_length_b 19.351161
_cell_length_c 21.349267
_cell_angle_alpha 90.000000
_cell_angle_beta 90.000000
_cell_angle_gamma 90.000000
_cell_volume 3583.053000
_symmetry_space_group_name_H-M "C M M 2"
_symmetry_group_IT_number 35
_symmetry_cell_setting 'orthorhombic'
loop_
_space_group_symop_operation_xyz
x,y,z
-x,-y,z
-x,y,z
x,-y,z
1/2+x,1/2+y,z
1/2-x,1/2-y,z
1/2-x,1/2+y,z
1/2+x,1/2-y,z
loop_
_atom_site_type_symbol
_atom_site_label
_atom_site_fract_x
_atom_site_fract_y
_atom_site_fract_z
Si Si1 0.814828 0.326989 0.311680
Si Si2 0.185676 0.419256 0.569949
Si Si3 0.684887 0.671988 0.945125
Si Si4 0.814098 0.827702 0.083601
Si Si5 0.816619 0.327817 0.815886
Si Si6 0.684143 0.418720 0.704085
Si Si7 0.314106 0.826247 0.454019
Si Si8 0.313346 0.420018 0.201116
O O1 0.750000 0.250000 0.299332
O O2 0.769319 0.346412 0.383067
O O3 0.750212 0.380436 0.261519
O O4 0.000000 0.324691 0.307970
O O5 0.222997 0.500000 0.561411
O O6 0.260536 0.395943 0.635137
O O7 0.237264 0.376745 0.509291
O O8 0.000000 0.413210 0.575521
O O9 0.500000 0.673042 0.939385
O O10 0.750000 0.750000 0.946435
O O11 0.755143 0.641232 0.881825
O O12 0.726562 0.644157 0.014091
O O13 0.750000 0.750000 0.091278
O O14 0.763208 0.877650 0.139383
O O15 0.000000 0.822799 0.085467
O O16 0.750000 0.250000 0.809629
O O17 0.761326 0.373766 0.758081
O O18 0.000000 0.323479 0.818066
O O19 0.500000 0.412728 0.708473
O O20 0.725842 0.500000 0.710617
O O21 0.500000 0.824191 0.455162
O O22 0.250000 0.750000 0.465396
O O23 0.500000 0.418364 0.202827
O O24 0.265006 0.500000 0.199151
#
# Coordination Sequence:
#
# PCOD9349136 Si02
#       8
#     8   8   8   8   8   8   8   8
#     4  10  20  35  55  78 104 136 175 214 256 307
#     4   9  18  34  54  74  99 134 173 210 252 303
#     4   9  16  29  49  74 102 131 168 212 258 306
#     4   9  18  32  52  75  99 132 172 212 256 308
#     4  11  21  34  54  79 107 137 172 214 259 306
#     4  10  21  37  55  76 104 138 176 215 255 304
#     4   9  19  34  53  77 104 133 165 208 257 305
#     4  10  21  36  52  74 106 140 174 214 259 305
#
# _framework density 17.861863
#
# number of rings (size 3 to 8) (size 9 to 14) (size 15 to 20)
#    0.000    2.375    0.000    3.375    0.000    5.000 
#    0.000    3.125    0.000    3.750    0.000    0.000 
#    0.000    0.000    0.000    0.000    0.000    0.000 
#
# Total GULP energy -178485.853546 kJ/mol
# GULP energy per Si atom -5577.682923 kJ/mol
# Density = 1.782121 g / cm^3
# Si number density = 17.861863 Si / 1000 Ang^3
#
#
#
# Elastic Constant Matrix: (Units=GPa)
#
#
# Indices 1 2 3 4 5 6 
#
# 1 44.6851 33.9675 53.6383 0.0000 0.0000 0.0000
# 2 33.9675 84.3438 102.4192 0.0000 0.0000 0.0000
# 3 53.6383 102.4192 201.6150 0.0000 0.0000 0.0000
# 4 0.0000 0.0000 0.0000 -11.7503 0.0000 0.0000
# 5 0.0000 0.0000 0.0000 0.0000 22.3422 0.0000
# 6 0.0000 0.0000 0.0000 0.0000 0.0000 23.2986
#
#
#
# Elastic Compliance Matrix: (Units=1/GPa)
#
#
# Indices 1 2 3 4 5 6 
#
# 1 0.034462 -0.007166 -0.005528 0.000000 0.000000 0.000000
# 2 -0.007166 0.032435 -0.014570 0.000000 0.000000 0.000000
# 3 -0.005528 -0.014570 0.013832 0.000000 0.000000 0.000000
# 4 0.000000 0.000000 0.000000 -0.085104 0.000000 0.000000
# 5 0.000000 0.000000 0.000000 0.000000 0.044758 0.000000
# 6 0.000000 0.000000 0.000000 0.000000 0.000000 0.042921
#
#
# Mechanical properties :
#
#
# Convention : Reuss Voigt Hill
#
# Bulk Modulus (GPa) = 38.16739 78.96599 58.56669
# Shear Modulus (GPa) = 34.11428 16.15270 25.13349
#
# Velocity S-wave (km/s) = 4.37498 3.01044 3.75521
# Velocity P-wave (km/s) = 6.85091 7.50926 7.18763
#
# Compressibility (1/GPa) = 0.02620038
#
# Stress axis : x y z
#
# Youngs Moduli (GPa) = 29.01774 30.83089 72.29456
#
# Poissons Ratio (x) = 0.22093 0.39965
# Poissons Ratio (y) = 0.20794 1.05336
# Poissons Ratio (z) = 0.16041 0.44922
#
# Static dielectric constant tensor:
#      x y z
#    x 1.603900 0.000000 0.000000 
#    y 0.000000 1.568460 0.000000 
#    z 0.000000 0.000000 1.632490 
# 
# From -- ./inp_files/18429.got.cif
#   From: 2010.05.17/outbox.cif.g08.bks.cpg/sg35_10_cif.got.tgz:18429.got - 2010.06.03 17:29:28.
