data_PCOD9349880
_publ_section_title
;
Structure prediction by ZEFSAII (Michael W. Deem and Ramdas Pophale) SiO2 
 PCOD9349880
Probable space group: C M M 2
;
_chemical_formula_sum "Si O2"
_cell_formula_units_Z 40
_cell_length_a 24.977476
_cell_length_b 11.097192
_cell_length_c 6.286673
_cell_angle_alpha 90.000000
_cell_angle_beta 90.000000
_cell_angle_gamma 90.000000
_cell_volume 1742.539059
_symmetry_space_group_name_H-M "C M M 2"
_symmetry_group_IT_number 35
_symmetry_cell_setting 'orthorhombic'
loop_
_space_group_symop_operation_xyz
x,y,z
-x,-y,z
-x,y,z
x,-y,z
1/2+x,1/2+y,z
1/2-x,1/2-y,z
1/2-x,1/2+y,z
1/2+x,1/2-y,z
loop_
_atom_site_type_symbol
_atom_site_label
_atom_site_fract_x
_atom_site_fract_y
_atom_site_fract_z
Si Si1 0.861001 0.724548 0.076420
Si Si2 0.708786 0.633807 0.403266
Si Si3 0.437194 0.135657 0.440664
Si Si4 0.104962 0.863673 0.699621
Si Si5 0.721780 0.130163 0.785139
O O1 0.814050 0.777917 0.225265
O O2 0.901594 0.657281 0.231055
O O3 0.888830 0.833254 0.947973
O O4 0.836216 0.642168 0.889227
O O5 0.707000 0.500000 0.309546
O O6 0.664172 0.638553 0.591556
O O7 0.765815 0.637623 0.531253
O O8 0.500000 0.137461 0.389587
O O9 0.425441 0.251295 0.591012
O O10 0.424756 0.000000 0.525820
O O11 0.083949 0.000000 0.664771
O O12 0.750000 0.250000 0.864804
O O13 0.743626 0.000000 0.848508
#
# Coordination Sequence:
#
# PCOD9349880 Si02
#       5
#     8   8   8   8   8
#     4  11  22  41  69 101 131 182 230 280 335 410
#     4   9  20  40  62  89 130 175 218 274 337 393
#     4  10  24  46  70  99 138 181 228 286 348 409
#     4  10  21  41  68  97 131 170 223 286 346 408
#     4  11  23  41  63  95 136 178 228 280 329 395
#
# _framework density 22.955010000000001
#
# number of rings (size 3 to 8) (size 9 to 14) (size 15 to 20)
#    0.000    1.800    2.000    1.200    0.000    5.200 
#    0.000    5.000    0.000    0.000    0.000    0.000 
#    0.000    0.000    0.000    0.000    0.000    0.000 
#
# Total GULP energy -111486.773859 kJ/mol
# GULP energy per Si atom -5574.338693 kJ/mol
# Density = 2.290276 g / cm^3
# Si number density = 22.955010 Si / 1000 Ang^3
#
#
#
# Elastic Constant Matrix: (Units=GPa)
#
#
# Indices 1 2 3 4 5 6 
#
# 1 91.5471 61.8087 57.5857 0.0000 0.0000 0.0000
# 2 61.8087 205.5969 58.1784 0.0000 0.0000 0.0000
# 3 57.5857 58.1784 98.4962 0.0000 0.0000 0.0000
# 4 0.0000 0.0000 0.0000 15.7295 0.0000 0.0000
# 5 0.0000 0.0000 0.0000 0.0000 22.3907 0.0000
# 6 0.0000 0.0000 0.0000 0.0000 0.0000 27.0504
#
#
#
# Elastic Compliance Matrix: (Units=1/GPa)
#
#
# Indices 1 2 3 4 5 6 
#
# 1 0.018738 -0.003042 -0.009158 0.000000 0.000000 0.000000
# 2 -0.003042 0.006334 -0.001963 0.000000 0.000000 0.000000
# 3 -0.009158 -0.001963 0.016667 0.000000 0.000000 0.000000
# 4 0.000000 0.000000 0.000000 0.063575 0.000000 0.000000
# 5 0.000000 0.000000 0.000000 0.000000 0.044661 0.000000
# 6 0.000000 0.000000 0.000000 0.000000 0.000000 0.036968
#
#
# Mechanical properties :
#
#
# Convention : Reuss Voigt Hill
#
# Bulk Modulus (GPa) = 74.55861 83.42064 78.98962
# Shear Modulus (GPa) = 22.75427 27.57195 25.16311
#
# Velocity S-wave (km/s) = 3.15184 3.46949 3.31447
# Velocity P-wave (km/s) = 6.76729 7.24359 7.00949
#
# Compressibility (1/GPa) = 0.01341227
#
# Stress axis : x y z
#
# Youngs Moduli (GPa) = 53.36805 157.88544 60.00031
#
# Poissons Ratio (x) = 0.48022 0.54951
# Poissons Ratio (y) = 0.16232 0.11777
# Poissons Ratio (z) = 0.48877 0.30991
#
# Static dielectric constant tensor:
#      x y z
#    x 1.887390 0.000000 0.000000 
#    y 0.000000 2.040470 0.000000 
#    z 0.000000 0.000000 1.858260 
# 
# From -- ./inp_files/3614.got.cif
#   From: 2010.05.17/outbox.cif.g08.bks.cpg/sg35_2_cif.got.tgz:3614.got - 2010.06.03 17:29:28.
