data_PCOD9349971
_publ_section_title
;
Structure prediction by ZEFSAII (Michael W. Deem and Ramdas Pophale) SiO2 
 PCOD9349971
Probable space group: C M M 2
;
_chemical_formula_sum "Si O2"
_cell_formula_units_Z 58
_cell_length_a 8.017664
_cell_length_b 18.903559
_cell_length_c 18.084076
_cell_angle_alpha 90.000000
_cell_angle_beta 90.000000
_cell_angle_gamma 90.000000
_cell_volume 2740.865679
_symmetry_space_group_name_H-M "C M M 2"
_symmetry_group_IT_number 35
_symmetry_cell_setting 'orthorhombic'
loop_
_space_group_symop_operation_xyz
x,y,z
-x,-y,z
-x,y,z
x,-y,z
1/2+x,1/2+y,z
1/2-x,1/2-y,z
1/2-x,1/2+y,z
1/2+x,1/2-y,z
loop_
_atom_site_type_symbol
_atom_site_label
_atom_site_fract_x
_atom_site_fract_y
_atom_site_fract_z
Si Si1 0.200554 0.581589 0.604390
Si Si2 0.199408 0.332006 0.745828
Si Si3 0.192244 0.178885 0.305209
Si Si4 0.799006 0.918743 0.891146
Si Si5 0.807184 0.607076 0.437960
Si Si6 0.500000 0.500000 0.408162
Si Si7 0.198021 0.580433 0.177860
Si Si8 0.699902 0.331940 0.034574
O O1 0.264069 0.500000 0.602028
O O2 0.265743 0.627227 0.672900
O O3 0.228004 0.617615 0.524928
O O4 0.000000 0.576676 0.613150
O O5 0.250000 0.250000 0.748585
O O6 0.254033 0.375362 0.817911
O O7 0.000000 0.333658 0.743032
O O8 0.250000 0.250000 0.264315
O O9 0.297599 0.170548 0.379978
O O10 0.221679 0.113242 0.250940
O O11 0.000000 0.185482 0.322220
O O12 0.000000 0.921648 0.895459
O O13 0.737405 0.000000 0.888997
O O14 0.738593 0.875764 0.963014
O O15 0.651320 0.559621 0.411688
O O16 0.000000 0.579365 0.434250
O O17 0.256016 0.500000 0.164784
O O18 0.236819 0.629419 0.107999
O O19 0.000000 0.579457 0.189700
O O20 0.500000 0.335154 0.035412
O O21 0.750000 0.250000 0.030761
#
# Coordination Sequence:
#
# PCOD9349971 Si02
#       8
#     8   8   8   8   8   2   8   8
#     4   9  19  38  63  87 119 162 207 263 323 373
#     4  11  23  40  60  89 125 166 210 256 317 378
#     4  12  26  45  66  94 129 171 219 264 328 394
#     4  10  22  41  64  93 124 159 206 260 316 372
#     4  11  23  42  66  96 135 169 218 279 324 391
#     4  12  22  40  64 106 124 172 222 264 336 402
#     4  11  25  43  66  96 127 164 210 263 320 375
#     4  11  23  41  65  92 128 167 205 254 312 378
#
# _framework density 21.161197000000001
#
# number of rings (size 3 to 8) (size 9 to 14) (size 15 to 20)
#    0.000    1.241    1.379    4.345    0.966    5.241 
#    2.483    1.379    0.000    0.000    0.000    0.000 
#    0.000    0.000    0.000    0.000    0.000    0.000 
#
# Total GULP energy -161735.441947 kJ/mol
# GULP energy per Si atom -5577.084205 kJ/mol
# Density = 2.111303 g / cm^3
# Si number density = 21.161197 Si / 1000 Ang^3
#
#
#
# Elastic Constant Matrix: (Units=GPa)
#
#
# Indices 1 2 3 4 5 6 
#
# 1 85.3155 19.1700 19.1425 0.0000 0.0000 0.0000
# 2 19.1700 147.5792 81.6217 0.0000 0.0000 0.0000
# 3 19.1425 81.6217 161.9240 0.0000 0.0000 0.0000
# 4 0.0000 0.0000 0.0000 28.2089 0.0000 0.0000
# 5 0.0000 0.0000 0.0000 0.0000 79.7538 0.0000
# 6 0.0000 0.0000 0.0000 0.0000 0.0000 22.3297
#
#
#
# Elastic Compliance Matrix: (Units=1/GPa)
#
#
# Indices 1 2 3 4 5 6 
#
# 1 0.012165 -0.001088 -0.000890 0.000000 0.000000 0.000000
# 2 -0.001088 0.009493 -0.004656 0.000000 0.000000 0.000000
# 3 -0.000890 -0.004656 0.008628 0.000000 0.000000 0.000000
# 4 0.000000 0.000000 0.000000 0.035450 0.000000 0.000000
# 5 0.000000 0.000000 0.000000 0.000000 0.012539 0.000000
# 6 0.000000 0.000000 0.000000 0.000000 0.000000 0.044783
#
#
# Mechanical properties :
#
#
# Convention : Reuss Voigt Hill
#
# Bulk Modulus (GPa) = 58.76250 70.52078 64.64164
# Shear Modulus (GPa) = 35.21154 44.38410 39.79782
#
# Velocity S-wave (km/s) = 4.08360 4.58474 4.34141
# Velocity P-wave (km/s) = 7.07557 7.83737 7.46619
#
# Compressibility (1/GPa) = 0.01701766
#
# Stress axis : x y z
#
# Youngs Moduli (GPa) = 82.20085 105.34441 115.90088
#
# Poissons Ratio (x) = 0.11463 0.10311
# Poissons Ratio (y) = 0.08945 0.53968
# Poissons Ratio (z) = 0.07313 0.49052
#
# Static dielectric constant tensor:
#      x y z
#    x 1.745160 0.000000 0.000000 
#    y 0.000000 1.758360 0.000000 
#    z 0.000000 0.000000 1.746740 
# 
# From -- ./inp_files/18164.got.cif
#   From: 2010.05.17/outbox.cif.g08.bks.cpg/sg35_10_cif.got.tgz:18164.got - 2010.06.03 17:29:28.
