data_PCOD9349497
_publ_section_title
;
Structure prediction by ZEFSAII (Michael W. Deem and Ramdas Pophale) SiO2 
 PCOD9349497
Probable space group: C M M 2
;
_chemical_formula_sum "Si O2"
_cell_formula_units_Z 40
_cell_length_a 17.795769
_cell_length_b 13.739035
_cell_length_c 7.174723
_cell_angle_alpha 90.000000
_cell_angle_beta 90.000000
_cell_angle_gamma 90.000000
_cell_volume 1754.196048
_symmetry_space_group_name_H-M "C M M 2"
_symmetry_group_IT_number 35
_symmetry_cell_setting 'orthorhombic'
loop_
_space_group_symop_operation_xyz
x,y,z
-x,-y,z
-x,y,z
x,-y,z
1/2+x,1/2+y,z
1/2-x,1/2-y,z
1/2-x,1/2+y,z
1/2+x,1/2-y,z
loop_
_atom_site_type_symbol
_atom_site_label
_atom_site_fract_x
_atom_site_fract_y
_atom_site_fract_z
Si Si1 0.738279 0.611816 0.461770
Si Si2 0.587329 0.607972 0.883825
Si Si3 0.822208 0.295574 0.815446
Si Si4 0.129615 0.391113 0.174348
Si Si5 0.583004 0.684393 0.303417
O O1 0.726052 0.500000 0.508911
O O2 0.787508 0.658155 0.629145
O O3 0.789877 0.615377 0.277518
O O4 0.657692 0.657944 0.416347
O O5 0.500000 0.606579 0.833532
O O6 0.619384 0.500000 0.845971
O O7 0.625012 0.701919 0.791370
O O8 0.591117 0.628582 0.105735
O O9 0.750000 0.250000 0.920245
O O10 0.860496 0.371440 0.954306
O O11 0.099950 0.500000 0.208649
O O12 0.084972 0.299486 0.256535
O O13 0.500000 0.659576 0.380958
#
# Coordination Sequence:
#
# PCOD9349497 Si02
#       5
#     8   8   8   8   8
#     4  11  23  40  62  89 124 166 212 262 317 379
#     4   9  19  38  66  98 130 167 212 265 328 391
#     4  11  22  37  60  91 126 163 208 259 314 379
#     4  10  21  39  63  89 121 165 213 261 314 374
#     4  10  20  37  64  97 132 169 212 265 326 391
#
# _framework density 22.80247
#
# number of rings (size 3 to 8) (size 9 to 14) (size 15 to 20)
#    0.000    1.800    0.000    5.400    0.000    4.800 
#    0.000    5.000    0.000    5.400    0.000    5.600 
#    0.000    0.000    0.000    0.000    0.000    0.000 
#
# Total GULP energy -111751.944988 kJ/mol
# GULP energy per Si atom -5587.597249 kJ/mol
# Density = 2.275057 g / cm^3
# Si number density = 22.802470 Si / 1000 Ang^3
#
#
#
# Elastic Constant Matrix: (Units=GPa)
#
#
# Indices 1 2 3 4 5 6 
#
# 1 122.5239 60.7057 48.9195 0.0000 0.0000 0.0000
# 2 60.7057 194.9839 59.0488 0.0000 0.0000 0.0000
# 3 48.9195 59.0488 120.5045 0.0000 0.0000 0.0000
# 4 0.0000 0.0000 0.0000 20.4747 0.0000 0.0000
# 5 0.0000 0.0000 0.0000 0.0000 12.6593 0.0000
# 6 0.0000 0.0000 0.0000 0.0000 0.0000 19.0109
#
#
#
# Elastic Compliance Matrix: (Units=1/GPa)
#
#
# Indices 1 2 3 4 5 6 
#
# 1 0.010578 -0.002340 -0.003147 0.000000 0.000000 0.000000
# 2 -0.002340 0.006540 -0.002255 0.000000 0.000000 0.000000
# 3 -0.003147 -0.002255 0.010681 0.000000 0.000000 0.000000
# 4 0.000000 0.000000 0.000000 0.048841 0.000000 0.000000
# 5 0.000000 0.000000 0.000000 0.000000 0.078993 0.000000
# 6 0.000000 0.000000 0.000000 0.000000 0.000000 0.052601
#
#
# Mechanical properties :
#
#
# Convention : Reuss Voigt Hill
#
# Bulk Modulus (GPa) = 81.20642 86.15116 83.67879
# Shear Modulus (GPa) = 21.94683 28.38487 25.16585
#
# Velocity S-wave (km/s) = 3.10575 3.53202 3.32572
# Velocity P-wave (km/s) = 6.96787 7.38221 7.17803
#
# Compressibility (1/GPa) = 0.01231430
#
# Stress axis : x y z
#
# Youngs Moduli (GPa) = 94.53808 152.90519 93.62417
#
# Poissons Ratio (x) = 0.35781 0.29468
# Poissons Ratio (y) = 0.22123 0.21110
# Poissons Ratio (z) = 0.29755 0.34476
#
# Static dielectric constant tensor:
#      x y z
#    x 1.934050 0.000000 0.000000 
#    y 0.000000 1.861310 0.000000 
#    z 0.000000 0.000000 1.887100 
# 
# From -- ./inp_files/7004.got.cif
#   From: 2010.05.17/outbox.cif.g08.bks.cpg/sg35_4_cif.got.tgz:7004.got - 2010.06.03 17:29:28.
