data_PCOD9349690
_publ_section_title
;
Structure prediction by ZEFSAII (Michael W. Deem and Ramdas Pophale) SiO2 
 PCOD9349690
Probable space group: C M M 2
;
_chemical_formula_sum "Si O2"
_cell_formula_units_Z 58
_cell_length_a 7.658406
_cell_length_b 19.812927
_cell_length_c 18.164775
_cell_angle_alpha 90.000000
_cell_angle_beta 90.000000
_cell_angle_gamma 90.000000
_cell_volume 2756.240109
_symmetry_space_group_name_H-M "C M M 2"
_symmetry_group_IT_number 35
_symmetry_cell_setting 'orthorhombic'
loop_
_space_group_symop_operation_xyz
x,y,z
-x,-y,z
-x,y,z
x,-y,z
1/2+x,1/2+y,z
1/2-x,1/2-y,z
1/2-x,1/2+y,z
1/2+x,1/2-y,z
loop_
_atom_site_type_symbol
_atom_site_label
_atom_site_fract_x
_atom_site_fract_y
_atom_site_fract_z
Si Si1 0.295582 0.675008 0.809970
Si Si2 0.708148 0.672953 0.126934
Si Si3 0.289533 0.576646 0.255298
Si Si4 0.209068 0.577220 0.422202
Si Si5 0.710435 0.170669 0.554607
Si Si6 0.500000 0.000000 0.954448
Si Si7 0.287768 0.619488 0.966381
Si Si8 0.295745 0.923784 0.685618
O O1 0.500000 0.665897 0.800148
O O2 0.250000 0.750000 0.783315
O O3 0.256270 0.667467 0.896220
O O4 0.212801 0.614754 0.763158
O O5 0.500000 0.665500 0.128249
O O6 0.750000 0.750000 0.142648
O O7 0.779247 0.624261 0.190709
O O8 0.760363 0.652756 0.044520
O O9 0.500000 0.425045 0.250465
O O10 0.224905 0.500000 0.245751
O O11 0.246186 0.401931 0.338327
O O12 0.275950 0.500000 0.433131
O O13 0.273933 0.631155 0.481694
O O14 0.000000 0.573647 0.430490
O O15 0.500000 0.167142 0.555046
O O16 0.750000 0.250000 0.557102
O O17 0.777977 0.127396 0.624331
O O18 0.343899 0.942090 0.955787
O O19 0.500000 0.603449 0.967150
O O20 0.500000 0.931147 0.667589
O O21 0.221610 0.000000 0.686987
#
# Coordination Sequence:
#
# PCOD9349690 Si02
#       8
#     8   8   8   8   8   2   8   8
#     4  11  24  41  64  89 124 164 203 252 307 366
#     4  10  22  40  61  85 122 162 203 255 309 368
#     4   9  19  36  58  83 114 155 195 243 308 363
#     4   9  18  35  57  81 111 147 192 245 297 354
#     4  10  21  37  57  83 115 153 194 241 299 361
#     4  12  26  40  72  98 124 168 210 268 308 390
#     4  10  25  44  64  96 131 165 210 265 315 367
#     4  10  22  39  62  88 118 155 200 249 302 368
#
# _framework density 21.043158999999999
#
# number of rings (size 3 to 8) (size 9 to 14) (size 15 to 20)
#    0.000    2.069    0.000    1.862    4.828    5.241 
#    0.000    2.759    0.000    2.483    0.000    0.000 
#    0.000    0.000    0.000    0.000    0.000    0.000 
#
# Total GULP energy -161592.257173 kJ/mol
# GULP energy per Si atom -5572.146799 kJ/mol
# Density = 2.099526 g / cm^3
# Si number density = 21.043159 Si / 1000 Ang^3
#
#
#
# Elastic Constant Matrix: (Units=GPa)
#
#
# Indices 1 2 3 4 5 6 
#
# 1 38.8031 19.7096 16.1285 0.0000 0.0000 0.0000
# 2 19.7096 162.3027 92.8458 0.0000 0.0000 0.0000
# 3 16.1285 92.8458 146.2578 0.0000 0.0000 0.0000
# 4 0.0000 0.0000 0.0000 41.4103 0.0000 0.0000
# 5 0.0000 0.0000 0.0000 0.0000 17.9129 0.0000
# 6 0.0000 0.0000 0.0000 0.0000 0.0000 27.3948
#
#
#
# Elastic Compliance Matrix: (Units=1/GPa)
#
#
# Indices 1 2 3 4 5 6 
#
# 1 0.027657 -0.002534 -0.001441 0.000000 0.000000 0.000000
# 2 -0.002534 0.009907 -0.006009 0.000000 0.000000 0.000000
# 3 -0.001441 -0.006009 0.010811 0.000000 0.000000 0.000000
# 4 0.000000 0.000000 0.000000 0.024149 0.000000 0.000000
# 5 0.000000 0.000000 0.000000 0.000000 0.055826 0.000000
# 6 0.000000 0.000000 0.000000 0.000000 0.000000 0.036503
#
#
# Mechanical properties :
#
#
# Convention : Reuss Voigt Hill
#
# Bulk Modulus (GPa) = 35.20441 67.19238 51.19840
# Shear Modulus (GPa) = 25.73458 31.92224 28.82841
#
# Velocity S-wave (km/s) = 3.50085 3.89908 3.70532
# Velocity P-wave (km/s) = 5.75389 7.22983 6.53367
#
# Compressibility (1/GPa) = 0.02840553
#
# Stress axis : x y z
#
# Youngs Moduli (GPa) = 36.15670 100.94058 92.49803
#
# Poissons Ratio (x) = 0.25581 0.13330
# Poissons Ratio (y) = 0.09163 0.55587
# Poissons Ratio (z) = 0.05211 0.60660
#
# Static dielectric constant tensor:
#      x y z
#    x 1.787220 0.000000 0.000000 
#    y 0.000000 1.629140 0.000000 
#    z 0.000000 0.000000 1.768070 
# 
# From -- ./inp_files/18147.got.cif
#   From: 2010.05.17/outbox.cif.g08.bks.cpg/sg35_10_cif.got.tgz:18147.got - 2010.06.03 17:29:28.
