data_PCOD9349429
_publ_section_title
;
Structure prediction by ZEFSAII (Michael W. Deem and Ramdas Pophale) SiO2 
 PCOD9349429
Probable space group: C M M 2
;
_chemical_formula_sum "Si O2"
_cell_formula_units_Z 48
_cell_length_a 16.052747
_cell_length_b 8.447427
_cell_length_c 18.091132
_cell_angle_alpha 90.000000
_cell_angle_beta 90.000000
_cell_angle_gamma 90.000000
_cell_volume 2453.237253
_symmetry_space_group_name_H-M "C M M 2"
_symmetry_group_IT_number 35
_symmetry_cell_setting 'orthorhombic'
loop_
_space_group_symop_operation_xyz
x,y,z
-x,-y,z
-x,y,z
x,-y,z
1/2+x,1/2+y,z
1/2-x,1/2-y,z
1/2-x,1/2+y,z
1/2+x,1/2-y,z
loop_
_atom_site_type_symbol
_atom_site_label
_atom_site_fract_x
_atom_site_fract_y
_atom_site_fract_z
Si Si1 0.000000 0.693374 0.339670
Si Si2 0.597836 0.822329 0.917993
Si Si3 0.500000 0.193698 0.510281
Si Si4 0.154441 0.308386 0.239021
Si Si5 0.343863 0.808882 0.075767
Si Si6 0.654640 0.188336 0.609784
Si Si7 0.156736 0.814082 0.766059
O O1 0.000000 0.742826 0.424935
O O2 0.084717 0.743850 0.297709
O O3 0.000000 0.500000 0.337812
O O4 0.500000 0.840027 0.922033
O O5 0.616864 0.726335 0.844408
O O6 0.636206 0.000000 0.910207
O O7 0.622978 0.750124 0.996967
O O8 0.584678 0.245635 0.551958
O O9 0.500000 0.000000 0.512367
O O10 0.158305 0.500000 0.240496
O O11 0.250000 0.250000 0.250402
O O12 0.122596 0.261095 0.156467
O O13 0.250000 0.750000 0.078498
O O14 0.350834 0.000000 0.072692
O O15 0.750000 0.250000 0.600406
O O16 0.622612 0.232556 0.692033
O O17 0.659846 0.000000 0.604264
O O18 0.250000 0.750000 0.772032
O O19 0.156237 0.000000 0.753205
#
# Coordination Sequence:
#
# PCOD9349429 Si02
#       7
#     4   8   4   8   8   8   8
#     4   9  18  34  57  84 111 144 182 223 269 331
#     4  10  21  34  50  75 108 143 181 223 268 316
#     4   9  20  36  57  84 113 144 180 221 275 333
#     4   9  18  33  56  82 111 145 185 226 271 321
#     4   9  18  32  51  75 102 139 181 222 264 313
#     4  10  20  37  59  83 110 145 184 226 275 330
#     4  11  22  37  56  78 105 139 181 224 271 323
#
# _framework density 19.565985000000001
#
# number of rings (size 3 to 8) (size 9 to 14) (size 15 to 20)
#    0.000    2.333    0.000    3.500    2.333    3.000 
#    0.000    1.667    0.000    3.000    0.000    0.000 
#    0.000    0.000    0.000    0.000    0.000    0.000 
#
# Total GULP energy -133725.485889 kJ/mol
# GULP energy per Si atom -5571.895245 kJ/mol
# Density = 1.952145 g / cm^3
# Si number density = 19.565985 Si / 1000 Ang^3
#
#
#
# Elastic Constant Matrix: (Units=GPa)
#
#
# Indices 1 2 3 4 5 6 
#
# 1 87.2370 12.9108 90.0040 0.0000 0.0000 0.0000
# 2 12.9108 24.2909 15.7063 0.0000 0.0000 0.0000
# 3 90.0040 15.7063 195.3130 0.0000 0.0000 0.0000
# 4 0.0000 0.0000 0.0000 28.2837 0.0000 0.0000
# 5 0.0000 0.0000 0.0000 0.0000 47.9765 0.0000
# 6 0.0000 0.0000 0.0000 0.0000 0.0000 18.3391
#
#
#
# Elastic Compliance Matrix: (Units=1/GPa)
#
#
# Indices 1 2 3 4 5 6 
#
# 1 0.022541 -0.005553 -0.009941 0.000000 0.000000 0.000000
# 2 -0.005553 0.044794 -0.001043 0.000000 0.000000 0.000000
# 3 -0.009941 -0.001043 0.009785 0.000000 0.000000 0.000000
# 4 0.000000 0.000000 0.000000 0.035356 0.000000 0.000000
# 5 0.000000 0.000000 0.000000 0.000000 0.020844 0.000000
# 6 0.000000 0.000000 0.000000 0.000000 0.000000 0.054528
#
#
# Mechanical properties :
#
#
# Convention : Reuss Voigt Hill
#
# Bulk Modulus (GPa) = 22.70386 60.45368 41.57877
# Shear Modulus (GPa) = 21.22213 31.46783 26.34498
#
# Velocity S-wave (km/s) = 3.29697 4.01470 3.67341
# Velocity P-wave (km/s) = 5.11099 7.24257 6.26806
#
# Compressibility (1/GPa) = 0.04404538
#
# Stress axis : x y z
#
# Youngs Moduli (GPa) = 44.36379 22.32456 102.19981
#
# Poissons Ratio (x) = 0.12397 1.01594
# Poissons Ratio (y) = 0.24636 0.10661
# Poissons Ratio (z) = 0.44101 0.02329
#
# Static dielectric constant tensor:
#      x y z
#    x 1.663990 0.000000 0.000000 
#    y 0.000000 1.700070 0.000000 
#    z 0.000000 0.000000 1.762810 
# 
# From -- ./inp_files/15255.got.cif
#   From: 2010.05.17/outbox.cif.g08.bks.cpg/sg35_8_cif.got.tgz:15255.got - 2010.06.03 17:29:28.
