data_PCOD9349862
_publ_section_title
;
Structure prediction by ZEFSAII (Michael W. Deem and Ramdas Pophale) SiO2 
 PCOD9349862
Probable space group: C M M 2
;
_chemical_formula_sum "Si O2"
_cell_formula_units_Z 40
_cell_length_a 11.533722
_cell_length_b 13.746996
_cell_length_c 11.508408
_cell_angle_alpha 90.000000
_cell_angle_beta 90.000000
_cell_angle_gamma 90.000000
_cell_volume 1824.704470
_symmetry_space_group_name_H-M "C M M 2"
_symmetry_group_IT_number 35
_symmetry_cell_setting 'orthorhombic'
loop_
_space_group_symop_operation_xyz
x,y,z
-x,-y,z
-x,y,z
x,-y,z
1/2+x,1/2+y,z
1/2-x,1/2-y,z
1/2-x,1/2+y,z
1/2+x,1/2-y,z
loop_
_atom_site_type_symbol
_atom_site_label
_atom_site_fract_x
_atom_site_fract_y
_atom_site_fract_z
Si Si1 0.125149 0.180592 0.481340
Si Si2 0.341316 0.107075 0.584148
Si Si3 0.370911 0.116269 0.086008
Si Si4 0.127321 0.695141 0.824990
Si Si5 0.864637 0.883056 0.222644
O O1 0.205328 0.121526 0.567823
O O2 0.121781 0.294976 0.515021
O O3 0.157332 0.165399 0.347545
O O4 0.000000 0.137776 0.492624
O O5 0.374438 0.120459 0.717560
O O6 0.374511 0.000000 0.540670
O O7 0.500000 0.147970 0.133677
O O8 0.246874 0.144126 0.143623
O O9 0.372517 0.000000 0.092372
O O10 0.368446 0.148636 0.952150
O O11 0.250000 0.750000 0.809739
O O12 0.000000 0.747701 0.817249
O O13 0.000000 0.861723 0.185504
O O14 0.860639 0.000000 0.236579
#
# Coordination Sequence:
#
# PCOD9349862 Si02
#       5
#     8   8   8   8   8
#     4  10  21  40  64  93 131 174 220 268 323 384
#     4  11  23  39  64  96 129 170 218 268 325 388
#     4   9  19  38  65  96 129 166 210 262 323 387
#     4  11  23  41  64  93 130 169 214 268 326 389
#     4   9  18  36  64  96 131 172 218 268 322 381
#
# _framework density 21.921357
#
# number of rings (size 3 to 8) (size 9 to 14) (size 15 to 20)
#    0.000    2.000    2.000    1.800    0.000    4.400 
#    3.600    5.000    0.000   10.800    0.000    0.000 
#    0.000    0.000    0.000    0.000    0.000    0.000 
#
# Total GULP energy -111364.412376 kJ/mol
# GULP energy per Si atom -5568.220619 kJ/mol
# Density = 2.187146 g / cm^3
# Si number density = 21.921357 Si / 1000 Ang^3
#
#
#
# Elastic Constant Matrix: (Units=GPa)
#
#
# Indices 1 2 3 4 5 6 
#
# 1 212.8597 35.6920 82.2054 0.0000 0.0000 0.0000
# 2 35.6920 129.7513 28.4165 0.0000 0.0000 0.0000
# 3 82.2054 28.4165 106.1969 0.0000 0.0000 0.0000
# 4 0.0000 0.0000 0.0000 23.7829 0.0000 0.0000
# 5 0.0000 0.0000 0.0000 0.0000 16.1493 0.0000
# 6 0.0000 0.0000 0.0000 0.0000 0.0000 -130.6288
#
#
#
# Elastic Compliance Matrix: (Units=1/GPa)
#
#
# Indices 1 2 3 4 5 6 
#
# 1 0.006771 -0.000759 -0.005038 0.000000 0.000000 0.000000
# 2 -0.000759 0.008272 -0.001626 0.000000 0.000000 0.000000
# 3 -0.005038 -0.001626 0.013751 0.000000 0.000000 0.000000
# 4 0.000000 0.000000 0.000000 0.042047 0.000000 0.000000
# 5 0.000000 0.000000 0.000000 0.000000 0.061922 0.000000
# 6 0.000000 0.000000 0.000000 0.000000 0.000000 -0.007655
#
#
# Mechanical properties :
#
#
# Convention : Reuss Voigt Hill
#
# Bulk Modulus (GPa) = 71.69399 82.38174 77.03786
# Shear Modulus (GPa) = 34.57729 2.02697 18.30213
#
# Velocity S-wave (km/s) = 3.97587 0.96263 2.89260
# Velocity P-wave (km/s) = 7.33845 6.23680 6.80994
#
# Compressibility (1/GPa) = 0.01394817
#
# Stress axis : x y z
#
# Youngs Moduli (GPa) = 147.69038 120.89066 72.71973
#
# Poissons Ratio (x) = 0.09178 0.36637
# Poissons Ratio (y) = 0.11212 0.11823
# Poissons Ratio (z) = 0.74408 0.19654
#
# Static dielectric constant tensor:
#      x y z
#    x 2.233010 0.000000 0.000000 
#    y 0.000000 1.795710 0.000000 
#    z 0.000000 0.000000 1.768710 
# 
# From -- ./inp_files/12145.got.cif
#   From: 2010.05.17/outbox.cif.g08.bks.cpg/sg35_7_cif.got.tgz:12145.got - 2010.06.03 17:29:28.
