data_PCOD9349265
_publ_section_title
;
Structure prediction by ZEFSAII (Michael W. Deem and Ramdas Pophale) SiO2 
 PCOD9349265
Probable space group: C M M 2
;
_chemical_formula_sum "Si O2"
_cell_formula_units_Z 52
_cell_length_a 15.946795
_cell_length_b 19.501307
_cell_length_c 8.715333
_cell_angle_alpha 90.000000
_cell_angle_beta 90.000000
_cell_angle_gamma 90.000000
_cell_volume 2710.323409
_symmetry_space_group_name_H-M "C M M 2"
_symmetry_group_IT_number 35
_symmetry_cell_setting 'orthorhombic'
loop_
_space_group_symop_operation_xyz
x,y,z
-x,-y,z
-x,y,z
x,-y,z
1/2+x,1/2+y,z
1/2-x,1/2-y,z
1/2-x,1/2+y,z
1/2+x,1/2-y,z
loop_
_atom_site_type_symbol
_atom_site_label
_atom_site_fract_x
_atom_site_fract_y
_atom_site_fract_z
Si Si1 0.662762 0.076665 0.488440
Si Si2 0.180666 0.327686 0.965443
Si Si3 0.405307 0.777277 0.456524
Si Si4 0.096162 0.205094 0.780783
Si Si5 0.250000 0.750000 0.229847
Si Si6 0.093100 0.425756 0.165445
Si Si7 0.789102 0.080080 0.746808
O O1 0.610177 0.145363 0.519797
O O2 0.659391 0.076482 0.303744
O O3 0.751652 0.085116 0.573639
O O4 0.631558 0.000000 0.535318
O O5 0.151900 0.258968 0.878091
O O6 0.218635 0.383136 0.850381
O O7 0.243821 0.311820 0.106756
O O8 0.103640 0.364232 0.049532
O O9 0.500000 0.772529 0.392702
O O10 0.398783 0.729695 0.604905
O O11 0.332284 0.757133 0.336323
O O12 0.131758 0.128254 0.779434
O O13 0.000000 0.208607 0.832182
O O14 0.101765 0.500000 0.087658
O O15 0.000000 0.423556 0.236141
O O16 0.800970 0.000000 0.781720
#
# Coordination Sequence:
#
# PCOD9349265 Si02
#       7
#     8   8   8   8   4   8   8
#     4  10  20  35  59  85 117 160 198 241 294 366
#     4  12  22  39  60  93 121 159 198 250 312 368
#     4  11  23  40  63  90 123 163 207 255 308 369
#     4  11  24  41  64  90 121 158 207 261 306 368
#     4  12  24  36  64  90 124 160 206 262 306 376
#     4  10  21  37  58  89 127 160 193 239 303 375
#     4  11  23  41  62  86 120 161 207 252 307 372
#
# _framework density 19.185903
#
# number of rings (size 3 to 8) (size 9 to 14) (size 15 to 20)
#    0.000    1.077    4.615    2.308    0.000    1.846 
#    0.000    0.000    0.000    0.000    0.000    0.000 
#    0.000    0.000    0.000    0.000    0.000    0.000 
#
# Total GULP energy -144819.339016 kJ/mol
# GULP energy per Si atom -5569.974578 kJ/mol
# Density = 1.914223 g / cm^3
# Si number density = 19.185903 Si / 1000 Ang^3
#
#
#
# Elastic Constant Matrix: (Units=GPa)
#
#
# Indices 1 2 3 4 5 6 
#
# 1 97.2502 55.7087 45.3450 0.0000 0.0000 0.0000
# 2 55.7087 147.5287 36.5576 0.0000 0.0000 0.0000
# 3 45.3450 36.5576 65.0779 0.0000 0.0000 0.0000
# 4 0.0000 0.0000 0.0000 26.9641 0.0000 0.0000
# 5 0.0000 0.0000 0.0000 0.0000 18.7200 0.0000
# 6 0.0000 0.0000 0.0000 0.0000 0.0000 28.2847
#
#
#
# Elastic Compliance Matrix: (Units=1/GPa)
#
#
# Indices 1 2 3 4 5 6 
#
# 1 0.017107 -0.004073 -0.009632 0.000000 0.000000 0.000000
# 2 -0.004073 0.008844 -0.002130 0.000000 0.000000 0.000000
# 3 -0.009632 -0.002130 0.023274 0.000000 0.000000 0.000000
# 4 0.000000 0.000000 0.000000 0.037086 0.000000 0.000000
# 5 0.000000 0.000000 0.000000 0.000000 0.053419 0.000000
# 6 0.000000 0.000000 0.000000 0.000000 0.000000 0.035355
#
#
# Mechanical properties :
#
#
# Convention : Reuss Voigt Hill
#
# Bulk Modulus (GPa) = 56.96320 65.00881 60.98601
# Shear Modulus (GPa) = 23.51757 26.27680 24.89719
#
# Velocity S-wave (km/s) = 3.50490 3.70481 3.60624
# Velocity P-wave (km/s) = 6.79218 7.22897 7.01398
#
# Compressibility (1/GPa) = 0.01755519
#
# Stress axis : x y z
#
# Youngs Moduli (GPa) = 58.45566 113.06776 42.96627
#
# Poissons Ratio (x) = 0.46053 0.41384
# Poissons Ratio (y) = 0.23809 0.09153
# Poissons Ratio (z) = 0.56303 0.24086
#
# Static dielectric constant tensor:
#      x y z
#    x 1.685330 0.000000 0.000000 
#    y 0.000000 1.714260 0.000000 
#    z 0.000000 0.000000 1.675780 
# 
# From -- ./inp_files/8533.got.cif
#   From: 2010.05.17/outbox.cif.g08.bks.cpg/sg35_5_cif.got.tgz:8533.got - 2010.06.03 17:29:28.
