data_PCOD9349171
_publ_section_title
;
Structure prediction by ZEFSAII (Michael W. Deem and Ramdas Pophale) SiO2 
 PCOD9349171
Probable space group: C M M 2
;
_chemical_formula_sum "Si O2"
_cell_formula_units_Z 56
_cell_length_a 8.039238
_cell_length_b 18.754603
_cell_length_c 18.557665
_cell_angle_alpha 90.000000
_cell_angle_beta 90.000000
_cell_angle_gamma 90.000000
_cell_volume 2797.989575
_symmetry_space_group_name_H-M "C M M 2"
_symmetry_group_IT_number 35
_symmetry_cell_setting 'orthorhombic'
loop_
_space_group_symop_operation_xyz
x,y,z
-x,-y,z
-x,y,z
x,-y,z
1/2+x,1/2+y,z
1/2-x,1/2-y,z
1/2-x,1/2+y,z
1/2+x,1/2-y,z
loop_
_atom_site_type_symbol
_atom_site_label
_atom_site_fract_x
_atom_site_fract_y
_atom_site_fract_z
Si Si1 0.700908 0.331526 0.454110
Si Si2 0.296420 0.917528 0.035147
Si Si3 0.700851 0.167657 0.893139
Si Si4 0.698888 0.668500 0.616301
Si Si5 0.301383 0.167685 0.176295
Si Si6 0.199711 0.419183 0.754441
Si Si7 0.700430 0.580799 0.317093
O O1 0.500000 0.334998 0.455010
O O2 0.750000 0.250000 0.438381
O O3 0.760061 0.348848 0.535220
O O4 0.762133 0.383093 0.391030
O O5 0.500000 0.917481 0.035297
O O6 0.239496 0.875684 0.106380
O O7 0.243771 0.000000 0.035266
O O8 0.242238 0.875878 0.963462
O O9 0.500000 0.164736 0.892728
O O10 0.750000 0.250000 0.896302
O O11 0.762510 0.129554 0.820246
O O12 0.500000 0.665098 0.615741
O O13 0.750000 0.750000 0.632017
O O14 0.762043 0.616753 0.678212
O O15 0.500000 0.164880 0.174980
O O16 0.250000 0.250000 0.173827
O O17 0.243504 0.129417 0.249055
O O18 0.264096 0.500000 0.758758
O O19 0.000000 0.422345 0.761661
O O20 0.500000 0.577898 0.321713
O O21 0.762749 0.500000 0.308035
#
# Coordination Sequence:
#
# PCOD9349171 Si02
#       7
#     8   8   8   8   8   8   8
#     4   9  19  35  55  78 104 138 178 218 262 315
#     4   9  18  34  56  80 106 138 176 217 262 313
#     4  10  20  35  56  79 105 139 178 218 261 312
#     4  10  20  35  56  80 107 140 178 219 264 316
#     4  11  22  36  56  81 109 141 180 222 264 314
#     4  10  21  36  54  78 108 141 178 221 269 318
#     4  10  21  37  56  79 109 142 176 218 268 318
#
# _framework density 20.014372000000002
#
# number of rings (size 3 to 8) (size 9 to 14) (size 15 to 20)
#    0.000    2.143    0.000    3.000    0.000    7.429 
#    0.000    2.143    0.000    3.000    0.000    0.000 
#    0.000    0.000    0.000    0.000    0.000    0.000 
#
# Total GULP energy -156406.269753 kJ/mol
# GULP energy per Si atom -5585.938205 kJ/mol
# Density = 1.996882 g / cm^3
# Si number density = 20.014372 Si / 1000 Ang^3
#
#
#
# Elastic Constant Matrix: (Units=GPa)
#
#
# Indices 1 2 3 4 5 6 
#
# 1 15.2549 8.5129 10.5772 0.0000 0.0000 0.0000
# 2 8.5129 206.0800 134.9277 0.0000 0.0000 0.0000
# 3 10.5772 134.9277 175.4434 0.0000 0.0000 0.0000
# 4 0.0000 0.0000 0.0000 27.3437 0.0000 0.0000
# 5 0.0000 0.0000 0.0000 0.0000 16.7527 0.0000
# 6 0.0000 0.0000 0.0000 0.0000 0.0000 20.5436
#
#
#
# Elastic Compliance Matrix: (Units=1/GPa)
#
#
# Indices 1 2 3 4 5 6 
#
# 1 0.068419 -0.000253 -0.003930 0.000000 0.000000 0.000000
# 2 -0.000253 0.009775 -0.007502 0.000000 0.000000 0.000000
# 3 -0.003930 -0.007502 0.011707 0.000000 0.000000 0.000000
# 4 0.000000 0.000000 0.000000 0.036572 0.000000 0.000000
# 5 0.000000 0.000000 0.000000 0.000000 0.059692 0.000000
# 6 0.000000 0.000000 0.000000 0.000000 0.000000 0.048677
#
#
# Mechanical properties :
#
#
# Convention : Reuss Voigt Hill
#
# Bulk Modulus (GPa) = 15.03096 78.31265 46.67181
# Shear Modulus (GPa) = 17.83239 29.11203 23.47221
#
# Velocity S-wave (km/s) = 2.98817 3.81800 3.42828
# Velocity P-wave (km/s) = 4.40816 7.65829 6.24825
#
# Compressibility (1/GPa) = 0.06652934
#
# Stress axis : x y z
#
# Youngs Moduli (GPa) = 14.61581 102.30169 85.42167
#
# Poissons Ratio (x) = 0.02588 0.33573
# Poissons Ratio (y) = 0.00370 0.64087
# Poissons Ratio (z) = 0.05744 0.76751
#
# Static dielectric constant tensor:
#      x y z
#    x 1.722870 0.000000 0.000000 
#    y 0.000000 1.661340 0.000000 
#    z 0.000000 0.000000 1.698470 
# 
# From -- ./inp_files/15620.got.cif
#   From: 2010.05.17/outbox.cif.g08.bks.cpg/sg35_8_cif.got.tgz:15620.got - 2010.06.03 17:29:28.
