data_PCOD9349063
_publ_section_title
;
Structure prediction by ZEFSAII (Michael W. Deem and Ramdas Pophale) SiO2 
 PCOD9349063
Probable space group: C M M 2
;
_chemical_formula_sum "Si O2"
_cell_formula_units_Z 64
_cell_length_a 13.729347
_cell_length_b 19.520884
_cell_length_c 12.269229
_cell_angle_alpha 90.000000
_cell_angle_beta 90.000000
_cell_angle_gamma 90.000000
_cell_volume 3288.263675
_symmetry_space_group_name_H-M "C M M 2"
_symmetry_group_IT_number 35
_symmetry_cell_setting 'orthorhombic'
loop_
_space_group_symop_operation_xyz
x,y,z
-x,-y,z
-x,y,z
x,-y,z
1/2+x,1/2+y,z
1/2-x,1/2-y,z
1/2-x,1/2+y,z
1/2+x,1/2-y,z
loop_
_atom_site_type_symbol
_atom_site_label
_atom_site_fract_x
_atom_site_fract_y
_atom_site_fract_z
Si Si1 0.287689 0.176543 0.112130
Si Si2 0.884351 0.345610 0.341493
Si Si3 0.802587 0.922652 0.407569
Si Si4 0.719518 0.079386 0.716111
Si Si5 0.384315 0.649683 0.617736
Si Si6 0.889014 0.920298 0.171678
Si Si7 0.886156 0.578147 0.945202
Si Si8 0.614227 0.197248 0.581323
O O1 0.250000 0.250000 0.073490
O O2 0.341946 0.185049 0.229319
O O3 0.192819 0.128423 0.123005
O O4 0.358817 0.135327 0.032635
O O5 0.808012 0.406456 0.369343
O O6 0.873371 0.299356 0.450062
O O7 0.000000 0.362477 0.330873
O O8 0.842365 0.873495 0.500809
O O9 0.870201 0.916669 0.301442
O O10 0.807869 0.000000 0.448992
O O11 0.831452 0.102100 0.705883
O O12 0.676563 0.087910 0.836320
O O13 0.666908 0.132435 0.634547
O O14 0.705350 0.000000 0.685168
O O15 0.500000 0.642629 0.618363
O O16 0.358811 0.729660 0.631913
O O17 0.000000 0.900638 0.146350
O O18 0.874573 0.000000 0.139961
O O19 0.868652 0.500000 0.986671
O O20 0.000000 0.582613 0.916760
O O21 0.500000 0.186783 0.600329
#
# Coordination Sequence:
#
# PCOD9349063 Si02
#       8
#     8   8   8   8   8   8   8   8
#     4  11  24  38  62  94 126 160 203 258 306 366
#     4  10  22  37  57  89 128 167 203 246 305 362
#     4  10  20  34  55  85 121 164 208 251 295 353
#     4  11  23  40  65  91 119 156 206 263 314 370
#     4  11  23  37  58  88 126 167 202 244 303 371
#     4   9  19  36  57  82 117 161 203 242 290 352
#     4  10  23  46  70  89 116 159 209 261 320 379
#     4  10  22  38  60  90 124 163 201 244 306 372
#
# _framework density 19.463159000000001
#
# number of rings (size 3 to 8) (size 9 to 14) (size 15 to 20)
#    0.000    1.750    1.250    2.250    3.500    5.000 
#    0.000    1.875    0.000    0.750    0.000    0.000 
#    0.000    0.000    0.000    0.000    0.000    0.000 
#
# Total GULP energy -178580.723793 kJ/mol
# GULP energy per Si atom -5580.647619 kJ/mol
# Density = 1.941886 g / cm^3
# Si number density = 19.463159 Si / 1000 Ang^3
#
#
#
# Elastic Constant Matrix: (Units=GPa)
#
#
# Indices 1 2 3 4 5 6 
#
# 1 117.4628 36.0147 11.5964 0.0000 0.0000 0.0000
# 2 36.0147 105.3304 29.3515 0.0000 0.0000 0.0000
# 3 11.5964 29.3515 48.3895 0.0000 0.0000 0.0000
# 4 0.0000 0.0000 0.0000 6.2460 0.0000 0.0000
# 5 0.0000 0.0000 0.0000 0.0000 26.4659 0.0000
# 6 0.0000 0.0000 0.0000 0.0000 0.0000 27.0812
#
#
#
# Elastic Compliance Matrix: (Units=1/GPa)
#
#
# Indices 1 2 3 4 5 6 
#
# 1 0.009516 -0.003151 -0.000369 0.000000 0.000000 0.000000
# 2 -0.003151 0.012468 -0.006808 0.000000 0.000000 0.000000
# 3 -0.000369 -0.006808 0.024884 0.000000 0.000000 0.000000
# 4 0.000000 0.000000 0.000000 0.160102 0.000000 0.000000
# 5 0.000000 0.000000 0.000000 0.000000 0.037785 0.000000
# 6 0.000000 0.000000 0.000000 0.000000 0.000000 0.036926
#
#
# Mechanical properties :
#
#
# Convention : Reuss Voigt Hill
#
# Bulk Modulus (GPa) = 38.15049 47.23420 42.69234
# Shear Modulus (GPa) = 16.07341 24.90663 20.49002
#
# Velocity S-wave (km/s) = 2.87686 3.58114 3.24814
# Velocity P-wave (km/s) = 5.53886 6.43589 6.00415
#
# Compressibility (1/GPa) = 0.02621198
#
# Stress axis : x y z
#
# Youngs Moduli (GPa) = 105.08810 80.20329 40.18720
#
# Poissons Ratio (x) = 0.25270 0.01484
# Poissons Ratio (y) = 0.33111 0.27359
# Poissons Ratio (z) = 0.03881 0.54601
#
# Static dielectric constant tensor:
#      x y z
#    x 1.693910 0.000000 0.000000 
#    y 0.000000 1.669670 0.000000 
#    z 0.000000 0.000000 1.668220 
# 
# From -- ./inp_files/13213.got.cif
#   From: 2010.05.17/outbox.cif.g08.bks.cpg/sg35_7_cif.got.tgz:13213.got - 2010.06.03 17:29:28.
