data_PCOD9349455
_publ_section_title
;
Structure prediction by ZEFSAII (Michael W. Deem and Ramdas Pophale) SiO2 
 PCOD9349455
Probable space group: C M M 2
;
_chemical_formula_sum "Si O2"
_cell_formula_units_Z 48
_cell_length_a 7.805654
_cell_length_b 18.014314
_cell_length_c 17.714733
_cell_angle_alpha 90.000000
_cell_angle_beta 90.000000
_cell_angle_gamma 90.000000
_cell_volume 2490.930646
_symmetry_space_group_name_H-M "C M M 2"
_symmetry_group_IT_number 35
_symmetry_cell_setting 'orthorhombic'
loop_
_space_group_symop_operation_xyz
x,y,z
-x,-y,z
-x,y,z
x,-y,z
1/2+x,1/2+y,z
1/2-x,1/2-y,z
1/2-x,1/2+y,z
1/2+x,1/2-y,z
loop_
_atom_site_type_symbol
_atom_site_label
_atom_site_fract_x
_atom_site_fract_y
_atom_site_fract_z
Si Si1 0.690002 0.409527 0.835310
Si Si2 0.000000 0.409414 0.940380
Si Si3 0.208141 0.413417 0.362180
Si Si4 0.500000 0.910842 0.115007
Si Si5 0.294140 0.835902 0.516047
Si Si6 0.292577 0.086681 0.668480
Si Si7 0.803053 0.163957 0.208223
O O1 0.500000 0.387428 0.858731
O O2 0.697849 0.500000 0.833545
O O3 0.834263 0.384487 0.893418
O O4 0.724989 0.385945 0.749144
O O5 0.000000 0.500000 0.939839
O O6 0.000000 0.387243 0.027441
O O7 0.252121 0.500000 0.355719
O O8 0.265507 0.381029 0.442709
O O9 0.283733 0.367666 0.292840
O O10 0.000000 0.407398 0.357951
O O11 0.331982 0.879982 0.156726
O O12 0.500000 0.000000 0.119491
O O13 0.500000 0.843775 0.517567
O O14 0.250000 0.750000 0.508202
O O15 0.230963 0.868396 0.595657
O O16 0.500000 0.089766 0.672122
O O17 0.245285 0.000000 0.659386
O O18 0.750000 0.250000 0.207961
O O19 0.000000 0.155765 0.183534
#
# Coordination Sequence:
#
# PCOD9349455 Si02
#       7
#     8   4   8   4   8   8   8
#     4   9  16  28  51  83 115 148 191 242 298 358
#     4   9  18  34  56  85 123 156 185 241 307 358
#     4  10  20  37  60  87 122 157 202 259 309 360
#     4  11  24  42  66  99 132 162 205 265 320 374
#     4  10  21  34  51  77 111 159 200 244 295 358
#     4   9  16  30  52  77 106 145 195 247 297 347
#     4  12  24  42  67  94 125 171 211 254 312 384
#
# _framework density 19.269905999999999
#
# number of rings (size 3 to 8) (size 9 to 14) (size 15 to 20)
#    0.000    2.000    2.500    1.500    0.000    6.667 
#    0.000    1.667    0.000    4.000    0.000    0.000 
#    0.000    0.000    0.000    0.000    0.000    0.000 
#
# Total GULP energy -134045.372420 kJ/mol
# GULP energy per Si atom -5585.223851 kJ/mol
# Density = 1.922605 g / cm^3
# Si number density = 19.269906 Si / 1000 Ang^3
#
#
#
# Elastic Constant Matrix: (Units=GPa)
#
#
# Indices 1 2 3 4 5 6 
#
# 1 120.1012 32.9783 74.9237 0.0000 0.0000 0.0000
# 2 32.9783 76.7785 44.8146 0.0000 0.0000 0.0000
# 3 74.9237 44.8146 162.0830 0.0000 0.0000 0.0000
# 4 0.0000 0.0000 0.0000 -11.8491 0.0000 0.0000
# 5 0.0000 0.0000 0.0000 0.0000 -6.2572 0.0000
# 6 0.0000 0.0000 0.0000 0.0000 0.0000 18.7698
#
#
#
# Elastic Compliance Matrix: (Units=1/GPa)
#
#
# Indices 1 2 3 4 5 6 
#
# 1 0.012029 -0.002291 -0.004927 0.000000 0.000000 0.000000
# 2 -0.002291 0.015967 -0.003356 0.000000 0.000000 0.000000
# 3 -0.004927 -0.003356 0.009375 0.000000 0.000000 0.000000
# 4 0.000000 0.000000 0.000000 -0.084395 0.000000 0.000000
# 5 0.000000 0.000000 0.000000 0.000000 -0.159817 0.000000
# 6 0.000000 0.000000 0.000000 0.000000 0.000000 0.053277
#
#
# Mechanical properties :
#
#
# Convention : Reuss Voigt Hill
#
# Bulk Modulus (GPa) = 61.63793 73.82175 67.72984
# Shear Modulus (GPa) = -39.36774 13.88246 -12.74264
#
# Velocity S-wave (km/s) = -4.52482 2.68698 -2.57431
# Velocity P-wave (km/s) = 2.18115 6.92957 5.13694
#
# Compressibility (1/GPa) = 0.01622378
#
# Stress axis : x y z
#
# Youngs Moduli (GPa) = 83.13200 62.62826 106.66554
#
# Poissons Ratio (x) = 0.14348 0.52555
# Poissons Ratio (y) = 0.19045 0.35795
# Poissons Ratio (z) = 0.40960 0.21017
#
# Static dielectric constant tensor:
#      x y z
#    x 1.690120 0.000000 0.000000 
#    y 0.000000 1.634870 0.000000 
#    z 0.000000 0.000000 1.649930 
# 
# From -- ./inp_files/15218.got.cif
#   From: 2010.05.17/outbox.cif.g08.bks.cpg/sg35_8_cif.got.tgz:15218.got - 2010.06.03 17:29:28.
