data_PCOD9349959
_publ_section_title
;
Structure prediction by ZEFSAII (Michael W. Deem and Ramdas Pophale) SiO2 
 PCOD9349959
Probable space group: C M M 2
;
_chemical_formula_sum "Si O2"
_cell_formula_units_Z 48
_cell_length_a 8.756724
_cell_length_b 18.208395
_cell_length_c 15.772712
_cell_angle_alpha 90.000000
_cell_angle_beta 90.000000
_cell_angle_gamma 90.000000
_cell_volume 2514.894095
_symmetry_space_group_name_H-M "C M M 2"
_symmetry_group_IT_number 35
_symmetry_cell_setting 'orthorhombic'
loop_
_space_group_symop_operation_xyz
x,y,z
-x,-y,z
-x,y,z
x,-y,z
1/2+x,1/2+y,z
1/2-x,1/2-y,z
1/2-x,1/2+y,z
1/2+x,1/2-y,z
loop_
_atom_site_type_symbol
_atom_site_label
_atom_site_fract_x
_atom_site_fract_y
_atom_site_fract_z
Si Si1 0.317098 0.913255 0.481090
Si Si2 0.683667 0.331899 0.317437
Si Si3 0.183771 0.586317 0.807062
Si Si4 0.317788 0.331816 0.644716
Si Si5 0.684084 0.414607 0.143549
Si Si6 0.182909 0.668354 0.981314
O O1 0.500000 0.904091 0.482314
O O2 0.249246 0.875686 0.397477
O O3 0.246685 0.874845 0.563502
O O4 0.282654 0.000000 0.481574
O O5 0.500000 0.329199 0.323095
O O6 0.750000 0.250000 0.316775
O O7 0.726122 0.373459 0.230486
O O8 0.221032 0.500000 0.809248
O O9 0.264894 0.626122 0.729194
O O10 0.225288 0.624832 0.895655
O O11 0.000000 0.593021 0.796198
O O12 0.500000 0.328293 0.640539
O O13 0.250000 0.250000 0.645578
O O14 0.500000 0.411571 0.136174
O O15 0.729815 0.500000 0.146706
O O16 0.756071 0.374428 0.063156
O O17 0.250000 0.750000 0.979121
O O18 0.000000 0.672288 0.985317
#
# Coordination Sequence:
#
# PCOD9349959 Si02
#       6
#     8   8   8   8   8   8
#     4  11  24  42  64  90 121 157 197 244 298 354
#     4  11  23  40  62  89 122 158 199 246 296 352
#     4  10  22  41  63  89 122 157 196 245 299 354
#     4  12  25  41  63  90 121 158 200 245 295 352
#     4  10  22  40  62  89 121 157 198 247 300 353
#     4  11  23  39  61  89 121 159 201 246 297 352
#
# _framework density 19.086290999999999
#
# number of rings (size 3 to 8) (size 9 to 14) (size 15 to 20)
#    0.000    1.167    0.000    6.000    0.000   10.667 
#    0.000    0.000    0.000    0.000    0.000    0.000 
#    0.000    0.000    0.000    0.000    0.000    0.000 
#
# Total GULP energy -134317.480399 kJ/mol
# GULP energy per Si atom -5596.561683 kJ/mol
# Density = 1.904285 g / cm^3
# Si number density = 19.086291 Si / 1000 Ang^3
#
#
#
# Elastic Constant Matrix: (Units=GPa)
#
#
# Indices 1 2 3 4 5 6 
#
# 1 77.3093 93.6872 91.0905 0.0000 0.0000 0.0000
# 2 93.6872 226.5863 143.4649 0.0000 0.0000 0.0000
# 3 91.0905 143.4649 234.3982 0.0000 0.0000 0.0000
# 4 0.0000 0.0000 0.0000 45.8354 0.0000 0.0000
# 5 0.0000 0.0000 0.0000 0.0000 36.4700 0.0000
# 6 0.0000 0.0000 0.0000 0.0000 0.0000 24.6932
#
#
#
# Elastic Compliance Matrix: (Units=1/GPa)
#
#
# Indices 1 2 3 4 5 6 
#
# 1 0.031705 -0.008666 -0.007017 0.000000 0.000000 0.000000
# 2 -0.008666 0.009575 -0.002492 0.000000 0.000000 0.000000
# 3 -0.007017 -0.002492 0.008518 0.000000 0.000000 0.000000
# 4 0.000000 0.000000 0.000000 0.021817 0.000000 0.000000
# 5 0.000000 0.000000 0.000000 0.000000 0.027420 0.000000
# 6 0.000000 0.000000 0.000000 0.000000 0.000000 0.040497
#
#
# Mechanical properties :
#
#
# Convention : Reuss Voigt Hill
#
# Bulk Modulus (GPa) = 74.36485 132.75321 103.55903
# Shear Modulus (GPa) = 27.72150 35.40314 31.56232
#
# Velocity S-wave (km/s) = 3.81521 4.31153 4.07094
# Velocity P-wave (km/s) = 7.64557 9.72064 8.74488
#
# Compressibility (1/GPa) = 0.01344721
#
# Stress axis : x y z
#
# Youngs Moduli (GPa) = 31.54085 104.44155 117.39206
#
# Poissons Ratio (x) = 0.90514 0.82369
# Poissons Ratio (y) = 0.27335 0.29258
# Poissons Ratio (z) = 0.22131 0.26031
#
# Static dielectric constant tensor:
#      x y z
#    x 1.643970 0.000000 0.000000 
#    y 0.000000 1.626920 0.000000 
#    z 0.000000 0.000000 1.620740 
# 
# From -- ./inp_files/15139.got.cif
#   From: 2010.05.17/outbox.cif.g08.bks.cpg/sg35_8_cif.got.tgz:15139.got - 2010.06.03 17:29:28.
