data_PCOD9349260
_publ_section_title
;
Structure prediction by ZEFSAII (Michael W. Deem and Ramdas Pophale) SiO2 
 PCOD9349260
Probable space group: C M M 2
;
_chemical_formula_sum "Si O2"
_cell_formula_units_Z 40
_cell_length_a 8.779511
_cell_length_b 15.720268
_cell_length_c 14.800134
_cell_angle_alpha 90.000000
_cell_angle_beta 90.000000
_cell_angle_gamma 90.000000
_cell_volume 2042.659228
_symmetry_space_group_name_H-M "C M M 2"
_symmetry_group_IT_number 35
_symmetry_cell_setting 'orthorhombic'
loop_
_space_group_symop_operation_xyz
x,y,z
-x,-y,z
-x,y,z
x,-y,z
1/2+x,1/2+y,z
1/2-x,1/2-y,z
1/2-x,1/2+y,z
1/2+x,1/2-y,z
loop_
_atom_site_type_symbol
_atom_site_label
_atom_site_fract_x
_atom_site_fract_y
_atom_site_fract_z
Si Si1 0.678282 0.602980 0.152420
Si Si2 0.682722 0.660774 0.532006
Si Si3 0.318848 0.159808 0.966738
Si Si4 0.321442 0.102810 0.344055
Si Si5 0.814994 0.000000 0.650657
Si Si6 0.816410 0.000000 0.859846
O O1 0.500000 0.624621 0.144340
O O2 0.691920 0.500000 0.145300
O O3 0.742698 0.628134 0.250132
O O4 0.770927 0.643569 0.070639
O O5 0.500000 0.663716 0.531410
O O6 0.750000 0.750000 0.563631
O O7 0.741734 0.642569 0.431013
O O8 0.734219 0.583585 0.596199
O O9 0.500000 0.159890 0.958408
O O10 0.250000 0.250000 0.937676
O O11 0.247540 0.083051 0.909528
O O12 0.500000 0.124602 0.342598
O O13 0.308193 0.000000 0.351302
O O14 0.769235 0.000000 0.754896
O O15 0.000000 0.000000 0.649413
O O16 0.000000 0.000000 0.865986
#
# Coordination Sequence:
#
# PCOD9349260 Si02
#       6
#     8   8   8   8   4   4
#     4  10  20  36  61  91 126 168 209 253 308 368
#     4  11  22  40  63  92 125 163 207 253 308 368
#     4  12  25  42  65  95 129 167 211 259 312 373
#     4  10  20  35  58  90 126 165 209 255 303 362
#     4   9  22  43  68  91 122 161 201 254 316 375
#     4  11  23  45  70  95 126 161 205 260 322 381
#
# _framework density 19.582315999999999
#
# number of rings (size 3 to 8) (size 9 to 14) (size 15 to 20)
#    0.000    1.400    2.000    3.900    0.000    3.200 
#    0.000   10.000    0.000    0.000    0.000    0.000 
#    0.000    0.000    0.000    0.000    0.000    0.000 
#
# Total GULP energy -111886.262062 kJ/mol
# GULP energy per Si atom -5594.313103 kJ/mol
# Density = 1.953775 g / cm^3
# Si number density = 19.582316 Si / 1000 Ang^3
#
#
#
# Elastic Constant Matrix: (Units=GPa)
#
#
# Indices 1 2 3 4 5 6 
#
# 1 126.8442 65.3843 46.5502 0.0000 0.0000 0.0000
# 2 65.3843 145.3376 85.1594 0.0000 0.0000 0.0000
# 3 46.5502 85.1594 140.6497 0.0000 0.0000 0.0000
# 4 0.0000 0.0000 0.0000 -8.9375 0.0000 0.0000
# 5 0.0000 0.0000 0.0000 0.0000 17.3804 0.0000
# 6 0.0000 0.0000 0.0000 0.0000 0.0000 32.0563
#
#
#
# Elastic Compliance Matrix: (Units=1/GPa)
#
#
# Indices 1 2 3 4 5 6 
#
# 1 0.010343 -0.004103 -0.000939 0.000000 0.000000 0.000000
# 2 -0.004103 0.012291 -0.006084 0.000000 0.000000 0.000000
# 3 -0.000939 -0.006084 0.011104 0.000000 0.000000 0.000000
# 4 0.000000 0.000000 0.000000 -0.111888 0.000000 0.000000
# 5 0.000000 0.000000 0.000000 0.000000 0.057536 0.000000
# 6 0.000000 0.000000 0.000000 0.000000 0.000000 0.031195
#
#
# Mechanical properties :
#
#
# Convention : Reuss Voigt Hill
#
# Bulk Modulus (GPa) = 87.05683 89.66883 88.36283
# Shear Modulus (GPa) = 136.37493 22.48234 79.42863
#
# Velocity S-wave (km/s) = 8.35422 3.39203 6.37569
# Velocity P-wave (km/s) = 11.73076 7.82504 9.97101
#
# Compressibility (1/GPa) = 0.01148675
#
# Stress axis : x y z
#
# Youngs Moduli (GPa) = 96.68118 81.35821 90.05445
#
# Poissons Ratio (x) = 0.33381 0.08456
# Poissons Ratio (y) = 0.39668 0.54790
# Poissons Ratio (z) = 0.09078 0.49499
#
# Static dielectric constant tensor:
#      x y z
#    x 1.652230 0.000000 0.000000 
#    y 0.000000 1.697050 0.000000 
#    z 0.000000 0.000000 1.649780 
# 
# From -- ./inp_files/14742.got.cif
#   From: 2010.05.17/outbox.cif.g08.bks.cpg/sg35_8_cif.got.tgz:14742.got - 2010.06.03 17:29:28.
