data_PCOD9349298
_publ_section_title
;
Structure prediction by ZEFSAII (Michael W. Deem and Ramdas Pophale) SiO2 
 PCOD9349298
Probable space group: C M M 2
;
_chemical_formula_sum "Si O2"
_cell_formula_units_Z 40
_cell_length_a 8.229215
_cell_length_b 15.090736
_cell_length_c 14.650659
_cell_angle_alpha 90.000000
_cell_angle_beta 90.000000
_cell_angle_gamma 90.000000
_cell_volume 1819.390785
_symmetry_space_group_name_H-M "C M M 2"
_symmetry_group_IT_number 35
_symmetry_cell_setting 'orthorhombic'
loop_
_space_group_symop_operation_xyz
x,y,z
-x,-y,z
-x,y,z
x,-y,z
1/2+x,1/2+y,z
1/2-x,1/2-y,z
1/2-x,1/2+y,z
1/2+x,1/2-y,z
loop_
_atom_site_type_symbol
_atom_site_label
_atom_site_fract_x
_atom_site_fract_y
_atom_site_fract_z
Si Si1 0.683731 0.606538 0.262390
Si Si2 0.500000 0.891830 0.583981
Si Si3 0.687301 0.848397 0.069796
Si Si4 0.000000 0.390998 0.796236
Si Si5 0.824955 0.101246 0.889707
Si Si6 0.812456 0.891615 0.469035
O O1 0.500000 0.638596 0.243993
O O2 0.680727 0.500000 0.264892
O O3 0.790391 0.632379 0.176489
O O4 0.728607 0.635244 0.364562
O O5 0.500000 0.867863 0.689943
O O6 0.666120 0.861877 0.534145
O O7 0.500000 0.000000 0.579051
O O8 0.500000 0.861058 0.045910
O O9 0.750000 0.750000 0.054310
O O10 0.794190 0.902610 0.998291
O O11 0.164843 0.358370 0.844311
O O12 0.000000 0.500000 0.804334
O O13 0.000000 0.143759 0.871048
O O14 0.832947 0.000000 0.855783
O O15 0.000000 0.864391 0.489415
O O16 0.814176 0.000000 0.471421
#
# Coordination Sequence:
#
# PCOD9349298 Si02
#       6
#     8   4   8   4   8   8
#     4   9  18  33  52  76 108 143 178 214 257 314
#     4   9  16  26  45  73 107 135 170 218 256 304
#     4  12  24  36  52  76 108 138 181 221 264 319
#     4   9  18  32  49  77 107 137 177 218 264 312
#     4  10  20  36  56  77 107 143 177 217 266 317
#     4   8  15  27  44  70 105 141 172 206 254 306
#
# _framework density 21.985379999999999
#
# number of rings (size 3 to 8) (size 9 to 14) (size 15 to 20)
#    0.000    2.400    1.000    3.600    1.400    3.600 
#    0.000    4.000    0.000    0.000    0.000    1.400 
#    0.000    0.000    0.000    0.000    0.000    0.000 
#
# Total GULP energy -111612.229620 kJ/mol
# GULP energy per Si atom -5580.611481 kJ/mol
# Density = 2.193534 g / cm^3
# Si number density = 21.985380 Si / 1000 Ang^3
#
#
#
# Elastic Constant Matrix: (Units=GPa)
#
#
# Indices 1 2 3 4 5 6 
#
# 1 196.0312 9.7555 97.4451 0.0000 0.0000 0.0000
# 2 9.7555 29.6692 0.8331 0.0000 0.0000 0.0000
# 3 97.4451 0.8331 119.9161 0.0000 0.0000 0.0000
# 4 0.0000 0.0000 0.0000 -29.1196 0.0000 0.0000
# 5 0.0000 0.0000 0.0000 0.0000 -2.1464 0.0000
# 6 0.0000 0.0000 0.0000 0.0000 0.0000 11.6589
#
#
#
# Elastic Compliance Matrix: (Units=1/GPa)
#
#
# Indices 1 2 3 4 5 6 
#
# 1 0.008767 -0.002683 -0.007105 0.000000 0.000000 0.000000
# 2 -0.002683 0.034533 0.001940 0.000000 0.000000 0.000000
# 3 -0.007105 0.001940 0.014100 0.000000 0.000000 0.000000
# 4 0.000000 0.000000 0.000000 -0.034341 0.000000 0.000000
# 5 0.000000 0.000000 0.000000 0.000000 -0.465889 0.000000
# 6 0.000000 0.000000 0.000000 0.000000 0.000000 0.085771
#
#
# Mechanical properties :
#
#
# Convention : Reuss Voigt Hill
#
# Bulk Modulus (GPa) = 23.97904 62.40931 43.19417
# Shear Modulus (GPa) = -15.26890 11.91742 -1.67574
#
# Velocity S-wave (km/s) = -2.63820 2.33075 -0.87399
# Velocity P-wave (km/s) = 1.28466 5.97424 4.32099
#
# Compressibility (1/GPa) = 0.04170308
#
# Stress axis : x y z
#
# Youngs Moduli (GPa) = 114.06772 28.95799 70.92440
#
# Poissons Ratio (x) = 0.07770 0.50394
# Poissons Ratio (y) = 0.30605 -0.13762
# Poissons Ratio (z) = 0.81048 -0.05619
#
# Static dielectric constant tensor:
#      x y z
#    x 1.803000 0.000000 0.000000 
#    y 0.000000 1.811840 0.000000 
#    z 0.000000 0.000000 1.778500 
# 
# From -- ./inp_files/13817.got.cif
#   From: 2010.05.17/outbox.cif.g08.bks.cpg/sg35_7_cif.got.tgz:13817.got - 2010.06.03 17:29:28.
