data_PCOD9349324
_publ_section_title
;
Structure prediction by ZEFSAII (Michael W. Deem and Ramdas Pophale) SiO2 
 PCOD9349324
Probable space group: C M M 2
;
_chemical_formula_sum "Si O2"
_cell_formula_units_Z 64
_cell_length_a 15.905061
_cell_length_b 15.417880
_cell_length_c 12.156590
_cell_angle_alpha 90.000000
_cell_angle_beta 90.000000
_cell_angle_gamma 90.000000
_cell_volume 2981.067226
_symmetry_space_group_name_H-M "C M M 2"
_symmetry_group_IT_number 35
_symmetry_cell_setting 'orthorhombic'
loop_
_space_group_symop_operation_xyz
x,y,z
-x,-y,z
-x,y,z
x,-y,z
1/2+x,1/2+y,z
1/2-x,1/2-y,z
1/2-x,1/2+y,z
1/2+x,1/2-y,z
loop_
_atom_site_type_symbol
_atom_site_label
_atom_site_fract_x
_atom_site_fract_y
_atom_site_fract_z
Si Si1 0.194022 0.661754 0.275630
Si Si2 0.752919 0.353534 0.642123
Si Si3 0.092157 0.893919 0.031517
Si Si4 0.870577 0.903152 0.273759
Si Si5 0.255410 0.895438 0.897349
Si Si6 0.909583 0.150060 0.516860
Si Si7 0.097937 0.394720 0.062131
Si Si8 0.594567 0.146276 0.503154
O O1 0.250000 0.750000 0.281434
O O2 0.269843 0.593823 0.268253
O O3 0.135674 0.651382 0.169735
O O4 0.138412 0.646954 0.383699
O O5 0.750000 0.250000 0.619685
O O6 0.752657 0.366572 0.771826
O O7 0.669509 0.388366 0.581482
O O8 0.837006 0.391613 0.587177
O O9 0.099590 0.864282 0.158213
O O10 0.000000 0.869552 0.987625
O O11 0.095901 0.000000 0.034113
O O12 0.172651 0.863731 0.962925
O O13 0.896591 0.857473 0.385829
O O14 0.904410 0.000000 0.280917
O O15 0.252430 0.000000 0.898342
O O16 0.340294 0.870541 0.961731
O O17 0.913278 0.252839 0.537759
O O18 0.000000 0.111554 0.546926
O O19 0.103514 0.500000 0.077289
O O20 0.000000 0.373434 0.044501
O O21 0.500000 0.109714 0.501467
#
# Coordination Sequence:
#
# PCOD9349324 Si02
#       8
#     8   8   8   8   8   8   8   8
#     4  12  20  36  61  89 121 153 189 237 294 350
#     4  10  21  39  57  79 111 150 191 241 291 341
#     4   9  18  34  55  80 114 153 186 225 286 352
#     4  11  20  34  58  86 119 154 187 225 279 349
#     4  10  21  38  59  81 109 150 198 247 294 343
#     4  10  20  36  57  83 114 151 189 228 284 346
#     4  10  22  41  63  87 118 158 201 245 296 352
#     4  10  20  37  59  82 112 151 190 232 287 346
#
# _framework density 21.468820000000001
#
# number of rings (size 3 to 8) (size 9 to 14) (size 15 to 20)
#    0.000    1.750    3.750    1.500    0.000    2.750 
#    0.000    0.000    0.000    1.500    0.000    0.000 
#    0.000    0.000    0.000    0.000    0.000    0.000 
#
# Total GULP energy -178687.326736 kJ/mol
# GULP energy per Si atom -5583.978960 kJ/mol
# Density = 2.141996 g / cm^3
# Si number density = 21.468820 Si / 1000 Ang^3
#
#
#
# Elastic Constant Matrix: (Units=GPa)
#
#
# Indices 1 2 3 4 5 6 
#
# 1 248.8692 15.2446 104.8224 0.0000 0.0000 0.0000
# 2 15.2446 40.4259 -0.5295 0.0000 0.0000 0.0000
# 3 104.8224 -0.5295 146.1206 0.0000 0.0000 0.0000
# 4 0.0000 0.0000 0.0000 21.8123 0.0000 0.0000
# 5 0.0000 0.0000 0.0000 0.0000 -17.8385 0.0000
# 6 0.0000 0.0000 0.0000 0.0000 0.0000 -1.9695
#
#
#
# Elastic Compliance Matrix: (Units=1/GPa)
#
#
# Indices 1 2 3 4 5 6 
#
# 1 0.005965 -0.002306 -0.004288 0.000000 0.000000 0.000000
# 2 -0.002306 0.025629 0.001747 0.000000 0.000000 0.000000
# 3 -0.004288 0.001747 0.009926 0.000000 0.000000 0.000000
# 4 0.000000 0.000000 0.000000 0.045846 0.000000 0.000000
# 5 0.000000 0.000000 0.000000 0.000000 -0.056058 0.000000
# 6 0.000000 0.000000 0.000000 0.000000 0.000000 -0.507732
#
#
# Mechanical properties :
#
#
# Convention : Reuss Voigt Hill
#
# Bulk Modulus (GPa) = 31.41970 74.94342 53.18156
# Shear Modulus (GPa) = -10.96196 21.45940 5.24872
#
# Velocity S-wave (km/s) = -2.26210 3.16501 1.56528
# Velocity P-wave (km/s) = 2.80072 6.95271 5.30020
#
# Compressibility (1/GPa) = 0.03182717
#
# Stress axis : x y z
#
# Youngs Moduli (GPa) = 167.63375 39.01835 100.74670
#
# Poissons Ratio (x) = 0.08996 0.43198
# Poissons Ratio (y) = 0.38651 -0.17599
# Poissons Ratio (z) = 0.71877 -0.06816
#
# Static dielectric constant tensor:
#      x y z
#    x 1.811730 0.000000 0.000000 
#    y 0.000000 1.860100 0.000000 
#    z 0.000000 0.000000 1.726070 
# 
# From -- ./inp_files/13221.got.cif
#   From: 2010.05.17/outbox.cif.g08.bks.cpg/sg35_7_cif.got.tgz:13221.got - 2010.06.03 17:29:28.
