data_PCOD9349086
_publ_section_title
;
Structure prediction by ZEFSAII (Michael W. Deem and Ramdas Pophale) SiO2 
 PCOD9349086
Probable space group: C M M 2
;
_chemical_formula_sum "Si O2"
_cell_formula_units_Z 56
_cell_length_a 8.586166
_cell_length_b 22.407530
_cell_length_c 14.787177
_cell_angle_alpha 90.000000
_cell_angle_beta 90.000000
_cell_angle_gamma 90.000000
_cell_volume 2844.975551
_symmetry_space_group_name_H-M "C M M 2"
_symmetry_group_IT_number 35
_symmetry_cell_setting 'orthorhombic'
loop_
_space_group_symop_operation_xyz
x,y,z
-x,-y,z
-x,y,z
x,-y,z
1/2+x,1/2+y,z
1/2-x,1/2-y,z
1/2-x,1/2+y,z
1/2+x,1/2-y,z
loop_
_atom_site_type_symbol
_atom_site_label
_atom_site_fract_x
_atom_site_fract_y
_atom_site_fract_z
Si Si1 0.313774 0.116098 0.363810
Si Si2 0.310836 0.000000 0.476456
Si Si3 0.313342 0.000000 0.685960
Si Si4 0.686581 0.185805 0.875506
Si Si5 0.685129 0.568604 0.184596
Si Si6 0.186319 0.125695 0.705472
Si Si7 0.187260 0.567678 0.983708
Si Si8 0.313910 0.686336 0.522928
O O1 0.500000 0.115369 0.357705
O O2 0.243949 0.111137 0.264133
O O3 0.257891 0.169852 0.426373
O O4 0.260261 0.058011 0.421070
O O5 0.500000 0.000000 0.478253
O O6 0.259807 0.000000 0.580607
O O7 0.250317 0.060419 0.729364
O O8 0.500000 0.000000 0.689665
O O9 0.500000 0.187480 0.879425
O O10 0.750000 0.250000 0.907513
O O11 0.742689 0.173744 0.773441
O O12 0.742377 0.126240 0.929206
O O13 0.500000 0.574034 0.173374
O O14 0.720639 0.500000 0.212728
O O15 0.766592 0.577255 0.088261
O O16 0.233054 0.140560 0.602301
O O17 0.000000 0.126880 0.711337
O O18 0.243362 0.500000 0.958385
O O19 0.000000 0.566340 0.975061
O O20 0.500000 0.686561 0.516759
O O21 0.250000 0.750000 0.551935
#
# Coordination Sequence:
#
# PCOD9349086 Si02
#       8
#     8   4   4   8   8   8   8   8
#     4  11  20  35  58  85 117 155 197 240 289 348
#     4   9  18  31  53  84 113 150 191 231 282 338
#     4  11  21  37  59  88 123 160 203 247 302 362
#     4  11  24  42  66  92 121 160 205 254 310 372
#     4  10  20  34  56  89 123 154 190 240 302 360
#     4  11  24  40  60  89 123 159 201 250 304 361
#     4   9  20  40  64  90 119 155 201 251 308 371
#     4  11  24  40  57  80 114 157 204 251 297 351
#
# _framework density 19.683826
#
# number of rings (size 3 to 8) (size 9 to 14) (size 15 to 20)
#    0.000    1.571    2.143    2.786    1.000    4.571 
#    0.000    0.714    0.000    1.714    0.000    0.000 
#    0.000    0.000    0.000    0.000    0.000    0.000 
#
# Total GULP energy -156377.749436 kJ/mol
# GULP energy per Si atom -5584.919623 kJ/mol
# Density = 1.963902 g / cm^3
# Si number density = 19.683826 Si / 1000 Ang^3
#
#
#
# Elastic Constant Matrix: (Units=GPa)
#
#
# Indices 1 2 3 4 5 6 
#
# 1 25.4530 22.6568 9.7003 0.0000 0.0000 0.0000
# 2 22.6568 119.5657 38.7885 0.0000 0.0000 0.0000
# 3 9.7003 38.7885 74.9096 0.0000 0.0000 0.0000
# 4 0.0000 0.0000 0.0000 29.8649 0.0000 0.0000
# 5 0.0000 0.0000 0.0000 0.0000 22.8880 0.0000
# 6 0.0000 0.0000 0.0000 0.0000 0.0000 30.0035
#
#
#
# Elastic Compliance Matrix: (Units=1/GPa)
#
#
# Indices 1 2 3 4 5 6 
#
# 1 0.047458 -0.008412 -0.001790 0.000000 0.000000 0.000000
# 2 -0.008412 0.011543 -0.004888 0.000000 0.000000 0.000000
# 3 -0.001790 -0.004888 0.016112 0.000000 0.000000 0.000000
# 4 0.000000 0.000000 0.000000 0.033484 0.000000 0.000000
# 5 0.000000 0.000000 0.000000 0.000000 0.043691 0.000000
# 6 0.000000 0.000000 0.000000 0.000000 0.000000 0.033329
#
#
# Mechanical properties :
#
#
# Convention : Reuss Voigt Hill
#
# Bulk Modulus (GPa) = 22.25479 40.24663 31.25071
# Shear Modulus (GPa) = 21.66601 26.47013 24.06807
#
# Velocity S-wave (km/s) = 3.32128 3.67108 3.50055
# Velocity P-wave (km/s) = 5.10280 6.20162 5.67885
#
# Compressibility (1/GPa) = 0.04493415
#
# Stress axis : x y z
#
# Youngs Moduli (GPa) = 21.07108 86.62970 62.06508
#
# Poissons Ratio (x) = 0.72877 0.11107
# Poissons Ratio (y) = 0.17726 0.30337
# Poissons Ratio (z) = 0.03771 0.42343
#
# Static dielectric constant tensor:
#      x y z
#    x 1.654830 0.000000 0.000000 
#    y 0.000000 1.716820 0.000000 
#    z 0.000000 0.000000 1.675210 
# 
# From -- ./inp_files/15784.got.cif
#   From: 2010.05.17/outbox.cif.g08.bks.cpg/sg35_8_cif.got.tgz:15784.got - 2010.06.03 17:29:28.
