data_PCOD9349965
_publ_section_title
;
Structure prediction by ZEFSAII (Michael W. Deem and Ramdas Pophale) SiO2 
 PCOD9349965
Probable space group: C M M 2
;
_chemical_formula_sum "Si O2"
_cell_formula_units_Z 40
_cell_length_a 18.111097
_cell_length_b 18.221043
_cell_length_c 5.222450
_cell_angle_alpha 90.000000
_cell_angle_beta 90.000000
_cell_angle_gamma 90.000000
_cell_volume 1723.424571
_symmetry_space_group_name_H-M "C M M 2"
_symmetry_group_IT_number 35
_symmetry_cell_setting 'orthorhombic'
loop_
_space_group_symop_operation_xyz
x,y,z
-x,-y,z
-x,y,z
x,-y,z
1/2+x,1/2+y,z
1/2-x,1/2-y,z
1/2-x,1/2+y,z
1/2+x,1/2-y,z
loop_
_atom_site_type_symbol
_atom_site_label
_atom_site_fract_x
_atom_site_fract_y
_atom_site_fract_z
Si Si1 0.171816 0.285554 0.759460
Si Si2 0.085363 0.292885 0.252559
Si Si3 0.916331 0.910717 0.885455
Si Si4 0.179727 0.586734 0.100064
Si Si5 0.172932 0.911560 0.392111
O O1 0.250000 0.250000 0.712709
O O2 0.117427 0.273338 0.526178
O O3 0.133487 0.258946 0.022491
O O4 0.184903 0.371783 0.828118
O O5 0.105050 0.379624 0.217703
O O6 0.000000 0.277565 0.225400
O O7 0.859324 0.886200 0.664322
O O8 0.000000 0.883871 0.844357
O O9 0.918573 0.000000 0.864598
O O10 0.887183 0.896327 0.170853
O O11 0.181614 0.500000 0.075641
O O12 0.248631 0.613682 0.275216
O O13 0.180632 0.000000 0.411556
#
# Coordination Sequence:
#
# PCOD9349965 Si02
#       5
#     8   8   8   8   8
#     4  10  22  41  68  94 129 178 227 273 326 396
#     4  10  22  40  66  99 133 168 216 276 336 402
#     4   9  16  26  42  65  96 139 191 245 297 348
#     4   9  22  38  62  95 134 174 218 270 335 406
#     4   9  17  28  46  71 103 146 192 240 299 373
#
# _framework density 23.209603000000001
#
# number of rings (size 3 to 8) (size 9 to 14) (size 15 to 20)
#    1.200    1.400    0.000    1.800    2.800    3.600 
#    0.000    0.000    0.000    7.200    0.000    0.000 
#    0.000    0.000    0.000    0.000    0.000    0.000 
#
# Total GULP energy -111783.720820 kJ/mol
# GULP energy per Si atom -5589.186041 kJ/mol
# Density = 2.315678 g / cm^3
# Si number density = 23.209603 Si / 1000 Ang^3
#
#
#
# Elastic Constant Matrix: (Units=GPa)
#
#
# Indices 1 2 3 4 5 6 
#
# 1 94.3705 7.0341 8.2397 0.0000 0.0000 0.0000
# 2 7.0341 84.5128 -2.8830 0.0000 0.0000 0.0000
# 3 8.2397 -2.8830 117.3282 0.0000 0.0000 0.0000
# 4 0.0000 0.0000 0.0000 5.4924 0.0000 0.0000
# 5 0.0000 0.0000 0.0000 0.0000 -5.8450 0.0000
# 6 0.0000 0.0000 0.0000 0.0000 0.0000 20.1942
#
#
#
# Elastic Compliance Matrix: (Units=1/GPa)
#
#
# Indices 1 2 3 4 5 6 
#
# 1 0.010733 -0.000920 -0.000776 0.000000 0.000000 0.000000
# 2 -0.000920 0.011921 0.000358 0.000000 0.000000 0.000000
# 3 -0.000776 0.000358 0.008586 0.000000 0.000000 0.000000
# 4 0.000000 0.000000 0.000000 0.182070 0.000000 0.000000
# 5 0.000000 0.000000 0.000000 0.000000 -0.171088 0.000000
# 6 0.000000 0.000000 0.000000 0.000000 0.000000 0.049519
#
#
# Mechanical properties :
#
#
# Convention : Reuss Voigt Hill
#
# Bulk Modulus (GPa) = 35.00992 35.66590 35.33791
# Shear Modulus (GPa) = 48.10445 22.88970 35.49707
#
# Velocity S-wave (km/s) = 4.55753 3.14382 3.91501
# Velocity P-wave (km/s) = 6.54307 5.34587 5.97453
#
# Compressibility (1/GPa) = 0.02856333
#
# Stress axis : x y z
#
# Youngs Moduli (GPa) = 93.17165 83.88361 116.46313
#
# Poissons Ratio (x) = 0.07716 0.09042
# Poissons Ratio (y) = 0.08570 -0.04164
# Poissons Ratio (z) = 0.07233 -0.02999
#
# Static dielectric constant tensor:
#      x y z
#    x 1.825340 0.000000 0.000000 
#    y 0.000000 1.957260 0.000000 
#    z 0.000000 0.000000 1.853490 
# 
# From -- ./inp_files/2349.got.cif
#   From: 2010.05.17/outbox.cif.g08.bks.cpg/sg35_2_cif.got.tgz:2349.got - 2010.06.03 17:29:28.
