data_PCOD9349616
_publ_section_title
;
Structure prediction by ZEFSAII (Michael W. Deem and Ramdas Pophale) SiO2 
 PCOD9349616
Probable space group: C M M 2
;
_chemical_formula_sum "Si O2"
_cell_formula_units_Z 58
_cell_length_a 30.823529
_cell_length_b 7.920239
_cell_length_c 12.931990
_cell_angle_alpha 90.000000
_cell_angle_beta 90.000000
_cell_angle_gamma 90.000000
_cell_volume 3157.083053
_symmetry_space_group_name_H-M "C M M 2"
_symmetry_group_IT_number 35
_symmetry_cell_setting 'orthorhombic'
loop_
_space_group_symop_operation_xyz
x,y,z
-x,-y,z
-x,y,z
x,-y,z
1/2+x,1/2+y,z
1/2-x,1/2-y,z
1/2-x,1/2+y,z
1/2+x,1/2-y,z
loop_
_atom_site_type_symbol
_atom_site_label
_atom_site_fract_x
_atom_site_fract_y
_atom_site_fract_z
Si Si1 0.000000 0.500000 0.399410
Si Si2 0.048054 0.798297 0.708563
Si Si3 0.153648 0.303667 0.393386
Si Si4 0.799664 0.703600 0.190760
Si Si5 0.938401 0.804196 0.464102
Si Si6 0.703132 0.305135 0.584298
Si Si7 0.799779 0.703594 0.957979
Si Si8 0.142135 0.300013 0.768747
O O1 0.962919 0.653060 0.405576
O O2 0.053820 0.766622 0.585858
O O3 0.090663 0.730435 0.765222
O O4 0.000000 0.733765 0.738981
O O5 0.048048 0.000000 0.722017
O O6 0.142099 0.500000 0.380851
O O7 0.170226 0.235035 0.283711
O O8 0.112149 0.208308 0.437486
O O9 0.190901 0.292328 0.480058
O O10 0.802695 0.500000 0.189890
O O11 0.750000 0.750000 0.212897
O O12 0.809536 0.765474 0.074481
O O13 0.951960 0.000000 0.445738
O O14 0.705203 0.500000 0.556938
O O15 0.750000 0.250000 0.626204
O O16 0.665951 0.278280 0.669548
O O17 0.802103 0.500000 0.960237
O O18 0.750000 0.750000 0.932688
O O19 0.833476 0.763968 0.871501
O O20 0.149509 0.500000 0.761432
#
# Coordination Sequence:
#
# PCOD9349616 Si02
#       8
#     2   8   8   8   8   8   8   8
#     4  12  22  36  60  82 112 154 198 232 296 338
#     4  10  21  36  53  77 108 144 183 230 283 331
#     4  11  21  35  54  81 112 149 189 229 285 344
#     4   9  19  35  56  79 109 143 187 235 279 330
#     4  11  22  36  55  83 116 150 190 239 284 344
#     4  12  24  36  50  73 111 152 185 225 276 338
#     4   9  19  36  55  80 108 142 184 233 279 330
#     4  11  22  34  54  80 110 142 184 228 278 339
#
# _framework density 18.371388
#
# number of rings (size 3 to 8) (size 9 to 14) (size 15 to 20)
#    0.000    1.517    2.759    3.103    0.966    4.690 
#    0.000    0.000    0.000    0.000    1.793    0.000 
#    0.000    0.000    0.000    0.000    0.000    0.000 
#
# Total GULP energy -161591.012320 kJ/mol
# GULP energy per Si atom -5572.103873 kJ/mol
# Density = 1.832957 g / cm^3
# Si number density = 18.371388 Si / 1000 Ang^3
#
#
#
# Elastic Constant Matrix: (Units=GPa)
#
#
# Indices 1 2 3 4 5 6 
#
# 1 119.6386 11.3297 53.2286 0.0000 0.0000 0.0000
# 2 11.3297 55.0136 8.0028 0.0000 0.0000 0.0000
# 3 53.2286 8.0028 82.3791 0.0000 0.0000 0.0000
# 4 0.0000 0.0000 0.0000 -22.2165 0.0000 0.0000
# 5 0.0000 0.0000 0.0000 0.0000 28.6723 0.0000
# 6 0.0000 0.0000 0.0000 0.0000 0.0000 30.0041
#
#
#
# Elastic Compliance Matrix: (Units=1/GPa)
#
#
# Indices 1 2 3 4 5 6 
#
# 1 0.011828 -0.001343 -0.007512 0.000000 0.000000 0.000000
# 2 -0.001343 0.018590 -0.000938 0.000000 0.000000 0.000000
# 3 -0.007512 -0.000938 0.017084 0.000000 0.000000 0.000000
# 4 0.000000 0.000000 0.000000 -0.045011 0.000000 0.000000
# 5 0.000000 0.000000 0.000000 0.000000 0.034877 0.000000
# 6 0.000000 0.000000 0.000000 0.000000 0.000000 0.033329
#
#
# Mechanical properties :
#
#
# Convention : Reuss Voigt Hill
#
# Bulk Modulus (GPa) = 35.82210 44.68371 40.25291
# Shear Modulus (GPa) = 50.20674 19.58998 34.89836
#
# Velocity S-wave (km/s) = 5.23336 3.26901 4.36317
# Velocity P-wave (km/s) = 7.48723 6.21481 6.88050
#
# Compressibility (1/GPa) = 0.02791573
#
# Stress axis : x y z
#
# Youngs Moduli (GPa) = 84.54594 53.79121 58.53437
#
# Poissons Ratio (x) = 0.07225 0.43971
# Poissons Ratio (y) = 0.11355 0.05491
# Poissons Ratio (z) = 0.63511 0.05046
#
# Static dielectric constant tensor:
#      x y z
#    x 1.635780 0.000000 0.000000 
#    y 0.000000 1.656890 0.000000 
#    z 0.000000 0.000000 1.632580 
# 
# From -- ./inp_files/14471.got.cif
#   From: 2010.05.17/outbox.cif.g08.bks.cpg/sg35_8_cif.got.tgz:14471.got - 2010.06.03 17:29:28.
