data_PCOD9349183
_publ_section_title
;
Structure prediction by ZEFSAII (Michael W. Deem and Ramdas Pophale) SiO2 
 PCOD9349183
Probable space group: C M M 2
;
_chemical_formula_sum "Si O2"
_cell_formula_units_Z 56
_cell_length_a 19.747988
_cell_length_b 8.681378
_cell_length_c 18.216298
_cell_angle_alpha 90.000000
_cell_angle_beta 90.000000
_cell_angle_gamma 90.000000
_cell_volume 3122.997549
_symmetry_space_group_name_H-M "C M M 2"
_symmetry_group_IT_number 35
_symmetry_cell_setting 'orthorhombic'
loop_
_space_group_symop_operation_xyz
x,y,z
-x,-y,z
-x,y,z
x,-y,z
1/2+x,1/2+y,z
1/2-x,1/2-y,z
1/2-x,1/2+y,z
1/2+x,1/2-y,z
loop_
_atom_site_type_symbol
_atom_site_label
_atom_site_fract_x
_atom_site_fract_y
_atom_site_fract_z
Si Si1 0.078468 0.185449 0.986010
Si Si2 0.175096 0.684168 0.280043
Si Si3 0.578835 0.686590 0.405629
Si Si4 0.175914 0.814522 0.537497
Si Si5 0.921104 0.684067 0.829395
Si Si6 0.324233 0.685552 0.119319
Si Si7 0.824186 0.184608 0.705687
O O1 0.102308 0.256720 0.909153
O O2 0.000000 0.230907 0.997047
O O3 0.080923 0.000000 0.979581
O O4 0.123638 0.229799 0.055517
O O5 0.178531 0.500000 0.279631
O O6 0.250000 0.750000 0.298241
O O7 0.120338 0.743128 0.338099
O O8 0.157661 0.745921 0.198782
O O9 0.500000 0.732096 0.406434
O O10 0.581412 0.500000 0.400504
O O11 0.618748 0.732819 0.479675
O O12 0.250000 0.750000 0.517616
O O13 0.160354 0.767653 0.621431
O O14 0.180049 0.000000 0.536095
O O15 0.917068 0.500000 0.827570
O O16 0.877587 0.753397 0.763846
O O17 0.000000 0.730250 0.821934
O O18 0.321854 0.500000 0.124865
O O19 0.250000 0.750000 0.101041
O O20 0.750000 0.250000 0.723265
O O21 0.822595 0.000000 0.708319
#
# Coordination Sequence:
#
# PCOD9349183 Si02
#       7
#     8   8   8   8   8   8   8
#     4   9  19  36  56  77 103 139 181 220 262 315
#     4  11  22  37  57  80 108 142 181 221 265 318
#     4  10  21  37  56  80 111 143 177 219 266 316
#     4   9  19  35  56  80 105 139 179 219 266 318
#     4  10  21  36  54  78 109 144 181 221 267 318
#     4  10  20  35  56  81 107 137 175 219 267 316
#     4  10  20  35  56  81 109 140 178 223 268 317
#
# _framework density 17.931491000000001
#
# number of rings (size 3 to 8) (size 9 to 14) (size 15 to 20)
#    0.000    2.143    0.000    3.857    0.000    6.286 
#    0.000    4.286    0.000    0.000    0.000    0.000 
#    0.000    0.000    0.000    0.000    0.000    0.000 
#
# Total GULP energy -156332.363923 kJ/mol
# GULP energy per Si atom -5583.298712 kJ/mol
# Density = 1.789068 g / cm^3
# Si number density = 17.931491 Si / 1000 Ang^3
#
#
#
# Elastic Constant Matrix: (Units=GPa)
#
#
# Indices 1 2 3 4 5 6 
#
# 1 131.8413 46.0918 123.7557 0.0000 0.0000 0.0000
# 2 46.0918 46.9376 49.4270 0.0000 0.0000 0.0000
# 3 123.7557 49.4270 152.0671 0.0000 0.0000 0.0000
# 4 0.0000 0.0000 0.0000 21.2631 0.0000 0.0000
# 5 0.0000 0.0000 0.0000 0.0000 81.1223 0.0000
# 6 0.0000 0.0000 0.0000 0.0000 0.0000 28.2641
#
#
#
# Elastic Compliance Matrix: (Units=1/GPa)
#
#
# Indices 1 2 3 4 5 6 
#
# 1 0.033321 -0.006332 -0.025059 0.000000 0.000000 0.000000
# 2 -0.006332 0.033595 -0.005766 0.000000 0.000000 0.000000
# 3 -0.025059 -0.005766 0.028844 0.000000 0.000000 0.000000
# 4 0.000000 0.000000 0.000000 0.047030 0.000000 0.000000
# 5 0.000000 0.000000 0.000000 0.000000 0.012327 0.000000
# 6 0.000000 0.000000 0.000000 0.000000 0.000000 0.035381
#
#
# Mechanical properties :
#
#
# Convention : Reuss Voigt Hill
#
# Bulk Modulus (GPa) = 46.63148 85.48833 66.05990
# Shear Modulus (GPa) = 18.38497 33.56800 25.97648
#
# Velocity S-wave (km/s) = 3.20549 4.33137 3.81024
# Velocity P-wave (km/s) = 6.30571 8.53187 7.50183
#
# Compressibility (1/GPa) = 0.02144474
#
# Stress axis : x y z
#
# Youngs Moduli (GPa) = 30.01102 29.76625 34.66923
#
# Poissons Ratio (x) = 0.18849 0.86878
# Poissons Ratio (y) = 0.19004 0.19991
# Poissons Ratio (z) = 0.75205 0.17163
#
# Static dielectric constant tensor:
#      x y z
#    x 1.587340 0.000000 0.000000 
#    y 0.000000 1.604770 0.000000 
#    z 0.000000 0.000000 1.601510 
# 
# From -- ./inp_files/15627.got.cif
#   From: 2010.05.17/outbox.cif.g08.bks.cpg/sg35_8_cif.got.tgz:15627.got - 2010.06.03 17:29:28.
