data_PCOD9349422
_publ_section_title
;
Structure prediction by ZEFSAII (Michael W. Deem and Ramdas Pophale) SiO2 
 PCOD9349422
Probable space group: C M M 2
;
_chemical_formula_sum "Si O2"
_cell_formula_units_Z 48
_cell_length_a 8.669185
_cell_length_b 15.347049
_cell_length_c 19.595327
_cell_angle_alpha 90.000000
_cell_angle_beta 90.000000
_cell_angle_gamma 90.000000
_cell_volume 2607.087851
_symmetry_space_group_name_H-M "C M M 2"
_symmetry_group_IT_number 35
_symmetry_cell_setting 'orthorhombic'
loop_
_space_group_symop_operation_xyz
x,y,z
-x,-y,z
-x,y,z
x,-y,z
1/2+x,1/2+y,z
1/2-x,1/2-y,z
1/2-x,1/2+y,z
1/2+x,1/2-y,z
loop_
_atom_site_type_symbol
_atom_site_label
_atom_site_fract_x
_atom_site_fract_y
_atom_site_fract_z
Si Si1 0.183404 0.342062 0.595990
Si Si2 0.314517 0.000000 0.979508
Si Si3 0.188702 0.500000 0.501435
Si Si4 0.319145 0.604412 0.739860
Si Si5 0.686686 0.849099 0.240746
Si Si6 0.187659 0.500000 0.345124
Si Si7 0.187386 0.500000 0.136768
Si Si8 0.314505 0.342562 0.890984
O O1 0.250000 0.250000 0.575013
O O2 0.239760 0.416730 0.544876
O O3 0.232414 0.361852 0.673547
O O4 0.000000 0.340319 0.593305
O O5 0.251045 0.916917 0.939343
O O6 0.500000 0.000000 0.977844
O O7 0.263462 0.000000 0.058374
O O8 0.240289 0.500000 0.423241
O O9 0.000000 0.500000 0.500612
O O10 0.500000 0.626827 0.732259
O O11 0.305946 0.500000 0.742666
O O12 0.264048 0.640810 0.812452
O O13 0.500000 0.842960 0.240578
O O14 0.750000 0.750000 0.240803
O O15 0.732892 0.911563 0.304749
O O16 0.733923 0.911511 0.176846
O O17 0.000000 0.500000 0.344266
O O18 0.000000 0.500000 0.138704
O O19 0.500000 0.345062 0.891960
O O20 0.250000 0.250000 0.913238
#
# Coordination Sequence:
#
# PCOD9349422 Si02
#       8
#     8   4   4   8   8   4   4   8
#     4  11  22  36  54  79 107 141 183 227 272 325
#     4  11  22  38  59  82 112 149 184 226 276 331
#     4   9  19  35  53  76 108 143 182 218 262 325
#     4  10  20  37  59  80 105 138 179 231 279 322
#     4   9  17  33  58  83 108 140 178 218 260 311
#     4   8  16  33  55  77 107 147 178 211 262 319
#     4   8  18  36  55  79 111 145 180 213 260 323
#     4  11  23  40  58  82 111 144 186 232 280 332
#
# _framework density 18.411346999999999
#
# number of rings (size 3 to 8) (size 9 to 14) (size 15 to 20)
#    0.000    2.167    1.667    2.750    0.000    4.000 
#    0.000    5.000    0.000    3.000    0.000    0.000 
#    0.000    0.000    0.000    0.000    0.000    0.000 
#
# Total GULP energy -133917.830943 kJ/mol
# GULP energy per Si atom -5579.909623 kJ/mol
# Density = 1.836944 g / cm^3
# Si number density = 18.411347 Si / 1000 Ang^3
#
#
#
# Elastic Constant Matrix: (Units=GPa)
#
#
# Indices 1 2 3 4 5 6 
#
# 1 29.3804 39.7888 33.1816 0.0000 0.0000 0.0000
# 2 39.7888 191.5011 109.6434 0.0000 0.0000 0.0000
# 3 33.1816 109.6434 170.5808 0.0000 0.0000 0.0000
# 4 0.0000 0.0000 0.0000 -233.8770 0.0000 0.0000
# 5 0.0000 0.0000 0.0000 0.0000 0.5594 0.0000
# 6 0.0000 0.0000 0.0000 0.0000 0.0000 31.6896
#
#
#
# Elastic Compliance Matrix: (Units=1/GPa)
#
#
# Indices 1 2 3 4 5 6 
#
# 1 0.049727 -0.007585 -0.004797 0.000000 0.000000 0.000000
# 2 -0.007585 0.009420 -0.004579 0.000000 0.000000 0.000000
# 3 -0.004797 -0.004579 0.009739 0.000000 0.000000 0.000000
# 4 0.000000 0.000000 0.000000 -0.004276 0.000000 0.000000
# 5 0.000000 0.000000 0.000000 0.000000 1.787485 0.000000
# 6 0.000000 0.000000 0.000000 0.000000 0.000000 0.031556
#
#
# Mechanical properties :
#
#
# Convention : Reuss Voigt Hill
#
# Bulk Modulus (GPa) = 28.60274 84.07666 56.33970
# Shear Modulus (GPa) = 2.59171 -26.40235 -11.90532
#
# Velocity S-wave (km/s) = 1.18774 -3.79096 -2.54565
# Velocity P-wave (km/s) = 4.17733 5.15781 4.69324
#
# Compressibility (1/GPa) = 0.03496168
#
# Stress axis : x y z
#
# Youngs Moduli (GPa) = 20.10998 106.16075 102.68128
#
# Poissons Ratio (x) = 0.80524 0.49261
# Poissons Ratio (y) = 0.15254 0.47020
# Poissons Ratio (z) = 0.09648 0.48613
#
# Static dielectric constant tensor:
#      x y z
#    x 1.629250 0.000000 0.000000 
#    y 0.000000 1.618330 0.000000 
#    z 0.000000 0.000000 1.631050 
# 
# From -- ./inp_files/17951.got.cif
#   From: 2010.05.17/outbox.cif.g08.bks.cpg/sg35_9_cif.got.tgz:17951.got - 2010.06.03 17:29:28.
