data_PCOD9349516
_publ_section_title
;
Structure prediction by ZEFSAII (Michael W. Deem and Ramdas Pophale) SiO2 
 PCOD9349516
Probable space group: C M M 2
;
_chemical_formula_sum "Si O2"
_cell_formula_units_Z 48
_cell_length_a 13.968130
_cell_length_b 10.054125
_cell_length_c 15.725570
_cell_angle_alpha 90.000000
_cell_angle_beta 90.000000
_cell_angle_gamma 90.000000
_cell_volume 2208.456985
_symmetry_space_group_name_H-M "C M M 2"
_symmetry_group_IT_number 35
_symmetry_cell_setting 'orthorhombic'
loop_
_space_group_symop_operation_xyz
x,y,z
-x,-y,z
-x,y,z
x,-y,z
1/2+x,1/2+y,z
1/2-x,1/2-y,z
1/2-x,1/2+y,z
1/2+x,1/2-y,z
loop_
_atom_site_type_symbol
_atom_site_label
_atom_site_fract_x
_atom_site_fract_y
_atom_site_fract_z
Si Si1 0.884297 0.500000 0.860111
Si Si2 0.383719 0.151572 0.267667
Si Si3 0.616077 0.279475 0.932672
Si Si4 0.113437 0.000000 0.795347
Si Si5 0.885747 0.151791 0.421029
Si Si6 0.383062 0.647703 0.121676
Si Si7 0.783520 0.500000 0.678264
Si Si8 0.750000 0.750000 0.567791
O O1 0.853306 0.368859 0.910437
O O2 0.844620 0.500000 0.764624
O O3 0.000000 0.500000 0.856277
O O4 0.500000 0.145622 0.266138
O O5 0.359122 0.240722 0.349291
O O6 0.354789 0.233276 0.183939
O O7 0.348672 0.000000 0.271457
O O8 0.500000 0.281257 0.936858
O O9 0.639735 0.374302 0.853947
O O10 0.648422 0.328905 0.024696
O O11 0.173634 0.000000 0.710151
O O12 0.000000 0.000000 0.780338
O O13 0.828346 0.183560 0.506308
O O14 0.000000 0.162033 0.434788
O O15 0.865912 0.000000 0.393101
O O16 0.500000 0.647070 0.121879
O O17 0.353057 0.500000 0.150266
O O18 0.796983 0.633920 0.624439
#
# Coordination Sequence:
#
# PCOD9349516 Si02
#       8
#     4   8   8   4   8   8   4   4
#     4  10  22  38  56  83 121 161 199 248 310 364
#     4   9  18  30  53  91 127 160 200 249 300 353
#     4   9  17  31  54  84 119 162 205 244 293 353
#     4  10  20  38  62  87 117 157 205 248 296 368
#     4  10  22  43  67  91 125 167 206 248 309 380
#     4   9  15  26  48  83 123 159 203 248 287 349
#     4  12  26  42  64  90 120 154 200 258 326 376
#     4  12  26  44  66  96 120 154 206 262 318 384
#
# _framework density 21.734632999999999
#
# number of rings (size 3 to 8) (size 9 to 14) (size 15 to 20)
#    0.000    2.167    1.667    1.500    2.333    3.333 
#    0.000    0.000    0.000    2.000    0.000    0.000 
#    0.000    0.000    0.000    0.000    0.000    0.000 
#
# Total GULP energy -134237.419146 kJ/mol
# GULP energy per Si atom -5593.225798 kJ/mol
# Density = 2.168516 g / cm^3
# Si number density = 21.734633 Si / 1000 Ang^3
#
#
#
# Elastic Constant Matrix: (Units=GPa)
#
#
# Indices 1 2 3 4 5 6 
#
# 1 80.7366 8.2654 4.8433 0.0000 0.0000 0.0000
# 2 8.2654 191.9370 54.6649 0.0000 0.0000 0.0000
# 3 4.8433 54.6649 94.9071 0.0000 0.0000 0.0000
# 4 0.0000 0.0000 0.0000 37.4941 0.0000 0.0000
# 5 0.0000 0.0000 0.0000 0.0000 -0.0421 0.0000
# 6 0.0000 0.0000 0.0000 0.0000 0.0000 4.9954
#
#
#
# Elastic Compliance Matrix: (Units=1/GPa)
#
#
# Indices 1 2 3 4 5 6 
#
# 1 0.012453 -0.000425 -0.000391 0.000000 0.000000 0.000000
# 2 -0.000425 0.006247 -0.003576 0.000000 0.000000 0.000000
# 3 -0.000391 -0.003576 0.012617 0.000000 0.000000 0.000000
# 4 0.000000 0.000000 0.000000 0.026671 0.000000 0.000000
# 5 0.000000 0.000000 0.000000 0.000000-23.739391 0.000000
# 6 0.000000 0.000000 0.000000 0.000000 0.000000 0.200184
#
#
# Mechanical properties :
#
#
# Convention : Reuss Voigt Hill
#
# Bulk Modulus (GPa) = 44.38117 55.90311 50.14214
# Shear Modulus (GPa) = -0.21308 28.47661 14.13176
#
# Velocity S-wave (km/s) = -0.31345 3.62359 2.55266
# Velocity P-wave (km/s) = 4.50920 6.57904 5.63989
#
# Compressibility (1/GPa) = 0.02253208
#
# Stress axis : x y z
#
# Youngs Moduli (GPa) = 80.30257 160.07838 79.26106
#
# Poissons Ratio (x) = 0.06803 0.03097
# Poissons Ratio (y) = 0.03413 0.28347
# Poissons Ratio (z) = 0.03138 0.57251
#
# Static dielectric constant tensor:
#      x y z
#    x 1.822850 0.000000 0.000000 
#    y 0.000000 1.837170 0.000000 
#    z 0.000000 0.000000 1.727880 
# 
# From -- ./inp_files/15330.got.cif
#   From: 2010.05.17/outbox.cif.g08.bks.cpg/sg35_8_cif.got.tgz:15330.got - 2010.06.03 17:29:28.
