data_PCOD9349403
_publ_section_title
;
Structure prediction by ZEFSAII (Michael W. Deem and Ramdas Pophale) SiO2 
 PCOD9349403
Probable space group: C M M 2
;
_chemical_formula_sum "Si O2"
_cell_formula_units_Z 56
_cell_length_a 14.459292
_cell_length_b 32.190332
_cell_length_c 5.143529
_cell_angle_alpha 90.000000
_cell_angle_beta 90.000000
_cell_angle_gamma 90.000000
_cell_volume 2394.052538
_symmetry_space_group_name_H-M "C M M 2"
_symmetry_group_IT_number 35
_symmetry_cell_setting 'orthorhombic'
loop_
_space_group_symop_operation_xyz
x,y,z
-x,-y,z
-x,y,z
x,-y,z
1/2+x,1/2+y,z
1/2-x,1/2-y,z
1/2-x,1/2+y,z
1/2+x,1/2-y,z
loop_
_atom_site_type_symbol
_atom_site_label
_atom_site_fract_x
_atom_site_fract_y
_atom_site_fract_z
Si Si1 0.392345 0.451138 0.482220
Si Si2 0.706615 0.423664 0.987592
Si Si3 0.389230 0.797800 0.199986
Si Si4 0.398333 0.120194 0.421275
Si Si5 0.218848 0.174034 0.907595
Si Si6 0.390640 0.294921 0.404946
Si Si7 0.103362 0.566849 0.905109
O O1 0.500000 0.442134 0.443908
O O2 0.376825 0.500000 0.431702
O O3 0.363809 0.440905 0.775559
O O4 0.333694 0.424988 0.276116
O O5 0.728938 0.376009 0.906755
O O6 0.798953 0.452229 0.984229
O O7 0.500000 0.803594 0.135811
O O8 0.354024 0.835242 0.387112
O O9 0.380907 0.754080 0.341825
O O10 0.317469 0.803262 0.962824
O O11 0.500000 0.130532 0.525552
O O12 0.371586 0.084749 0.620964
O O13 0.404247 0.101358 0.133064
O O14 0.165932 0.191130 0.656733
O O15 0.152530 0.183482 0.152560
O O16 0.500000 0.303960 0.436089
O O17 0.000000 0.547668 0.893208
#
# Coordination Sequence:
#
# PCOD9349403 Si02
#       7
#     8   8   8   8   8   8   8
#     4  11  26  49  75 104 135 173 224 277 333 405
#     4  12  24  41  74 105 136 175 217 280 348 405
#     4  10  23  44  68  94 131 182 238 291 341 394
#     4   9  18  33  57  86 122 166 218 273 319 368
#     4  12  26  43  68 102 135 174 232 289 351 412
#     4  11  27  47  64  88 133 189 237 290 347 407
#     4  10  20  36  60  97 138 170 209 266 324 389
#
# _framework density 23.391300999999999
#
# number of rings (size 3 to 8) (size 9 to 14) (size 15 to 20)
#    0.000    1.286    1.429    3.429    2.000    8.000 
#    0.000    6.429    0.000    3.429    0.000    0.000 
#    0.000    0.000    0.000    0.000    0.000    0.000 
#
# Total GULP energy -156352.797215 kJ/mol
# GULP energy per Si atom -5584.028472 kJ/mol
# Density = 2.333806 g / cm^3
# Si number density = 23.391301 Si / 1000 Ang^3
#
#
#
# Elastic Constant Matrix: (Units=GPa)
#
#
# Indices 1 2 3 4 5 6 
#
# 1 139.1570 38.8908 44.1670 0.0000 0.0000 0.0000
# 2 38.8908 80.2352 14.3123 0.0000 0.0000 0.0000
# 3 44.1670 14.3123 124.1348 0.0000 0.0000 0.0000
# 4 0.0000 0.0000 0.0000 -3.1056 0.0000 0.0000
# 5 0.0000 0.0000 0.0000 0.0000 37.1427 0.0000
# 6 0.0000 0.0000 0.0000 0.0000 0.0000 -103.4140
#
#
#
# Elastic Compliance Matrix: (Units=1/GPa)
#
#
# Indices 1 2 3 4 5 6 
#
# 1 0.009182 -0.003949 -0.002812 0.000000 0.000000 0.000000
# 2 -0.003949 0.014424 -0.000258 0.000000 0.000000 0.000000
# 3 -0.002812 -0.000258 0.009086 0.000000 0.000000 0.000000
# 4 0.000000 0.000000 0.000000 -0.322001 0.000000 0.000000
# 5 0.000000 0.000000 0.000000 0.000000 0.026923 0.000000
# 6 0.000000 0.000000 0.000000 0.000000 0.000000 -0.009670
#
#
# Mechanical properties :
#
#
# Convention : Reuss Voigt Hill
#
# Bulk Modulus (GPa) = 53.60727 59.80747 56.70737
# Shear Modulus (GPa) = -19.85701 2.53507 -8.66097
#
# Velocity S-wave (km/s) = -2.91676 1.04217 -1.92631
# Velocity P-wave (km/s) = 3.40941 5.20307 4.39863
#
# Compressibility (1/GPa) = 0.01865418
#
# Stress axis : x y z
#
# Youngs Moduli (GPa) = 108.90606 69.33098 110.06083
#
# Poissons Ratio (x) = 0.27380 0.30946
# Poissons Ratio (y) = 0.43009 0.02838
# Poissons Ratio (z) = 0.30621 0.01788
#
# Static dielectric constant tensor:
#      x y z
#    x 1.944100 0.000000 0.000000 
#    y 0.000000 1.905830 0.000000 
#    z 0.000000 0.000000 1.905730 
# 
# From -- ./inp_files/2064.got.cif
#   From: 2010.05.17/outbox.cif.g08.bks.cpg/sg35_2_cif.got.tgz:2064.got - 2010.06.03 17:29:28.
