data_PCOD9349665
_publ_section_title
;
Structure prediction by ZEFSAII (Michael W. Deem and Ramdas Pophale) SiO2 
 PCOD9349665
Probable space group: C M M 2
;
_chemical_formula_sum "Si O2"
_cell_formula_units_Z 64
_cell_length_a 7.809418
_cell_length_b 18.800750
_cell_length_c 22.000238
_cell_angle_alpha 90.000000
_cell_angle_beta 90.000000
_cell_angle_gamma 90.000000
_cell_volume 3230.139084
_symmetry_space_group_name_H-M "C M M 2"
_symmetry_group_IT_number 35
_symmetry_cell_setting 'orthorhombic'
loop_
_space_group_symop_operation_xyz
x,y,z
-x,-y,z
-x,y,z
x,-y,z
1/2+x,1/2+y,z
1/2-x,1/2-y,z
1/2-x,1/2+y,z
1/2+x,1/2-y,z
loop_
_atom_site_type_symbol
_atom_site_label
_atom_site_fract_x
_atom_site_fract_y
_atom_site_fract_z
Si Si1 0.206685 0.333157 0.059860
Si Si2 0.703255 0.580782 0.309108
Si Si3 0.789834 0.582187 0.546020
Si Si4 0.293672 0.165907 0.927880
Si Si5 0.202558 0.332500 0.428515
Si Si6 0.794619 0.419028 0.175838
Si Si7 0.206289 0.666002 0.797270
Si Si8 0.706486 0.833426 0.664757
O O1 0.250000 0.250000 0.064572
O O2 0.272433 0.374411 0.118875
O O3 0.000000 0.339017 0.059356
O O4 0.268617 0.360863 0.993653
O O5 0.500000 0.575541 0.308039
O O6 0.774899 0.500000 0.315953
O O7 0.750333 0.629478 0.365691
O O8 0.757727 0.609713 0.243188
O O9 0.737863 0.500000 0.543867
O O10 0.727269 0.624827 0.486786
O O11 0.731974 0.621296 0.607531
O O12 0.000000 0.583235 0.546176
O O13 0.500000 0.158919 0.927609
O O14 0.250000 0.250000 0.928021
O O15 0.230244 0.137003 0.862566
O O16 0.250000 0.250000 0.429318
O O17 0.000000 0.336434 0.433700
O O18 0.728203 0.500000 0.174065
O O19 0.000000 0.421839 0.170046
O O20 0.250000 0.750000 0.797464
O O21 0.269205 0.640457 0.731300
O O22 0.000000 0.658646 0.797453
O O23 0.500000 0.838306 0.665588
O O24 0.750000 0.750000 0.657601
#
# Coordination Sequence:
#
# PCOD9349665 Si02
#       8
#     8   8   8   8   8   8   8   8
#     4   9  17  28  44  66  91 120 154 195 237 276
#     4  10  21  37  56  77 100 126 158 197 239 285
#     4   9  18  32  50  71  95 126 161 193 229 278
#     4   8  13  22  36  57  86 116 148 186 229 275
#     4  11  22  36  55  77 101 128 159 197 240 285
#     4   9  18  33  51  69  92 126 163 193 228 280
#     4   8  13  21  36  59  86 116 148 185 229 274
#     4   9  16  27  45  68  93 120 153 194 235 275
#
# _framework density 19.813386999999999
#
# number of rings (size 3 to 8) (size 9 to 14) (size 15 to 20)
#    0.000    2.875    0.000    1.500    0.000    2.250 
#    0.000    1.875    0.000    2.625    0.000    5.250 
#    0.000    0.000    0.000   40.500    0.000   19.125 
#
# Total GULP energy -178274.329784 kJ/mol
# GULP energy per Si atom -5571.072806 kJ/mol
# Density = 1.976829 g / cm^3
# Si number density = 19.813387 Si / 1000 Ang^3
#
#
#
# Elastic Constant Matrix: (Units=GPa)
#
#
# Indices 1 2 3 4 5 6 
#
# 1 28.5969 2.3349 10.9134 0.0000 0.0000 0.0000
# 2 2.3349 74.1777 97.9447 0.0000 0.0000 0.0000
# 3 10.9134 97.9447 270.2687 0.0000 0.0000 0.0000
# 4 0.0000 0.0000 0.0000 -26.3710 0.0000 0.0000
# 5 0.0000 0.0000 0.0000 0.0000 8.7393 0.0000
# 6 0.0000 0.0000 0.0000 0.0000 0.0000 10.4328
#
#
#
# Elastic Compliance Matrix: (Units=1/GPa)
#
#
# Indices 1 2 3 4 5 6 
#
# 1 0.035602 0.001491 -0.001978 0.000000 0.000000 0.000000
# 2 0.001491 0.025914 -0.009451 0.000000 0.000000 0.000000
# 3 -0.001978 -0.009451 0.007205 0.000000 0.000000 0.000000
# 4 0.000000 0.000000 0.000000 -0.037921 0.000000 0.000000
# 5 0.000000 0.000000 0.000000 0.000000 0.114426 0.000000
# 6 0.000000 0.000000 0.000000 0.000000 0.000000 0.095851
#
#
# Mechanical properties :
#
#
# Convention : Reuss Voigt Hill
#
# Bulk Modulus (GPa) = 20.47321 66.15880 43.31601
# Shear Modulus (GPa) = 18.03519 16.01690 17.02605
#
# Velocity S-wave (km/s) = 3.02031 2.84630 2.93460
# Velocity P-wave (km/s) = 4.74537 6.65322 5.77858
#
# Compressibility (1/GPa) = 0.04884431
#
# Stress axis : x y z
#
# Youngs Moduli (GPa) = 28.08833 38.58954 138.79226
#
# Poissons Ratio (x) = -0.05754 0.27452
# Poissons Ratio (y) = -0.04188 1.31177
# Poissons Ratio (z) = 0.05556 0.36472
#
# Static dielectric constant tensor:
#      x y z
#    x 1.709180 0.000000 0.000000 
#    y 0.000000 1.673980 0.000000 
#    z 0.000000 0.000000 1.769900 
# 
# From -- ./inp_files/18426.got.cif
#   From: 2010.05.17/outbox.cif.g08.bks.cpg/sg35_10_cif.got.tgz:18426.got - 2010.06.03 17:29:28.
