data_PCOD9349273
_publ_section_title
;
Structure prediction by ZEFSAII (Michael W. Deem and Ramdas Pophale) SiO2 
 PCOD9349273
Probable space group: C M M 2
;
_chemical_formula_sum "Si O2"
_cell_formula_units_Z 48
_cell_length_a 15.900204
_cell_length_b 10.448888
_cell_length_c 15.584019
_cell_angle_alpha 90.000000
_cell_angle_beta 90.000000
_cell_angle_gamma 90.000000
_cell_volume 2589.120357
_symmetry_space_group_name_H-M "C M M 2"
_symmetry_group_IT_number 35
_symmetry_cell_setting 'orthorhombic'
loop_
_space_group_symop_operation_xyz
x,y,z
-x,-y,z
-x,y,z
x,-y,z
1/2+x,1/2+y,z
1/2-x,1/2-y,z
1/2-x,1/2+y,z
1/2+x,1/2-y,z
loop_
_atom_site_type_symbol
_atom_site_label
_atom_site_fract_x
_atom_site_fract_y
_atom_site_fract_z
Si Si1 0.151160 0.252958 0.276100
Si Si2 0.175606 0.649688 0.910967
Si Si3 0.904947 0.348616 0.730138
Si Si4 0.595633 0.000000 0.381327
Si Si5 0.899839 0.649955 0.098014
Si Si6 0.405331 0.500000 0.368926
Si Si7 0.750000 0.750000 0.623224
Si Si8 0.244871 0.000000 0.506026
O O1 0.250000 0.250000 0.297523
O O2 0.110255 0.375260 0.322552
O O3 0.139876 0.268449 0.174299
O O4 0.108784 0.125339 0.311344
O O5 0.203717 0.500000 0.910737
O O6 0.250000 0.750000 0.896657
O O7 0.111066 0.662648 0.832110
O O8 0.134839 0.677058 0.003370
O O9 0.895859 0.500000 0.708909
O O10 0.832439 0.272119 0.681309
O O11 0.000000 0.309284 0.708443
O O12 0.500000 0.000000 0.414698
O O13 0.667181 0.000000 0.453984
O O14 0.882014 0.500000 0.116037
O O15 0.000000 0.667092 0.099207
O O16 0.500000 0.500000 0.404450
O O17 0.332894 0.500000 0.440345
O O18 0.740272 0.625908 0.564021
#
# Coordination Sequence:
#
# PCOD9349273 Si02
#       8
#     8   8   8   4   8   4   4   4
#     4  12  22  41  65  92 128 168 210 262 312 367
#     4  10  20  37  63  91 128 169 205 253 307 361
#     4  10  21  41  69  98 128 169 212 252 308 380
#     4  12  24  44  70  91 119 168 217 260 310 379
#     4  10  20  35  59  93 124 164 219 256 290 360
#     4  12  26  44  64  91 129 166 205 260 328 379
#     4  12  24  42  70  92 130 160 204 270 322 374
#     4  12  26  44  66  94 126 160 208 270 324 376
#
# _framework density 18.539114999999999
#
# number of rings (size 3 to 8) (size 9 to 14) (size 15 to 20)
#    0.000    1.000    4.167    3.500    0.000    3.333 
#    1.500    0.000    0.000    1.000    0.000    0.000 
#    0.000    0.000    0.000    0.000    0.000    0.000 
#
# Total GULP energy -134140.537586 kJ/mol
# GULP energy per Si atom -5589.189066 kJ/mol
# Density = 1.849692 g / cm^3
# Si number density = 18.539115 Si / 1000 Ang^3
#
#
#
# Elastic Constant Matrix: (Units=GPa)
#
#
# Indices 1 2 3 4 5 6 
#
# 1 150.8177 47.1073 57.9430 0.0000 0.0000 0.0000
# 2 47.1073 114.9670 56.6095 0.0000 0.0000 0.0000
# 3 57.9430 56.6095 115.2249 0.0000 0.0000 0.0000
# 4 0.0000 0.0000 0.0000 -10.2162 0.0000 0.0000
# 5 0.0000 0.0000 0.0000 0.0000 3.1817 0.0000
# 6 0.0000 0.0000 0.0000 0.0000 0.0000 -17.6763
#
#
#
# Elastic Compliance Matrix: (Units=1/GPa)
#
#
# Indices 1 2 3 4 5 6 
#
# 1 0.008497 -0.001817 -0.003380 0.000000 0.000000 0.000000
# 2 -0.001817 0.011862 -0.004914 0.000000 0.000000 0.000000
# 3 -0.003380 -0.004914 0.012793 0.000000 0.000000 0.000000
# 4 0.000000 0.000000 0.000000 -0.097883 0.000000 0.000000
# 5 0.000000 0.000000 0.000000 0.000000 0.314301 0.000000
# 6 0.000000 0.000000 0.000000 0.000000 0.000000 -0.056573
#
#
# Mechanical properties :
#
#
# Convention : Reuss Voigt Hill
#
# Bulk Modulus (GPa) = 77.34436 78.25879 77.80157
# Shear Modulus (GPa) = 22.98551 9.68114 16.33333
#
# Velocity S-wave (km/s) = 3.52495 2.28765 2.97142
# Velocity P-wave (km/s) = 7.64050 7.02013 7.33687
#
# Compressibility (1/GPa) = 0.01292919
#
# Stress axis : x y z
#
# Youngs Moduli (GPa) = 117.69335 84.29948 78.16994
#
# Poissons Ratio (x) = 0.15319 0.26421
# Poissons Ratio (y) = 0.21387 0.38414
# Poissons Ratio (z) = 0.39779 0.41426
#
# Static dielectric constant tensor:
#      x y z
#    x 1.627230 0.000000 0.000000 
#    y 0.000000 1.612870 0.000000 
#    z 0.000000 0.000000 1.635960 
# 
# From -- ./inp_files/18815.got.cif
#   From: 2010.05.17/outbox.cif.g08.bks.cpg/sg35_10_cif.got.tgz:18815.got - 2010.06.03 17:29:28.
