data_PCOD9349456
_publ_section_title
;
Structure prediction by ZEFSAII (Michael W. Deem and Ramdas Pophale) SiO2 
 PCOD9349456
Probable space group: C M M 2
;
_chemical_formula_sum "Si O2"
_cell_formula_units_Z 64
_cell_length_a 8.939079
_cell_length_b 31.526810
_cell_length_c 12.144552
_cell_angle_alpha 90.000000
_cell_angle_beta 90.000000
_cell_angle_gamma 90.000000
_cell_volume 3422.585480
_symmetry_space_group_name_H-M "C M M 2"
_symmetry_group_IT_number 35
_symmetry_cell_setting 'orthorhombic'
loop_
_space_group_symop_operation_xyz
x,y,z
-x,-y,z
-x,y,z
x,-y,z
1/2+x,1/2+y,z
1/2-x,1/2-y,z
1/2-x,1/2+y,z
1/2+x,1/2-y,z
loop_
_atom_site_type_symbol
_atom_site_label
_atom_site_fract_x
_atom_site_fract_y
_atom_site_fract_z
Si Si1 0.680097 0.205853 0.598960
Si Si2 0.819744 0.875044 0.218364
Si Si3 0.821490 0.205792 0.068568
Si Si4 0.677748 0.823181 0.841833
Si Si5 0.679600 0.122961 0.458964
Si Si6 0.821124 0.952046 0.058599
Si Si7 0.678767 0.548484 0.602357
Si Si8 0.676936 0.075329 0.830705
O O1 0.500000 0.208688 0.596845
O O2 0.750000 0.250000 0.561229
O O3 0.725411 0.196703 0.725463
O O4 0.723907 0.165664 0.524865
O O5 0.780215 0.833300 0.147865
O O6 0.741062 0.875244 0.335693
O O7 0.777907 0.916365 0.146726
O O8 0.000000 0.875559 0.232968
O O9 0.750000 0.250000 0.105312
O O10 0.000000 0.209393 0.067111
O O11 0.763817 0.195241 0.946061
O O12 0.500000 0.815496 0.856329
O O13 0.699870 0.873843 0.834666
O O14 0.500000 0.120521 0.459984
O O15 0.745806 0.082638 0.522766
O O16 0.000000 0.947885 0.039965
O O17 0.791475 0.000000 0.096957
O O18 0.738803 0.943773 0.943712
O O19 0.500000 0.553728 0.600106
O O20 0.714083 0.500000 0.570655
O O21 0.738419 0.556818 0.725433
O O22 0.500000 0.067372 0.819662
#
# Coordination Sequence:
#
# PCOD9349456 Si02
#       8
#     8   8   8   8   8   8   8   8
#     4  10  22  40  60  88 121 155 194 241 297 356
#     4  10  23  42  61  86 118 158 206 250 299 356
#     4  11  23  39  61  89 122 158 201 247 297 357
#     4  10  20  37  60  88 123 157 194 242 300 359
#     4  11  24  43  64  88 120 157 202 256 307 353
#     4  10  21  39  62  88 121 158 198 244 294 356
#     4  11  24  41  63  91 123 161 203 245 296 361
#     4  11  21  36  61  92 127 159 193 244 301 356
#
# _framework density 18.699313
#
# number of rings (size 3 to 8) (size 9 to 14) (size 15 to 20)
#    0.000    1.500    2.500    2.250    0.000    8.250 
#    0.000    3.750    0.000    0.000    0.000    0.000 
#    0.000    0.000    0.000    0.000    0.000    0.000 
#
# Total GULP energy -178896.882948 kJ/mol
# GULP energy per Si atom -5590.527592 kJ/mol
# Density = 1.865675 g / cm^3
# Si number density = 18.699313 Si / 1000 Ang^3
#
#
#
# Elastic Constant Matrix: (Units=GPa)
#
#
# Indices 1 2 3 4 5 6 
#
# 1 44.3183 68.6736 52.6883 0.0000 0.0000 0.0000
# 2 68.6736 181.1888 94.9930 0.0000 0.0000 0.0000
# 3 52.6883 94.9930 148.7800 0.0000 0.0000 0.0000
# 4 0.0000 0.0000 0.0000 -0.6256 0.0000 0.0000
# 5 0.0000 0.0000 0.0000 0.0000 33.6911 0.0000
# 6 0.0000 0.0000 0.0000 0.0000 0.0000 32.3476
#
#
#
# Elastic Compliance Matrix: (Units=1/GPa)
#
#
# Indices 1 2 3 4 5 6 
#
# 1 0.064610 -0.018778 -0.010891 0.000000 0.000000 0.000000
# 2 -0.018778 0.013754 -0.002132 0.000000 0.000000 0.000000
# 3 -0.010891 -0.002132 0.011939 0.000000 0.000000 0.000000
# 4 0.000000 0.000000 0.000000 -1.598530 0.000000 0.000000
# 5 0.000000 0.000000 0.000000 0.000000 0.029681 0.000000
# 6 0.000000 0.000000 0.000000 0.000000 0.000000 0.030914
#
#
# Mechanical properties :
#
#
# Convention : Reuss Voigt Hill
#
# Bulk Modulus (GPa) = 37.45149 89.66635 63.55892
# Shear Modulus (GPa) = -3.63602 23.61144 9.98771
#
# Velocity S-wave (km/s) = -1.39595 3.55729 2.31361
# Velocity P-wave (km/s) = 4.18013 8.05780 6.41879
#
# Compressibility (1/GPa) = 0.02670121
#
# Stress axis : x y z
#
# Youngs Moduli (GPa) = 15.47746 72.70656 83.75767
#
# Poissons Ratio (x) = 1.36531 0.91222
# Poissons Ratio (y) = 0.29064 0.17853
# Poissons Ratio (z) = 0.16857 0.15498
#
# Static dielectric constant tensor:
#      x y z
#    x 1.623250 0.000000 0.000000 
#    y 0.000000 1.648100 0.000000 
#    z 0.000000 0.000000 1.604650 
# 
# From -- ./inp_files/11901.got.cif
#   From: 2010.05.17/outbox.cif.g08.bks.cpg/sg35_6_cif.got.tgz:11901.got - 2010.06.03 17:29:28.
