data_PCOD9349910
_publ_section_title
;
Structure prediction by ZEFSAII (Michael W. Deem and Ramdas Pophale) SiO2 
 PCOD9349910
Probable space group: C M M 2
;
_chemical_formula_sum "Si O2"
_cell_formula_units_Z 56
_cell_length_a 13.793312
_cell_length_b 13.875143
_cell_length_c 13.636537
_cell_angle_alpha 90.000000
_cell_angle_beta 90.000000
_cell_angle_gamma 90.000000
_cell_volume 2609.817403
_symmetry_space_group_name_H-M "C M M 2"
_symmetry_group_IT_number 35
_symmetry_cell_setting 'orthorhombic'
loop_
_space_group_symop_operation_xyz
x,y,z
-x,-y,z
-x,y,z
x,-y,z
1/2+x,1/2+y,z
1/2-x,1/2-y,z
1/2-x,1/2+y,z
1/2+x,1/2-y,z
loop_
_atom_site_type_symbol
_atom_site_label
_atom_site_fract_x
_atom_site_fract_y
_atom_site_fract_z
Si Si1 0.891196 0.697678 0.782240
Si Si2 0.613794 0.799714 0.385887
Si Si3 0.391337 0.611192 0.030856
Si Si4 0.686276 0.109956 0.968287
Si Si5 0.194489 0.109095 0.705292
Si Si6 0.112732 0.702006 0.158654
Si Si7 0.800672 0.891237 0.471166
O O1 0.870646 0.807344 0.751804
O O2 0.874132 0.678311 0.897511
O O3 0.805626 0.635171 0.732773
O O4 0.000000 0.875206 0.989793
O O5 0.500000 0.822703 0.397975
O O6 0.641450 0.807402 0.271152
O O7 0.689039 0.865004 0.445995
O O8 0.634772 0.690390 0.419958
O O9 0.384909 0.500000 0.065571
O O10 0.301635 0.623018 0.956848
O O11 0.378881 0.689175 0.117216
O O12 0.660111 0.000000 0.947194
O O13 0.666976 0.135572 0.080933
O O14 0.500000 0.169765 0.754914
O O15 0.185125 0.115235 0.587894
O O16 0.171832 0.000000 0.736637
O O17 0.000000 0.675550 0.152913
O O18 0.822673 0.000000 0.439253
#
# Coordination Sequence:
#
# PCOD9349910 Si02
#       7
#     8   8   8   8   8   8   8
#     4  11  24  43  68  95 126 167 215 265 319 383
#     4  10  22  40  63  94 130 170 218 264 312 378
#     4   9  20  38  59  85 119 164 214 260 312 371
#     4  11  24  40  61  90 127 171 216 265 317 375
#     4  10  24  45  66  96 131 163 208 267 331 391
#     4  10  22  38  58  88 126 167 212 262 313 369
#     4  10  23  42  65  95 131 166 208 266 328 388
#
# _framework density 21.457439999999998
#
# number of rings (size 3 to 8) (size 9 to 14) (size 15 to 20)
#    0.000    1.857    0.000    3.000    8.000    6.286 
#    0.000    5.714    0.000    0.000    0.000    0.000 
#    0.000    0.000    0.000    0.000    0.000    0.000 
#
# Total GULP energy -156538.965980 kJ/mol
# GULP energy per Si atom -5590.677356 kJ/mol
# Density = 2.140860 g / cm^3
# Si number density = 21.457440 Si / 1000 Ang^3
#
#
#
# Elastic Constant Matrix: (Units=GPa)
#
#
# Indices 1 2 3 4 5 6 
#
# 1 57.2247 -3.7377 7.5650 0.0000 0.0000 0.0000
# 2 -3.7377 103.1481 26.4538 0.0000 0.0000 0.0000
# 3 7.5650 26.4538 75.7217 0.0000 0.0000 0.0000
# 4 0.0000 0.0000 0.0000 8.1464 0.0000 0.0000
# 5 0.0000 0.0000 0.0000 0.0000 14.2267 0.0000
# 6 0.0000 0.0000 0.0000 0.0000 0.0000 11.8117
#
#
#
# Elastic Compliance Matrix: (Units=1/GPa)
#
#
# Indices 1 2 3 4 5 6 
#
# 1 0.017846 0.001213 -0.002207 0.000000 0.000000 0.000000
# 2 0.001213 0.010731 -0.003870 0.000000 0.000000 0.000000
# 3 -0.002207 -0.003870 0.014779 0.000000 0.000000 0.000000
# 4 0.000000 0.000000 0.000000 0.122754 0.000000 0.000000
# 5 0.000000 0.000000 0.000000 0.000000 0.070290 0.000000
# 6 0.000000 0.000000 0.000000 0.000000 0.000000 0.084662
#
#
# Mechanical properties :
#
#
# Convention : Reuss Voigt Hill
#
# Bulk Modulus (GPa) = 29.73741 32.96185 31.34963
# Shear Modulus (GPa) = 14.61992 20.55787 17.58889
#
# Velocity S-wave (km/s) = 2.61309 3.09864 2.86617
# Velocity P-wave (km/s) = 4.79512 5.31008 5.05916
#
# Compressibility (1/GPa) = 0.03362768
#
# Stress axis : x y z
#
# Youngs Moduli (GPa) = 56.03533 93.18542 67.66467
#
# Poissons Ratio (x) = -0.11299 0.14930
# Poissons Ratio (y) = -0.06795 0.26187
# Poissons Ratio (z) = 0.12364 0.36064
#
# Static dielectric constant tensor:
#      x y z
#    x 1.780990 0.000000 0.000000 
#    y 0.000000 1.768480 0.000000 
#    z 0.000000 0.000000 1.780490 
# 
# From -- ./inp_files/12967.got.cif
#   From: 2010.05.17/outbox.cif.g08.bks.cpg/sg35_7_cif.got.tgz:12967.got - 2010.06.03 17:29:28.
