data_PCOD9349257
_publ_section_title
;
Structure prediction by ZEFSAII (Michael W. Deem and Ramdas Pophale) SiO2 
 PCOD9349257
Probable space group: C M M 2
;
_chemical_formula_sum "Si O2"
_cell_formula_units_Z 48
_cell_length_a 28.593586
_cell_length_b 8.931146
_cell_length_c 10.386375
_cell_angle_alpha 90.000000
_cell_angle_beta 90.000000
_cell_angle_gamma 90.000000
_cell_volume 2652.404845
_symmetry_space_group_name_H-M "C M M 2"
_symmetry_group_IT_number 35
_symmetry_cell_setting 'orthorhombic'
loop_
_space_group_symop_operation_xyz
x,y,z
-x,-y,z
-x,y,z
x,-y,z
1/2+x,1/2+y,z
1/2-x,1/2-y,z
1/2-x,1/2+y,z
1/2+x,1/2-y,z
loop_
_atom_site_type_symbol
_atom_site_label
_atom_site_fract_x
_atom_site_fract_y
_atom_site_fract_z
Si Si1 0.445816 0.821990 0.226900
Si Si2 0.946050 0.821571 0.944018
Si Si3 0.858440 0.177960 0.349163
Si Si4 0.301018 0.678090 0.085951
Si Si5 0.856200 0.678646 0.847452
Si Si6 0.301499 0.179114 0.583323
O O1 0.500000 0.796860 0.263473
O O2 0.409100 0.749460 0.324046
O O3 0.437954 0.000000 0.216792
O O4 0.439032 0.747885 0.086315
O O5 0.907944 0.748414 0.851308
O O6 0.000000 0.792809 0.906973
O O7 0.938929 0.000000 0.951524
O O8 0.829070 0.203739 0.218092
O O9 0.831232 0.253409 0.466370
O O10 0.862167 0.000000 0.368986
O O11 0.297317 0.500000 0.065583
O O12 0.250000 0.750000 0.095183
O O13 0.328599 0.751095 0.967589
O O14 0.859084 0.500000 0.862788
O O15 0.828267 0.711615 0.716795
O O16 0.250000 0.250000 0.584948
O O17 0.297670 0.000000 0.569200
#
# Coordination Sequence:
#
# PCOD9349257 Si02
#       6
#     8   8   8   8   8   8
#     4  10  20  35  59  90 123 158 196 243 297 352
#     4  10  20  35  58  89 123 157 196 244 297 354
#     4  11  23  39  61  89 119 157 200 246 298 353
#     4  11  23  37  57  86 117 150 194 247 298 352
#     4  11  23  39  61  88 118 156 200 247 299 354
#     4  11  25  43  62  86 118 160 204 247 299 359
#
# _framework density 18.096786000000002
#
# number of rings (size 3 to 8) (size 9 to 14) (size 15 to 20)
#    0.000    1.333    1.667    4.000    0.000    9.333 
#    0.000    0.833    0.000    1.000    0.000    0.000 
#    0.000    0.000    0.000    0.000    0.000    0.000 
#
# Total GULP energy -134185.296816 kJ/mol
# GULP energy per Si atom -5591.054034 kJ/mol
# Density = 1.805560 g / cm^3
# Si number density = 18.096786 Si / 1000 Ang^3
#
#
#
# Elastic Constant Matrix: (Units=GPa)
#
#
# Indices 1 2 3 4 5 6 
#
# 1 162.1567 90.9131 78.2781 0.0000 0.0000 0.0000
# 2 90.9131 106.6533 88.8362 0.0000 0.0000 0.0000
# 3 78.2781 88.8362 116.9961 0.0000 0.0000 0.0000
# 4 0.0000 0.0000 0.0000 19.6606 0.0000 0.0000
# 5 0.0000 0.0000 0.0000 0.0000 28.7245 0.0000
# 6 0.0000 0.0000 0.0000 0.0000 0.0000 38.2400
#
#
#
# Elastic Compliance Matrix: (Units=1/GPa)
#
#
# Indices 1 2 3 4 5 6 
#
# 1 0.011833 -0.009502 -0.000702 0.000000 0.000000 0.000000
# 2 -0.009502 0.033140 -0.018806 0.000000 0.000000 0.000000
# 3 -0.000702 -0.018806 0.023297 0.000000 0.000000 0.000000
# 4 0.000000 0.000000 0.000000 0.050863 0.000000 0.000000
# 5 0.000000 0.000000 0.000000 0.000000 0.034813 0.000000
# 6 0.000000 0.000000 0.000000 0.000000 0.000000 0.026151
#
#
# Mechanical properties :
#
#
# Convention : Reuss Voigt Hill
#
# Bulk Modulus (GPa) = 97.56628 100.20678 98.88653
# Shear Modulus (GPa) = 20.70092 25.84359 23.27226
#
# Velocity S-wave (km/s) = 3.38583 3.78309 3.58996
# Velocity P-wave (km/s) = 8.32561 8.63570 8.48207
#
# Compressibility (1/GPa) = 0.01024944
#
# Stress axis : x y z
#
# Youngs Moduli (GPa) = 84.50924 30.17485 42.92362
#
# Poissons Ratio (x) = 0.28671 0.03015
# Poissons Ratio (y) = 0.80297 0.80724
# Poissons Ratio (z) = 0.05936 0.56748
#
# Static dielectric constant tensor:
#      x y z
#    x 1.621350 0.000000 0.000000 
#    y 0.000000 1.602040 0.000000 
#    z 0.000000 0.000000 1.584900 
# 
# From -- ./inp_files/5295.got.cif
#   From: 2010.05.17/outbox.cif.g08.bks.cpg/sg35_3_cif.got.tgz:5295.got - 2010.06.03 17:29:28.
