data_PCOD9349934
_publ_section_title
;
Structure prediction by ZEFSAII (Michael W. Deem and Ramdas Pophale) SiO2 
 PCOD9349934
Probable space group: C M M 2
;
_chemical_formula_sum "Si O2"
_cell_formula_units_Z 56
_cell_length_a 15.680340
_cell_length_b 21.640519
_cell_length_c 7.827726
_cell_angle_alpha 90.000000
_cell_angle_beta 90.000000
_cell_angle_gamma 90.000000
_cell_volume 2656.187709
_symmetry_space_group_name_H-M "C M M 2"
_symmetry_group_IT_number 35
_symmetry_cell_setting 'orthorhombic'
loop_
_space_group_symop_operation_xyz
x,y,z
-x,-y,z
-x,y,z
x,-y,z
1/2+x,1/2+y,z
1/2-x,1/2-y,z
1/2-x,1/2+y,z
1/2+x,1/2-y,z
loop_
_atom_site_type_symbol
_atom_site_label
_atom_site_fract_x
_atom_site_fract_y
_atom_site_fract_z
Si Si1 0.222550 0.927874 0.033590
Si Si2 0.095482 0.604381 0.484258
Si Si3 0.728818 0.566992 0.632333
Si Si4 0.335522 0.292504 0.006873
Si Si5 0.410549 0.930739 0.106319
Si Si6 0.904298 0.830766 0.636629
Si Si7 0.852944 0.738402 0.352057
O O1 0.174617 0.863632 0.080474
O O2 0.320050 0.905585 0.054479
O O3 0.212123 0.000000 0.104154
O O4 0.208725 0.935273 0.832623
O O5 0.171936 0.582414 0.604192
O O6 0.091708 0.564875 0.311216
O O7 0.123919 0.669780 0.407009
O O8 0.000000 0.605742 0.559896
O O9 0.712300 0.500000 0.553462
O O10 0.665010 0.619487 0.571840
O O11 0.250000 0.250000 0.977898
O O12 0.380933 0.255644 0.160115
O O13 0.377442 0.302561 0.821114
O O14 0.500000 0.899241 0.059094
O O15 0.411758 0.000000 0.033306
O O16 0.899139 0.779177 0.493032
O O17 0.000000 0.856464 0.651393
O O18 0.750000 0.750000 0.359844
#
# Coordination Sequence:
#
# PCOD9349934 Si02
#       7
#     8   8   8   8   8   8   8
#     4   9  19  36  57  85 116 157 209 256 313 381
#     4  11  22  36  57  89 124 160 202 254 318 387
#     4  10  22  40  62  86 120 165 212 263 323 386
#     4  10  22  39  65  92 125 166 211 264 325 388
#     4   9  17  30  50  79 115 151 189 236 294 365
#     4  11  24  41  63  91 126 166 213 267 318 379
#     4  11  21  40  64  89 128 167 208 262 319 381
#
# _framework density 21.082846
#
# number of rings (size 3 to 8) (size 9 to 14) (size 15 to 20)
#    0.000    1.857    1.429    3.000    2.000    2.857 
#    0.000    2.143    0.000    0.000    0.000    2.000 
#    0.000    0.000    0.000    0.000    0.000    0.000 
#
# Total GULP energy -155870.515400 kJ/mol
# GULP energy per Si atom -5566.804121 kJ/mol
# Density = 2.103486 g / cm^3
# Si number density = 21.082846 Si / 1000 Ang^3
#
#
#
# Elastic Constant Matrix: (Units=GPa)
#
#
# Indices 1 2 3 4 5 6 
#
# 1 66.5663 14.4407 -2.9107 0.0000 0.0000 0.0000
# 2 14.4407 110.6866 10.2775 0.0000 0.0000 0.0000
# 3 -2.9107 10.2775 40.5384 0.0000 0.0000 0.0000
# 4 0.0000 0.0000 0.0000 20.3138 0.0000 0.0000
# 5 0.0000 0.0000 0.0000 0.0000 -4.5294 0.0000
# 6 0.0000 0.0000 0.0000 0.0000 0.0000**********
#
#
#
# Elastic Compliance Matrix: (Units=1/GPa)
#
#
# Indices 1 2 3 4 5 6 
#
# 1 0.015570 -0.002187 0.001672 0.000000 0.000000 0.000000
# 2 -0.002187 0.009559 -0.002581 0.000000 0.000000 0.000000
# 3 0.001672 -0.002581 0.025442 0.000000 0.000000 0.000000
# 4 0.000000 0.000000 0.000000 0.049228 0.000000 0.000000
# 5 0.000000 0.000000 0.000000 0.000000 -0.220779 0.000000
# 6 0.000000 0.000000 0.000000 0.000000 0.000000 -0.000048
#
#
# Mechanical properties :
#
#
# Convention : Reuss Voigt Hill
#
# Bulk Modulus (GPa) = 22.53162 29.04514 25.78838
# Shear Modulus (GPa) = -49.97815 -4154.68048 -2102.32931
#
# Velocity S-wave (km/s) = -4.87412 -44.44011 -31.61234
# Velocity P-wave (km/s) = 4.57883 51.18031 36.33449
#
# Compressibility (1/GPa) = 0.04438208
#
# Stress axis : x y z
#
# Youngs Moduli (GPa) = 64.22569 104.60902 39.30464
#
# Poissons Ratio (x) = 0.22874 -0.06573
# Poissons Ratio (y) = 0.14044 0.10143
# Poissons Ratio (z) = -0.10741 0.26995
#
# Static dielectric constant tensor:
#      x y z
#    x 1.792070 0.000000 0.000000 
#    y 0.000000 1.851650 0.000000 
#    z 0.000000 0.000000 1.753580 
# 
# From -- ./inp_files/7651.got.cif
#   From: 2010.05.17/outbox.cif.g08.bks.cpg/sg35_4_cif.got.tgz:7651.got - 2010.06.03 17:29:28.
