data_PCOD9349530
_publ_section_title
;
Structure prediction by ZEFSAII (Michael W. Deem and Ramdas Pophale) SiO2 
 PCOD9349530
Probable space group: C M M 2
;
_chemical_formula_sum "Si O2"
_cell_formula_units_Z 52
_cell_length_a 23.622144
_cell_length_b 19.393543
_cell_length_c 5.427441
_cell_angle_alpha 90.000000
_cell_angle_beta 90.000000
_cell_angle_gamma 90.000000
_cell_volume 2486.403344
_symmetry_space_group_name_H-M "C M M 2"
_symmetry_group_IT_number 35
_symmetry_cell_setting 'orthorhombic'
loop_
_space_group_symop_operation_xyz
x,y,z
-x,-y,z
-x,y,z
x,-y,z
1/2+x,1/2+y,z
1/2-x,1/2-y,z
1/2-x,1/2+y,z
1/2+x,1/2-y,z
loop_
_atom_site_type_symbol
_atom_site_label
_atom_site_fract_x
_atom_site_fract_y
_atom_site_fract_z
Si Si1 0.669996 0.352432 0.901290
Si Si2 0.750000 0.250000 0.148900
Si Si3 0.063135 0.226692 0.126638
Si Si4 0.064326 0.389841 0.111867
Si Si5 0.798334 0.000000 0.040347
Si Si6 0.774144 0.500000 0.542743
Si Si7 0.350794 0.257631 0.511225
Si Si8 0.369571 0.108768 0.630168
O O1 0.667610 0.429261 0.999932
O O2 0.671644 0.330111 0.616148
O O3 0.726913 0.315259 0.999112
O O4 0.612519 0.313588 0.984933
O O5 0.694682 0.233508 0.308411
O O6 0.061271 0.307444 0.063216
O O7 0.087208 0.227859 0.404560
O O8 0.000000 0.198231 0.100651
O O9 0.090422 0.397422 0.386557
O O10 0.000000 0.416292 0.106682
O O11 0.101571 0.417367 0.883216
O O12 0.758447 0.000000 0.800639
O O13 0.765187 0.000000 0.300030
O O14 0.814528 0.566284 0.554742
O O15 0.354300 0.189267 0.675093
#
# Coordination Sequence:
#
# PCOD9349530 Si02
#       8
#     8   4   8   8   4   4   8   8
#     4  11  23  41  64  94 129 172 217 272 325 402
#     4  10  22  36  64  92 126 162 224 270 330 378
#     4   9  20  38  64  96 128 164 211 272 334 386
#     4  10  20  38  64  96 129 164 213 271 323 383
#     4  12  30  44  65  94 133 178 214 268 336 392
#     4  12  28  46  65  88 135 178 218 270 330 400
#     4  10  21  36  62  94 124 165 218 272 321 391
#     4  11  22  40  61  92 128 172 219 263 326 386
#
# _framework density 20.913741000000002
#
# number of rings (size 3 to 8) (size 9 to 14) (size 15 to 20)
#    0.000    1.538    1.538    2.769    8.615    1.231 
#    0.000    2.692    0.000    0.000    0.000    0.000 
#    0.000    0.000    0.000    0.000    0.000    0.000 
#
# Total GULP energy -144965.111556 kJ/mol
# GULP energy per Si atom -5575.581214 kJ/mol
# Density = 2.086614 g / cm^3
# Si number density = 20.913741 Si / 1000 Ang^3
#
#
#
# Elastic Constant Matrix: (Units=GPa)
#
#
# Indices 1 2 3 4 5 6 
#
# 1 98.4140 14.2515 25.9295 0.0000 0.0000 0.0000
# 2 14.2515 84.5549 11.9622 0.0000 0.0000 0.0000
# 3 25.9295 11.9622 72.3774 0.0000 0.0000 0.0000
# 4 0.0000 0.0000 0.0000 13.7601 0.0000 0.0000
# 5 0.0000 0.0000 0.0000 0.0000 16.9236 0.0000
# 6 0.0000 0.0000 0.0000 0.0000 0.0000 25.5481
#
#
#
# Elastic Compliance Matrix: (Units=1/GPa)
#
#
# Indices 1 2 3 4 5 6 
#
# 1 0.011374 -0.001373 -0.003848 0.000000 0.000000 0.000000
# 2 -0.001373 0.012275 -0.001537 0.000000 0.000000 0.000000
# 3 -0.003848 -0.001537 0.015449 0.000000 0.000000 0.000000
# 4 0.000000 0.000000 0.000000 0.072674 0.000000 0.000000
# 5 0.000000 0.000000 0.000000 0.000000 0.059089 0.000000
# 6 0.000000 0.000000 0.000000 0.000000 0.000000 0.039142
#
#
# Mechanical properties :
#
#
# Convention : Reuss Voigt Hill
#
# Bulk Modulus (GPa) = 39.08829 39.95917 39.52373
# Shear Modulus (GPa) = 21.54745 24.79323 23.17034
#
# Velocity S-wave (km/s) = 3.21331 3.44684 3.33212
# Velocity P-wave (km/s) = 5.70070 5.91516 5.80892
#
# Compressibility (1/GPa) = 0.02558311
#
# Stress axis : x y z
#
# Youngs Moduli (GPa) = 87.92184 81.46344 64.72905
#
# Poissons Ratio (x) = 0.11182 0.24907
# Poissons Ratio (y) = 0.12069 0.09949
# Poissons Ratio (z) = 0.33831 0.12521
#
# Static dielectric constant tensor:
#      x y z
#    x 1.743900 0.000000 0.000000 
#    y 0.000000 1.817340 0.000000 
#    z 0.000000 0.000000 1.882510 
# 
# From -- ./inp_files/3060.got.cif
#   From: 2010.05.17/outbox.cif.g08.bks.cpg/sg35_2_cif.got.tgz:3060.got - 2010.06.03 17:29:28.
