data_PCOD9349229
_publ_section_title
;
Structure prediction by ZEFSAII (Michael W. Deem and Ramdas Pophale) SiO2 
 PCOD9349229
Probable space group: C M M 2
;
_chemical_formula_sum "Si O2"
_cell_formula_units_Z 56
_cell_length_a 13.292578
_cell_length_b 20.750337
_cell_length_c 10.367192
_cell_angle_alpha 90.000000
_cell_angle_beta 90.000000
_cell_angle_gamma 90.000000
_cell_volume 2859.535638
_symmetry_space_group_name_H-M "C M M 2"
_symmetry_group_IT_number 35
_symmetry_cell_setting 'orthorhombic'
loop_
_space_group_symop_operation_xyz
x,y,z
-x,-y,z
-x,y,z
x,-y,z
1/2+x,1/2+y,z
1/2-x,1/2-y,z
1/2-x,1/2+y,z
1/2+x,1/2-y,z
loop_
_atom_site_type_symbol
_atom_site_label
_atom_site_fract_x
_atom_site_fract_y
_atom_site_fract_z
Si Si1 0.116511 0.712213 0.705960
Si Si2 0.186613 0.150424 0.802613
Si Si3 0.618315 0.929121 0.417830
Si Si4 0.620707 0.787743 0.400372
Si Si5 0.180824 0.927963 0.555517
Si Si6 0.619336 0.348959 0.307039
Si Si7 0.377786 0.424844 0.054773
O O1 0.130501 0.782562 0.770118
O O2 0.195901 0.666842 0.778462
O O3 0.146397 0.715765 0.553562
O O4 0.000000 0.692426 0.712948
O O5 0.154479 0.100337 0.692764
O O6 0.163146 0.119079 0.939085
O O7 0.500000 0.925801 0.454157
O O8 0.643198 0.860389 0.350880
O O9 0.697933 0.929506 0.534576
O O10 0.632373 0.000000 0.353061
O O11 0.500000 0.783125 0.397638
O O12 0.656136 0.724275 0.325187
O O13 0.139331 0.883836 0.442029
O O14 0.142566 0.000000 0.538659
O O15 0.500000 0.345405 0.287310
O O16 0.656775 0.392248 0.188808
O O17 0.500000 0.423984 0.049330
O O18 0.347013 0.500000 0.046265
#
# Coordination Sequence:
#
# PCOD9349229 Si02
#       7
#     8   8   8   8   8   8   8
#     4  10  20  35  57  84 119 155 195 253 308 351
#     4  11  21  35  59  86 118 156 198 248 303 362
#     4   9  18  32  50  79 118 153 186 235 302 362
#     4   9  16  31  56  83 110 148 193 243 295 349
#     4  11  21  32  53  85 114 148 196 246 296 356
#     4  10  21  37  58  84 115 154 195 245 302 358
#     4  10  22  41  61  83 119 163 202 247 309 374
#
# _framework density 19.583600000000001
#
# number of rings (size 3 to 8) (size 9 to 14) (size 15 to 20)
#    0.000    2.000    2.857    1.286    0.000    2.000 
#    0.000    2.857    0.000    3.857    0.000    0.000 
#    0.000    0.000    0.000    0.571    0.000    0.000 
#
# Total GULP energy -156098.654496 kJ/mol
# GULP energy per Si atom -5574.951946 kJ/mol
# Density = 1.953903 g / cm^3
# Si number density = 19.583600 Si / 1000 Ang^3
#
#
#
# Elastic Constant Matrix: (Units=GPa)
#
#
# Indices 1 2 3 4 5 6 
#
# 1 45.7509 20.6220 19.3588 0.0000 0.0000 0.0000
# 2 20.6220 170.9313 31.1013 0.0000 0.0000 0.0000
# 3 19.3588 31.1013 54.7456 0.0000 0.0000 0.0000
# 4 0.0000 0.0000 0.0000 0.8674 0.0000 0.0000
# 5 0.0000 0.0000 0.0000 0.0000 20.0317 0.0000
# 6 0.0000 0.0000 0.0000 0.0000 0.0000 24.9954
#
#
#
# Elastic Compliance Matrix: (Units=1/GPa)
#
#
# Indices 1 2 3 4 5 6 
#
# 1 0.026109 -0.001640 -0.008301 0.000000 0.000000 0.000000
# 2 -0.001640 0.006628 -0.003185 0.000000 0.000000 0.000000
# 3 -0.008301 -0.003185 0.023011 0.000000 0.000000 0.000000
# 4 0.000000 0.000000 0.000000 1.152915 0.000000 0.000000
# 5 0.000000 0.000000 0.000000 0.000000 0.049921 0.000000
# 6 0.000000 0.000000 0.000000 0.000000 0.000000 0.040007
#
#
# Mechanical properties :
#
#
# Convention : Reuss Voigt Hill
#
# Bulk Modulus (GPa) = 33.90305 45.95468 39.92887
# Shear Modulus (GPa) = 3.74623 22.53528 13.14075
#
# Velocity S-wave (km/s) = 1.38459 3.39591 2.59319
# Velocity P-wave (km/s) = 4.46158 6.23643 5.42212
#
# Compressibility (1/GPa) = 0.02949588
#
# Stress axis : x y z
#
# Youngs Moduli (GPa) = 38.30101 150.88180 43.45679
#
# Poissons Ratio (x) = 0.24737 0.36074
# Poissons Ratio (y) = 0.06280 0.13843
# Poissons Ratio (z) = 0.31794 0.48063
#
# Static dielectric constant tensor:
#      x y z
#    x 1.747690 0.000000 0.000000 
#    y 0.000000 1.734300 0.000000 
#    z 0.000000 0.000000 1.623560 
# 
# From -- ./inp_files/7604.got.cif
#   From: 2010.05.17/outbox.cif.g08.bks.cpg/sg35_4_cif.got.tgz:7604.got - 2010.06.03 17:29:28.
