data_PCOD9349980
_publ_section_title
;
Structure prediction by ZEFSAII (Michael W. Deem and Ramdas Pophale) SiO2 
 PCOD9349980
Probable space group: C M M 2
;
_chemical_formula_sum "Si O2"
_cell_formula_units_Z 58
_cell_length_a 25.432521
_cell_length_b 18.610068
_cell_length_c 5.510537
_cell_angle_alpha 90.000000
_cell_angle_beta 90.000000
_cell_angle_gamma 90.000000
_cell_volume 2608.142371
_symmetry_space_group_name_H-M "C M M 2"
_symmetry_group_IT_number 35
_symmetry_cell_setting 'orthorhombic'
loop_
_space_group_symop_operation_xyz
x,y,z
-x,-y,z
-x,y,z
x,-y,z
1/2+x,1/2+y,z
1/2-x,1/2-y,z
1/2-x,1/2+y,z
1/2+x,1/2-y,z
loop_
_atom_site_type_symbol
_atom_site_label
_atom_site_fract_x
_atom_site_fract_y
_atom_site_fract_z
Si Si1 0.882768 0.183998 0.088300
Si Si2 0.662035 0.079439 0.192685
Si Si3 0.803363 0.915504 0.832768
Si Si4 0.058182 0.581811 0.522560
Si Si5 0.500000 0.500000 0.557771
Si Si6 0.877447 0.674124 0.829270
Si Si7 0.221142 0.322153 0.529282
Si Si8 0.409137 0.380234 0.593916
O O1 0.905824 0.166476 0.350026
O O2 0.830224 0.134920 0.043198
O O3 0.877778 0.268997 0.046061
O O4 0.917239 0.160981 0.850848
O O5 0.606766 0.085708 0.336884
O O6 0.705433 0.131083 0.300474
O O7 0.681793 0.000000 0.220136
O O8 0.648118 0.100009 0.921308
O O9 0.755765 0.870872 0.712482
O O10 0.851472 0.914721 0.637961
O O11 0.792631 0.000000 0.892969
O O12 0.059902 0.500000 0.627670
O O13 0.069286 0.646785 0.708721
O O14 0.000000 0.589646 0.413002
O O15 0.454039 0.438133 0.561496
O O16 0.834160 0.703647 0.645262
O O17 0.250000 0.250000 0.460442
#
# Coordination Sequence:
#
# PCOD9349980 Si02
#       8
#     8   8   8   8   2   8   8   8
#     4  10  24  43  66  99 139 175 231 284 354 416
#     4  10  23  39  65 100 132 171 226 284 345 421
#     4  10  22  42  66  94 134 177 232 286 347 416
#     4   9  20  41  66  92 129 172 221 273 338 416
#     4  12  24  50  80 102 144 194 250 298 374 418
#     4  11  23  40  65  96 138 176 220 287 349 427
#     4  11  22  41  66  95 130 181 225 283 353 421
#     4  10  24  43  68 100 132 181 231 290 346 420
#
# _framework density 22.238050000000001
#
# number of rings (size 3 to 8) (size 9 to 14) (size 15 to 20)
#    0.828    0.966    2.069    0.828    6.759    4.966 
#    2.483    1.379    0.000    0.000    0.000    0.000 
#    0.000    0.000    0.000    0.000    0.000    0.000 
#
# Total GULP energy -161437.396217 kJ/mol
# GULP energy per Si atom -5566.806766 kJ/mol
# Density = 2.218744 g / cm^3
# Si number density = 22.238050 Si / 1000 Ang^3
#
#
#
# Elastic Constant Matrix: (Units=GPa)
#
#
# Indices 1 2 3 4 5 6 
#
# 1 108.3573 40.8978 16.8307 0.0000 0.0000 0.0000
# 2 40.8978 123.8019 13.7926 0.0000 0.0000 0.0000
# 3 16.8307 13.7926 60.3303 0.0000 0.0000 0.0000
# 4 0.0000 0.0000 0.0000 11.8370 0.0000 0.0000
# 5 0.0000 0.0000 0.0000 0.0000 3.7883 0.0000
# 6 0.0000 0.0000 0.0000 0.0000 0.0000 38.8143
#
#
#
# Elastic Compliance Matrix: (Units=1/GPa)
#
#
# Indices 1 2 3 4 5 6 
#
# 1 0.010836 -0.003328 -0.002262 0.000000 0.000000 0.000000
# 2 -0.003328 0.009310 -0.001200 0.000000 0.000000 0.000000
# 3 -0.002262 -0.001200 0.017481 0.000000 0.000000 0.000000
# 4 0.000000 0.000000 0.000000 0.084481 0.000000 0.000000
# 5 0.000000 0.000000 0.000000 0.000000 0.263972 0.000000
# 6 0.000000 0.000000 0.000000 0.000000 0.000000 0.025764
#
#
# Mechanical properties :
#
#
# Convention : Reuss Voigt Hill
#
# Bulk Modulus (GPa) = 41.58483 48.39243 44.98863
# Shear Modulus (GPa) = 11.53563 25.61914 18.57738
#
# Velocity S-wave (km/s) = 2.28004 3.39785 2.89344
# Velocity P-wave (km/s) = 5.06675 6.09936 5.60688
#
# Compressibility (1/GPa) = 0.02404723
#
# Stress axis : x y z
#
# Youngs Moduli (GPa) = 92.28424 107.40652 57.20523
#
# Poissons Ratio (x) = 0.35741 0.12941
# Poissons Ratio (y) = 0.30709 0.06866
# Poissons Ratio (z) = 0.20877 0.12891
#
# Static dielectric constant tensor:
#      x y z
#    x 1.804280 0.000000 0.000000 
#    y 0.000000 1.867970 0.000000 
#    z 0.000000 0.000000 1.836560 
# 
# From -- ./inp_files/3767.got.cif
#   From: 2010.05.17/outbox.cif.g08.bks.cpg/sg35_2_cif.got.tgz:3767.got - 2010.06.03 17:29:28.
