data_PCOD9349950
_publ_section_title
;
Structure prediction by ZEFSAII (Michael W. Deem and Ramdas Pophale) SiO2 
 PCOD9349950
Probable space group: C M M 2
;
_chemical_formula_sum "Si O2"
_cell_formula_units_Z 56
_cell_length_a 23.854388
_cell_length_b 8.631640
_cell_length_c 15.930437
_cell_angle_alpha 90.000000
_cell_angle_beta 90.000000
_cell_angle_gamma 90.000000
_cell_volume 3280.116639
_symmetry_space_group_name_H-M "C M M 2"
_symmetry_group_IT_number 35
_symmetry_cell_setting 'orthorhombic'
loop_
_space_group_symop_operation_xyz
x,y,z
-x,-y,z
-x,y,z
x,-y,z
1/2+x,1/2+y,z
1/2-x,1/2-y,z
1/2-x,1/2+y,z
1/2+x,1/2-y,z
loop_
_atom_site_type_symbol
_atom_site_label
_atom_site_fract_x
_atom_site_fract_y
_atom_site_fract_z
Si Si1 0.813377 0.685990 0.820490
Si Si2 0.500000 0.684905 0.227719
Si Si3 0.878741 0.313791 0.485940
Si Si4 0.500000 0.186467 0.417651
Si Si5 0.382516 0.813310 0.168762
Si Si6 0.686788 0.186578 0.005893
Si Si7 0.186300 0.184761 0.645277
Si Si8 0.812659 0.185491 0.325521
O O1 0.813087 0.500000 0.812402
O O2 0.750000 0.750000 0.822811
O O3 0.837163 0.758522 0.735437
O O4 0.835921 0.728526 0.912883
O O5 0.500000 0.500000 0.225754
O O6 0.500000 0.739082 0.325152
O O7 0.444720 0.750210 0.182959
O O8 0.874228 0.500000 0.487509
O O9 0.852440 0.246186 0.570577
O O10 0.843510 0.247983 0.408088
O O11 0.943531 0.272318 0.467727
O O12 0.500000 0.000000 0.405583
O O13 0.353536 0.764658 0.081409
O O14 0.345380 0.748448 0.244767
O O15 0.383263 0.000000 0.172619
O O16 0.750000 0.250000 0.016640
O O17 0.690922 0.000000 0.007902
O O18 0.250000 0.250000 0.635518
O O19 0.189627 0.000000 0.643844
O O20 0.750000 0.250000 0.324090
O O21 0.812506 0.000000 0.325518
#
# Coordination Sequence:
#
# PCOD9349950 Si02
#       8
#     8   4   8   4   8   8   8   8
#     4   9  16  30  51  78 109 142 179 219 266 324
#     4  12  24  38  58  81 106 141 188 233 274 322
#     4  11  22  38  58  80 106 141 181 226 273 323
#     4  10  22  40  62  79 102 139 184 227 274 324
#     4  11  22  38  57  79 109 145 184 228 274 323
#     4   9  19  33  54  82 112 144 179 221 270 324
#     4  11  21  34  53  81 113 146 180 221 271 325
#     4  12  24  37  53  79 111 145 179 220 272 327
#
# _framework density 17.072564
#
# number of rings (size 3 to 8) (size 9 to 14) (size 15 to 20)
#    0.000    1.429    1.429    6.214    0.000    3.429 
#    0.000    0.000    0.000    0.857    0.000    3.000 
#    0.000    0.000    0.000    0.000    0.000    0.000 
#
# Total GULP energy -156357.036702 kJ/mol
# GULP energy per Si atom -5584.179882 kJ/mol
# Density = 1.703371 g / cm^3
# Si number density = 17.072564 Si / 1000 Ang^3
#
#
#
# Elastic Constant Matrix: (Units=GPa)
#
#
# Indices 1 2 3 4 5 6 
#
# 1 136.2986 51.6215 91.6769 0.0000 0.0000 0.0000
# 2 51.6215 96.9113 64.5748 0.0000 0.0000 0.0000
# 3 91.6769 64.5748 200.4394 0.0000 0.0000 0.0000
# 4 0.0000 0.0000 0.0000 65.4390 0.0000 0.0000
# 5 0.0000 0.0000 0.0000 0.0000 2.9739 0.0000
# 6 0.0000 0.0000 0.0000 0.0000 0.0000 31.2467
#
#
#
# Elastic Compliance Matrix: (Units=1/GPa)
#
#
# Indices 1 2 3 4 5 6 
#
# 1 0.011369 -0.003299 -0.004137 0.000000 0.000000 0.000000
# 2 -0.003299 0.014097 -0.003032 0.000000 0.000000 0.000000
# 3 -0.004137 -0.003032 0.007858 0.000000 0.000000 0.000000
# 4 0.000000 0.000000 0.000000 0.015281 0.000000 0.000000
# 5 0.000000 0.000000 0.000000 0.000000 0.336260 0.000000
# 6 0.000000 0.000000 0.000000 0.000000 0.000000 0.032003
#
#
# Mechanical properties :
#
#
# Convention : Reuss Voigt Hill
#
# Bulk Modulus (GPa) = 80.73375 94.37728 87.55552
# Shear Modulus (GPa) = 11.31388 34.98366 23.14877
#
# Velocity S-wave (km/s) = 2.57708 4.53163 3.68626
# Velocity P-wave (km/s) = 7.49976 9.09840 8.33748
#
# Compressibility (1/GPa) = 0.01238639
#
# Stress axis : x y z
#
# Youngs Moduli (GPa) = 87.95802 70.93823 127.25560
#
# Poissons Ratio (x) = 0.23405 0.52646
# Poissons Ratio (y) = 0.29020 0.38590
# Poissons Ratio (z) = 0.36389 0.21512
#
# Static dielectric constant tensor:
#      x y z
#    x 1.515400 0.000000 0.000000 
#    y 0.000000 1.570580 0.000000 
#    z 0.000000 0.000000 1.594930 
# 
# From -- ./inp_files/17493.got.cif
#   From: 2010.05.17/outbox.cif.g08.bks.cpg/sg35_9_cif.got.tgz:17493.got - 2010.06.03 17:29:28.
