data_PCOD9349677
_publ_section_title
;
Structure prediction by ZEFSAII (Michael W. Deem and Ramdas Pophale) SiO2 
 PCOD9349677
Probable space group: C M M 2
;
_chemical_formula_sum "Si O2"
_cell_formula_units_Z 48
_cell_length_a 28.705249
_cell_length_b 16.877040
_cell_length_c 5.259277
_cell_angle_alpha 90.000000
_cell_angle_beta 90.000000
_cell_angle_gamma 90.000000
_cell_volume 2547.907419
_symmetry_space_group_name_H-M "C M M 2"
_symmetry_group_IT_number 35
_symmetry_cell_setting 'orthorhombic'
loop_
_space_group_symop_operation_xyz
x,y,z
-x,-y,z
-x,y,z
x,-y,z
1/2+x,1/2+y,z
1/2-x,1/2-y,z
1/2-x,1/2+y,z
1/2+x,1/2-y,z
loop_
_atom_site_type_symbol
_atom_site_label
_atom_site_fract_x
_atom_site_fract_y
_atom_site_fract_z
Si Si1 0.707175 0.311790 0.398770
Si Si2 0.769806 0.906281 0.906088
Si Si3 0.658159 0.093723 0.955170
Si Si4 0.873171 0.315409 0.455741
Si Si5 0.555992 0.313213 0.426675
Si Si6 0.443154 0.409054 0.927174
O O1 0.750000 0.250000 0.383323
O O2 0.715970 0.369239 0.636950
O O3 0.661987 0.258892 0.443245
O O4 0.705743 0.360736 0.137701
O O5 0.714076 0.894101 0.941771
O O6 0.778963 0.000000 0.913875
O O7 0.635548 0.137995 0.715917
O O8 0.649664 0.000000 0.941629
O O9 0.638977 0.129405 0.216924
O O10 0.923257 0.274440 0.437147
O O11 0.500000 0.310847 0.426328
O O12 0.571403 0.359705 0.173843
O O13 0.571181 0.363496 0.672790
O O14 0.500000 0.411383 0.928178
O O15 0.426971 0.500000 0.933021
#
# Coordination Sequence:
#
# PCOD9349677 Si02
#       6
#     8   8   8   8   8   8
#     4  12  21  37  57  84 114 144 185 231 272 334
#     4  11  22  38  57  82 117 154 183 224 280 331
#     4  11  22  38  60  85 110 143 189 232 274 337
#     4  12  23  37  60  86 111 147 187 230 281 329
#     4  10  21  37  56  83 114 148 189 232 278 325
#     4   9  17  33  57  81 107 145 190 229 268 322
#
# _framework density 18.838989000000002
#
# number of rings (size 3 to 8) (size 9 to 14) (size 15 to 20)
#    0.000    1.167    3.333    4.000    0.000    4.667 
#    0.000    5.000    0.000    3.000    0.000    0.000 
#    0.000    0.000    0.000    0.000    0.000    0.000 
#
# Total GULP energy -134214.519528 kJ/mol
# GULP energy per Si atom -5592.271647 kJ/mol
# Density = 1.879611 g / cm^3
# Si number density = 18.838989 Si / 1000 Ang^3
#
#
#
# Elastic Constant Matrix: (Units=GPa)
#
#
# Indices 1 2 3 4 5 6 
#
# 1 22.3196 12.9509 -6.5616 0.0000 0.0000 0.0000
# 2 12.9509 69.4719 1.0201 0.0000 0.0000 0.0000
# 3 -6.5616 1.0201 51.0350 0.0000 0.0000 0.0000
# 4 0.0000 0.0000 0.0000 6.3384 0.0000 0.0000
# 5 0.0000 0.0000 0.0000 0.0000 2.3987 0.0000
# 6 0.0000 0.0000 0.0000 0.0000 0.0000 19.4674
#
#
#
# Elastic Compliance Matrix: (Units=1/GPa)
#
#
# Indices 1 2 3 4 5 6 
#
# 1 0.052599 -0.009908 0.006961 0.000000 0.000000 0.000000
# 2 -0.009908 0.016265 -0.001599 0.000000 0.000000 0.000000
# 3 0.006961 -0.001599 0.020521 0.000000 0.000000 0.000000
# 4 0.000000 0.000000 0.000000 0.157769 0.000000 0.000000
# 5 0.000000 0.000000 0.000000 0.000000 0.416888 0.000000
# 6 0.000000 0.000000 0.000000 0.000000 0.000000 0.051368
#
#
# Mechanical properties :
#
#
# Convention : Reuss Voigt Hill
#
# Bulk Modulus (GPa) = 12.45437 17.51615 14.98526
# Shear Modulus (GPa) = 6.65542 14.66871 10.66207
#
# Velocity S-wave (km/s) = 1.88161 2.79343 2.38157
# Velocity P-wave (km/s) = 3.36837 4.44099 3.94134
#
# Compressibility (1/GPa) = 0.08029313
#
# Stress axis : x y z
#
# Youngs Moduli (GPa) = 19.01180 61.48262 48.72993
#
# Poissons Ratio (x) = 0.60915 -0.33919
# Poissons Ratio (y) = 0.18836 0.07792
# Poissons Ratio (z) = -0.13233 0.09831
#
# Static dielectric constant tensor:
#      x y z
#    x 1.691470 0.000000 0.000000 
#    y 0.000000 1.619930 0.000000 
#    z 0.000000 0.000000 1.637620 
# 
# From -- ./inp_files/1927.got.cif
#   From: 2010.05.17/outbox.cif.g08.bks.cpg/sg35_1_cif.got.tgz:1927.got - 2010.06.03 17:29:28.
