data_PCOD9349574
_publ_section_title
;
Structure prediction by ZEFSAII (Michael W. Deem and Ramdas Pophale) SiO2 
 PCOD9349574
Probable space group: C M M 2
;
_chemical_formula_sum "Si O2"
_cell_formula_units_Z 64
_cell_length_a 7.882648
_cell_length_b 19.969490
_cell_length_c 21.267282
_cell_angle_alpha 90.000000
_cell_angle_beta 90.000000
_cell_angle_gamma 90.000000
_cell_volume 3347.735186
_symmetry_space_group_name_H-M "C M M 2"
_symmetry_group_IT_number 35
_symmetry_cell_setting 'orthorhombic'
loop_
_space_group_symop_operation_xyz
x,y,z
-x,-y,z
-x,y,z
x,-y,z
1/2+x,1/2+y,z
1/2-x,1/2-y,z
1/2-x,1/2+y,z
1/2+x,1/2-y,z
loop_
_atom_site_type_symbol
_atom_site_label
_atom_site_fract_x
_atom_site_fract_y
_atom_site_fract_z
Si Si1 0.795193 0.173517 0.610950
Si Si2 0.795719 0.826256 0.753419
Si Si3 0.702697 0.173896 0.390359
Si Si4 0.298297 0.825525 0.248247
Si Si5 0.803048 0.081574 0.001415
Si Si6 0.208318 0.922447 0.864245
Si Si7 0.203030 0.076077 0.501821
Si Si8 0.296131 0.424043 0.137187
O O1 0.750000 0.250000 0.593894
O O2 0.733649 0.160525 0.682233
O O3 0.730507 0.120073 0.560380
O O4 0.000000 0.169785 0.611683
O O5 0.750000 0.750000 0.769049
O O6 0.733527 0.876623 0.806888
O O7 0.000000 0.831800 0.751834
O O8 0.500000 0.170345 0.389209
O O9 0.750000 0.250000 0.409011
O O10 0.769272 0.162569 0.319163
O O11 0.765179 0.118801 0.439126
O O12 0.500000 0.829630 0.251876
O O13 0.250000 0.750000 0.230428
O O14 0.240589 0.877212 0.195753
O O15 0.730357 0.100825 0.933451
O O16 0.000000 0.103351 0.000713
O O17 0.802529 0.000000 0.001882
O O18 0.728794 0.101291 0.069191
O O19 0.000000 0.921040 0.865875
O O20 0.256284 0.000000 0.855238
O O21 0.000000 0.071628 0.509589
O O22 0.269582 0.000000 0.499077
O O23 0.500000 0.427648 0.130459
O O24 0.233811 0.500000 0.147786
#
# Coordination Sequence:
#
# PCOD9349574 Si02
#       8
#     8   8   8   8   8   8   8   8
#     4   9  18  32  49  69  94 126 162 196 233 281
#     4   9  17  29  46  68  94 124 157 195 237 280
#     4  10  21  37  56  75  96 126 163 199 237 286
#     4  10  21  36  53  73  98 127 160 200 242 285
#     4   7  11  22  41  66  94 122 155 194 233 276
#     4   8  13  23  43  69  92 118 157 200 236 273
#     4  10  21  35  51  74 103 130 157 196 243 286
#     4   9  17  30  50  74  99 129 163 199 241 289
#
# _framework density 19.117402999999999
#
# number of rings (size 3 to 8) (size 9 to 14) (size 15 to 20)
#    0.000    3.000    0.000    2.625    0.000    4.500 
#    0.000    5.625    0.000    2.625    0.000    5.250 
#    0.000    0.000    0.000    0.000    0.000    0.000 
#
# Total GULP energy -178324.674931 kJ/mol
# GULP energy per Si atom -5572.646092 kJ/mol
# Density = 1.907389 g / cm^3
# Si number density = 19.117403 Si / 1000 Ang^3
#
#
#
# Elastic Constant Matrix: (Units=GPa)
#
#
# Indices 1 2 3 4 5 6 
#
# 1 20.5801 5.0729 7.6126 0.0000 0.0000 0.0000
# 2 5.0729 134.1367 126.8123 0.0000 0.0000 0.0000
# 3 7.6126 126.8123 170.3033 0.0000 0.0000 0.0000
# 4 0.0000 0.0000 0.0000 36.3869 0.0000 0.0000
# 5 0.0000 0.0000 0.0000 0.0000 6413.0917 0.0000
# 6 0.0000 0.0000 0.0000 0.0000 0.0000 20.9155
#
#
#
# Elastic Compliance Matrix: (Units=1/GPa)
#
#
# Indices 1 2 3 4 5 6 
#
# 1 0.049429 0.000741 -0.002762 0.000000 0.000000 0.000000
# 2 0.000741 0.025194 -0.018794 0.000000 0.000000 0.000000
# 3 -0.002762 -0.018794 0.019989 0.000000 0.000000 0.000000
# 4 0.000000 0.000000 0.000000 0.027482 0.000000 0.000000
# 5 0.000000 0.000000 0.000000 0.000000 0.000156 0.000000
# 6 0.000000 0.000000 0.000000 0.000000 0.000000 0.047812
#
#
# Mechanical properties :
#
#
# Convention : Reuss Voigt Hill
#
# Bulk Modulus (GPa) = 18.87298 67.11286 42.99292
# Shear Modulus (GPa) = 21.80053 1306.44698 664.12375
#
# Velocity S-wave (km/s) = 3.38057 26.16992 18.65868
# Velocity P-wave (km/s) = 5.01311 30.79504 22.06202
#
# Compressibility (1/GPa) = 0.05298579
#
# Stress axis : x y z
#
# Youngs Moduli (GPa) = 20.23092 39.69142 50.02634
#
# Poissons Ratio (x) = -0.02943 0.13815
# Poissons Ratio (y) = -0.01500 0.94017
# Poissons Ratio (z) = 0.05587 0.74594
#
# Static dielectric constant tensor:
#      x y z
#    x 0.431950 0.000000 0.000000 
#    y 0.000000 1.633070 0.000000 
#    z 0.000000 0.000000 1.708950 
# 
# From -- ./inp_files/18358.got.cif
#   From: 2010.05.17/outbox.cif.g08.bks.cpg/sg35_10_cif.got.tgz:18358.got - 2010.06.03 17:29:28.
