data_PCOD9349517
_publ_section_title
;
Structure prediction by ZEFSAII (Michael W. Deem and Ramdas Pophale) SiO2 
 PCOD9349517
Probable space group: C M M 2
;
_chemical_formula_sum "Si O2"
_cell_formula_units_Z 48
_cell_length_a 16.081241
_cell_length_b 8.912757
_cell_length_c 17.105171
_cell_angle_alpha 90.000000
_cell_angle_beta 90.000000
_cell_angle_gamma 90.000000
_cell_volume 2451.653255
_symmetry_space_group_name_H-M "C M M 2"
_symmetry_group_IT_number 35
_symmetry_cell_setting 'orthorhombic'
loop_
_space_group_symop_operation_xyz
x,y,z
-x,-y,z
-x,y,z
x,-y,z
1/2+x,1/2+y,z
1/2-x,1/2-y,z
1/2-x,1/2+y,z
1/2+x,1/2-y,z
loop_
_atom_site_type_symbol
_atom_site_label
_atom_site_fract_x
_atom_site_fract_y
_atom_site_fract_z
Si Si1 0.659302 0.677208 0.673830
Si Si2 0.000000 0.318638 0.094551
Si Si3 0.000000 0.820008 0.265742
Si Si4 0.097094 0.674515 0.518063
Si Si5 0.335984 0.819369 0.994766
Si Si6 0.337942 0.819261 0.349073
Si Si7 0.902730 0.674812 0.829738
O O1 0.665750 0.500000 0.675926
O O2 0.750000 0.750000 0.674453
O O3 0.615638 0.728953 0.594106
O O4 0.612967 0.735372 0.750937
O O5 0.000000 0.232912 0.176094
O O6 0.000000 0.500000 0.107055
O O7 0.916899 0.280831 0.045789
O O8 0.082950 0.751648 0.305388
O O9 0.000000 0.000000 0.273017
O O10 0.114018 0.500000 0.537596
O O11 0.149323 0.714626 0.441401
O O12 0.000000 0.686728 0.496815
O O13 0.250000 0.750000 0.023967
O O14 0.352259 0.770073 0.905099
O O15 0.330070 0.000000 0.994174
O O16 0.250000 0.750000 0.323046
O O17 0.338680 0.000000 0.339669
O O18 0.881025 0.500000 0.815300
O O19 0.000000 0.679702 0.850799
#
# Coordination Sequence:
#
# PCOD9349517 Si02
#       7
#     8   4   4   8   8   8   8
#     4  12  25  38  54  83 121 164 212 262 312 365
#     4  10  22  44  68  91 126 167 206 255 318 385
#     4  12  26  44  68  99 132 169 212 261 320 385
#     4  10  21  40  64  90 122 163 208 257 315 373
#     4  10  21  39  65  94 124 164 209 256 313 375
#     4  11  23  43  69  99 131 170 215 264 321 383
#     4  10  20  38  62  87 120 163 208 254 312 375
#
# _framework density 19.578624999999999
#
# number of rings (size 3 to 8) (size 9 to 14) (size 15 to 20)
#    0.000    1.333    1.667    4.250    0.000    8.667 
#    0.000    1.667    0.000    0.000    0.000    0.000 
#    0.000    0.000    0.000    0.000    0.000    0.000 
#
# Total GULP energy -134179.441700 kJ/mol
# GULP energy per Si atom -5590.810071 kJ/mol
# Density = 1.953406 g / cm^3
# Si number density = 19.578625 Si / 1000 Ang^3
#
#
#
# Elastic Constant Matrix: (Units=GPa)
#
#
# Indices 1 2 3 4 5 6 
#
# 1 142.5907 54.3752 59.9921 0.0000 0.0000 0.0000
# 2 54.3752 80.7261 62.5173 0.0000 0.0000 0.0000
# 3 59.9921 62.5173 114.5527 0.0000 0.0000 0.0000
# 4 0.0000 0.0000 0.0000 15.0745 0.0000 0.0000
# 5 0.0000 0.0000 0.0000 0.0000 6.2358 0.0000
# 6 0.0000 0.0000 0.0000 0.0000 0.0000 34.2926
#
#
#
# Elastic Compliance Matrix: (Units=1/GPa)
#
#
# Indices 1 2 3 4 5 6 
#
# 1 0.009888 -0.004590 -0.002674 0.000000 0.000000 0.000000
# 2 -0.004590 0.023587 -0.010469 0.000000 0.000000 0.000000
# 3 -0.002674 -0.010469 0.015843 0.000000 0.000000 0.000000
# 4 0.000000 0.000000 0.000000 0.066337 0.000000 0.000000
# 5 0.000000 0.000000 0.000000 0.000000 0.160365 0.000000
# 6 0.000000 0.000000 0.000000 0.000000 0.000000 0.029161
#
#
# Mechanical properties :
#
#
# Convention : Reuss Voigt Hill
#
# Bulk Modulus (GPa) = 72.18368 76.84876 74.51622
# Shear Modulus (GPa) = 14.48172 21.85289 18.16731
#
# Velocity S-wave (km/s) = 2.72264 3.34452 3.04948
# Velocity P-wave (km/s) = 6.84342 7.36553 7.10927
#
# Compressibility (1/GPa) = 0.01385355
#
# Stress axis : x y z
#
# Youngs Moduli (GPa) = 101.12993 42.39710 63.11935
#
# Poissons Ratio (x) = 0.19460 0.16875
# Poissons Ratio (y) = 0.46419 0.66077
# Poissons Ratio (z) = 0.27038 0.44384
#
# Static dielectric constant tensor:
#      x y z
#    x 1.685910 0.000000 0.000000 
#    y 0.000000 1.746940 0.000000 
#    z 0.000000 0.000000 1.691170 
# 
# From -- ./inp_files/17933.got.cif
#   From: 2010.05.17/outbox.cif.g08.bks.cpg/sg35_9_cif.got.tgz:17933.got - 2010.06.03 17:29:28.
