data_PCOD9349531
_publ_section_title
;
Structure prediction by ZEFSAII (Michael W. Deem and Ramdas Pophale) SiO2 
 PCOD9349531
Probable space group: C M M 2
;
_chemical_formula_sum "Si O2"
_cell_formula_units_Z 48
_cell_length_a 7.801075
_cell_length_b 18.589479
_cell_length_c 17.539827
_cell_angle_alpha 90.000000
_cell_angle_beta 90.000000
_cell_angle_gamma 90.000000
_cell_volume 2543.589227
_symmetry_space_group_name_H-M "C M M 2"
_symmetry_group_IT_number 35
_symmetry_cell_setting 'orthorhombic'
loop_
_space_group_symop_operation_xyz
x,y,z
-x,-y,z
-x,y,z
x,-y,z
1/2+x,1/2+y,z
1/2-x,1/2-y,z
1/2-x,1/2+y,z
1/2+x,1/2-y,z
loop_
_atom_site_type_symbol
_atom_site_label
_atom_site_fract_x
_atom_site_fract_y
_atom_site_fract_z
Si Si1 0.500000 0.086767 0.772590
Si Si2 0.706574 0.334476 0.865906
Si Si3 0.707863 0.582081 0.187426
Si Si4 0.205181 0.167108 0.040565
Si Si5 0.700434 0.166754 0.339949
Si Si6 0.691081 0.414857 0.488499
Si Si7 0.000000 0.412691 0.596153
O O1 0.670302 0.118599 0.812610
O O2 0.500000 0.109610 0.683828
O O3 0.500000 0.000000 0.777346
O O4 0.500000 0.345172 0.856461
O O5 0.750000 0.250000 0.853949
O O6 0.757215 0.350752 0.954131
O O7 0.500000 0.581875 0.185555
O O8 0.766269 0.500000 0.195221
O O9 0.771188 0.617290 0.108568
O O10 0.761230 0.628585 0.259961
O O11 0.250000 0.250000 0.056015
O O12 0.000000 0.161483 0.040803
O O13 0.500000 0.160487 0.356251
O O14 0.750000 0.250000 0.335593
O O15 0.794243 0.127216 0.409346
O O16 0.500000 0.406412 0.520079
O O17 0.718998 0.500000 0.473079
O O18 0.833335 0.389921 0.548460
O O19 0.000000 0.500000 0.596960
#
# Coordination Sequence:
#
# PCOD9349531 Si02
#       7
#     4   8   8   8   8   8   4
#     4  11  24  40  64  99 132 162 207 265 320 374
#     4  10  20  39  66  91 126 170 215 256 314 384
#     4  10  21  37  55  81 118 156 198 245 297 352
#     4   9  19  34  57  84 113 156 202 250 297 355
#     4  12  24  38  57  82 117 154 198 251 296 354
#     4  10  20  38  65  90 116 155 199 242 297 361
#     4   9  20  40  62  89 125 158 195 245 301 368
#
# _framework density 18.870971000000001
#
# number of rings (size 3 to 8) (size 9 to 14) (size 15 to 20)
#    0.000    1.833    1.667    2.500    1.167    6.000 
#    0.000    4.167    0.000    0.000    0.000    0.000 
#    0.000    0.000    0.000    0.000    0.000    0.000 
#
# Total GULP energy -134011.364714 kJ/mol
# GULP energy per Si atom -5583.806863 kJ/mol
# Density = 1.882802 g / cm^3
# Si number density = 18.870971 Si / 1000 Ang^3
#
#
#
# Elastic Constant Matrix: (Units=GPa)
#
#
# Indices 1 2 3 4 5 6 
#
# 1 100.8165 43.7480 57.2488 0.0000 0.0000 0.0000
# 2 43.7480 91.6368 77.9174 0.0000 0.0000 0.0000
# 3 57.2488 77.9174 152.1610 0.0000 0.0000 0.0000
# 4 0.0000 0.0000 0.0000 18.7094 0.0000 0.0000
# 5 0.0000 0.0000 0.0000 0.0000 -50.3855 0.0000
# 6 0.0000 0.0000 0.0000 0.0000 0.0000 15.3203
#
#
#
# Elastic Compliance Matrix: (Units=1/GPa)
#
#
# Indices 1 2 3 4 5 6 
#
# 1 0.013289 -0.003707 -0.003102 0.000000 0.000000 0.000000
# 2 -0.003707 0.020362 -0.009032 0.000000 0.000000 0.000000
# 3 -0.003102 -0.009032 0.012364 0.000000 0.000000 0.000000
# 4 0.000000 0.000000 0.000000 0.053449 0.000000 0.000000
# 5 0.000000 0.000000 0.000000 0.000000 -0.019847 0.000000
# 6 0.000000 0.000000 0.000000 0.000000 0.000000 0.065273
#
#
# Mechanical properties :
#
#
# Convention : Reuss Voigt Hill
#
# Bulk Modulus (GPa) = 69.76571 78.04916 73.90744
# Shear Modulus (GPa) = 27.57100 7.77550 17.67325
#
# Velocity S-wave (km/s) = 3.82648 2.03207 3.06360
# Velocity P-wave (km/s) = 7.52149 6.85236 7.19471
#
# Compressibility (1/GPa) = 0.01433369
#
# Stress axis : x y z
#
# Youngs Moduli (GPa) = 75.25127 49.11007 80.87945
#
# Poissons Ratio (x) = 0.18205 0.25085
# Poissons Ratio (y) = 0.27896 0.73053
# Poissons Ratio (z) = 0.23339 0.44358
#
# Static dielectric constant tensor:
#      x y z
#    x 1.672970 0.000000 0.000000 
#    y 0.000000 1.618090 0.000000 
#    z 0.000000 0.000000 1.631760 
# 
# From -- ./inp_files/15181.got.cif
#   From: 2010.05.17/outbox.cif.g08.bks.cpg/sg35_8_cif.got.tgz:15181.got - 2010.06.03 17:29:28.
