data_PCOD9349626
_publ_section_title
;
Structure prediction by ZEFSAII (Michael W. Deem and Ramdas Pophale) SiO2 
 PCOD9349626
Probable space group: C M M 2
;
_chemical_formula_sum "Si O2"
_cell_formula_units_Z 56
_cell_length_a 8.619770
_cell_length_b 19.787646
_cell_length_c 18.197819
_cell_angle_alpha 90.000000
_cell_angle_beta 90.000000
_cell_angle_gamma 90.000000
_cell_volume 3103.910222
_symmetry_space_group_name_H-M "C M M 2"
_symmetry_group_IT_number 35
_symmetry_cell_setting 'orthorhombic'
loop_
_space_group_symop_operation_xyz
x,y,z
-x,-y,z
-x,y,z
x,-y,z
1/2+x,1/2+y,z
1/2-x,1/2-y,z
1/2-x,1/2+y,z
1/2+x,1/2-y,z
loop_
_atom_site_type_symbol
_atom_site_label
_atom_site_fract_x
_atom_site_fract_y
_atom_site_fract_z
Si Si1 0.815111 0.920375 0.873550
Si Si2 0.812065 0.421604 0.284567
Si Si3 0.814851 0.824531 0.159441
Si Si4 0.187353 0.675603 0.583879
Si Si5 0.684557 0.176451 0.997304
Si Si6 0.812782 0.675368 0.416507
Si Si7 0.687193 0.078657 0.715146
O O1 0.733390 0.877461 0.936518
O O2 0.759978 0.898932 0.792354
O O3 0.000000 0.912665 0.879637
O O4 0.776834 0.000000 0.880990
O O5 0.763755 0.500000 0.285588
O O6 0.746341 0.380396 0.215680
O O7 0.763752 0.380630 0.357677
O O8 0.000000 0.420132 0.281175
O O9 0.750000 0.750000 0.179295
O O10 0.000000 0.821874 0.160425
O O11 0.756420 0.839675 0.077033
O O12 0.250000 0.750000 0.600725
O O13 0.236104 0.658873 0.500212
O O14 0.238251 0.623086 0.645918
O O15 0.000000 0.676944 0.584444
O O16 0.500000 0.180184 0.004424
O O17 0.750000 0.250000 0.975937
O O18 0.750000 0.750000 0.397914
O O19 0.000000 0.678512 0.415285
O O20 0.500000 0.083032 0.721142
O O21 0.727790 0.000000 0.703809
#
# Coordination Sequence:
#
# PCOD9349626 Si02
#       7
#     8   8   8   8   8   8   8
#     4  10  21  37  56  79 109 144 181 220 265 318
#     4  10  21  36  54  79 110 142 179 222 267 316
#     4  11  22  38  59  81 108 141 178 218 264 318
#     4   9  18  32  51  76 104 135 174 220 267 315
#     4  11  22  38  60  84 110 139 176 220 266 316
#     4   9  18  33  53  76 103 138 177 218 266 318
#     4   9  18  33  52  74 102 138 179 220 264 316
#
# _framework density 18.041758999999999
#
# number of rings (size 3 to 8) (size 9 to 14) (size 15 to 20)
#    0.000    2.143    0.000    4.286    0.000    5.143 
#    0.000    4.286    0.000    0.000    0.000    6.000 
#    0.000    0.000    0.000    0.000    0.000    0.000 
#
# Total GULP energy -156328.624826 kJ/mol
# GULP energy per Si atom -5583.165172 kJ/mol
# Density = 1.800069 g / cm^3
# Si number density = 18.041759 Si / 1000 Ang^3
#
#
#
# Elastic Constant Matrix: (Units=GPa)
#
#
# Indices 1 2 3 4 5 6 
#
# 1 50.0398 43.6439 42.9625 0.0000 0.0000 0.0000
# 2 43.6439 126.5265 110.8801 0.0000 0.0000 0.0000
# 3 42.9625 110.8801 130.2383 0.0000 0.0000 0.0000
# 4 0.0000 0.0000 0.0000 67.1330 0.0000 0.0000
# 5 0.0000 0.0000 0.0000 0.0000 20.7724 0.0000
# 6 0.0000 0.0000 0.0000 0.0000 0.0000 26.9616
#
#
#
# Elastic Compliance Matrix: (Units=1/GPa)
#
#
# Indices 1 2 3 4 5 6 
#
# 1 0.029144 -0.006411 -0.004156 0.000000 0.000000 0.000000
# 2 -0.006411 0.032536 -0.025586 0.000000 0.000000 0.000000
# 3 -0.004156 -0.025586 0.030832 0.000000 0.000000 0.000000
# 4 0.000000 0.000000 0.000000 0.014896 0.000000 0.000000
# 5 0.000000 0.000000 0.000000 0.000000 0.048141 0.000000
# 6 0.000000 0.000000 0.000000 0.000000 0.000000 0.037090
#
#
# Mechanical properties :
#
#
# Convention : Reuss Voigt Hill
#
# Bulk Modulus (GPa) = 49.48697 77.97530 63.73114
# Shear Modulus (GPa) = 18.40413 30.26127 24.33270
#
# Velocity S-wave (km/s) = 3.19734 4.09992 3.67643
# Velocity P-wave (km/s) = 6.41244 8.10713 7.30907
#
# Compressibility (1/GPa) = 0.02020734
#
# Stress axis : x y z
#
# Youngs Moduli (GPa) = 34.31287 30.73480 32.43411
#
# Poissons Ratio (x) = 0.19703 0.13479
# Poissons Ratio (y) = 0.21997 0.82984
# Poissons Ratio (z) = 0.14260 0.78637
#
# Static dielectric constant tensor:
#      x y z
#    x 1.610490 0.000000 0.000000 
#    y 0.000000 1.591970 0.000000 
#    z 0.000000 0.000000 1.608210 
# 
# From -- ./inp_files/15597.got.cif
#   From: 2010.05.17/outbox.cif.g08.bks.cpg/sg35_8_cif.got.tgz:15597.got - 2010.06.03 17:29:28.
