data_PCOD9349870
_publ_section_title
;
Structure prediction by ZEFSAII (Michael W. Deem and Ramdas Pophale) SiO2 
 PCOD9349870
Probable space group: C M M 2
;
_chemical_formula_sum "Si O2"
_cell_formula_units_Z 32
_cell_length_a 24.258588
_cell_length_b 8.686606
_cell_length_c 7.890680
_cell_angle_alpha 90.000000
_cell_angle_beta 90.000000
_cell_angle_gamma 90.000000
_cell_volume 1662.761934
_symmetry_space_group_name_H-M "C M M 2"
_symmetry_group_IT_number 35
_symmetry_cell_setting 'orthorhombic'
loop_
_space_group_symop_operation_xyz
x,y,z
-x,-y,z
-x,y,z
x,-y,z
1/2+x,1/2+y,z
1/2-x,1/2-y,z
1/2-x,1/2+y,z
1/2+x,1/2-y,z
loop_
_atom_site_type_symbol
_atom_site_label
_atom_site_fract_x
_atom_site_fract_y
_atom_site_fract_z
Si Si1 0.000000 0.313240 0.657370
Si Si2 0.188580 0.684730 0.857084
Si Si3 0.616563 0.316814 0.164282
Si Si4 0.000000 0.314714 0.054484
Si Si5 0.618779 0.814163 0.522990
O O1 0.056359 0.263016 0.568466
O O2 0.000000 0.500000 0.653723
O O3 0.000000 0.270370 0.855445
O O4 0.189411 0.500000 0.870360
O O5 0.250000 0.750000 0.856587
O O6 0.157181 0.724771 0.682483
O O7 0.154331 0.751168 0.014401
O O8 0.615238 0.500000 0.155723
O O9 0.555229 0.249519 0.138001
O O10 0.636884 0.261237 0.347854
O O11 0.000000 0.500000 0.066474
O O12 0.618522 0.000000 0.504288
#
# Coordination Sequence:
#
# PCOD9349870 Si02
#       5
#     4   8   8   4   8
#     4   9  17  35  64  93 119 158 205 252 306 369
#     4  11  24  44  68  92 122 165 214 264 315 368
#     4  12  25  40  62  97 133 166 206 256 315 375
#     4  11  20  39  66  93 127 168 211 254 312 375
#     4  10  21  40  66  93 123 165 212 255 310 375
#
# _framework density 19.245087999999999
#
# number of rings (size 3 to 8) (size 9 to 14) (size 15 to 20)
#    0.000    1.250    2.500    4.125    0.000    4.000 
#    0.000    2.500    0.000    0.000    0.000    0.000 
#    0.000    0.000    0.000    0.000    0.000    0.000 
#
# Total GULP energy -89493.002315 kJ/mol
# GULP energy per Si atom -5593.312645 kJ/mol
# Density = 1.920129 g / cm^3
# Si number density = 19.245088 Si / 1000 Ang^3
#
#
#
# Elastic Constant Matrix: (Units=GPa)
#
#
# Indices 1 2 3 4 5 6 
#
# 1 153.7824 58.7589 84.3009 0.0000 0.0000 0.0000
# 2 58.7589 84.7891 78.2183 0.0000 0.0000 0.0000
# 3 84.3009 78.2183 192.7571 0.0000 0.0000 0.0000
# 4 0.0000 0.0000 0.0000 12.4863 0.0000 0.0000
# 5 0.0000 0.0000 0.0000 0.0000 -4.3267 0.0000
# 6 0.0000 0.0000 0.0000 0.0000 0.0000 24.9082
#
#
#
# Elastic Compliance Matrix: (Units=1/GPa)
#
#
# Indices 1 2 3 4 5 6 
#
# 1 0.009474 -0.004384 -0.002364 0.000000 0.000000 0.000000
# 2 -0.004384 0.020880 -0.006555 0.000000 0.000000 0.000000
# 3 -0.002364 -0.006555 0.008882 0.000000 0.000000 0.000000
# 4 0.000000 0.000000 0.000000 0.080087 0.000000 0.000000
# 5 0.000000 0.000000 0.000000 0.000000 -0.231121 0.000000
# 6 0.000000 0.000000 0.000000 0.000000 0.000000 0.040147
#
#
# Mechanical properties :
#
#
# Convention : Reuss Voigt Hill
#
# Bulk Modulus (GPa) = 79.19085 97.09830 88.14458
# Shear Modulus (GPa) = -122.44892 20.61692 -50.91600
#
# Velocity S-wave (km/s) = -7.98525 3.27660 -5.14918
# Velocity P-wave (km/s) = 6.61672 8.05468 3.24783
#
# Compressibility (1/GPa) = 0.01262772
#
# Stress axis : x y z
#
# Youngs Moduli (GPa) = 105.55219 47.89380 112.58941
#
# Poissons Ratio (x) = 0.20999 0.26619
# Poissons Ratio (y) = 0.46279 0.73804
# Poissons Ratio (z) = 0.24955 0.31395
#
# Static dielectric constant tensor:
#      x y z
#    x 1.568050 0.000000 0.000000 
#    y 0.000000 1.645530 0.000000 
#    z 0.000000 0.000000 1.663280 
# 
# From -- ./inp_files/9602.got.cif
#   From: 2010.05.17/outbox.cif.g08.bks.cpg/sg35_5_cif.got.tgz:9602.got - 2010.06.03 17:29:28.
