data_PCOD9349551
_publ_section_title
;
Structure prediction by ZEFSAII (Michael W. Deem and Ramdas Pophale) SiO2 
 PCOD9349551
Probable space group: C M M 2
;
_chemical_formula_sum "Si O2"
_cell_formula_units_Z 48
_cell_length_a 36.283111
_cell_length_b 7.891649
_cell_length_c 7.995231
_cell_angle_alpha 90.000000
_cell_angle_beta 90.000000
_cell_angle_gamma 90.000000
_cell_volume 2289.303088
_symmetry_space_group_name_H-M "C M M 2"
_symmetry_group_IT_number 35
_symmetry_cell_setting 'orthorhombic'
loop_
_space_group_symop_operation_xyz
x,y,z
-x,-y,z
-x,y,z
x,-y,z
1/2+x,1/2+y,z
1/2-x,1/2-y,z
1/2-x,1/2+y,z
1/2+x,1/2-y,z
loop_
_atom_site_type_symbol
_atom_site_label
_atom_site_fract_x
_atom_site_fract_y
_atom_site_fract_z
Si Si1 0.657105 0.297292 0.488830
Si Si2 0.000000 0.692036 0.977971
Si Si3 0.342408 0.798839 0.099336
Si Si4 0.292647 0.297807 0.791456
Si Si5 0.500000 0.297725 0.615399
Si Si6 0.423255 0.703729 0.435556
Si Si7 0.921516 0.307068 0.064422
O O1 0.659532 0.500000 0.495732
O O2 0.664185 0.253629 0.292801
O O3 0.684773 0.228697 0.629962
O O4 0.614552 0.251656 0.530833
O O5 0.000000 0.689091 0.780498
O O6 0.000000 0.500000 0.051864
O O7 0.039183 0.776140 0.021901
O O8 0.381547 0.727017 0.027569
O O9 0.347386 0.000000 0.104673
O O10 0.310834 0.758292 0.966540
O O11 0.295281 0.500000 0.787848
O O12 0.250000 0.250000 0.781850
O O13 0.500000 0.500000 0.654603
O O14 0.537810 0.262032 0.519594
O O15 0.421813 0.500000 0.401301
O O16 0.421332 0.805119 0.264331
O O17 0.922805 0.500000 0.996279
#
# Coordination Sequence:
#
# PCOD9349551 Si02
#       7
#     8   4   8   8   4   8   8
#     4   9  20  39  61  85 116 155 196 238 290 346
#     4  10  21  34  48  74 112 150 189 230 276 328
#     4  10  21  38  61  89 120 154 195 241 290 344
#     4  11  24  41  63  89 118 152 190 235 291 351
#     4  10  21  32  48  78 112 144 187 234 278 328
#     4   9  18  34  54  78 107 142 186 234 280 330
#     4   9  19  35  54  78 108 147 191 233 276 329
#
# _framework density 20.967078999999998
#
# number of rings (size 3 to 8) (size 9 to 14) (size 15 to 20)
#    0.000    2.333    0.000    1.500    2.333    4.000 
#    0.000    1.667    0.000    0.000    0.000    0.000 
#    0.000    0.000    0.000    0.000    0.000    0.000 
#
# Total GULP energy -133756.003692 kJ/mol
# GULP energy per Si atom -5573.166821 kJ/mol
# Density = 2.091936 g / cm^3
# Si number density = 20.967079 Si / 1000 Ang^3
#
#
#
# Elastic Constant Matrix: (Units=GPa)
#
#
# Indices 1 2 3 4 5 6 
#
# 1 194.7649 17.1802 80.0535 0.0000 0.0000 0.0000
# 2 17.1802 22.4603 6.5720 0.0000 0.0000 0.0000
# 3 80.0535 6.5720 79.7200 0.0000 0.0000 0.0000
# 4 0.0000 0.0000 0.0000 21.2815 0.0000 0.0000
# 5 0.0000 0.0000 0.0000 0.0000 41.7943 0.0000
# 6 0.0000 0.0000 0.0000 0.0000 0.0000 -6.2545
#
#
#
# Elastic Compliance Matrix: (Units=1/GPa)
#
#
# Indices 1 2 3 4 5 6 
#
# 1 0.009152 -0.004418 -0.008826 0.000000 0.000000 0.000000
# 2 -0.004418 0.047756 0.000499 0.000000 0.000000 0.000000
# 3 -0.008826 0.000499 0.021365 0.000000 0.000000 0.000000
# 4 0.000000 0.000000 0.000000 0.046989 0.000000 0.000000
# 5 0.000000 0.000000 0.000000 0.000000 0.023927 0.000000
# 6 0.000000 0.000000 0.000000 0.000000 0.000000 -0.159884
#
#
# Mechanical properties :
#
#
# Convention : Reuss Voigt Hill
#
# Bulk Modulus (GPa) = 18.94490 56.06186 37.50338
# Shear Modulus (GPa) = 154.37692 24.24023 89.30857
#
# Velocity S-wave (km/s) = 8.59000 3.40385 6.53354
# Velocity P-wave (km/s) = 10.36529 6.49956 8.65112
#
# Compressibility (1/GPa) = 0.05278466
#
# Stress axis : x y z
#
# Youngs Moduli (GPa) = 109.26899 20.93975 46.80448
#
# Poissons Ratio (x) = 0.09251 0.41309
# Poissons Ratio (y) = 0.48273 -0.02337
# Poissons Ratio (z) = 0.96439 -0.01045
#
# Static dielectric constant tensor:
#      x y z
#    x 1.911250 0.000000 0.000000 
#    y 0.000000 1.783600 0.000000 
#    z 0.000000 0.000000 1.720640 
# 
# From -- ./inp_files/5423.got.cif
#   From: 2010.05.17/outbox.cif.g08.bks.cpg/sg35_3_cif.got.tgz:5423.got - 2010.06.03 17:29:28.
