data_PCOD9349733
_publ_section_title
;
Structure prediction by ZEFSAII (Michael W. Deem and Ramdas Pophale) SiO2 
 PCOD9349733
Probable space group: C M M 2
;
_chemical_formula_sum "Si O2"
_cell_formula_units_Z 34
_cell_length_a 8.960734
_cell_length_b 19.621909
_cell_length_c 10.205471
_cell_angle_alpha 90.000000
_cell_angle_beta 90.000000
_cell_angle_gamma 90.000000
_cell_volume 1794.394361
_symmetry_space_group_name_H-M "C M M 2"
_symmetry_group_IT_number 35
_symmetry_cell_setting 'orthorhombic'
loop_
_space_group_symop_operation_xyz
x,y,z
-x,-y,z
-x,y,z
x,-y,z
1/2+x,1/2+y,z
1/2-x,1/2-y,z
1/2-x,1/2+y,z
1/2+x,1/2-y,z
loop_
_atom_site_type_symbol
_atom_site_label
_atom_site_fract_x
_atom_site_fract_y
_atom_site_fract_z
Si Si1 0.820568 0.178204 0.756740
Si Si2 0.176595 0.321238 0.199311
Si Si3 0.165616 0.858512 0.462685
Si Si4 0.180014 0.079392 0.991832
Si Si5 0.500000 0.500000 0.452770
O O1 0.750000 0.250000 0.795303
O O2 0.779164 0.160052 0.607503
O O3 0.779605 0.118914 0.858448
O O4 0.000000 0.183547 0.759659
O O5 0.250000 0.250000 0.156073
O O6 0.226795 0.334972 0.348217
O O7 0.000000 0.317708 0.186092
O O8 0.243405 0.381499 0.110907
O O9 0.127434 0.938846 0.454993
O O10 0.000000 0.825171 0.442775
O O11 0.000000 0.083410 0.008292
O O12 0.220112 0.000000 0.986616
#
# Coordination Sequence:
#
# PCOD9349733 Si02
#       5
#     8   8   8   8   2
#     4  10  21  37  61  91 120 156 201 248 298 355
#     4  12  25  41  61  88 122 159 205 251 301 356
#     4   9  20  37  64  91 120 156 197 242 298 356
#     4  10  23  40  63  88 120 160 203 247 304 363
#     4   8  20  36  66  90 128 152 200 238 312 344
#
# _framework density 18.947897999999999
#
# number of rings (size 3 to 8) (size 9 to 14) (size 15 to 20)
#    0.706    1.176    0.000    3.529    3.294    6.118 
#    0.000    0.000    0.000    0.000    0.000    0.000 
#    0.000    0.000    0.000    0.000    0.000    0.000 
#
# Total GULP energy -94637.895193 kJ/mol
# GULP energy per Si atom -5566.935011 kJ/mol
# Density = 1.890477 g / cm^3
# Si number density = 18.947898 Si / 1000 Ang^3
#
#
#
# Elastic Constant Matrix: (Units=GPa)
#
#
# Indices 1 2 3 4 5 6 
#
# 1 47.4743 56.7544 54.8120 0.0000 0.0000 0.0000
# 2 56.7544 174.7797 69.0003 0.0000 0.0000 0.0000
# 3 54.8120 69.0003 131.7353 0.0000 0.0000 0.0000
# 4 0.0000 0.0000 0.0000 18.7992 0.0000 0.0000
# 5 0.0000 0.0000 0.0000 0.0000 1.4192 0.0000
# 6 0.0000 0.0000 0.0000 0.0000 0.0000 30.3645
#
#
#
# Elastic Compliance Matrix: (Units=1/GPa)
#
#
# Indices 1 2 3 4 5 6 
#
# 1 0.052645 -0.010649 -0.016326 0.000000 0.000000 0.000000
# 2 -0.010649 0.009367 -0.000475 0.000000 0.000000 0.000000
# 3 -0.016326 -0.000475 0.014633 0.000000 0.000000 0.000000
# 4 0.000000 0.000000 0.000000 0.053194 0.000000 0.000000
# 5 0.000000 0.000000 0.000000 0.000000 0.704647 0.000000
# 6 0.000000 0.000000 0.000000 0.000000 0.000000 0.032933
#
#
# Mechanical properties :
#
#
# Convention : Reuss Voigt Hill
#
# Bulk Modulus (GPa) = 45.99216 79.45805 62.72511
# Shear Modulus (GPa) = 5.37883 21.67806 13.52845
#
# Velocity S-wave (km/s) = 1.68669 3.38611 2.67494
# Velocity P-wave (km/s) = 5.30272 7.57058 6.53577
#
# Compressibility (1/GPa) = 0.02174284
#
# Stress axis : x y z
#
# Youngs Moduli (GPa) = 18.99509 106.75486 68.33855
#
# Poissons Ratio (x) = 1.13688 1.11573
# Poissons Ratio (y) = 0.20229 0.03249
# Poissons Ratio (z) = 0.31012 0.05075
#
# Static dielectric constant tensor:
#      x y z
#    x 1.634270 0.000000 0.000000 
#    y 0.000000 1.635240 0.000000 
#    z 0.000000 0.000000 1.670270 
# 
# From -- ./inp_files/4657.got.cif
#   From: 2010.05.17/outbox.cif.g08.bks.cpg/sg35_3_cif.got.tgz:4657.got - 2010.06.03 17:29:28.
