data_PCOD9349559
_publ_section_title
;
Structure prediction by ZEFSAII (Michael W. Deem and Ramdas Pophale) SiO2 
 PCOD9349559
Probable space group: C M M 2
;
_chemical_formula_sum "Si O2"
_cell_formula_units_Z 48
_cell_length_a 15.853885
_cell_length_b 8.591736
_cell_length_c 18.051106
_cell_angle_alpha 90.000000
_cell_angle_beta 90.000000
_cell_angle_gamma 90.000000
_cell_volume 2458.784372
_symmetry_space_group_name_H-M "C M M 2"
_symmetry_group_IT_number 35
_symmetry_cell_setting 'orthorhombic'
loop_
_space_group_symop_operation_xyz
x,y,z
-x,-y,z
-x,y,z
x,-y,z
1/2+x,1/2+y,z
1/2-x,1/2-y,z
1/2-x,1/2+y,z
1/2+x,1/2-y,z
loop_
_atom_site_type_symbol
_atom_site_label
_atom_site_fract_x
_atom_site_fract_y
_atom_site_fract_z
Si Si1 0.343795 0.688010 0.450930
Si Si2 0.000000 0.813673 0.022706
Si Si3 0.843847 0.315123 0.759549
Si Si4 0.153791 0.687964 0.925155
Si Si5 0.346776 0.312137 0.287317
Si Si6 0.598495 0.327284 0.608227
Si Si7 0.500000 0.813682 0.189360
O O1 0.349520 0.500000 0.455278
O O2 0.250000 0.750000 0.444632
O O3 0.380442 0.730618 0.370441
O O4 0.373450 0.748729 0.530860
O O5 0.000000 0.748507 0.105731
O O6 0.915737 0.753715 0.980999
O O7 0.000000 0.000000 0.023222
O O8 0.843234 0.500000 0.759279
O O9 0.750000 0.250000 0.754667
O O10 0.874986 0.266495 0.841236
O O11 0.887877 0.258516 0.685234
O O12 0.155865 0.500000 0.930008
O O13 0.250000 0.750000 0.936128
O O14 0.343279 0.500000 0.282713
O O15 0.250000 0.250000 0.277512
O O16 0.415285 0.247441 0.230094
O O17 0.500000 0.345651 0.598769
O O18 0.638934 0.500000 0.615186
O O19 0.500000 0.000000 0.190270
#
# Coordination Sequence:
#
# PCOD9349559 Si02
#       7
#     8   4   8   8   8   8   4
#     4   9  19  35  57  81 113 154 198 246 298 351
#     4  12  26  44  68  97 126 161 202 247 308 373
#     4  10  21  37  58  82 114 154 199 246 297 350
#     4  10  22  42  66  94 127 164 206 255 308 366
#     4  10  21  40  66  94 126 164 207 255 309 368
#     4  10  21  34  51  80 117 157 200 245 295 348
#     4  12  26  44  66  95 128 161 202 251 306 369
#
# _framework density 19.521841999999999
#
# number of rings (size 3 to 8) (size 9 to 14) (size 15 to 20)
#    0.000    1.833    0.000    3.500    2.333    5.667 
#    0.000    3.333    0.000    0.000    0.000    0.000 
#    0.000    0.000    0.000    0.000    0.000    0.000 
#
# Total GULP energy -133791.826934 kJ/mol
# GULP energy per Si atom -5574.659456 kJ/mol
# Density = 1.947741 g / cm^3
# Si number density = 19.521842 Si / 1000 Ang^3
#
#
#
# Elastic Constant Matrix: (Units=GPa)
#
#
# Indices 1 2 3 4 5 6 
#
# 1 88.3474 34.9991 87.0314 0.0000 0.0000 0.0000
# 2 34.9991 74.2769 56.0069 0.0000 0.0000 0.0000
# 3 87.0314 56.0069 201.0475 0.0000 0.0000 0.0000
# 4 0.0000 0.0000 0.0000 33.4358 0.0000 0.0000
# 5 0.0000 0.0000 0.0000 0.0000 45.1159 0.0000
# 6 0.0000 0.0000 0.0000 0.0000 0.0000 29.0264
#
#
#
# Elastic Compliance Matrix: (Units=1/GPa)
#
#
# Indices 1 2 3 4 5 6 
#
# 1 0.020533 -0.003763 -0.007840 0.000000 0.000000 0.000000
# 2 -0.003763 0.017733 -0.003311 0.000000 0.000000 0.000000
# 3 -0.007840 -0.003311 0.009290 0.000000 0.000000 0.000000
# 4 0.000000 0.000000 0.000000 0.029908 0.000000 0.000000
# 5 0.000000 0.000000 0.000000 0.000000 0.022165 0.000000
# 6 0.000000 0.000000 0.000000 0.000000 0.000000 0.034451
#
#
# Mechanical properties :
#
#
# Convention : Reuss Voigt Hill
#
# Bulk Modulus (GPa) = 56.40979 79.97183 68.19081
# Shear Modulus (GPa) = 29.44307 33.89123 31.66715
#
# Velocity S-wave (km/s) = 3.88778 4.17113 4.03195
# Velocity P-wave (km/s) = 7.00797 8.01574 7.52873
#
# Compressibility (1/GPa) = 0.01772742
#
# Stress axis : x y z
#
# Youngs Moduli (GPa) = 48.70128 56.39241 107.64008
#
# Poissons Ratio (x) = 0.21223 0.84393
# Poissons Ratio (y) = 0.18329 0.35637
# Poissons Ratio (z) = 0.38183 0.18670
#
# Static dielectric constant tensor:
#      x y z
#    x 1.648760 0.000000 0.000000 
#    y 0.000000 1.717200 0.000000 
#    z 0.000000 0.000000 1.753270 
# 
# From -- ./inp_files/18785.got.cif
#   From: 2010.05.17/outbox.cif.g08.bks.cpg/sg35_10_cif.got.tgz:18785.got - 2010.06.03 17:29:28.
