data_PCOD9349925
_publ_section_title
;
Structure prediction by ZEFSAII (Michael W. Deem and Ramdas Pophale) SiO2 
 PCOD9349925
Probable space group: C M M 2
;
_chemical_formula_sum "Si O2"
_cell_formula_units_Z 48
_cell_length_a 7.510597
_cell_length_b 14.875489
_cell_length_c 16.906226
_cell_angle_alpha 90.000000
_cell_angle_beta 90.000000
_cell_angle_gamma 90.000000
_cell_volume 1888.827864
_symmetry_space_group_name_H-M "C M M 2"
_symmetry_group_IT_number 35
_symmetry_cell_setting 'orthorhombic'
loop_
_space_group_symop_operation_xyz
x,y,z
-x,-y,z
-x,y,z
x,-y,z
1/2+x,1/2+y,z
1/2-x,1/2-y,z
1/2-x,1/2+y,z
1/2+x,1/2-y,z
loop_
_atom_site_type_symbol
_atom_site_label
_atom_site_fract_x
_atom_site_fract_y
_atom_site_fract_z
Si Si1 0.750000 0.250000 0.493860
Si Si2 0.712732 0.104394 0.798796
Si Si3 0.792747 0.599281 0.385994
Si Si4 0.710486 0.644423 0.210421
Si Si5 0.250000 0.750000 0.918121
Si Si6 0.216874 0.100530 0.034146
Si Si7 0.713179 0.604172 0.614678
O O1 0.684102 0.322788 0.428792
O O2 0.808923 0.325159 0.558041
O O3 0.500000 0.114934 0.813611
O O4 0.812302 0.175140 0.854275
O O5 0.748295 0.122647 0.706596
O O6 0.761585 0.000000 0.812864
O O7 0.733597 0.500000 0.409895
O O8 0.786184 0.605936 0.291371
O O9 0.000000 0.612514 0.408444
O O10 0.500000 0.628439 0.214323
O O11 0.750000 0.750000 0.209767
O O12 0.770385 0.606880 0.125978
O O13 0.311786 0.823905 0.982716
O O14 0.000000 0.116261 0.029406
O O15 0.252365 0.000000 0.005153
O O16 0.500000 0.613896 0.601260
O O17 0.762902 0.500000 0.600210
#
# Coordination Sequence:
#
# PCOD9349925 Si02
#       7
#     4   8   8   8   4   8   8
#     4  12  23  39  66  96 128 164 204 261 313 376
#     4  10  23  42  63  90 125 164 206 256 317 376
#     4  11  25  43  64  94 131 170 212 260 316 378
#     4  11  22  41  67  93 125 168 217 264 316 373
#     4  12  21  37  62  92 124 162 208 257 311 370
#     4  10  22  39  60  89 125 165 208 256 312 370
#     4  10  23  43  66  92 123 163 212 258 307 373
#
# _framework density 25.412586999999998
#
# number of rings (size 3 to 8) (size 9 to 14) (size 15 to 20)
#    0.000    1.333    1.667    3.500    0.000    5.667 
#    0.000    3.333    0.000    4.000    0.000    0.000 
#    0.000    0.000    0.000    0.000    0.000    0.000 
#
# Total GULP energy -133881.321581 kJ/mol
# GULP energy per Si atom -5578.388399 kJ/mol
# Density = 2.535475 g / cm^3
# Si number density = 25.412587 Si / 1000 Ang^3
#
#
#
# Elastic Constant Matrix: (Units=GPa)
#
#
# Indices 1 2 3 4 5 6 
#
# 1 117.3611 41.8652 27.9444 0.0000 0.0000 0.0000
# 2 41.8652 225.2377 98.8476 0.0000 0.0000 0.0000
# 3 27.9444 98.8476 221.7887 0.0000 0.0000 0.0000
# 4 0.0000 0.0000 0.0000 98.8404 0.0000 0.0000
# 5 0.0000 0.0000 0.0000 0.0000 -17.6710 0.0000
# 6 0.0000 0.0000 0.0000 0.0000 0.0000 -12.1445
#
#
#
# Elastic Compliance Matrix: (Units=1/GPa)
#
#
# Indices 1 2 3 4 5 6 
#
# 1 0.009169 -0.001488 -0.000492 0.000000 0.000000 0.000000
# 2 -0.001488 0.005761 -0.002380 0.000000 0.000000 0.000000
# 3 -0.000492 -0.002380 0.005632 0.000000 0.000000 0.000000
# 4 0.000000 0.000000 0.000000 0.010117 0.000000 0.000000
# 5 0.000000 0.000000 0.000000 0.000000 -0.056590 0.000000
# 6 0.000000 0.000000 0.000000 0.000000 0.000000 -0.082342
#
#
# Mechanical properties :
#
#
# Convention : Reuss Voigt Hill
#
# Bulk Modulus (GPa) = 84.45470 100.18909 92.32189
# Shear Modulus (GPa) = -52.30906 40.18699 -6.06104
#
# Velocity S-wave (km/s) = -4.54187 3.98097 -1.54604
# Velocity P-wave (km/s) = 2.40848 7.78726 5.76377
#
# Compressibility (1/GPa) = 0.01184067
#
# Stress axis : x y z
#
# Youngs Moduli (GPa) = 109.06605 173.58454 177.57250
#
# Poissons Ratio (x) = 0.25835 0.08735
# Poissons Ratio (y) = 0.16233 0.42262
# Poissons Ratio (z) = 0.05365 0.41313
#
# Static dielectric constant tensor:
#      x y z
#    x 2.203350 0.000000 0.000000 
#    y 0.000000 1.922660 0.000000 
#    z 0.000000 0.000000 1.943520 
# 
# From -- ./inp_files/17865.got.cif
#   From: 2010.05.17/outbox.cif.g08.bks.cpg/sg35_9_cif.got.tgz:17865.got - 2010.06.03 17:29:28.
