data_PCOD9349781
_publ_section_title
;
Structure prediction by ZEFSAII (Michael W. Deem and Ramdas Pophale) SiO2 
 PCOD9349781
Probable space group: C M M 2
;
_chemical_formula_sum "Si O2"
_cell_formula_units_Z 56
_cell_length_a 8.782729
_cell_length_b 22.480499
_cell_length_c 14.840238
_cell_angle_alpha 90.000000
_cell_angle_beta 90.000000
_cell_angle_gamma 90.000000
_cell_volume 2930.058527
_symmetry_space_group_name_H-M "C M M 2"
_symmetry_group_IT_number 35
_symmetry_cell_setting 'orthorhombic'
loop_
_space_group_symop_operation_xyz
x,y,z
-x,-y,z
-x,y,z
x,-y,z
1/2+x,1/2+y,z
1/2-x,1/2-y,z
1/2-x,1/2+y,z
1/2+x,1/2-y,z
loop_
_atom_site_type_symbol
_atom_site_label
_atom_site_fract_x
_atom_site_fract_y
_atom_site_fract_z
Si Si1 0.682342 0.500000 0.144331
Si Si2 0.319216 0.113305 0.041061
Si Si3 0.181930 0.121026 0.372013
Si Si4 0.184959 0.932499 0.655762
Si Si5 0.316999 0.313906 0.549105
Si Si6 0.679944 0.000000 0.345148
Si Si7 0.817828 0.812648 0.191558
Si Si8 0.181846 0.069100 0.866388
O O1 0.500000 0.500000 0.145291
O O2 0.743143 0.557212 0.091447
O O3 0.742607 0.500000 0.246323
O O4 0.500000 0.109810 0.048032
O O5 0.256123 0.168625 0.097380
O O6 0.267382 0.110010 0.937643
O O7 0.219514 0.171412 0.444761
O O8 0.221629 0.141169 0.271088
O O9 0.000000 0.111210 0.375888
O O10 0.263966 0.059518 0.393685
O O11 0.235638 0.873676 0.601982
O O12 0.221203 0.923209 0.761522
O O13 0.000000 0.934083 0.648093
O O14 0.237225 0.000000 0.630098
O O15 0.500000 0.310636 0.558574
O O16 0.250000 0.250000 0.576256
O O17 0.500000 0.000000 0.334663
O O18 0.750000 0.750000 0.219961
O O19 0.000000 0.810813 0.184108
O O20 0.000000 0.077306 0.875928
O O21 0.215496 0.000000 0.888956
#
# Coordination Sequence:
#
# PCOD9349781 Si02
#       8
#     4   8   8   8   8   4   8   8
#     4  12  22  36  56  81 114 151 188 229 282 338
#     4  12  23  35  55  85 117 150 190 237 285 343
#     4  10  22  38  59  84 116 157 195 236 291 352
#     4   8  16  33  59  89 115 148 199 248 295 354
#     4  10  21  38  62  89 117 155 200 247 296 356
#     4  12  24  36  56  87 120 153 192 243 294 342
#     4  11  23  39  57  78 111 155 200 243 287 342
#     4   9  17  32  56  83 113 149 190 240 294 349
#
# _framework density 19.112247
#
# number of rings (size 3 to 8) (size 9 to 14) (size 15 to 20)
#    0.000    1.714    2.143    4.286    1.000    1.143 
#    0.000    1.429    0.000    2.571    0.000    0.000 
#    0.000    0.000    0.000    0.000    0.000    0.000 
#
# Total GULP energy -156317.072222 kJ/mol
# GULP energy per Si atom -5582.752579 kJ/mol
# Density = 1.906875 g / cm^3
# Si number density = 19.112247 Si / 1000 Ang^3
#
#
#
# Elastic Constant Matrix: (Units=GPa)
#
#
# Indices 1 2 3 4 5 6 
#
# 1 46.7288 35.6326 26.2042 0.0000 0.0000 0.0000
# 2 35.6326 123.3949 41.8828 0.0000 0.0000 0.0000
# 3 26.2042 41.8828 77.6606 0.0000 0.0000 0.0000
# 4 0.0000 0.0000 0.0000 26.5328 0.0000 0.0000
# 5 0.0000 0.0000 0.0000 0.0000 11.3939 0.0000
# 6 0.0000 0.0000 0.0000 0.0000 0.0000 30.8921
#
#
#
# Elastic Compliance Matrix: (Units=1/GPa)
#
#
# Indices 1 2 3 4 5 6 
#
# 1 0.030029 -0.006405 -0.006678 0.000000 0.000000 0.000000
# 2 -0.006405 0.011286 -0.003926 0.000000 0.000000 0.000000
# 3 -0.006678 -0.003926 0.017247 0.000000 0.000000 0.000000
# 4 0.000000 0.000000 0.000000 0.037689 0.000000 0.000000
# 5 0.000000 0.000000 0.000000 0.000000 0.087766 0.000000
# 6 0.000000 0.000000 0.000000 0.000000 0.000000 0.032371
#
#
# Mechanical properties :
#
#
# Convention : Reuss Voigt Hill
#
# Bulk Modulus (GPa) = 40.74166 50.58039 45.66103
# Shear Modulus (GPa) = 19.33591 23.36809 21.35200
#
# Velocity S-wave (km/s) = 3.18418 3.50047 3.34606
# Velocity P-wave (km/s) = 5.90610 6.54676 6.23466
#
# Compressibility (1/GPa) = 0.02454490
#
# Stress axis : x y z
#
# Youngs Moduli (GPa) = 33.30133 88.60598 57.98120
#
# Poissons Ratio (x) = 0.56749 0.38721
# Poissons Ratio (y) = 0.21328 0.22761
# Poissons Ratio (z) = 0.22239 0.34782
#
# Static dielectric constant tensor:
#      x y z
#    x 1.635210 0.000000 0.000000 
#    y 0.000000 1.653240 0.000000 
#    z 0.000000 0.000000 1.671130 
# 
# From -- ./inp_files/15715.got.cif
#   From: 2010.05.17/outbox.cif.g08.bks.cpg/sg35_8_cif.got.tgz:15715.got - 2010.06.03 17:29:28.
