data_PCOD9349198
_publ_section_title
;
Structure prediction by ZEFSAII (Michael W. Deem and Ramdas Pophale) SiO2 
 PCOD9349198
Probable space group: C M M 2
;
_chemical_formula_sum "Si O2"
_cell_formula_units_Z 40
_cell_length_a 15.188777
_cell_length_b 17.435432
_cell_length_c 7.613362
_cell_angle_alpha 90.000000
_cell_angle_beta 90.000000
_cell_angle_gamma 90.000000
_cell_volume 2016.192516
_symmetry_space_group_name_H-M "C M M 2"
_symmetry_group_IT_number 35
_symmetry_cell_setting 'orthorhombic'
loop_
_space_group_symop_operation_xyz
x,y,z
-x,-y,z
-x,y,z
x,-y,z
1/2+x,1/2+y,z
1/2-x,1/2-y,z
1/2-x,1/2+y,z
1/2+x,1/2-y,z
loop_
_atom_site_type_symbol
_atom_site_label
_atom_site_fract_x
_atom_site_fract_y
_atom_site_fract_z
Si Si1 0.402059 0.801115 0.850960
Si Si2 0.731699 0.913096 0.708786
Si Si3 0.354711 0.245469 0.210840
Si Si4 0.401752 0.672568 0.563091
Si Si5 0.100960 0.415867 0.376884
O O1 0.500000 0.836640 0.862242
O O2 0.320748 0.859812 0.845982
O O3 0.397216 0.751533 0.673738
O O4 0.390532 0.743839 0.015050
O O5 0.823535 0.878742 0.640270
O O6 0.666895 0.913462 0.540251
O O7 0.742452 0.000000 0.771829
O O8 0.250000 0.250000 0.212175
O O9 0.388169 0.303178 0.360639
O O10 0.382608 0.158686 0.260519
O O11 0.500000 0.640200 0.586581
O O12 0.112107 0.500000 0.289538
O O13 0.000000 0.411931 0.439692
#
# Coordination Sequence:
#
# PCOD9349198 Si02
#       5
#     8   8   8   8   8
#     4  11  23  38  61  92 120 154 200 249 306 365
#     4  11  22  39  60  86 121 160 201 248 306 366
#     4  12  21  37  62  89 123 159 201 247 301 362
#     4  11  22  40  61  86 121 157 203 255 297 354
#     4  10  20  35  56  83 117 154 191 240 301 359
#
# _framework density 19.839373999999999
#
# number of rings (size 3 to 8) (size 9 to 14) (size 15 to 20)
#    0.000    1.000    4.000    4.200    0.000    2.400 
#    0.000    0.000    0.000    0.000    0.000    2.800 
#    0.000    0.000    0.000    0.000    0.000    0.000 
#
# Total GULP energy -111695.178076 kJ/mol
# GULP energy per Si atom -5584.758904 kJ/mol
# Density = 1.979422 g / cm^3
# Si number density = 19.839374 Si / 1000 Ang^3
#
#
#
# Elastic Constant Matrix: (Units=GPa)
#
#
# Indices 1 2 3 4 5 6 
#
# 1 182.0994 50.1982 20.7803 0.0000 0.0000 0.0000
# 2 50.1982 56.3456 5.2010 0.0000 0.0000 0.0000
# 3 20.7803 5.2010 71.5421 0.0000 0.0000 0.0000
# 4 0.0000 0.0000 0.0000 13.3370 0.0000 0.0000
# 5 0.0000 0.0000 0.0000 0.0000 23.6289 0.0000
# 6 0.0000 0.0000 0.0000 0.0000 0.0000 12.7522
#
#
#
# Elastic Compliance Matrix: (Units=1/GPa)
#
#
# Indices 1 2 3 4 5 6 
#
# 1 0.007479 -0.006506 -0.001699 0.000000 0.000000 0.000000
# 2 -0.006506 0.023527 0.000179 0.000000 0.000000 0.000000
# 3 -0.001699 0.000179 0.014458 0.000000 0.000000 0.000000
# 4 0.000000 0.000000 0.000000 0.074979 0.000000 0.000000
# 5 0.000000 0.000000 0.000000 0.000000 0.042321 0.000000
# 6 0.000000 0.000000 0.000000 0.000000 0.000000 0.078418
#
#
# Mechanical properties :
#
#
# Convention : Reuss Voigt Hill
#
# Bulk Modulus (GPa) = 33.99924 51.37181 42.68552
# Shear Modulus (GPa) = 18.72388 25.53082 22.12735
#
# Velocity S-wave (km/s) = 3.07542 3.59120 3.34327
# Velocity P-wave (km/s) = 5.45760 6.56854 6.03867
#
# Compressibility (1/GPa) = 0.02941242
#
# Stress axis : x y z
#
# Youngs Moduli (GPa) = 133.70904 42.50379 69.16423
#
# Poissons Ratio (x) = 0.27653 0.11754
# Poissons Ratio (y) = 0.86992 -0.01241
# Poissons Ratio (z) = 0.22722 -0.00762
#
# Static dielectric constant tensor:
#      x y z
#    x 1.707230 0.000000 0.000000 
#    y 0.000000 1.710840 0.000000 
#    z 0.000000 0.000000 1.714540 
# 
# From -- ./inp_files/7003.got.cif
#   From: 2010.05.17/outbox.cif.g08.bks.cpg/sg35_4_cif.got.tgz:7003.got - 2010.06.03 17:29:28.
