data_PCOD9349856
_publ_section_title
;
Structure prediction by ZEFSAII (Michael W. Deem and Ramdas Pophale) SiO2 
 PCOD9349856
Probable space group: C M M 2
;
_chemical_formula_sum "Si O2"
_cell_formula_units_Z 40
_cell_length_a 7.746916
_cell_length_b 15.738515
_cell_length_c 16.870160
_cell_angle_alpha 90.000000
_cell_angle_beta 90.000000
_cell_angle_gamma 90.000000
_cell_volume 2056.893476
_symmetry_space_group_name_H-M "C M M 2"
_symmetry_group_IT_number 35
_symmetry_cell_setting 'orthorhombic'
loop_
_space_group_symop_operation_xyz
x,y,z
-x,-y,z
-x,y,z
x,-y,z
1/2+x,1/2+y,z
1/2-x,1/2-y,z
1/2-x,1/2+y,z
1/2+x,1/2-y,z
loop_
_atom_site_type_symbol
_atom_site_label
_atom_site_fract_x
_atom_site_fract_y
_atom_site_fract_z
Si Si1 0.793047 0.349698 0.497490
Si Si2 0.500000 0.603175 0.795697
Si Si3 0.209496 0.000000 0.025717
Si Si4 0.796043 0.651060 0.322297
Si Si5 0.203430 0.000000 0.205348
Si Si6 0.699986 0.156069 0.913705
Si Si7 0.500000 0.598606 0.617999
O O1 0.750000 0.250000 0.495176
O O2 0.734506 0.379418 0.409559
O O3 0.670699 0.383237 0.566573
O O4 0.000000 0.363781 0.508745
O O5 0.500000 0.500000 0.799552
O O6 0.330960 0.634710 0.842475
O O7 0.500000 0.638061 0.705795
O O8 0.274543 0.000000 0.116173
O O9 0.271734 0.083621 0.979452
O O10 0.000000 0.000000 0.023107
O O11 0.750000 0.750000 0.307516
O O12 0.747992 0.584351 0.254931
O O13 0.000000 0.650224 0.329543
O O14 0.000000 0.000000 0.196170
O O15 0.500000 0.155739 0.888959
O O16 0.750000 0.250000 0.943847
O O17 0.500000 0.500000 0.634048
#
# Coordination Sequence:
#
# PCOD9349856 Si02
#       7
#     8   4   4   8   4   8   4
#     4  10  21  40  63  90 125 173 217 260 315 375
#     4  11  24  46  64  93 137 162 211 270 316 384
#     4  11  23  45  67  94 134 161 211 270 314 383
#     4  10  22  39  62  89 128 169 216 265 310 375
#     4  11  25  39  65  97 125 170 207 262 322 368
#     4  12  23  42  71  97 125 173 211 255 322 387
#     4  11  26  40  64  94 130 169 204 276 320 361
#
# _framework density 19.446802000000002
#
# number of rings (size 3 to 8) (size 9 to 14) (size 15 to 20)
#    0.000    1.200    4.000    1.200    4.200    4.400 
#    0.000    2.000    0.000    0.000    0.000    0.000 
#    0.000    0.000    0.000    0.000    0.000    0.000 
#
# Total GULP energy -111627.049807 kJ/mol
# GULP energy per Si atom -5581.352490 kJ/mol
# Density = 1.940254 g / cm^3
# Si number density = 19.446802 Si / 1000 Ang^3
#
#
#
# Elastic Constant Matrix: (Units=GPa)
#
#
# Indices 1 2 3 4 5 6 
#
# 1 132.1739 30.5684 65.6131 0.0000 0.0000 0.0000
# 2 30.5684 112.7292 72.1700 0.0000 0.0000 0.0000
# 3 65.6131 72.1700 183.8545 0.0000 0.0000 0.0000
# 4 0.0000 0.0000 0.0000 -56.9394 0.0000 0.0000
# 5 0.0000 0.0000 0.0000 0.0000 37.8161 0.0000
# 6 0.0000 0.0000 0.0000 0.0000 0.0000 29.4253
#
#
#
# Elastic Compliance Matrix: (Units=1/GPa)
#
#
# Indices 1 2 3 4 5 6 
#
# 1 0.009218 -0.000526 -0.003083 0.000000 0.000000 0.000000
# 2 -0.000526 0.011878 -0.004475 0.000000 0.000000 0.000000
# 3 -0.003083 -0.004475 0.008296 0.000000 0.000000 0.000000
# 4 0.000000 0.000000 0.000000 -0.017563 0.000000 0.000000
# 5 0.000000 0.000000 0.000000 0.000000 0.026444 0.000000
# 6 0.000000 0.000000 0.000000 0.000000 0.000000 0.033984
#
#
# Mechanical properties :
#
#
# Convention : Reuss Voigt Hill
#
# Bulk Modulus (GPa) = 75.61870 85.05117 80.33494
# Shear Modulus (GPa) = 53.85941 19.42080 36.64010
#
# Velocity S-wave (km/s) = 5.26839 3.16359 4.34535
# Velocity P-wave (km/s) = 8.71649 7.56139 8.15941
#
# Compressibility (1/GPa) = 0.01322424
#
# Stress axis : x y z
#
# Youngs Moduli (GPa) = 108.48373 84.18672 120.53846
#
# Poissons Ratio (x) = 0.04425 0.37166
# Poissons Ratio (y) = 0.05702 0.53942
# Poissons Ratio (z) = 0.33449 0.37675
#
# Static dielectric constant tensor:
#      x y z
#    x 1.672740 0.000000 0.000000 
#    y 0.000000 1.673180 0.000000 
#    z 0.000000 0.000000 1.750730 
# 
# From -- ./inp_files/14840.got.cif
#   From: 2010.05.17/outbox.cif.g08.bks.cpg/sg35_8_cif.got.tgz:14840.got - 2010.06.03 17:29:28.
