data_PCOD9349591
_publ_section_title
;
Structure prediction by ZEFSAII (Michael W. Deem and Ramdas Pophale) SiO2 
 PCOD9349591
Probable space group: C M M 2
;
_chemical_formula_sum "Si O2"
_cell_formula_units_Z 48
_cell_length_a 15.664928
_cell_length_b 8.855796
_cell_length_c 17.754974
_cell_angle_alpha 90.000000
_cell_angle_beta 90.000000
_cell_angle_gamma 90.000000
_cell_volume 2463.065990
_symmetry_space_group_name_H-M "C M M 2"
_symmetry_group_IT_number 35
_symmetry_cell_setting 'orthorhombic'
loop_
_space_group_symop_operation_xyz
x,y,z
-x,-y,z
-x,y,z
x,-y,z
1/2+x,1/2+y,z
1/2-x,1/2-y,z
1/2-x,1/2+y,z
1/2+x,1/2-y,z
loop_
_atom_site_type_symbol
_atom_site_label
_atom_site_fract_x
_atom_site_fract_y
_atom_site_fract_z
Si Si1 0.500000 0.682347 0.861840
Si Si2 0.103200 0.177889 0.128255
Si Si3 0.601452 0.832045 0.280355
Si Si4 0.000000 0.318411 0.696169
Si Si5 0.656058 0.679337 0.430660
Si Si6 0.839364 0.817597 0.963101
Si Si7 0.345394 0.181787 0.586042
O O1 0.500000 0.500000 0.858561
O O2 0.500000 0.746903 0.778344
O O3 0.583358 0.729097 0.909073
O O4 0.134999 0.265341 0.201926
O O5 0.000000 0.192355 0.122353
O O6 0.121194 0.000000 0.137766
O O7 0.141737 0.230885 0.049159
O O8 0.500000 0.843944 0.270004
O O9 0.614319 0.726582 0.352243
O O10 0.636579 0.000000 0.295466
O O11 0.914342 0.277011 0.649758
O O12 0.000000 0.500000 0.702398
O O13 0.657950 0.500000 0.439414
O O14 0.750000 0.750000 0.426158
O O15 0.619626 0.755079 0.506320
O O16 0.750000 0.750000 0.937777
O O17 0.836320 0.000000 0.963282
O O18 0.250000 0.250000 0.598070
O O19 0.338323 0.000000 0.581862
#
# Coordination Sequence:
#
# PCOD9349591 Si02
#       7
#     4   8   8   4   8   8   8
#     4  10  22  42  64  87 120 155 192 237 290 353
#     4   9  17  34  57  78 110 154 200 246 292 344
#     4  10  21  35  53  81 117 155 197 243 291 339
#     4  10  24  42  64  91 120 155 192 235 298 355
#     4  11  22  37  57  82 113 152 196 242 293 346
#     4  10  21  38  61  89 118 155 196 241 294 351
#     4  10  21  40  62  88 121 157 195 243 296 350
#
# _framework density 19.487905999999999
#
# number of rings (size 3 to 8) (size 9 to 14) (size 15 to 20)
#    0.000    2.000    0.833    3.500    1.167    5.000 
#    0.000    5.000    0.000    0.000    0.000    0.000 
#    0.000    0.000    0.000    0.000    0.000    0.000 
#
# Total GULP energy -133998.609098 kJ/mol
# GULP energy per Si atom -5583.275379 kJ/mol
# Density = 1.944355 g / cm^3
# Si number density = 19.487906 Si / 1000 Ang^3
#
#
#
# Elastic Constant Matrix: (Units=GPa)
#
#
# Indices 1 2 3 4 5 6 
#
# 1 91.3001 35.7332 72.7616 0.0000 0.0000 0.0000
# 2 35.7332 72.0817 51.8949 0.0000 0.0000 0.0000
# 3 72.7616 51.8949 174.1998 0.0000 0.0000 0.0000
# 4 0.0000 0.0000 0.0000 36.6083 0.0000 0.0000
# 5 0.0000 0.0000 0.0000 0.0000 4.0025 0.0000
# 6 0.0000 0.0000 0.0000 0.0000 0.0000 26.1171
#
#
#
# Elastic Compliance Matrix: (Units=1/GPa)
#
#
# Indices 1 2 3 4 5 6 
#
# 1 0.017416 -0.004324 -0.005986 0.000000 0.000000 0.000000
# 2 -0.004324 0.018734 -0.003775 0.000000 0.000000 0.000000
# 3 -0.005986 -0.003775 0.009366 0.000000 0.000000 0.000000
# 4 0.000000 0.000000 0.000000 0.027316 0.000000 0.000000
# 5 0.000000 0.000000 0.000000 0.000000 0.249846 0.000000
# 6 0.000000 0.000000 0.000000 0.000000 0.000000 0.038289
#
#
# Mechanical properties :
#
#
# Convention : Reuss Voigt Hill
#
# Bulk Modulus (GPa) = 57.65183 73.15122 65.40153
# Shear Modulus (GPa) = 12.66081 25.15836 18.90959
#
# Velocity S-wave (km/s) = 2.55164 3.59691 3.11838
# Velocity P-wave (km/s) = 6.19102 7.40733 6.82632
#
# Compressibility (1/GPa) = 0.01734550
#
# Stress axis : x y z
#
# Youngs Moduli (GPa) = 57.41837 53.37771 106.77358
#
# Poissons Ratio (x) = 0.23079 0.63919
# Poissons Ratio (y) = 0.24826 0.40308
# Poissons Ratio (z) = 0.34373 0.20150
#
# Static dielectric constant tensor:
#      x y z
#    x 1.679240 0.000000 0.000000 
#    y 0.000000 1.674650 0.000000 
#    z 0.000000 0.000000 1.680090 
# 
# From -- ./inp_files/15257.got.cif
#   From: 2010.05.17/outbox.cif.g08.bks.cpg/sg35_8_cif.got.tgz:15257.got - 2010.06.03 17:29:28.
