data_PCOD9349427
_publ_section_title
;
Structure prediction by ZEFSAII (Michael W. Deem and Ramdas Pophale) SiO2 
 PCOD9349427
Probable space group: C M M 2
;
_chemical_formula_sum "Si O2"
_cell_formula_units_Z 48
_cell_length_a 8.659518
_cell_length_b 30.982305
_cell_length_c 9.747708
_cell_angle_alpha 90.000000
_cell_angle_beta 90.000000
_cell_angle_gamma 90.000000
_cell_volume 2615.230396
_symmetry_space_group_name_H-M "C M M 2"
_symmetry_group_IT_number 35
_symmetry_cell_setting 'orthorhombic'
loop_
_space_group_symop_operation_xyz
x,y,z
-x,-y,z
-x,y,z
x,-y,z
1/2+x,1/2+y,z
1/2-x,1/2-y,z
1/2-x,1/2+y,z
1/2+x,1/2-y,z
loop_
_atom_site_type_symbol
_atom_site_label
_atom_site_fract_x
_atom_site_fract_y
_atom_site_fract_z
Si Si1 0.813840 0.950566 0.026120
Si Si2 0.685078 0.873112 0.530550
Si Si3 0.315557 0.297504 0.717769
Si Si4 0.813980 0.949634 0.710657
Si Si5 0.813985 0.624429 0.214271
Si Si6 0.814212 0.297318 0.019053
O O1 0.747227 0.916930 0.133105
O O2 0.000000 0.949236 0.030842
O O3 0.766084 0.000000 0.054156
O O4 0.769047 0.940019 0.868754
O O5 0.500000 0.868657 0.534777
O O6 0.759715 0.833054 0.610494
O O7 0.734440 0.916716 0.608010
O O8 0.736404 0.874353 0.372139
O O9 0.500000 0.295780 0.723184
O O10 0.250000 0.250000 0.684253
O O11 0.251269 0.308903 0.868992
O O12 0.000000 0.944891 0.701107
O O13 0.777785 0.000000 0.683814
O O14 0.000000 0.623019 0.213261
O O15 0.766974 0.667074 0.130063
O O16 0.750000 0.250000 0.053600
O O17 0.000000 0.295576 0.011212
#
# Coordination Sequence:
#
# PCOD9349427 Si02
#       6
#     8   8   8   8   8   8
#     4   9  19  36  58  82 107 138 180 228 274 322
#     4  11  23  38  54  79 115 150 184 223 271 325
#     4  11  22  38  60  85 110 141 182 226 273 323
#     4   9  19  37  59  83 110 142 184 231 276 324
#     4  10  23  38  53  78 113 148 181 221 269 323
#     4  10  20  37  59  83 109 140 180 225 272 321
#
# _framework density 18.354023999999999
#
# number of rings (size 3 to 8) (size 9 to 14) (size 15 to 20)
#    0.000    2.000    0.000    5.500    0.000    8.000 
#    0.000    6.667    0.000    0.000    0.000    0.000 
#    0.000    0.000    0.000    0.000    0.000    0.000 
#
# Total GULP energy -134075.948026 kJ/mol
# GULP energy per Si atom -5586.497834 kJ/mol
# Density = 1.831225 g / cm^3
# Si number density = 18.354024 Si / 1000 Ang^3
#
#
#
# Elastic Constant Matrix: (Units=GPa)
#
#
# Indices 1 2 3 4 5 6 
#
# 1 60.0254 47.4819 52.3732 0.0000 0.0000 0.0000
# 2 47.4819 133.4383 132.5566 0.0000 0.0000 0.0000
# 3 52.3732 132.5566 174.1373 0.0000 0.0000 0.0000
# 4 0.0000 0.0000 0.0000 -30.2954 0.0000 0.0000
# 5 0.0000 0.0000 0.0000 0.0000 27.5472 0.0000
# 6 0.0000 0.0000 0.0000 0.0000 0.0000 36.1428
#
#
#
# Elastic Compliance Matrix: (Units=1/GPa)
#
#
# Indices 1 2 3 4 5 6 
#
# 1 0.023534 -0.005508 -0.002885 0.000000 0.000000 0.000000
# 2 -0.005508 0.032026 -0.022723 0.000000 0.000000 0.000000
# 3 -0.002885 -0.022723 0.023907 0.000000 0.000000 0.000000
# 4 0.000000 0.000000 0.000000 -0.033008 0.000000 0.000000
# 5 0.000000 0.000000 0.000000 0.000000 0.036301 0.000000
# 6 0.000000 0.000000 0.000000 0.000000 0.000000 0.027668
#
#
# Mechanical properties :
#
#
# Convention : Reuss Voigt Hill
#
# Bulk Modulus (GPa) = 58.01795 92.49159 75.25477
# Shear Modulus (GPa) = 28.02597 15.69152 21.85875
#
# Velocity S-wave (km/s) = 3.91188 2.92710 3.45476
# Velocity P-wave (km/s) = 7.21684 7.86933 7.55014
#
# Compressibility (1/GPa) = 0.01723604
#
# Stress axis : x y z
#
# Youngs Moduli (GPa) = 42.49155 31.22415 41.82846
#
# Poissons Ratio (x) = 0.17199 0.12068
# Poissons Ratio (y) = 0.23405 0.95045
# Poissons Ratio (z) = 0.12260 0.70949
#
# Static dielectric constant tensor:
#      x y z
#    x 1.621810 0.000000 0.000000 
#    y 0.000000 1.612190 0.000000 
#    z 0.000000 0.000000 1.610820 
# 
# From -- ./inp_files/5292.got.cif
#   From: 2010.05.17/outbox.cif.g08.bks.cpg/sg35_3_cif.got.tgz:5292.got - 2010.06.03 17:29:28.
