data_PCOD9349960
_publ_section_title
;
Structure prediction by ZEFSAII (Michael W. Deem and Ramdas Pophale) SiO2 
 PCOD9349960
Probable space group: C M M 2
;
_chemical_formula_sum "Si O2"
_cell_formula_units_Z 48
_cell_length_a 9.791629
_cell_length_b 13.633524
_cell_length_c 16.485297
_cell_angle_alpha 90.000000
_cell_angle_beta 90.000000
_cell_angle_gamma 90.000000
_cell_volume 2200.694980
_symmetry_space_group_name_H-M "C M M 2"
_symmetry_group_IT_number 35
_symmetry_cell_setting 'orthorhombic'
loop_
_space_group_symop_operation_xyz
x,y,z
-x,-y,z
-x,y,z
x,-y,z
1/2+x,1/2+y,z
1/2-x,1/2-y,z
1/2-x,1/2+y,z
1/2+x,1/2-y,z
loop_
_atom_site_type_symbol
_atom_site_label
_atom_site_fract_x
_atom_site_fract_y
_atom_site_fract_z
Si Si1 0.750000 0.250000 0.485361
Si Si2 0.846399 0.111997 0.769644
Si Si3 0.839033 0.617474 0.350141
Si Si4 0.656122 0.618568 0.195554
Si Si5 0.250000 0.750000 0.907774
Si Si6 0.348129 0.116205 0.047875
Si Si7 0.849147 0.612958 0.621424
O O1 0.740332 0.337769 0.419481
O O2 0.844579 0.307837 0.549650
O O3 0.832833 0.180966 0.846819
O O4 0.751649 0.137350 0.694088
O O5 0.000000 0.115288 0.738758
O O6 0.813730 0.000000 0.793872
O O7 0.842687 0.500000 0.357138
O O8 0.764947 0.643346 0.265787
O O9 0.000000 0.650784 0.356646
O O10 0.500000 0.655836 0.204746
O O11 0.647108 0.500000 0.197968
O O12 0.727302 0.642618 0.110130
O O13 0.334693 0.820218 0.967120
O O14 0.500000 0.130493 0.084329
O O15 0.335270 0.000000 0.030033
O O16 0.820094 0.500000 0.592749
O O17 0.000000 0.612274 0.656644
#
# Coordination Sequence:
#
# PCOD9349960 Si02
#       7
#     4   8   8   8   4   8   8
#     4  12  23  35  62  96 124 152 198 253 301 352
#     4  10  23  43  65  90 122 160 202 251 308 367
#     4  10  22  41  64  90 124 166 209 253 304 365
#     4   9  19  38  63  89 120 161 208 257 308 360
#     4  12  23  37  62  94 126 160 202 253 307 366
#     4  10  22  40  62  89 122 162 208 255 304 363
#     4  10  23  44  67  90 121 163 207 250 302 368
#
# _framework density 21.811292000000002
#
# number of rings (size 3 to 8) (size 9 to 14) (size 15 to 20)
#    0.000    1.833    0.000    3.000    0.000   10.667 
#    0.000    3.333    0.000    8.000    0.000    0.000 
#    0.000    0.000    0.000    0.000    0.000    0.000 
#
# Total GULP energy -133811.708733 kJ/mol
# GULP energy per Si atom -5575.487864 kJ/mol
# Density = 2.176165 g / cm^3
# Si number density = 21.811292 Si / 1000 Ang^3
#
#
#
# Elastic Constant Matrix: (Units=GPa)
#
#
# Indices 1 2 3 4 5 6 
#
# 1 102.5286 44.3184 54.6116 0.0000 0.0000 0.0000
# 2 44.3184 111.9071 37.7114 0.0000 0.0000 0.0000
# 3 54.6116 37.7114 125.9548 0.0000 0.0000 0.0000
# 4 0.0000 0.0000 0.0000 21.2318 0.0000 0.0000
# 5 0.0000 0.0000 0.0000 0.0000 19.9012 0.0000
# 6 0.0000 0.0000 0.0000 0.0000 0.0000 898.6636
#
#
#
# Elastic Compliance Matrix: (Units=1/GPa)
#
#
# Indices 1 2 3 4 5 6 
#
# 1 0.014069 -0.003911 -0.004929 0.000000 0.000000 0.000000
# 2 -0.003911 0.011026 -0.001606 0.000000 0.000000 0.000000
# 3 -0.004929 -0.001606 0.010557 0.000000 0.000000 0.000000
# 4 0.000000 0.000000 0.000000 0.047099 0.000000 0.000000
# 5 0.000000 0.000000 0.000000 0.000000 0.050248 0.000000
# 6 0.000000 0.000000 0.000000 0.000000 0.000000 0.001113
#
#
# Mechanical properties :
#
#
# Convention : Reuss Voigt Hill
#
# Bulk Modulus (GPa) = 67.74483 68.18594 67.96538
# Shear Modulus (GPa) = 31.26480 201.54261 116.40370
#
# Velocity S-wave (km/s) = 3.79016 9.62307 7.31330
# Velocity P-wave (km/s) = 7.09089 12.44190 10.12624
#
# Compressibility (1/GPa) = 0.01476127
#
# Stress axis : x y z
#
# Youngs Moduli (GPa) = 71.07620 90.69634 94.72097
#
# Poissons Ratio (x) = 0.35469 0.46691
# Poissons Ratio (y) = 0.27796 0.15208
# Poissons Ratio (z) = 0.35036 0.14562
#
# Static dielectric constant tensor:
#      x y z
#    x 1.791350 0.000000 0.000000 
#    y 0.000000 1.862810 0.000000 
#    z 0.000000 0.000000 1.751880 
# 
# From -- ./inp_files/17867.got.cif
#   From: 2010.05.17/outbox.cif.g08.bks.cpg/sg35_9_cif.got.tgz:17867.got - 2010.06.03 17:29:28.
