data_PCOD9349986
_publ_section_title
;
Structure prediction by ZEFSAII (Michael W. Deem and Ramdas Pophale) SiO2 
 PCOD9349986
Probable space group: C M M 2
;
_chemical_formula_sum "Si O2"
_cell_formula_units_Z 56
_cell_length_a 21.892982
_cell_length_b 14.761431
_cell_length_c 8.735823
_cell_angle_alpha 90.000000
_cell_angle_beta 90.000000
_cell_angle_gamma 90.000000
_cell_volume 2823.171147
_symmetry_space_group_name_H-M "C M M 2"
_symmetry_group_IT_number 35
_symmetry_cell_setting 'orthorhombic'
loop_
_space_group_symop_operation_xyz
x,y,z
-x,-y,z
-x,y,z
x,-y,z
1/2+x,1/2+y,z
1/2-x,1/2-y,z
1/2-x,1/2+y,z
1/2+x,1/2-y,z
loop_
_atom_site_type_symbol
_atom_site_label
_atom_site_fract_x
_atom_site_fract_y
_atom_site_fract_z
Si Si1 0.630373 0.892793 0.706870
Si Si2 0.882509 0.726981 0.212877
Si Si3 0.000000 0.390938 0.163238
Si Si4 0.816544 0.755339 0.507830
Si Si5 0.679140 0.401745 0.778362
Si Si6 0.072560 0.895512 0.006370
Si Si7 0.715407 0.843839 0.985854
Si Si8 0.500000 0.890479 0.798566
O O1 0.666506 0.841763 0.576866
O O2 0.662820 0.868364 0.865705
O O3 0.561387 0.857473 0.719653
O O4 0.630740 0.000000 0.686392
O O5 0.864328 0.771503 0.373963
O O6 0.902171 0.811561 0.106037
O O7 0.939140 0.657563 0.225763
O O8 0.824291 0.671375 0.140926
O O9 0.000000 0.500000 0.187105
O O10 0.000000 0.372703 0.979699
O O11 0.750000 0.750000 0.435888
O O12 0.812598 0.824379 0.651001
O O13 0.685210 0.500000 0.702398
O O14 0.727414 0.402850 0.921300
O O15 0.612432 0.391195 0.852120
O O16 0.000000 0.883613 0.984231
O O17 0.081601 0.000000 0.066084
O O18 0.750000 0.750000 0.964262
O O19 0.500000 0.000000 0.786004
#
# Coordination Sequence:
#
# PCOD9349986 Si02
#       8
#     8   8   4   8   8   8   8   4
#     4  11  21  39  65  93 127 169 214 266 322 382
#     4  12  25  41  67  95 135 175 210 268 332 390
#     4  11  24  43  66  98 131 169 221 268 322 392
#     4  12  26  42  59  94 135 172 211 261 325 396
#     4  11  23  43  70  96 127 167 217 276 325 380
#     4  10  22  43  70  99 125 163 223 278 322 377
#     4  12  20  38  65  95 124 166 216 262 313 386
#     4   9  20  37  65  96 121 161 218 264 307 376
#
# _framework density 19.835850000000001
#
# number of rings (size 3 to 8) (size 9 to 14) (size 15 to 20)
#    0.000    0.857    6.429    0.857    0.000    2.286 
#    1.286    0.714    0.000    0.000    0.000    0.000 
#    0.000    0.000    0.000    0.000    0.000    0.000 
#
# Total GULP energy -155986.824623 kJ/mol
# GULP energy per Si atom -5570.958022 kJ/mol
# Density = 1.979070 g / cm^3
# Si number density = 19.835850 Si / 1000 Ang^3
#
#
#
# Elastic Constant Matrix: (Units=GPa)
#
#
# Indices 1 2 3 4 5 6 
#
# 1 116.3585 49.8112 42.9505 0.0000 0.0000 0.0000
# 2 49.8112 85.0576 19.8025 0.0000 0.0000 0.0000
# 3 42.9505 19.8025 43.8045 0.0000 0.0000 0.0000
# 4 0.0000 0.0000 0.0000 -185.3327 0.0000 0.0000
# 5 0.0000 0.0000 0.0000 0.0000 15.9554 0.0000
# 6 0.0000 0.0000 0.0000 0.0000 0.0000 24.4622
#
#
#
# Elastic Compliance Matrix: (Units=1/GPa)
#
#
# Indices 1 2 3 4 5 6 
#
# 1 0.016101 -0.006431 -0.012881 0.000000 0.000000 0.000000
# 2 -0.006431 0.015708 -0.000796 0.000000 0.000000 0.000000
# 3 -0.012881 -0.000796 0.035818 0.000000 0.000000 0.000000
# 4 0.000000 0.000000 0.000000 -0.005396 0.000000 0.000000
# 5 0.000000 0.000000 0.000000 0.000000 0.062675 0.000000
# 6 0.000000 0.000000 0.000000 0.000000 0.000000 0.040879
#
#
# Mechanical properties :
#
#
# Convention : Reuss Voigt Hill
#
# Bulk Modulus (GPa) = 36.47843 52.26100 44.36971
# Shear Modulus (GPa) = 23.24102 -20.13925 1.55088
#
# Velocity S-wave (km/s) = 3.42668 -3.18983 0.88519
# Velocity P-wave (km/s) = 5.83834 3.58291 4.84373
#
# Compressibility (1/GPa) = 0.02741346
#
# Stress axis : x y z
#
# Youngs Moduli (GPa) = 62.10634 63.66244 27.91903
#
# Poissons Ratio (x) = 0.40938 0.35961
# Poissons Ratio (y) = 0.39938 0.02222
# Poissons Ratio (z) = 0.79996 0.05066
#
# Static dielectric constant tensor:
#      x y z
#    x 1.737230 0.000000 0.000000 
#    y 0.000000 3.013860 0.000000 
#    z 0.000000 0.000000 1.734140 
# 
# From -- ./inp_files/9328.got.cif
#   From: 2010.05.17/outbox.cif.g08.bks.cpg/sg35_5_cif.got.tgz:9328.got - 2010.06.03 17:29:28.
