data_PCOD9349586
_publ_section_title
;
Structure prediction by ZEFSAII (Michael W. Deem and Ramdas Pophale) SiO2 
 PCOD9349586
Probable space group: C M M 2
;
_chemical_formula_sum "Si O2"
_cell_formula_units_Z 56
_cell_length_a 19.050775
_cell_length_b 14.741965
_cell_length_c 10.300296
_cell_angle_alpha 90.000000
_cell_angle_beta 90.000000
_cell_angle_gamma 90.000000
_cell_volume 2892.795471
_symmetry_space_group_name_H-M "C M M 2"
_symmetry_group_IT_number 35
_symmetry_cell_setting 'orthorhombic'
loop_
_space_group_symop_operation_xyz
x,y,z
-x,-y,z
-x,y,z
x,-y,z
1/2+x,1/2+y,z
1/2-x,1/2-y,z
1/2-x,1/2+y,z
1/2+x,1/2-y,z
loop_
_atom_site_type_symbol
_atom_site_label
_atom_site_fract_x
_atom_site_fract_y
_atom_site_fract_z
Si Si1 0.665880 0.102703 0.039410
Si Si2 0.793571 0.107937 0.850031
Si Si3 0.584087 0.716409 0.969563
Si Si4 0.306413 0.823086 0.310944
Si Si5 0.576345 0.603499 0.514927
Si Si6 0.230717 0.108784 0.568023
Si Si7 0.579071 0.686038 0.255299
O O1 0.610718 0.180651 0.997264
O O2 0.680591 0.107859 0.193875
O O3 0.644282 0.000000 0.004595
O O4 0.738955 0.123161 0.966248
O O5 0.751507 0.129726 0.716808
O O6 0.811263 0.000000 0.845551
O O7 0.863992 0.166760 0.869030
O O8 0.500000 0.711817 0.941739
O O9 0.599979 0.666509 0.108083
O O10 0.250000 0.750000 0.260280
O O11 0.277220 0.855867 0.449071
O O12 0.376906 0.765690 0.320165
O O13 0.500000 0.645234 0.548237
O O14 0.574906 0.500000 0.561759
O O15 0.650261 0.643545 0.558195
O O16 0.581357 0.605317 0.357975
O O17 0.229647 0.000000 0.552681
O O18 0.500000 0.718917 0.244091
#
# Coordination Sequence:
#
# PCOD9349586 Si02
#       7
#     8   8   8   8   8   8   8
#     4  10  21  38  59  82 112 152 193 237 287 339
#     4  10  22  38  57  82 117 153 187 235 289 344
#     4  10  21  37  58  84 114 148 190 239 286 341
#     4  11  19  32  55  84 109 144 188 237 282 334
#     4   9  17  30  48  72 107 144 174 212 265 328
#     4  10  21  35  53  80 110 146 187 226 275 337
#     4   9  18  33  51  77 110 140 180 229 280 333
#
# _framework density 19.358436999999999
#
# number of rings (size 3 to 8) (size 9 to 14) (size 15 to 20)
#    0.000    2.143    1.429    2.571    0.000    2.857 
#    0.000    2.857    0.000    1.286    0.000    2.000 
#    0.000    0.000    0.000    0.000    0.000    0.000 
#
# Total GULP energy -155877.466327 kJ/mol
# GULP energy per Si atom -5567.052369 kJ/mol
# Density = 1.931438 g / cm^3
# Si number density = 19.358437 Si / 1000 Ang^3
#
#
#
# Elastic Constant Matrix: (Units=GPa)
#
#
# Indices 1 2 3 4 5 6 
#
# 1 63.7157 13.5261 35.6362 0.0000 0.0000 0.0000
# 2 13.5261 52.2644 16.5404 0.0000 0.0000 0.0000
# 3 35.6362 16.5404 91.9442 0.0000 0.0000 0.0000
# 4 0.0000 0.0000 0.0000 16.8448 0.0000 0.0000
# 5 0.0000 0.0000 0.0000 0.0000 21.7294 0.0000
# 6 0.0000 0.0000 0.0000 0.0000 0.0000 17.5268
#
#
#
# Elastic Compliance Matrix: (Units=1/GPa)
#
#
# Indices 1 2 3 4 5 6 
#
# 1 0.020460 -0.002954 -0.007399 0.000000 0.000000 0.000000
# 2 -0.002954 0.020715 -0.002582 0.000000 0.000000 0.000000
# 3 -0.007399 -0.002582 0.014208 0.000000 0.000000 0.000000
# 4 0.000000 0.000000 0.000000 0.059365 0.000000 0.000000
# 5 0.000000 0.000000 0.000000 0.000000 0.046021 0.000000
# 6 0.000000 0.000000 0.000000 0.000000 0.000000 0.057055
#
#
# Mechanical properties :
#
#
# Convention : Reuss Voigt Hill
#
# Bulk Modulus (GPa) = 33.88101 37.70332 35.79216
# Shear Modulus (GPa) = 19.72150 20.70165 20.21157
#
# Velocity S-wave (km/s) = 3.19526 3.27370 3.23471
# Velocity P-wave (km/s) = 5.58147 5.81448 5.69916
#
# Compressibility (1/GPa) = 0.02951506
#
# Stress axis : x y z
#
# Youngs Moduli (GPa) = 48.87648 48.27439 70.38194
#
# Poissons Ratio (x) = 0.14258 0.52073
# Poissons Ratio (y) = 0.14436 0.18171
# Poissons Ratio (z) = 0.36162 0.12463
#
# Static dielectric constant tensor:
#      x y z
#    x 1.630540 0.000000 0.000000 
#    y 0.000000 1.715650 0.000000 
#    z 0.000000 0.000000 1.743010 
# 
# From -- ./inp_files/7598.got.cif
#   From: 2010.05.17/outbox.cif.g08.bks.cpg/sg35_4_cif.got.tgz:7598.got - 2010.06.03 17:29:28.
