data_PCOD9349742
_publ_section_title
;
Structure prediction by ZEFSAII (Michael W. Deem and Ramdas Pophale) SiO2 
 PCOD9349742
Probable space group: C M M 2
;
_chemical_formula_sum "Si O2"
_cell_formula_units_Z 56
_cell_length_a 20.364480
_cell_length_b 13.620414
_cell_length_c 9.273999
_cell_angle_alpha 90.000000
_cell_angle_beta 90.000000
_cell_angle_gamma 90.000000
_cell_volume 2572.353665
_symmetry_space_group_name_H-M "C M M 2"
_symmetry_group_IT_number 35
_symmetry_cell_setting 'orthorhombic'
loop_
_space_group_symop_operation_xyz
x,y,z
-x,-y,z
-x,y,z
x,-y,z
1/2+x,1/2+y,z
1/2-x,1/2-y,z
1/2-x,1/2+y,z
1/2+x,1/2-y,z
loop_
_atom_site_type_symbol
_atom_site_label
_atom_site_fract_x
_atom_site_fract_y
_atom_site_fract_z
Si Si1 0.381061 0.613838 0.287000
Si Si2 0.647070 0.246308 0.518873
Si Si3 0.572959 0.380954 0.969271
Si Si4 0.195410 0.882620 0.762701
Si Si5 0.815314 0.382066 0.974526
Si Si6 0.922843 0.384150 0.756902
Si Si7 0.277645 0.114589 0.289156
O O1 0.400439 0.500000 0.311967
O O2 0.398494 0.686232 0.416647
O O3 0.301377 0.616346 0.282907
O O4 0.408701 0.646771 0.132704
O O5 0.688805 0.321403 0.617341
O O6 0.606735 0.178204 0.627132
O O7 0.690423 0.177978 0.415043
O O8 0.500000 0.345990 0.928741
O O9 0.571192 0.500000 0.971593
O O10 0.631276 0.359050 0.858653
O O11 0.258843 0.857568 0.858824
O O12 0.197124 0.000000 0.733023
O O13 0.810730 0.500000 0.989219
O O14 0.884600 0.357489 0.903656
O O15 0.802608 0.344952 0.134806
O O16 0.909244 0.500000 0.731246
O O17 0.000000 0.371004 0.769983
O O18 0.296620 0.000000 0.307069
#
# Coordination Sequence:
#
# PCOD9349742 Si02
#       7
#     8   8   8   8   8   8   8
#     4  10  21  38  58  89 133 171 208 258 315 379
#     4  12  25  37  60  95 128 169 208 262 322 387
#     4   9  18  37  64  90 124 172 215 253 305 373
#     4  10  21  39  63  97 132 167 213 264 322 383
#     4   9  19  40  68  91 121 166 217 272 321 372
#     4  10  24  46  67  90 125 169 218 273 328 380
#     4  10  21  40  63  92 127 163 210 268 321 373
#
# _framework density 21.769946000000001
#
# number of rings (size 3 to 8) (size 9 to 14) (size 15 to 20)
#    0.000    2.000    1.429    1.286    4.000    2.286 
#    2.571    0.714    0.000    6.857    0.000    0.000 
#    0.000    0.000    0.000    0.000    0.000    0.000 
#
# Total GULP energy -156713.730330 kJ/mol
# GULP energy per Si atom -5596.918940 kJ/mol
# Density = 2.172040 g / cm^3
# Si number density = 21.769946 Si / 1000 Ang^3
#
#
#
# Elastic Constant Matrix: (Units=GPa)
#
#
# Indices 1 2 3 4 5 6 
#
# 1 88.4270 18.0759 42.1035 0.0000 0.0000 0.0000
# 2 18.0759 124.7623 48.6580 0.0000 0.0000 0.0000
# 3 42.1035 48.6580 143.7859 0.0000 0.0000 0.0000
# 4 0.0000 0.0000 0.0000 32.4056 0.0000 0.0000
# 5 0.0000 0.0000 0.0000 0.0000 26.9800 0.0000
# 6 0.0000 0.0000 0.0000 0.0000 0.0000 1.1445
#
#
#
# Elastic Compliance Matrix: (Units=1/GPa)
#
#
# Indices 1 2 3 4 5 6 
#
# 1 0.013164 -0.000465 -0.003697 0.000000 0.000000 0.000000
# 2 -0.000465 0.009250 -0.002994 0.000000 0.000000 0.000000
# 3 -0.003697 -0.002994 0.009051 0.000000 0.000000 0.000000
# 4 0.000000 0.000000 0.000000 0.030859 0.000000 0.000000
# 5 0.000000 0.000000 0.000000 0.000000 0.037064 0.000000
# 6 0.000000 0.000000 0.000000 0.000000 0.000000 0.873754
#
#
# Mechanical properties :
#
#
# Convention : Reuss Voigt Hill
#
# Bulk Modulus (GPa) = 58.30276 63.85000 61.07638
# Shear Modulus (GPa) = 5.03437 28.64854 16.84145
#
# Velocity S-wave (km/s) = 1.52235 3.63156 2.78440
# Velocity P-wave (km/s) = 5.47079 6.85401 6.20109
#
# Compressibility (1/GPa) = 0.01715185
#
# Stress axis : x y z
#
# Youngs Moduli (GPa) = 75.96289 108.10356 110.48905
#
# Poissons Ratio (x) = 0.05030 0.40851
# Poissons Ratio (y) = 0.03535 0.33082
# Poissons Ratio (z) = 0.28086 0.32368
#
# Static dielectric constant tensor:
#      x y z
#    x 1.771330 0.000000 0.000000 
#    y 0.000000 1.847420 0.000000 
#    z 0.000000 0.000000 1.763560 
# 
# From -- ./inp_files/7593.got.cif
#   From: 2010.05.17/outbox.cif.g08.bks.cpg/sg35_4_cif.got.tgz:7593.got - 2010.06.03 17:29:28.
