data_PCOD9349267
_publ_section_title
;
Structure prediction by ZEFSAII (Michael W. Deem and Ramdas Pophale) SiO2 
 PCOD9349267
Probable space group: C M M 2
;
_chemical_formula_sum "Si O2"
_cell_formula_units_Z 64
_cell_length_a 8.639470
_cell_length_b 28.776645
_cell_length_c 13.366239
_cell_angle_alpha 90.000000
_cell_angle_beta 90.000000
_cell_angle_gamma 90.000000
_cell_volume 3323.046990
_symmetry_space_group_name_H-M "C M M 2"
_symmetry_group_IT_number 35
_symmetry_cell_setting 'orthorhombic'
loop_
_space_group_symop_operation_xyz
x,y,z
-x,-y,z
-x,y,z
x,-y,z
1/2+x,1/2+y,z
1/2-x,1/2-y,z
1/2-x,1/2+y,z
1/2+x,1/2-y,z
loop_
_atom_site_type_symbol
_atom_site_label
_atom_site_fract_x
_atom_site_fract_y
_atom_site_fract_z
Si Si1 0.812627 0.644723 0.775820
Si Si2 0.675996 0.056412 0.094540
Si Si3 0.185218 0.357249 0.394084
Si Si4 0.315893 0.697769 0.583649
Si Si5 0.183927 0.053703 0.307586
Si Si6 0.311089 0.052830 0.872618
Si Si7 0.313227 0.802264 0.196783
Si Si8 0.813354 0.697817 0.976933
O O1 0.740091 0.670835 0.682498
O O2 0.767537 0.590821 0.790611
O O3 0.000000 0.647182 0.767390
O O4 0.765464 0.669468 0.879570
O O5 0.500000 0.074695 0.106075
O O6 0.769943 0.067465 0.193913
O O7 0.667319 0.000000 0.090610
O O8 0.737276 0.068871 0.984482
O O9 0.256409 0.330608 0.487736
O O10 0.236797 0.410475 0.382662
O O11 0.237991 0.332015 0.291563
O O12 0.000000 0.354618 0.400263
O O13 0.500000 0.700311 0.582049
O O14 0.250000 0.750000 0.582720
O O15 0.000000 0.056029 0.318274
O O16 0.233518 0.000000 0.321814
O O17 0.500000 0.052157 0.877448
O O18 0.259335 0.000000 0.854223
O O19 0.500000 0.800676 0.198855
O O20 0.250000 0.750000 0.205562
O O21 0.266100 0.820749 0.086787
O O22 0.750000 0.750000 0.969407
O O23 0.000000 0.698974 0.976040
#
# Coordination Sequence:
#
# PCOD9349267 Si02
#       8
#     8   8   8   8   8   8   8   8
#     4  10  20  35  59  86 116 152 197 244 293 348
#     4   8  14  27  50  79 112 154 199 239 282 335
#     4  11  23  39  63  89 114 149 200 248 296 354
#     4  12  26  45  66  87 116 149 194 247 300 358
#     4  10  21  36  54  82 122 162 199 242 293 347
#     4   8  15  29  53  85 118 154 198 245 289 339
#     4   9  19  34  54  82 115 147 182 229 288 351
#     4   9  18  32  51  78 112 146 180 227 286 347
#
# _framework density 19.259433000000001
#
# number of rings (size 3 to 8) (size 9 to 14) (size 15 to 20)
#    0.000    2.375    0.000    3.375    1.750    4.250 
#    0.000    1.250    0.000    3.375    0.000    0.000 
#    0.000    0.000    0.000    0.000    0.000    0.000 
#
# Total GULP energy -178626.094049 kJ/mol
# GULP energy per Si atom -5582.065439 kJ/mol
# Density = 1.921560 g / cm^3
# Si number density = 19.259433 Si / 1000 Ang^3
#
#
#
# Elastic Constant Matrix: (Units=GPa)
#
#
# Indices 1 2 3 4 5 6 
#
# 1 45.6685 41.2212 47.9460 0.0000 0.0000 0.0000
# 2 41.2212 135.2609 98.2637 0.0000 0.0000 0.0000
# 3 47.9460 98.2637 153.3861 0.0000 0.0000 0.0000
# 4 0.0000 0.0000 0.0000 34.5028 0.0000 0.0000
# 5 0.0000 0.0000 0.0000 0.0000 21.5397 0.0000
# 6 0.0000 0.0000 0.0000 0.0000 0.0000 20.0703
#
#
#
# Elastic Compliance Matrix: (Units=1/GPa)
#
#
# Indices 1 2 3 4 5 6 
#
# 1 0.034299 -0.004983 -0.007529 0.000000 0.000000 0.000000
# 2 -0.004983 0.014553 -0.007766 0.000000 0.000000 0.000000
# 3 -0.007529 -0.007766 0.013848 0.000000 0.000000 0.000000
# 4 0.000000 0.000000 0.000000 0.028983 0.000000 0.000000
# 5 0.000000 0.000000 0.000000 0.000000 0.046426 0.000000
# 6 0.000000 0.000000 0.000000 0.000000 0.000000 0.049825
#
#
# Mechanical properties :
#
#
# Convention : Reuss Voigt Hill
#
# Bulk Modulus (GPa) = 45.15727 78.79748 61.97737
# Shear Modulus (GPa) = 21.19797 25.01487 23.10642
#
# Velocity S-wave (km/s) = 3.32121 3.60785 3.46749
# Velocity P-wave (km/s) = 6.18102 7.63924 6.94849
#
# Compressibility (1/GPa) = 0.02214483
#
# Stress axis : x y z
#
# Youngs Moduli (GPa) = 29.15503 68.71299 72.21344
#
# Poissons Ratio (x) = 0.34241 0.54370
# Poissons Ratio (y) = 0.14528 0.56078
# Poissons Ratio (z) = 0.21951 0.53360
#
# Static dielectric constant tensor:
#      x y z
#    x 1.649940 0.000000 0.000000 
#    y 0.000000 1.693460 0.000000 
#    z 0.000000 0.000000 1.663930 
# 
# From -- ./inp_files/12017.got.cif
#   From: 2010.05.17/outbox.cif.g08.bks.cpg/sg35_7_cif.got.tgz:12017.got - 2010.06.03 17:29:28.
