data_PCOD9349764
_publ_section_title
;
Structure prediction by ZEFSAII (Michael W. Deem and Ramdas Pophale) SiO2 
 PCOD9349764
Probable space group: C M M 2
;
_chemical_formula_sum "Si O2"
_cell_formula_units_Z 64
_cell_length_a 18.141300
_cell_length_b 15.263630
_cell_length_c 10.567937
_cell_angle_alpha 90.000000
_cell_angle_beta 90.000000
_cell_angle_gamma 90.000000
_cell_volume 2926.283852
_symmetry_space_group_name_H-M "C M M 2"
_symmetry_group_IT_number 35
_symmetry_cell_setting 'orthorhombic'
loop_
_space_group_symop_operation_xyz
x,y,z
-x,-y,z
-x,y,z
x,-y,z
1/2+x,1/2+y,z
1/2-x,1/2-y,z
1/2-x,1/2+y,z
1/2+x,1/2-y,z
loop_
_atom_site_type_symbol
_atom_site_label
_atom_site_fract_x
_atom_site_fract_y
_atom_site_fract_z
Si Si1 0.919150 0.789335 0.610250
Si Si2 0.170888 0.102848 0.014980
Si Si3 0.320789 0.867866 0.551790
Si Si4 0.843760 0.096814 0.451990
Si Si5 0.579659 0.747134 0.906594
Si Si6 0.171207 0.228276 0.247805
Si Si7 0.185543 0.402286 0.852183
Si Si8 0.911578 0.597319 0.303082
O O1 0.850362 0.731320 0.562878
O O2 0.897746 0.886304 0.569349
O O3 0.922052 0.774619 0.758440
O O4 0.000000 0.763371 0.559305
O O5 0.099010 0.155697 0.971862
O O6 0.231059 0.108859 0.902185
O O7 0.162587 0.000000 0.046235
O O8 0.193771 0.166217 0.130512
O O9 0.239908 0.888569 0.499688
O O10 0.322140 0.897991 0.699128
O O11 0.377875 0.903525 0.446131
O O12 0.869431 0.164301 0.344630
O O13 0.848080 0.000000 0.400041
O O14 0.500000 0.779732 0.949155
O O15 0.639161 0.824465 0.915906
O O16 0.250000 0.250000 0.308282
O O17 0.126589 0.319024 0.234323
O O18 0.161185 0.500000 0.891319
O O19 0.894377 0.500000 0.248523
O O20 0.000000 0.607509 0.305565
#
# Coordination Sequence:
#
# PCOD9349764 Si02
#       8
#     8   8   8   8   8   8   8   8
#     4  10  21  38  60  89 129 172 212 264 327 388
#     4  11  25  45  67  93 125 169 225 276 321 381
#     4  11  20  38  63  97 132 168 209 262 325 391
#     4  12  23  36  59  92 126 167 215 260 315 382
#     4  10  22  40  63  91 126 167 213 267 329 389
#     4  12  24  42  66  92 129 172 213 270 324 382
#     4  10  21  39  66  98 131 167 211 266 327 391
#     4  11  24  42  66  99 138 176 217 269 333 402
#
# _framework density 21.870742
#
# number of rings (size 3 to 8) (size 9 to 14) (size 15 to 20)
#    0.000    1.125    2.500    4.125    0.000    5.750 
#    0.000    1.875    0.000    2.250    0.000    0.000 
#    0.000    0.000    0.000    0.000    0.000    0.000 
#
# Total GULP energy -178417.115637 kJ/mol
# GULP energy per Si atom -5575.534864 kJ/mol
# Density = 2.182096 g / cm^3
# Si number density = 21.870742 Si / 1000 Ang^3
#
#
#
# Elastic Constant Matrix: (Units=GPa)
#
#
# Indices 1 2 3 4 5 6 
#
# 1 43.8551 28.1930 -6.2539 0.0000 0.0000 0.0000
# 2 28.1930 149.3269 24.3916 0.0000 0.0000 0.0000
# 3 -6.2539 24.3916 44.2513 0.0000 0.0000 0.0000
# 4 0.0000 0.0000 0.0000 15.4449 0.0000 0.0000
# 5 0.0000 0.0000 0.0000 0.0000 11.9165 0.0000
# 6 0.0000 0.0000 0.0000 0.0000 0.0000 -17.7567
#
#
#
# Elastic Compliance Matrix: (Units=1/GPa)
#
#
# Indices 1 2 3 4 5 6 
#
# 1 0.028087 -0.006540 0.007574 0.000000 0.000000 0.000000
# 2 -0.006540 0.008882 -0.005820 0.000000 0.000000 0.000000
# 3 0.007574 -0.005820 0.026877 0.000000 0.000000 0.000000
# 4 0.000000 0.000000 0.000000 0.064746 0.000000 0.000000
# 5 0.000000 0.000000 0.000000 0.000000 0.083917 0.000000
# 6 0.000000 0.000000 0.000000 0.000000 0.000000 -0.056317
#
#
# Mechanical properties :
#
#
# Convention : Reuss Voigt Hill
#
# Bulk Modulus (GPa) = 18.42501 36.67719 27.55110
# Shear Modulus (GPa) = 27.19530 14.66113 20.92821
#
# Velocity S-wave (km/s) = 3.53009 2.59193 3.09674
# Velocity P-wave (km/s) = 5.00582 5.07581 5.04093
#
# Compressibility (1/GPa) = 0.05427406
#
# Stress axis : x y z
#
# Youngs Moduli (GPa) = 35.60384 112.58507 37.20679
#
# Poissons Ratio (x) = 0.73631 -0.28182
# Poissons Ratio (y) = 0.23285 0.21655
# Poissons Ratio (z) = -0.26968 0.65527
#
# Static dielectric constant tensor:
#      x y z
#    x 1.824990 0.000000 0.000000 
#    y 0.000000 1.859170 0.000000 
#    z 0.000000 0.000000 1.875970 
# 
# From -- ./inp_files/13580.got.cif
#   From: 2010.05.17/outbox.cif.g08.bks.cpg/sg35_7_cif.got.tgz:13580.got - 2010.06.03 17:29:28.
