data_PCOD9349670
_publ_section_title
;
Structure prediction by ZEFSAII (Michael W. Deem and Ramdas Pophale) SiO2 
 PCOD9349670
Probable space group: C M M 2
;
_chemical_formula_sum "Si O2"
_cell_formula_units_Z 48
_cell_length_a 19.221677
_cell_length_b 8.161458
_cell_length_c 15.973468
_cell_angle_alpha 90.000000
_cell_angle_beta 90.000000
_cell_angle_gamma 90.000000
_cell_volume 2505.868294
_symmetry_space_group_name_H-M "C M M 2"
_symmetry_group_IT_number 35
_symmetry_cell_setting 'orthorhombic'
loop_
_space_group_symop_operation_xyz
x,y,z
-x,-y,z
-x,y,z
x,-y,z
1/2+x,1/2+y,z
1/2-x,1/2-y,z
1/2-x,1/2+y,z
1/2+x,1/2-y,z
loop_
_atom_site_type_symbol
_atom_site_label
_atom_site_fract_x
_atom_site_fract_y
_atom_site_fract_z
Si Si1 0.080265 0.300194 0.247600
Si Si2 0.080980 0.301754 0.435527
Si Si3 0.329844 0.198224 0.904789
Si Si4 0.829405 0.697919 0.092107
Si Si5 0.670158 0.306999 0.592900
Si Si6 0.920925 0.303348 0.749532
O O1 0.082746 0.500000 0.247415
O O2 0.101647 0.249125 0.341347
O O3 0.125514 0.240444 0.169930
O O4 0.000000 0.253435 0.236314
O O5 0.082442 0.500000 0.438150
O O6 0.131892 0.237098 0.506348
O O7 0.000000 0.253124 0.449765
O O8 0.250000 0.250000 0.889675
O O9 0.380625 0.258973 0.831912
O O10 0.331302 0.000000 0.904141
O O11 0.350580 0.253177 0.998588
O O12 0.833325 0.500000 0.092259
O O13 0.750000 0.750000 0.103658
O O14 0.669668 0.500000 0.604237
O O15 0.750000 0.250000 0.593662
O O16 0.625253 0.232015 0.668320
O O17 0.925279 0.500000 0.757489
O O18 0.000000 0.240234 0.741897
#
# Coordination Sequence:
#
# PCOD9349670 Si02
#       6
#     8   8   8   8   8   8
#     4   8  15  29  51  77 103 134 171 209 250 298
#     4   9  18  35  57  79 106 139 173 212 260 310
#     4   9  18  32  51  75 103 137 173 211 255 301
#     4   9  17  30  49  74 104 136 172 212 252 297
#     4  12  25  39  56  78 104 135 173 215 260 310
#     4  10  21  37  56  79 107 137 170 211 260 311
#
# _framework density 19.155035999999999
#
# number of rings (size 3 to 8) (size 9 to 14) (size 15 to 20)
#    0.000    2.500    0.000    3.500    0.000    6.000 
#    0.000    5.833    0.000    1.500    0.000    4.667 
#    0.000    0.000    0.000    0.000    0.000    0.000 
#
# Total GULP energy -133902.388723 kJ/mol
# GULP energy per Si atom -5579.266197 kJ/mol
# Density = 1.911144 g / cm^3
# Si number density = 19.155036 Si / 1000 Ang^3
#
#
#
# Elastic Constant Matrix: (Units=GPa)
#
#
# Indices 1 2 3 4 5 6 
#
# 1 130.6069 7.7285 118.7306 0.0000 0.0000 0.0000
# 2 7.7285 11.6220 5.4784 0.0000 0.0000 0.0000
# 3 118.7306 5.4784 189.6389 0.0000 0.0000 0.0000
# 4 0.0000 0.0000 0.0000 -1.2028 0.0000 0.0000
# 5 0.0000 0.0000 0.0000 0.0000 48.7144 0.0000
# 6 0.0000 0.0000 0.0000 0.0000 0.0000 22.7956
#
#
#
# Elastic Compliance Matrix: (Units=1/GPa)
#
#
# Indices 1 2 3 4 5 6 
#
# 1 0.018295 -0.006860 -0.011256 0.000000 0.000000 0.000000
# 2 -0.006860 0.089804 0.001701 0.000000 0.000000 0.000000
# 3 -0.011256 0.001701 0.012271 0.000000 0.000000 0.000000
# 4 0.000000 0.000000 0.000000 -0.831425 0.000000 0.000000
# 5 0.000000 0.000000 0.000000 0.000000 0.020528 0.000000
# 6 0.000000 0.000000 0.000000 0.000000 0.000000 0.043868
#
#
# Mechanical properties :
#
#
# Convention : Reuss Voigt Hill
#
# Bulk Modulus (GPa) = 11.42344 66.19364 38.80854
# Shear Modulus (GPa) = -8.55216 27.39014 9.41899
#
# Velocity S-wave (km/s) = -2.11528 3.78553 2.21989
# Velocity P-wave (km/s) = 0.10371 7.33067 5.18409
#
# Compressibility (1/GPa) = 0.08753933
#
# Stress axis : x y z
#
# Youngs Moduli (GPa) = 54.65934 11.13537 81.49029
#
# Poissons Ratio (x) = 0.07639 0.91727
# Poissons Ratio (y) = 0.37497 -0.13859
# Poissons Ratio (z) = 0.61526 -0.01894
#
# Static dielectric constant tensor:
#      x y z
#    x 1.599600 0.000000 0.000000 
#    y 0.000000 1.678210 0.000000 
#    z 0.000000 0.000000 1.680740 
# 
# From -- ./inp_files/15099.got.cif
#   From: 2010.05.17/outbox.cif.g08.bks.cpg/sg35_8_cif.got.tgz:15099.got - 2010.06.03 17:29:28.
