data_PCOD9349901
_publ_section_title
;
Structure prediction by ZEFSAII (Michael W. Deem and Ramdas Pophale) SiO2 
 PCOD9349901
Probable space group: C M M 2
;
_chemical_formula_sum "Si O2"
_cell_formula_units_Z 48
_cell_length_a 17.857576
_cell_length_b 15.786742
_cell_length_c 8.397246
_cell_angle_alpha 90.000000
_cell_angle_beta 90.000000
_cell_angle_gamma 90.000000
_cell_volume 2367.292350
_symmetry_space_group_name_H-M "C M M 2"
_symmetry_group_IT_number 35
_symmetry_cell_setting 'orthorhombic'
loop_
_space_group_symop_operation_xyz
x,y,z
-x,-y,z
-x,y,z
x,-y,z
1/2+x,1/2+y,z
1/2-x,1/2-y,z
1/2-x,1/2+y,z
1/2+x,1/2-y,z
loop_
_atom_site_type_symbol
_atom_site_label
_atom_site_fract_x
_atom_site_fract_y
_atom_site_fract_z
Si Si1 0.085185 0.000000 0.524320
Si Si2 0.308338 0.000000 0.127394
Si Si3 0.088639 0.500000 0.439679
Si Si4 0.682882 0.187085 0.127902
Si Si5 0.088155 0.174144 0.988919
Si Si6 0.164343 0.165744 0.651698
Si Si7 0.367882 0.500000 0.165432
Si Si8 0.672743 0.163511 0.504663
O O1 0.125433 0.082120 0.589992
O O2 0.092604 0.000000 0.334972
O O3 0.000000 0.000000 0.576762
O O4 0.316933 0.093498 0.048045
O O5 0.222193 0.000000 0.187874
O O6 0.370101 0.000000 0.267630
O O7 0.119139 0.583867 0.525238
O O8 0.000000 0.500000 0.423500
O O9 0.750000 0.250000 0.079397
O O10 0.609825 0.243603 0.094071
O O11 0.693089 0.169593 0.317097
O O12 0.108997 0.085817 0.074940
O O13 0.000000 0.173911 0.951055
O O14 0.139475 0.178913 0.832086
O O15 0.252338 0.155980 0.610972
O O16 0.137338 0.247609 0.553921
#
# Coordination Sequence:
#
# PCOD9349901 Si02
#       8
#     4   4   4   8   8   8   4   8
#     4  12  23  38  64  94 130 172 214 272 337 403
#     4  10  22  37  68  94 124 172 216 273 333 393
#     4  10  22  39  63  96 134 162 216 288 339 390
#     4  11  20  41  68  98 132 166 231 282 331 408
#     4  12  27  42  64  99 142 178 216 286 364 417
#     4  11  23  42  65  92 133 171 225 277 335 421
#     4  12  23  42  67  96 132 172 234 283 335 420
#     4  10  22  41  69  96 119 174 233 279 332 400
#
# _framework density 20.276329
#
# number of rings (size 3 to 8) (size 9 to 14) (size 15 to 20)
#    0.000    1.000    3.333    5.250    2.333    4.000 
#    0.000    0.833    0.000    0.000    0.000    0.000 
#    0.000    0.000    0.000    0.000    0.000    0.000 
#
# Total GULP energy -134041.141514 kJ/mol
# GULP energy per Si atom -5585.047563 kJ/mol
# Density = 2.023018 g / cm^3
# Si number density = 20.276329 Si / 1000 Ang^3
#
#
#
# Elastic Constant Matrix: (Units=GPa)
#
#
# Indices 1 2 3 4 5 6 
#
# 1 133.2973 61.2340 34.3930 0.0000 0.0000 0.0000
# 2 61.2340 204.5157 14.7968 0.0000 0.0000 0.0000
# 3 34.3930 14.7968 52.6230 0.0000 0.0000 0.0000
# 4 0.0000 0.0000 0.0000 27.3226 0.0000 0.0000
# 5 0.0000 0.0000 0.0000 0.0000 3.9820 0.0000
# 6 0.0000 0.0000 0.0000 0.0000 0.0000 19.2361
#
#
#
# Elastic Compliance Matrix: (Units=1/GPa)
#
#
# Indices 1 2 3 4 5 6 
#
# 1 0.010251 -0.002638 -0.005958 0.000000 0.000000 0.000000
# 2 -0.002638 0.005670 0.000130 0.000000 0.000000 0.000000
# 3 -0.005958 0.000130 0.022861 0.000000 0.000000 0.000000
# 4 0.000000 0.000000 0.000000 0.036600 0.000000 0.000000
# 5 0.000000 0.000000 0.000000 0.000000 0.251131 0.000000
# 6 0.000000 0.000000 0.000000 0.000000 0.000000 0.051986
#
#
# Mechanical properties :
#
#
# Convention : Reuss Voigt Hill
#
# Bulk Modulus (GPa) = 45.76839 67.92041 56.84440
# Shear Modulus (GPa) = 12.41574 28.77561 20.59567
#
# Velocity S-wave (km/s) = 2.47721 3.77128 3.19054
# Velocity P-wave (km/s) = 5.55008 7.24800 6.45511
#
# Compressibility (1/GPa) = 0.02184914
#
# Stress axis : x y z
#
# Youngs Moduli (GPa) = 97.54872 176.36306 43.74336
#
# Poissons Ratio (x) = 0.46529 0.26063
# Poissons Ratio (y) = 0.25736 -0.00568
# Poissons Ratio (z) = 0.58121 -0.02292
#
# Static dielectric constant tensor:
#      x y z
#    x 1.703890 0.000000 0.000000 
#    y 0.000000 1.714920 0.000000 
#    z 0.000000 0.000000 1.733610 
# 
# From -- ./inp_files/8418.got.cif
#   From: 2010.05.17/outbox.cif.g08.bks.cpg/sg35_5_cif.got.tgz:8418.got - 2010.06.03 17:29:28.
