data_PCOD9349675
_publ_section_title
;
Structure prediction by ZEFSAII (Michael W. Deem and Ramdas Pophale) SiO2 
 PCOD9349675
Probable space group: C M M 2
;
_chemical_formula_sum "Si O2"
_cell_formula_units_Z 56
_cell_length_a 21.909807
_cell_length_b 8.671841
_cell_length_c 14.500953
_cell_angle_alpha 90.000000
_cell_angle_beta 90.000000
_cell_angle_gamma 90.000000
_cell_volume 2755.157327
_symmetry_space_group_name_H-M "C M M 2"
_symmetry_group_IT_number 35
_symmetry_cell_setting 'orthorhombic'
loop_
_space_group_symop_operation_xyz
x,y,z
-x,-y,z
-x,y,z
x,-y,z
1/2+x,1/2+y,z
1/2-x,1/2-y,z
1/2-x,1/2+y,z
1/2+x,1/2-y,z
loop_
_atom_site_type_symbol
_atom_site_label
_atom_site_fract_x
_atom_site_fract_y
_atom_site_fract_z
Si Si1 0.000000 0.825088 0.117330
Si Si2 0.432854 0.687402 0.837195
Si Si3 0.813677 0.184100 0.946713
Si Si4 0.369618 0.184031 0.121885
Si Si5 0.067146 0.187402 0.620941
Si Si6 0.869618 0.684031 0.336251
Si Si7 0.686323 0.315900 0.511422
Si Si8 0.000000 0.825088 0.340805
O O1 0.937575 0.739508 0.093683
O O2 0.000000 0.833125 0.229068
O O3 0.000000 0.000000 0.080369
O O4 0.500000 0.738956 0.871278
O O5 0.432759 0.500000 0.842512
O O6 0.373427 0.741762 0.891660
O O7 0.428238 0.727347 0.729068
O O8 0.750000 0.250000 0.910700
O O9 0.812100 0.000000 0.941904
O O10 0.823520 0.236923 0.051856
O O11 0.360069 0.227853 0.229068
O O12 0.365670 0.000000 0.115097
O O13 0.126573 0.241763 0.566476
O O14 0.000000 0.238955 0.586857
O O15 0.067241 0.000000 0.615624
O O16 0.865670 0.500000 0.343039
O O17 0.823520 0.763077 0.406280
O O18 0.937575 0.739507 0.364452
O O19 0.687900 0.500000 0.516232
O O20 0.750000 0.250000 0.547436
O O21 0.000000 0.000000 0.377766
#
# Coordination Sequence:
#
# PCOD9349675 Si02
#       8
#     4   8   8   8   8   8   8   4
#     4   9  17  31  53  81 110 143 188 237 285 340
#     4   8  16  34  60  88 115 145 187 238 290 346
#     4  11  23  37  57  85 118 155 196 240 292 350
#     4  10  21  37  56  80 114 155 197 243 293 341
#     4   8  16  34  60  88 115 145 187 238 290 346
#     4  10  21  37  56  80 114 155 197 243 293 341
#     4  11  23  37  57  85 118 155 196 240 292 350
#     4   9  17  31  53  81 110 143 188 237 285 340
#
# _framework density 20.325517999999999
#
# number of rings (size 3 to 8) (size 9 to 14) (size 15 to 20)
#    0.000    2.429    0.000    3.000    2.000    4.571 
#    0.000    0.000    0.000    2.571    0.000    8.000 
#    0.000    0.000    0.000    0.000    0.000    0.000 
#
# Total GULP energy -156345.464518 kJ/mol
# GULP energy per Si atom -5583.766590 kJ/mol
# Density = 2.027926 g / cm^3
# Si number density = 20.325518 Si / 1000 Ang^3
#
#
#
# Elastic Constant Matrix: (Units=GPa)
#
#
# Indices 1 2 3 4 5 6 
#
# 1 178.4654 30.3903 68.5201 0.0000 0.0000 0.0000
# 2 30.3903 38.6878 16.6700 0.0000 0.0000 0.0000
# 3 68.5201 16.6700 70.5832 0.0000 0.0000 0.0000
# 4 0.0000 0.0000 0.0000 7.5509 0.0000 0.0000
# 5 0.0000 0.0000 0.0000 0.0000 -0.8292 0.0000
# 6 0.0000 0.0000 0.0000 0.0000 0.0000 34.9138
#
#
#
# Elastic Compliance Matrix: (Units=1/GPa)
#
#
# Indices 1 2 3 4 5 6 
#
# 1 0.009422 -0.003852 -0.008236 0.000000 0.000000 0.000000
# 2 -0.003852 0.030351 -0.003429 0.000000 0.000000 0.000000
# 3 -0.008236 -0.003429 0.022973 0.000000 0.000000 0.000000
# 4 0.000000 0.000000 0.000000 0.132435 0.000000 0.000000
# 5 0.000000 0.000000 0.000000 0.000000 -1.206039 0.000000
# 6 0.000000 0.000000 0.000000 0.000000 0.000000 0.028642
#
#
# Mechanical properties :
#
#
# Convention : Reuss Voigt Hill
#
# Bulk Modulus (GPa) = 31.53434 57.65524 44.59479
# Shear Modulus (GPa) = -5.31569 19.80418 7.24424
#
# Velocity S-wave (km/s) = -1.61894 3.12485 1.88993
# Velocity P-wave (km/s) = 3.47185 6.43794 5.17208
#
# Compressibility (1/GPa) = 0.03171147
#
# Stress axis : x y z
#
# Youngs Moduli (GPa) = 106.13953 32.94768 43.52901
#
# Poissons Ratio (x) = 0.12691 0.35852
# Poissons Ratio (y) = 0.40884 0.14925
# Poissons Ratio (z) = 0.87421 0.11297
#
# Static dielectric constant tensor:
#      x y z
#    x 1.737570 0.000000 0.000000 
#    y 0.000000 1.687720 0.000000 
#    z 0.000000 0.000000 1.741730 
# 
# From -- ./inp_files/17463.got.cif
#   From: 2010.05.17/outbox.cif.g08.bks.cpg/sg35_9_cif.got.tgz:17463.got - 2010.06.03 17:29:28.
