data_PCOD9349073
_publ_section_title
;
Structure prediction by ZEFSAII (Michael W. Deem and Ramdas Pophale) SiO2 
 PCOD9349073
Probable space group: C M M 2
;
_chemical_formula_sum "Si O2"
_cell_formula_units_Z 56
_cell_length_a 23.065428
_cell_length_b 8.537674
_cell_length_c 15.109388
_cell_angle_alpha 90.000000
_cell_angle_beta 90.000000
_cell_angle_gamma 90.000000
_cell_volume 2975.417817
_symmetry_space_group_name_H-M "C M M 2"
_symmetry_group_IT_number 35
_symmetry_cell_setting 'orthorhombic'
loop_
_space_group_symop_operation_xyz
x,y,z
-x,-y,z
-x,y,z
x,-y,z
1/2+x,1/2+y,z
1/2-x,1/2-y,z
1/2-x,1/2+y,z
1/2+x,1/2-y,z
loop_
_atom_site_type_symbol
_atom_site_label
_atom_site_fract_x
_atom_site_fract_y
_atom_site_fract_z
Si Si1 0.814386 0.813002 0.426070
Si Si2 0.124463 0.310350 0.599891
Si Si3 0.106572 0.179702 0.931125
Si Si4 0.931606 0.686554 0.117684
Si Si5 0.682684 0.688315 0.223664
Si Si6 0.814526 0.687724 0.782702
Si Si7 0.000000 0.828757 0.797562
Si Si8 0.500000 0.819721 0.621014
O O1 0.750000 0.750000 0.432726
O O2 0.845224 0.740031 0.510429
O O3 0.832248 0.769904 0.325956
O O4 0.816719 0.000000 0.432859
O O5 0.123609 0.500000 0.604323
O O6 0.151588 0.257895 0.693690
O O7 0.059599 0.245942 0.592299
O O8 0.158961 0.251460 0.874836
O O9 0.055091 0.179259 0.860051
O O10 0.119316 0.000000 0.957263
O O11 0.083839 0.272047 0.016114
O O12 0.931777 0.500000 0.131044
O O13 0.874438 0.753894 0.169388
O O14 0.000000 0.739875 0.135596
O O15 0.686204 0.500000 0.215076
O O16 0.750000 0.750000 0.204673
O O17 0.815964 0.500000 0.783749
O O18 0.750000 0.750000 0.773783
O O19 0.000000 0.691470 0.727083
O O20 0.000000 0.000000 0.752144
O O21 0.500000 0.000000 0.591914
#
# Coordination Sequence:
#
# PCOD9349073 Si02
#       8
#     8   8   8   8   8   8   4   4
#     4  10  21  38  62  88 115 151 194 240 292 350
#     4  10  21  36  57  84 117 155 195 239 288 344
#     4  11  22  38  60  86 116 153 194 237 289 347
#     4  11  24  41  64  94 125 160 202 248 302 365
#     4  10  22  42  67  93 122 157 199 251 307 366
#     4  11  23  38  56  83 118 156 198 246 293 342
#     4  10  20  34  56  83 110 147 190 233 280 334
#     4  10  20  36  56  81 114 155 196 237 288 340
#
# _framework density 18.820886999999999
#
# number of rings (size 3 to 8) (size 9 to 14) (size 15 to 20)
#    0.000    1.571    2.143    2.571    0.000    6.571 
#    1.286    2.857    0.000    0.000    0.000    0.000 
#    0.000    0.000    0.000    0.000    0.000    0.000 
#
# Total GULP energy -155968.929411 kJ/mol
# GULP energy per Si atom -5570.318908 kJ/mol
# Density = 1.877805 g / cm^3
# Si number density = 18.820887 Si / 1000 Ang^3
#
#
#
# Elastic Constant Matrix: (Units=GPa)
#
#
# Indices 1 2 3 4 5 6 
#
# 1 108.0813 21.5271 53.2765 0.0000 0.0000 0.0000
# 2 21.5271 31.0193 9.1684 0.0000 0.0000 0.0000
# 3 53.2765 9.1684 82.8452 0.0000 0.0000 0.0000
# 4 0.0000 0.0000 0.0000 19.8618 0.0000 0.0000
# 5 0.0000 0.0000 0.0000 0.0000 35.2101 0.0000
# 6 0.0000 0.0000 0.0000 0.0000 0.0000 18.3240
#
#
#
# Elastic Compliance Matrix: (Units=1/GPa)
#
#
# Indices 1 2 3 4 5 6 
#
# 1 0.015226 -0.007932 -0.008914 0.000000 0.000000 0.000000
# 2 -0.007932 0.037460 0.000955 0.000000 0.000000 0.000000
# 3 -0.008914 0.000955 0.017697 0.000000 0.000000 0.000000
# 4 0.000000 0.000000 0.000000 0.050348 0.000000 0.000000
# 5 0.000000 0.000000 0.000000 0.000000 0.028401 0.000000
# 6 0.000000 0.000000 0.000000 0.000000 0.000000 0.054573
#
#
# Mechanical properties :
#
#
# Convention : Reuss Voigt Hill
#
# Bulk Modulus (GPa) = 25.90503 43.32112 34.61307
# Shear Modulus (GPa) = 20.13251 23.87743 22.00497
#
# Velocity S-wave (km/s) = 3.27416 3.56570 3.42303
# Velocity P-wave (km/s) = 5.29975 6.32612 5.83554
#
# Compressibility (1/GPa) = 0.03860254
#
# Stress axis : x y z
#
# Youngs Moduli (GPa) = 65.67691 26.69487 56.50574
#
# Poissons Ratio (x) = 0.21175 0.50368
# Poissons Ratio (y) = 0.52095 -0.05398
# Poissons Ratio (z) = 0.58543 -0.02550
#
# Static dielectric constant tensor:
#      x y z
#    x 1.683680 0.000000 0.000000 
#    y 0.000000 1.672590 0.000000 
#    z 0.000000 0.000000 1.657420 
# 
# From -- ./inp_files/17487.got.cif
#   From: 2010.05.17/outbox.cif.g08.bks.cpg/sg35_9_cif.got.tgz:17487.got - 2010.06.03 17:29:28.
