data_PCOD9349841
_publ_section_title
;
Structure prediction by ZEFSAII (Michael W. Deem and Ramdas Pophale) SiO2 
 PCOD9349841
Probable space group: C M M 2
;
_chemical_formula_sum "Si O2"
_cell_formula_units_Z 48
_cell_length_a 18.045111
_cell_length_b 13.916385
_cell_length_c 9.670722
_cell_angle_alpha 90.000000
_cell_angle_beta 90.000000
_cell_angle_gamma 90.000000
_cell_volume 2428.537936
_symmetry_space_group_name_H-M "C M M 2"
_symmetry_group_IT_number 35
_symmetry_cell_setting 'orthorhombic'
loop_
_space_group_symop_operation_xyz
x,y,z
-x,-y,z
-x,y,z
x,-y,z
1/2+x,1/2+y,z
1/2-x,1/2-y,z
1/2-x,1/2+y,z
1/2+x,1/2-y,z
loop_
_atom_site_type_symbol
_atom_site_label
_atom_site_fract_x
_atom_site_fract_y
_atom_site_fract_z
Si Si1 0.366597 0.772017 0.144240
Si Si2 0.608727 0.607612 0.951796
Si Si3 0.284100 0.109758 0.911097
Si Si4 0.000000 0.695507 0.552246
Si Si5 0.750000 0.250000 0.384246
Si Si6 0.000000 0.111535 0.704433
Si Si7 0.164164 0.615320 0.602136
Si Si8 0.000000 0.387080 0.254665
O O1 0.318366 0.735239 0.275423
O O2 0.425449 0.854170 0.180312
O O3 0.407478 0.683861 0.070111
O O4 0.315882 0.820645 0.027035
O O5 0.586737 0.500000 0.992726
O O6 0.696114 0.608882 0.926253
O O7 0.569010 0.628362 0.807058
O O8 0.305685 0.137734 0.755491
O O9 0.311123 0.000000 0.933045
O O10 0.000000 0.807593 0.589373
O O11 0.077991 0.648869 0.601018
O O12 0.000000 0.676130 0.391379
O O13 0.784666 0.331210 0.487021
O O14 0.000000 0.000000 0.658996
O O15 0.167244 0.500000 0.579739
O O16 0.000000 0.500000 0.284660
#
# Coordination Sequence:
#
# PCOD9349841 Si02
#       8
#     8   8   8   4   4   4   8   4
#     4  12  23  42  66  99 131 176 222 273 333 398
#     4  10  21  39  64  95 129 171 220 278 334 386
#     4  10  22  39  66  96 128 170 226 284 332 389
#     4  12  24  42  68  92 134 184 216 270 338 408
#     4  12  26  38  66  98 134 174 220 268 334 402
#     4  10  23  41  63  96 132 174 228 281 333 398
#     4  11  26  45  67  98 135 177 227 278 334 402
#     4  12  27  45  67  96 136 176 220 275 337 402
#
# _framework density 19.764977999999999
#
# number of rings (size 3 to 8) (size 9 to 14) (size 15 to 20)
#    0.000    1.000    3.333    2.750    4.667    2.000 
#    0.000    1.667    0.000    0.000    0.000    0.000 
#    0.000    0.000    0.000    0.000    0.000    0.000 
#
# Total GULP energy -133964.635312 kJ/mol
# GULP energy per Si atom -5581.859805 kJ/mol
# Density = 1.971999 g / cm^3
# Si number density = 19.764978 Si / 1000 Ang^3
#
#
#
# Elastic Constant Matrix: (Units=GPa)
#
#
# Indices 1 2 3 4 5 6 
#
# 1 89.9764 48.5478 40.1514 0.0000 0.0000 0.0000
# 2 48.5478 134.4015 83.2122 0.0000 0.0000 0.0000
# 3 40.1514 83.2122 119.8914 0.0000 0.0000 0.0000
# 4 0.0000 0.0000 0.0000 175.9256 0.0000 0.0000
# 5 0.0000 0.0000 0.0000 0.0000 11.8557 0.0000
# 6 0.0000 0.0000 0.0000 0.0000 0.0000 4.7784
#
#
#
# Elastic Compliance Matrix: (Units=1/GPa)
#
#
# Indices 1 2 3 4 5 6 
#
# 1 0.014094 -0.003803 -0.002081 0.000000 0.000000 0.000000
# 2 -0.003803 0.014073 -0.008494 0.000000 0.000000 0.000000
# 3 -0.002081 -0.008494 0.014933 0.000000 0.000000 0.000000
# 4 0.000000 0.000000 0.000000 0.005684 0.000000 0.000000
# 5 0.000000 0.000000 0.000000 0.000000 0.084347 0.000000
# 6 0.000000 0.000000 0.000000 0.000000 0.000000 0.209274
#
#
# Mechanical properties :
#
#
# Convention : Reuss Voigt Hill
#
# Bulk Modulus (GPa) = 69.70929 76.45467 73.08198
# Shear Modulus (GPa) = 13.29992 50.00249 31.65121
#
# Velocity S-wave (km/s) = 2.59685 5.03522 4.00606
# Velocity P-wave (km/s) = 6.65862 8.51883 7.64551
#
# Compressibility (1/GPa) = 0.01434529
#
# Stress axis : x y z
#
# Youngs Moduli (GPa) = 70.95002 71.05879 66.96565
#
# Poissons Ratio (x) = 0.27022 0.13934
# Poissons Ratio (y) = 0.26981 0.56880
# Poissons Ratio (z) = 0.14763 0.60357
#
# Static dielectric constant tensor:
#      x y z
#    x 1.697320 0.000000 0.000000 
#    y 0.000000 1.603620 0.000000 
#    z 0.000000 0.000000 1.686100 
# 
# From -- ./inp_files/8425.got.cif
#   From: 2010.05.17/outbox.cif.g08.bks.cpg/sg35_5_cif.got.tgz:8425.got - 2010.06.03 17:29:28.
