data_PCOD9349361
_publ_section_title
;
Structure prediction by ZEFSAII (Michael W. Deem and Ramdas Pophale) SiO2 
 PCOD9349361
Probable space group: C M M 2
;
_chemical_formula_sum "Si O2"
_cell_formula_units_Z 48
_cell_length_a 15.463475
_cell_length_b 17.475850
_cell_length_c 9.503125
_cell_angle_alpha 90.000000
_cell_angle_beta 90.000000
_cell_angle_gamma 90.000000
_cell_volume 2568.099503
_symmetry_space_group_name_H-M "C M M 2"
_symmetry_group_IT_number 35
_symmetry_cell_setting 'orthorhombic'
loop_
_space_group_symop_operation_xyz
x,y,z
-x,-y,z
-x,y,z
x,-y,z
1/2+x,1/2+y,z
1/2-x,1/2-y,z
1/2-x,1/2+y,z
1/2+x,1/2-y,z
loop_
_atom_site_type_symbol
_atom_site_label
_atom_site_fract_x
_atom_site_fract_y
_atom_site_fract_z
Si Si1 0.766545 0.587131 0.745650
Si Si2 0.098465 0.688431 0.577758
Si Si3 0.267111 0.913492 0.076663
Si Si4 0.596222 0.376395 0.244122
Si Si5 0.342845 0.788867 0.274593
Si Si6 0.598532 0.372847 0.575584
O O1 0.798388 0.500000 0.728225
O O2 0.832087 0.645809 0.672957
O O3 0.673475 0.593228 0.670891
O O4 0.758882 0.603087 0.911482
O O5 0.119553 0.672818 0.414137
O O6 0.104753 0.780596 0.589407
O O7 0.000000 0.666308 0.611371
O O8 0.173143 0.908574 0.150409
O O9 0.325237 0.850368 0.154147
O O10 0.300371 0.000000 0.094272
O O11 0.500000 0.403177 0.207569
O O12 0.600359 0.283907 0.230724
O O13 0.611694 0.392251 0.410302
O O14 0.250000 0.750000 0.311530
O O15 0.500000 0.395299 0.612389
#
# Coordination Sequence:
#
# PCOD9349361 Si02
#       6
#     8   8   8   8   8   8
#     4  11  23  37  52  75 113 149 177 215 260 313
#     4  10  20  36  59  82 104 134 177 226 269 313
#     4  10  22  36  50  74 108 145 177 210 259 311
#     4   9  18  34  56  81 106 131 168 219 267 313
#     4   9  17  33  57  80 104 134 172 218 265 314
#     4   9  19  36  59  85 108 134 173 221 269 315
#
# _framework density 18.690864000000001
#
# number of rings (size 3 to 8) (size 9 to 14) (size 15 to 20)
#    0.000    2.333    0.000    5.000    0.000    8.333 
#    0.000    6.667    0.000    3.500    0.000    0.000 
#    0.000    0.000    0.000    0.000    0.000    0.000 
#
# Total GULP energy -133964.011306 kJ/mol
# GULP energy per Si atom -5581.833804 kJ/mol
# Density = 1.864832 g / cm^3
# Si number density = 18.690864 Si / 1000 Ang^3
#
#
#
# Elastic Constant Matrix: (Units=GPa)
#
#
# Indices 1 2 3 4 5 6 
#
# 1 70.3580 22.2307 28.6347 0.0000 0.0000 0.0000
# 2 22.2307 49.9407 44.5683 0.0000 0.0000 0.0000
# 3 28.6347 44.5683 79.8792 0.0000 0.0000 0.0000
# 4 0.0000 0.0000 0.0000 30.8916 0.0000 0.0000
# 5 0.0000 0.0000 0.0000 0.0000 2.2848 0.0000
# 6 0.0000 0.0000 0.0000 0.0000 0.0000 9.3237
#
#
#
# Elastic Compliance Matrix: (Units=1/GPa)
#
#
# Indices 1 2 3 4 5 6 
#
# 1 0.017084 -0.004261 -0.003747 0.000000 0.000000 0.000000
# 2 -0.004261 0.040945 -0.021317 0.000000 0.000000 0.000000
# 3 -0.003747 -0.021317 0.025756 0.000000 0.000000 0.000000
# 4 0.000000 0.000000 0.000000 0.032371 0.000000 0.000000
# 5 0.000000 0.000000 0.000000 0.000000 0.437671 0.000000
# 6 0.000000 0.000000 0.000000 0.000000 0.000000 0.107253
#
#
# Mechanical properties :
#
#
# Convention : Reuss Voigt Hill
#
# Bulk Modulus (GPa) = 39.78641 43.44949 41.61795
# Shear Modulus (GPa) = 6.86710 15.48298 11.17504
#
# Velocity S-wave (km/s) = 1.91886 2.88127 2.44783
# Velocity P-wave (km/s) = 5.12271 5.86223 5.50490
#
# Compressibility (1/GPa) = 0.02513421
#
# Stress axis : x y z
#
# Youngs Moduli (GPa) = 58.53328 24.42315 38.82601
#
# Poissons Ratio (x) = 0.10407 0.14547
# Poissons Ratio (y) = 0.24943 0.82767
# Poissons Ratio (z) = 0.21931 0.52064
#
# Static dielectric constant tensor:
#      x y z
#    x 1.650260 0.000000 0.000000 
#    y 0.000000 1.660770 0.000000 
#    z 0.000000 0.000000 1.613400 
# 
# From -- ./inp_files/7291.got.cif
#   From: 2010.05.17/outbox.cif.g08.bks.cpg/sg35_4_cif.got.tgz:7291.got - 2010.06.03 17:29:28.
