data_PCOD9349126
_publ_section_title
;
Structure prediction by ZEFSAII (Michael W. Deem and Ramdas Pophale) SiO2 
 PCOD9349126
Probable space group: C M M 2
;
_chemical_formula_sum "Si O2"
_cell_formula_units_Z 56
_cell_length_a 7.848207
_cell_length_b 20.030748
_cell_length_c 18.311845
_cell_angle_alpha 90.000000
_cell_angle_beta 90.000000
_cell_angle_gamma 90.000000
_cell_volume 2878.721956
_symmetry_space_group_name_H-M "C M M 2"
_symmetry_group_IT_number 35
_symmetry_cell_setting 'orthorhombic'
loop_
_space_group_symop_operation_xyz
x,y,z
-x,-y,z
-x,y,z
x,-y,z
1/2+x,1/2+y,z
1/2-x,1/2-y,z
1/2-x,1/2+y,z
1/2+x,1/2-y,z
loop_
_atom_site_type_symbol
_atom_site_label
_atom_site_fract_x
_atom_site_fract_y
_atom_site_fract_z
Si Si1 0.205610 0.326139 0.955540
Si Si2 0.203686 0.424164 0.081286
Si Si3 0.205296 0.325902 0.789785
Si Si4 0.794671 0.825615 0.375962
Si Si5 0.703362 0.325858 0.210216
Si Si6 0.794696 0.576281 0.663780
Si Si7 0.794689 0.076245 0.501592
O O1 0.250000 0.250000 0.976283
O O2 0.267693 0.338100 0.872625
O O3 0.000000 0.330120 0.954549
O O4 0.270909 0.380076 0.013505
O O5 0.270828 0.500000 0.084768
O O6 0.234079 0.381188 0.153986
O O7 0.000000 0.428836 0.071760
O O8 0.250000 0.250000 0.770430
O O9 0.269674 0.377034 0.728863
O O10 0.000000 0.331336 0.791770
O O11 0.750000 0.750000 0.396479
O O12 0.731220 0.836739 0.293069
O O13 0.730378 0.877274 0.436340
O O14 0.000000 0.831077 0.373676
O O15 0.500000 0.329584 0.211778
O O16 0.750000 0.250000 0.188118
O O17 0.731418 0.500000 0.670332
O O18 0.750086 0.600979 0.582666
O O19 0.000000 0.574452 0.668593
O O20 0.000000 0.074476 0.496852
O O21 0.731365 0.000000 0.495102
#
# Coordination Sequence:
#
# PCOD9349126 Si02
#       7
#     8   8   8   8   8   8   8
#     4   9  18  33  52  72  96 129 165 200 242 291
#     4  10  21  35  51  75 105 133 165 206 249 294
#     4   9  18  32  50  72  97 126 161 201 242 286
#     4   9  19  34  52  74  98 126 161 201 242 287
#     4  10  20  35  55  76 100 132 168 205 248 298
#     4   9  18  32  49  70  96 126 161 199 239 285
#     4   9  18  33  51  70  95 128 163 197 237 286
#
# _framework density 19.453078000000001
#
# number of rings (size 3 to 8) (size 9 to 14) (size 15 to 20)
#    0.000    2.714    0.000    0.857    0.000    5.429 
#    0.000    7.143    0.000    1.714    0.000    6.000 
#    0.000    0.000    0.000    0.000    0.000    0.000 
#
# Total GULP energy -156194.483729 kJ/mol
# GULP energy per Si atom -5578.374419 kJ/mol
# Density = 1.940880 g / cm^3
# Si number density = 19.453078 Si / 1000 Ang^3
#
#
#
# Elastic Constant Matrix: (Units=GPa)
#
#
# Indices 1 2 3 4 5 6 
#
# 1 21.9734 4.4264 4.1912 0.0000 0.0000 0.0000
# 2 4.4264 151.9628 126.6375 0.0000 0.0000 0.0000
# 3 4.1912 126.6375 149.8472 0.0000 0.0000 0.0000
# 4 0.0000 0.0000 0.0000 -136.0322 0.0000 0.0000
# 5 0.0000 0.0000 0.0000 0.0000 21.3091 0.0000
# 6 0.0000 0.0000 0.0000 0.0000 0.0000 22.0362
#
#
#
# Elastic Compliance Matrix: (Units=1/GPa)
#
#
# Indices 1 2 3 4 5 6 
#
# 1 0.045790 -0.000901 -0.000519 0.000000 0.000000 0.000000
# 2 -0.000901 0.022270 -0.018795 0.000000 0.000000 0.000000
# 3 -0.000519 -0.018795 0.022572 0.000000 0.000000 0.000000
# 4 0.000000 0.000000 0.000000 -0.007351 0.000000 0.000000
# 5 0.000000 0.000000 0.000000 0.000000 0.046928 0.000000
# 6 0.000000 0.000000 0.000000 0.000000 0.000000 0.045380
#
#
# Mechanical properties :
#
#
# Convention : Reuss Voigt Hill
#
# Bulk Modulus (GPa) = 19.92001 66.03264 42.97632
# Shear Modulus (GPa) = 21.48201 -5.96884 7.75659
#
# Velocity S-wave (km/s) = 3.32670 -1.75356 1.99900
# Velocity P-wave (km/s) = 5.00182 5.46976 5.24102
#
# Compressibility (1/GPa) = 0.05020077
#
# Stress axis : x y z
#
# Youngs Moduli (GPa) = 21.83881 44.90437 44.30294
#
# Poissons Ratio (x) = 0.04046 0.02300
# Poissons Ratio (y) = 0.01968 0.83268
# Poissons Ratio (z) = 0.01134 0.84398
#
# Static dielectric constant tensor:
#      x y z
#    x 1.711010 0.000000 0.000000 
#    y 0.000000 1.641830 0.000000 
#    z 0.000000 0.000000 1.686420 
# 
# From -- ./inp_files/15613.got.cif
#   From: 2010.05.17/outbox.cif.g08.bks.cpg/sg35_8_cif.got.tgz:15613.got - 2010.06.03 17:29:28.
