data_PCOD9349635
_publ_section_title
;
Structure prediction by ZEFSAII (Michael W. Deem and Ramdas Pophale) SiO2 
 PCOD9349635
Probable space group: C M M 2
;
_chemical_formula_sum "Si O2"
_cell_formula_units_Z 64
_cell_length_a 8.827250
_cell_length_b 18.983180
_cell_length_c 20.793379
_cell_angle_alpha 90.000000
_cell_angle_beta 90.000000
_cell_angle_gamma 90.000000
_cell_volume 3484.331457
_symmetry_space_group_name_H-M "C M M 2"
_symmetry_group_IT_number 35
_symmetry_cell_setting 'orthorhombic'
loop_
_space_group_symop_operation_xyz
x,y,z
-x,-y,z
-x,y,z
x,-y,z
1/2+x,1/2+y,z
1/2-x,1/2-y,z
1/2-x,1/2+y,z
1/2+x,1/2-y,z
loop_
_atom_site_type_symbol
_atom_site_label
_atom_site_fract_x
_atom_site_fract_y
_atom_site_fract_z
Si Si1 0.316996 0.172197 0.989070
Si Si2 0.317124 0.081583 0.864587
Si Si3 0.681103 0.673544 0.603724
Si Si4 0.318118 0.082193 0.113141
Si Si5 0.318836 0.326474 0.752970
Si Si6 0.181832 0.672099 0.367142
Si Si7 0.182606 0.418575 0.492324
Si Si8 0.180981 0.082503 0.251761
O O1 0.500000 0.176105 0.988823
O O2 0.250000 0.250000 0.986393
O O3 0.270797 0.126708 0.926925
O O4 0.271531 0.131497 0.054122
O O5 0.500000 0.084789 0.860211
O O6 0.246896 0.116312 0.801368
O O7 0.273736 0.000000 0.871613
O O8 0.500000 0.677019 0.598326
O O9 0.750000 0.750000 0.587424
O O10 0.720114 0.658499 0.678338
O O11 0.746204 0.616087 0.555390
O O12 0.500000 0.088110 0.121374
O O13 0.238222 0.100214 0.180155
O O14 0.285426 0.000000 0.098186
O O15 0.500000 0.323171 0.758390
O O16 0.250000 0.250000 0.769195
O O17 0.250000 0.750000 0.370520
O O18 0.226598 0.627181 0.430116
O O19 0.241757 0.631323 0.304636
O O20 0.000000 0.676098 0.365064
O O21 0.227636 0.500000 0.484643
O O22 0.000000 0.415923 0.497500
O O23 0.000000 0.089549 0.255163
O O24 0.220295 0.000000 0.263253
#
# Coordination Sequence:
#
# PCOD9349635 Si02
#       8
#     8   8   8   8   8   8   8   8
#     4  10  21  36  55  80 109 142 182 227 275 329
#     4  10  21  37  57  81 110 145 185 229 277 329
#     4  10  21  37  58  83 112 147 185 226 273 326
#     4   9  18  35  58  80 106 144 185 224 270 325
#     4  10  21  37  57  82 112 146 185 227 273 327
#     4  11  23  39  59  83 112 146 185 228 275 327
#     4  10  22  39  59  84 113 145 183 227 274 327
#     4  10  21  37  58  85 115 146 183 227 273 324
#
# _framework density 18.367943
#
# number of rings (size 3 to 8) (size 9 to 14) (size 15 to 20)
#    0.000    2.000    0.000    3.000    0.000    9.750 
#    0.000    3.750    0.000    2.250    0.000    0.000 
#    0.000    0.000    0.000    0.000    0.000    0.000 
#
# Total GULP energy -178788.203588 kJ/mol
# GULP energy per Si atom -5587.131362 kJ/mol
# Density = 1.832614 g / cm^3
# Si number density = 18.367943 Si / 1000 Ang^3
#
#
#
# Elastic Constant Matrix: (Units=GPa)
#
#
# Indices 1 2 3 4 5 6 
#
# 1 30.5064 52.8250 46.0864 0.0000 0.0000 0.0000
# 2 52.8250 171.0748 117.9686 0.0000 0.0000 0.0000
# 3 46.0864 117.9686 132.0121 0.0000 0.0000 0.0000
# 4 0.0000 0.0000 0.0000 43.6064 0.0000 0.0000
# 5 0.0000 0.0000 0.0000 0.0000 10.1324 0.0000
# 6 0.0000 0.0000 0.0000 0.0000 0.0000 32.0594
#
#
#
# Elastic Compliance Matrix: (Units=1/GPa)
#
#
# Indices 1 2 3 4 5 6 
#
# 1 0.080951 -0.014353 -0.015434 0.000000 0.000000 0.000000
# 2 -0.014353 0.017776 -0.010874 0.000000 0.000000 0.000000
# 3 -0.015434 -0.010874 0.022681 0.000000 0.000000 0.000000
# 4 0.000000 0.000000 0.000000 0.022932 0.000000 0.000000
# 5 0.000000 0.000000 0.000000 0.000000 0.098694 0.000000
# 6 0.000000 0.000000 0.000000 0.000000 0.000000 0.031192
#
#
# Mechanical properties :
#
#
# Convention : Reuss Voigt Hill
#
# Bulk Modulus (GPa) = 24.94749 85.26148 55.10449
# Shear Modulus (GPa) = 13.55346 24.94054 19.24700
#
# Velocity S-wave (km/s) = 2.71935 3.68887 3.24058
# Velocity P-wave (km/s) = 4.84473 8.04134 6.63832
#
# Compressibility (1/GPa) = 0.04008419
#
# Stress axis : x y z
#
# Youngs Moduli (GPa) = 12.35320 56.25609 44.09068
#
# Poissons Ratio (x) = 0.80745 0.68051
# Poissons Ratio (y) = 0.17731 0.47944
# Poissons Ratio (z) = 0.19066 0.61173
#
# Static dielectric constant tensor:
#      x y z
#    x 1.617300 0.000000 0.000000 
#    y 0.000000 1.602130 0.000000 
#    z 0.000000 0.000000 1.610170 
# 
# From -- ./inp_files/18336.got.cif
#   From: 2010.05.17/outbox.cif.g08.bks.cpg/sg35_10_cif.got.tgz:18336.got - 2010.06.03 17:29:28.
