data_PCOD9349492
_publ_section_title
;
Structure prediction by ZEFSAII (Michael W. Deem and Ramdas Pophale) SiO2 
 PCOD9349492
Probable space group: C M M 2
;
_chemical_formula_sum "Si O2"
_cell_formula_units_Z 64
_cell_length_a 17.724079
_cell_length_b 14.578217
_cell_length_c 11.457005
_cell_angle_alpha 90.000000
_cell_angle_beta 90.000000
_cell_angle_gamma 90.000000
_cell_volume 2960.323619
_symmetry_space_group_name_H-M "C M M 2"
_symmetry_group_IT_number 35
_symmetry_cell_setting 'orthorhombic'
loop_
_space_group_symop_operation_xyz
x,y,z
-x,-y,z
-x,y,z
x,-y,z
1/2+x,1/2+y,z
1/2-x,1/2-y,z
1/2-x,1/2+y,z
1/2+x,1/2-y,z
loop_
_atom_site_type_symbol
_atom_site_label
_atom_site_fract_x
_atom_site_fract_y
_atom_site_fract_z
Si Si1 0.129299 0.102363 0.080700
Si Si2 0.870701 0.602363 0.546753
Si Si3 0.780896 0.392012 0.937886
Si Si4 0.914999 0.801032 0.562203
Si Si5 0.335247 0.605741 0.346338
Si Si6 0.164753 0.394259 0.281115
Si Si7 0.585001 0.801032 0.065250
Si Si8 0.219104 0.107988 0.689567
O O1 0.125228 0.101650 0.220873
O O2 0.084686 0.192124 0.044739
O O3 0.107701 0.000000 0.038518
O O4 0.215176 0.118734 0.035097
O O5 0.892299 0.500000 0.588935
O O6 0.915314 0.692124 0.582714
O O7 0.874772 0.601650 0.406581
O O8 0.784824 0.618734 0.592357
O O9 0.795932 0.500000 0.928210
O O10 0.750000 0.359690 0.813727
O O11 0.857148 0.343103 0.973443
O O12 0.877223 0.829412 0.437822
O O13 0.857148 0.843103 0.654010
O O14 0.000000 0.837100 0.566891
O O15 0.331742 0.500000 0.393131
O O16 0.250000 0.634219 0.313727
O O17 0.168258 0.500000 0.234322
O O18 0.122777 0.329412 0.189631
O O19 0.500000 0.837100 0.060562
O O20 0.204068 0.000000 0.699243
#
# Coordination Sequence:
#
# PCOD9349492 Si02
#       8
#     8   8   8   8   8   8   8   8
#     4  10  22  40  63  90 128 179 224 258 308 386
#     4  10  22  40  63  90 128 179 224 258 308 386
#     4  10  22  43  69  95 123 166 221 269 317 383
#     4  12  25  39  64 101 134 165 210 272 332 379
#     4  10  20  37  63  95 131 171 215 260 316 388
#     4  10  20  37  63  95 131 171 215 260 316 388
#     4  12  25  39  64 101 134 165 210 272 332 379
#     4  10  22  43  69  95 123 166 221 269 317 383
#
# _framework density 21.619257999999999
#
# number of rings (size 3 to 8) (size 9 to 14) (size 15 to 20)
#    0.000    1.500    2.500    2.250    0.000    7.500 
#    0.000    5.000    0.000    4.500    0.000    0.000 
#    0.000    0.000    0.000    0.000    0.000    0.000 
#
# Total GULP energy -178838.879827 kJ/mol
# GULP energy per Si atom -5588.714995 kJ/mol
# Density = 2.157005 g / cm^3
# Si number density = 21.619258 Si / 1000 Ang^3
#
#
#
# Elastic Constant Matrix: (Units=GPa)
#
#
# Indices 1 2 3 4 5 6 
#
# 1 136.9927 66.1836 57.2895 0.0000 0.0000 0.0000
# 2 66.1836 116.0511 32.0357 0.0000 0.0000 0.0000
# 3 57.2895 32.0357 102.2601 0.0000 0.0000 0.0000
# 4 0.0000 0.0000 0.0000 -19.1444 0.0000 0.0000
# 5 0.0000 0.0000 0.0000 0.0000 12.9723 0.0000
# 6 0.0000 0.0000 0.0000 0.0000 0.0000 -136.8580
#
#
#
# Elastic Compliance Matrix: (Units=1/GPa)
#
#
# Indices 1 2 3 4 5 6 
#
# 1 0.012055 -0.005485 -0.005035 0.000000 0.000000 0.000000
# 2 -0.005485 0.011928 -0.000664 0.000000 0.000000 0.000000
# 3 -0.005035 -0.000664 0.012808 0.000000 0.000000 0.000000
# 4 0.000000 0.000000 0.000000 -0.052235 0.000000 0.000000
# 5 0.000000 0.000000 0.000000 0.000000 0.077087 0.000000
# 6 0.000000 0.000000 0.000000 0.000000 0.000000 -0.007307
#
#
# Mechanical properties :
#
#
# Convention : Reuss Voigt Hill
#
# Bulk Modulus (GPa) = 69.33512 74.03571 71.68542
# Shear Modulus (GPa) = 61.33899 -15.28634 23.02633
#
# Velocity S-wave (km/s) = 5.33235 -2.66196 3.26710
# Velocity P-wave (km/s) = 8.36974 4.98714 6.88927
#
# Compressibility (1/GPa) = 0.01442270
#
# Stress axis : x y z
#
# Youngs Moduli (GPa) = 82.95015 83.83415 78.07612
#
# Poissons Ratio (x) = 0.45984 0.39315
# Poissons Ratio (y) = 0.45499 0.05184
# Poissons Ratio (z) = 0.41769 0.05566
#
# Static dielectric constant tensor:
#      x y z
#    x 1.761840 0.000000 0.000000 
#    y 0.000000 1.831490 0.000000 
#    z 0.000000 0.000000 1.791210 
# 
# From -- ./inp_files/13613.got.cif
#   From: 2010.05.17/outbox.cif.g08.bks.cpg/sg35_7_cif.got.tgz:13613.got - 2010.06.03 17:29:28.
