data_PCOD9349571
_publ_section_title
;
Structure prediction by ZEFSAII (Michael W. Deem and Ramdas Pophale) SiO2 
 PCOD9349571
Probable space group: C M M 2
;
_chemical_formula_sum "Si O2"
_cell_formula_units_Z 56
_cell_length_a 7.698348
_cell_length_b 19.644100
_cell_length_c 18.684349
_cell_angle_alpha 90.000000
_cell_angle_beta 90.000000
_cell_angle_gamma 90.000000
_cell_volume 2825.580250
_symmetry_space_group_name_H-M "C M M 2"
_symmetry_group_IT_number 35
_symmetry_cell_setting 'orthorhombic'
loop_
_space_group_symop_operation_xyz
x,y,z
-x,-y,z
-x,y,z
x,-y,z
1/2+x,1/2+y,z
1/2-x,1/2-y,z
1/2-x,1/2+y,z
1/2+x,1/2-y,z
loop_
_atom_site_type_symbol
_atom_site_label
_atom_site_fract_x
_atom_site_fract_y
_atom_site_fract_z
Si Si1 0.709277 0.422397 0.856060
Si Si2 0.790723 0.922397 0.438949
Si Si3 0.709044 0.670847 0.727255
Si Si4 0.290741 0.170265 0.147504
Si Si5 0.791636 0.577947 0.277929
Si Si6 0.209044 0.170847 0.567754
Si Si7 0.708364 0.922053 0.017079
O O1 0.500000 0.423970 0.851274
O O2 0.773353 0.500000 0.848707
O O3 0.775573 0.375041 0.792217
O O4 0.752922 0.399081 0.936262
O O5 0.747077 0.899081 0.358746
O O6 0.724427 0.875041 0.502792
O O7 0.000000 0.923970 0.443734
O O8 0.726648 0.000000 0.446303
O O9 0.500000 0.664055 0.725946
O O10 0.750000 0.750000 0.739001
O O11 0.773435 0.652019 0.647504
O O12 0.500000 0.165370 0.147504
O O13 0.250000 0.250000 0.147504
O O14 0.226422 0.129684 0.217654
O O15 0.226422 0.129684 0.077355
O O16 0.725546 0.500000 0.269026
O O17 0.000000 0.574547 0.270767
O O18 0.250000 0.250000 0.556008
O O19 0.000000 0.164055 0.569062
O O20 0.500000 0.925453 0.024242
O O21 0.774453 0.000000 0.025983
#
# Coordination Sequence:
#
# PCOD9349571 Si02
#       7
#     8   8   8   8   8   8   8
#     4   9  18  32  50  73  98 123 156 198 240 281
#     4   9  18  32  50  73  98 123 156 198 240 281
#     4   9  18  32  49  69  95 128 162 195 234 281
#     4  10  21  35  51  73  99 126 158 196 236 280
#     4   9  18  34  54  72  93 125 162 196 233 280
#     4   9  18  32  49  69  95 128 162 195 234 281
#     4   9  18  34  54  72  93 125 162 196 233 280
#
# _framework density 19.818939
#
# number of rings (size 3 to 8) (size 9 to 14) (size 15 to 20)
#    0.000    2.857    0.000    0.429    0.000    5.714 
#    0.000    8.571    0.000    4.286    0.000    8.000 
#    0.000    0.000    0.000    0.000    0.000    0.000 
#
# Total GULP energy -156175.007907 kJ/mol
# GULP energy per Si atom -5577.678854 kJ/mol
# Density = 1.977383 g / cm^3
# Si number density = 19.818939 Si / 1000 Ang^3
#
#
#
# Elastic Constant Matrix: (Units=GPa)
#
#
# Indices 1 2 3 4 5 6 
#
# 1 33.0349 3.4453 6.3714 0.0000 0.0000 0.0000
# 2 3.4453 112.0384 140.7727 0.0000 0.0000 0.0000
# 3 6.3714 140.7727 239.9911 0.0000 0.0000 0.0000
# 4 0.0000 0.0000 0.0000 57.3131 0.0000 0.0000
# 5 0.0000 0.0000 0.0000 0.0000 19.3079 0.0000
# 6 0.0000 0.0000 0.0000 0.0000 0.0000 21.4644
#
#
#
# Elastic Compliance Matrix: (Units=1/GPa)
#
#
# Indices 1 2 3 4 5 6 
#
# 1 0.030429 0.000302 -0.000985 0.000000 0.000000 0.000000
# 2 0.000302 0.033942 -0.019917 0.000000 0.000000 0.000000
# 3 -0.000985 -0.019917 0.015876 0.000000 0.000000 0.000000
# 4 0.000000 0.000000 0.000000 0.017448 0.000000 0.000000
# 5 0.000000 0.000000 0.000000 0.000000 0.051792 0.000000
# 6 0.000000 0.000000 0.000000 0.000000 0.000000 0.046589
#
#
# Mechanical properties :
#
#
# Convention : Reuss Voigt Hill
#
# Bulk Modulus (GPa) = 25.61075 76.24924 50.93000
# Shear Modulus (GPa) = 19.97657 35.24873 27.61265
#
# Velocity S-wave (km/s) = 3.17827 4.22185 3.73667
# Velocity P-wave (km/s) = 5.13994 7.89441 6.66111
#
# Compressibility (1/GPa) = 0.03904610
#
# Stress axis : x y z
#
# Youngs Moduli (GPa) = 32.86287 29.46211 62.98798
#
# Poissons Ratio (x) = -0.00888 0.06203
# Poissons Ratio (y) = -0.00991 1.25456
# Poissons Ratio (z) = 0.03236 0.58681
#
# Static dielectric constant tensor:
#      x y z
#    x 1.741410 0.000000 0.000000 
#    y 0.000000 1.669790 0.000000 
#    z 0.000000 0.000000 1.697720 
# 
# From -- ./inp_files/15607.got.cif
#   From: 2010.05.17/outbox.cif.g08.bks.cpg/sg35_8_cif.got.tgz:15607.got - 2010.06.03 17:29:28.
