data_PCOD9349700
_publ_section_title
;
Structure prediction by ZEFSAII (Michael W. Deem and Ramdas Pophale) SiO2 
 PCOD9349700
Probable space group: C M M 2
;
_chemical_formula_sum "Si O2"
_cell_formula_units_Z 64
_cell_length_a 8.738423
_cell_length_b 18.499138
_cell_length_c 21.066839
_cell_angle_alpha 90.000000
_cell_angle_beta 90.000000
_cell_angle_gamma 90.000000
_cell_volume 3405.523897
_symmetry_space_group_name_H-M "C M M 2"
_symmetry_group_IT_number 35
_symmetry_cell_setting 'orthorhombic'
loop_
_space_group_symop_operation_xyz
x,y,z
-x,-y,z
-x,y,z
x,-y,z
1/2+x,1/2+y,z
1/2-x,1/2-y,z
1/2-x,1/2+y,z
1/2+x,1/2-y,z
loop_
_atom_site_type_symbol
_atom_site_label
_atom_site_fract_x
_atom_site_fract_y
_atom_site_fract_z
Si Si1 0.315561 0.584025 0.508450
Si Si2 0.316399 0.830285 0.627742
Si Si3 0.821931 0.086841 0.889452
Si Si4 0.316783 0.914813 0.259189
Si Si5 0.315965 0.669309 0.380021
Si Si6 0.183073 0.830981 0.139795
Si Si7 0.683956 0.915306 0.754394
Si Si8 0.681727 0.170112 0.005836
O O1 0.500000 0.587013 0.514467
O O2 0.270235 0.500000 0.504375
O O3 0.242224 0.622344 0.569019
O O4 0.274063 0.626599 0.444305
O O5 0.500000 0.827387 0.626090
O O6 0.250000 0.750000 0.623452
O O7 0.269614 0.868234 0.693840
O O8 0.761385 0.108538 0.819976
O O9 0.726478 0.122112 0.945824
O O10 0.000000 0.106602 0.896457
O O11 0.808600 0.000000 0.892841
O O12 0.500000 0.905647 0.256874
O O13 0.250378 0.872926 0.319726
O O14 0.243572 0.880882 0.196161
O O15 0.282391 0.000000 0.263854
O O16 0.500000 0.672007 0.375467
O O17 0.250000 0.750000 0.381961
O O18 0.250000 0.750000 0.148548
O O19 0.000000 0.827623 0.139830
O O20 0.243357 0.857356 0.071351
O O21 0.500000 0.910728 0.761477
O O22 0.722120 0.000000 0.743389
O O23 0.500000 0.174490 0.013750
O O24 0.750000 0.250000 0.995552
#
# Coordination Sequence:
#
# PCOD9349700 Si02
#       8
#     8   8   8   8   8   8   8   8
#     4  10  22  40  62  88 118 152 191 237 288 342
#     4  11  23  38  58  85 117 153 193 238 287 341
#     4  10  21  37  58  85 116 151 192 236 285 343
#     4  11  24  41  61  87 118 152 193 239 287 340
#     4  11  23  40  62  88 119 154 193 236 285 340
#     4  11  22  39  62  86 116 152 192 237 286 342
#     4   9  19  37  58  80 109 148 193 239 289 343
#     4  11  22  38  60  85 116 152 192 238 288 342
#
# _framework density 18.792995999999999
#
# number of rings (size 3 to 8) (size 9 to 14) (size 15 to 20)
#    0.000    1.500    0.000    6.000    0.000    7.000 
#    0.000    2.500    0.000    0.000    0.000    0.000 
#    0.000    0.000    0.000    0.000    0.000    0.000 
#
# Total GULP energy -178932.950082 kJ/mol
# GULP energy per Si atom -5591.654690 kJ/mol
# Density = 1.875022 g / cm^3
# Si number density = 18.792996 Si / 1000 Ang^3
#
#
#
# Elastic Constant Matrix: (Units=GPa)
#
#
# Indices 1 2 3 4 5 6 
#
# 1 97.2380 63.1850 73.5841 0.0000 0.0000 0.0000
# 2 63.1850 121.0556 97.6830 0.0000 0.0000 0.0000
# 3 73.5841 97.6830 183.4928 0.0000 0.0000 0.0000
# 4 0.0000 0.0000 0.0000 40.4977 0.0000 0.0000
# 5 0.0000 0.0000 0.0000 0.0000 36.9411 0.0000
# 6 0.0000 0.0000 0.0000 0.0000 0.0000 21.9769
#
#
#
# Elastic Compliance Matrix: (Units=1/GPa)
#
#
# Indices 1 2 3 4 5 6 
#
# 1 0.016841 -0.005856 -0.003636 0.000000 0.000000 0.000000
# 2 -0.005856 0.016518 -0.006445 0.000000 0.000000 0.000000
# 3 -0.003636 -0.006445 0.010339 0.000000 0.000000 0.000000
# 4 0.000000 0.000000 0.000000 0.024693 0.000000 0.000000
# 5 0.000000 0.000000 0.000000 0.000000 0.027070 0.000000
# 6 0.000000 0.000000 0.000000 0.000000 0.000000 0.045502
#
#
# Mechanical properties :
#
#
# Convention : Reuss Voigt Hill
#
# Bulk Modulus (GPa) = 84.57706 96.74341 90.66023
# Shear Modulus (GPa) = 28.28409 31.03876 29.66143
#
# Velocity S-wave (km/s) = 3.88368 4.06841 3.97712
# Velocity P-wave (km/s) = 8.07545 8.58251 8.33284
#
# Compressibility (1/GPa) = 0.01182354
#
# Stress axis : x y z
#
# Youngs Moduli (GPa) = 59.37955 60.54060 96.72246
#
# Poissons Ratio (x) = 0.35453 0.35168
# Poissons Ratio (y) = 0.34773 0.62337
# Poissons Ratio (z) = 0.21590 0.39018
#
# Static dielectric constant tensor:
#      x y z
#    x 1.634240 0.000000 0.000000 
#    y 0.000000 1.623920 0.000000 
#    z 0.000000 0.000000 1.622280 
# 
# From -- ./inp_files/18320.got.cif
#   From: 2010.05.17/outbox.cif.g08.bks.cpg/sg35_10_cif.got.tgz:18320.got - 2010.06.03 17:29:28.
