data_PCOD9349192
_publ_section_title
;
Structure prediction by ZEFSAII (Michael W. Deem and Ramdas Pophale) SiO2 
 PCOD9349192
Probable space group: C M M 2
;
_chemical_formula_sum "Si O2"
_cell_formula_units_Z 48
_cell_length_a 8.806831
_cell_length_b 18.886517
_cell_length_c 15.749210
_cell_angle_alpha 90.000000
_cell_angle_beta 90.000000
_cell_angle_gamma 90.000000
_cell_volume 2619.571823
_symmetry_space_group_name_H-M "C M M 2"
_symmetry_group_IT_number 35
_symmetry_cell_setting 'orthorhombic'
loop_
_space_group_symop_operation_xyz
x,y,z
-x,-y,z
-x,y,z
x,-y,z
1/2+x,1/2+y,z
1/2-x,1/2-y,z
1/2-x,1/2+y,z
1/2+x,1/2-y,z
loop_
_atom_site_type_symbol
_atom_site_label
_atom_site_fract_x
_atom_site_fract_y
_atom_site_fract_z
Si Si1 0.182278 0.828205 0.729510
Si Si2 0.683652 0.417372 0.084967
Si Si3 0.818739 0.083742 0.395088
Si Si4 0.822585 0.415295 0.576599
Si Si5 0.681254 0.171372 0.240471
Si Si6 0.317501 0.672198 0.921855
O O1 0.250000 0.750000 0.717213
O O2 0.248603 0.878341 0.657464
O O3 0.224824 0.850142 0.825985
O O4 0.000000 0.826116 0.723774
O O5 0.500000 0.412623 0.093164
O O6 0.724908 0.500000 0.089162
O O7 0.758782 0.373076 0.160178
O O8 0.727484 0.382419 0.995012
O O9 0.761713 0.103648 0.489034
O O10 0.737845 0.130610 0.324329
O O11 0.000000 0.092270 0.389000
O O12 0.783951 0.000000 0.382064
O O13 0.811060 0.500000 0.585806
O O14 0.000000 0.396314 0.570155
O O15 0.500000 0.175305 0.239173
O O16 0.750000 0.250000 0.237955
O O17 0.500000 0.678212 0.923846
O O18 0.250000 0.750000 0.938172
#
# Coordination Sequence:
#
# PCOD9349192 Si02
#       6
#     8   8   8   8   8   8
#     4  10  20  35  56  82 113 149 190 233 279 331
#     4  10  21  38  59  84 115 149 185 227 277 332
#     4  10  21  39  62  86 113 146 184 227 277 332
#     4  10  21  37  57  83 115 149 186 230 279 330
#     4  12  25  40  59  84 114 147 186 230 277 330
#     4   9  19  35  56  81 110 147 188 232 279 328
#
# _framework density 18.323606000000002
#
# number of rings (size 3 to 8) (size 9 to 14) (size 15 to 20)
#    0.000    1.833    0.000    4.000    0.000    8.333 
#    0.000    5.000    0.000    0.000    0.000    0.000 
#    0.000    0.000    0.000    0.000    0.000    0.000 
#
# Total GULP energy -134093.710762 kJ/mol
# GULP energy per Si atom -5587.237948 kJ/mol
# Density = 1.828190 g / cm^3
# Si number density = 18.323606 Si / 1000 Ang^3
#
#
#
# Elastic Constant Matrix: (Units=GPa)
#
#
# Indices 1 2 3 4 5 6 
#
# 1 80.0720 64.5773 70.1323 0.0000 0.0000 0.0000
# 2 64.5773 116.5178 108.0432 0.0000 0.0000 0.0000
# 3 70.1323 108.0432 173.0411 0.0000 0.0000 0.0000
# 4 0.0000 0.0000 0.0000 38.3537 0.0000 0.0000
# 5 0.0000 0.0000 0.0000 0.0000 14.9096 0.0000
# 6 0.0000 0.0000 0.0000 0.0000 0.0000 30.5146
#
#
#
# Elastic Compliance Matrix: (Units=1/GPa)
#
#
# Indices 1 2 3 4 5 6 
#
# 1 0.023343 -0.009892 -0.003285 0.000000 0.000000 0.000000
# 2 -0.009892 0.024576 -0.011336 0.000000 0.000000 0.000000
# 3 -0.003285 -0.011336 0.014188 0.000000 0.000000 0.000000
# 4 0.000000 0.000000 0.000000 0.026073 0.000000 0.000000
# 5 0.000000 0.000000 0.000000 0.000000 0.067071 0.000000
# 6 0.000000 0.000000 0.000000 0.000000 0.000000 0.032771
#
#
# Mechanical properties :
#
#
# Convention : Reuss Voigt Hill
#
# Bulk Modulus (GPa) = 76.43469 95.01518 85.72493
# Shear Modulus (GPa) = 20.71193 25.21410 22.96302
#
# Velocity S-wave (km/s) = 3.36570 3.71353 3.54389
# Velocity P-wave (km/s) = 7.54376 8.38771 7.97690
#
# Compressibility (1/GPa) = 0.01308306
#
# Stress axis : x y z
#
# Youngs Moduli (GPa) = 42.83895 40.69069 70.48259
#
# Poissons Ratio (x) = 0.40250 0.23152
# Poissons Ratio (y) = 0.42375 0.79896
# Poissons Ratio (z) = 0.14071 0.46125
#
# Static dielectric constant tensor:
#      x y z
#    x 1.617360 0.000000 0.000000 
#    y 0.000000 1.597410 0.000000 
#    z 0.000000 0.000000 1.616380 
# 
# From -- ./inp_files/15079.got.cif
#   From: 2010.05.17/outbox.cif.g08.bks.cpg/sg35_8_cif.got.tgz:15079.got - 2010.06.03 17:29:28.
