data_PCOD9349339
_publ_section_title
;
Structure prediction by ZEFSAII (Michael W. Deem and Ramdas Pophale) SiO2 
 PCOD9349339
Probable space group: C M M 2
;
_chemical_formula_sum "Si O2"
_cell_formula_units_Z 64
_cell_length_a 7.891614
_cell_length_b 30.156797
_cell_length_c 12.894941
_cell_angle_alpha 90.000000
_cell_angle_beta 90.000000
_cell_angle_gamma 90.000000
_cell_volume 3068.812868
_symmetry_space_group_name_H-M "C M M 2"
_symmetry_group_IT_number 35
_symmetry_cell_setting 'orthorhombic'
loop_
_space_group_symop_operation_xyz
x,y,z
-x,-y,z
-x,y,z
x,-y,z
1/2+x,1/2+y,z
1/2-x,1/2-y,z
1/2-x,1/2+y,z
1/2+x,1/2-y,z
loop_
_atom_site_type_symbol
_atom_site_label
_atom_site_fract_x
_atom_site_fract_y
_atom_site_fract_z
Si Si1 0.196729 0.553913 0.130300
Si Si2 0.703772 0.302167 0.140689
Si Si3 0.700609 0.450219 0.905024
Si Si4 0.801389 0.377183 0.520545
Si Si5 0.791970 0.448507 0.356653
Si Si6 0.203069 0.801743 0.366263
Si Si7 0.797160 0.874085 0.758292
Si Si8 0.295461 0.301502 0.915577
O O1 0.206135 0.500000 0.133348
O O2 0.266867 0.567696 0.242510
O O3 0.000000 0.566459 0.124666
O O4 0.279576 0.567610 0.022392
O O5 0.500000 0.306707 0.141816
O O6 0.750000 0.250000 0.140073
O O7 0.767010 0.318371 0.252712
O O8 0.766144 0.318766 0.028804
O O9 0.500000 0.453944 0.886968
O O10 0.774057 0.500000 0.900123
O O11 0.771315 0.417005 0.819367
O O12 0.730829 0.416717 0.448157
O O13 0.772890 0.331969 0.457496
O O14 0.734295 0.374670 0.636641
O O15 0.000000 0.385467 0.529655
O O16 0.743833 0.500000 0.371628
O O17 0.000000 0.447624 0.353183
O O18 0.250000 0.750000 0.377229
O O19 0.000000 0.804951 0.367619
O O20 0.732332 0.831151 0.820646
O O21 0.000000 0.874167 0.771718
O O22 0.500000 0.303715 0.918141
O O23 0.250000 0.250000 0.904360
#
# Coordination Sequence:
#
# PCOD9349339 Si02
#       8
#     8   8   8   8   8   8   8   8
#     4   8  14  28  52  79 105 133 167 208 257 315
#     4   8  15  29  51  78 103 129 162 201 249 306
#     4   9  18  33  53  77 106 138 170 210 263 318
#     4  11  23  37  54  77 104 137 183 229 265 308
#     4   8  16  33  55  78 106 139 173 215 268 320
#     4  10  20  36  58  82 110 140 171 211 261 316
#     4  10  22  38  52  70 102 141 178 216 259 308
#     4   9  18  34  55  77 102 132 165 205 254 304
#
# _framework density 20.854969000000001
#
# number of rings (size 3 to 8) (size 9 to 14) (size 15 to 20)
#    0.000    2.875    0.000    1.500    0.000    3.500 
#    0.000    3.750    0.000    2.625    0.000    0.000 
#    0.000    0.000    0.000    0.000    0.000    0.000 
#
# Total GULP energy -178435.398104 kJ/mol
# GULP energy per Si atom -5576.106191 kJ/mol
# Density = 2.080750 g / cm^3
# Si number density = 20.854969 Si / 1000 Ang^3
#
#
#
# Elastic Constant Matrix: (Units=GPa)
#
#
# Indices 1 2 3 4 5 6 
#
# 1 18.1581 -3.5486 1.8013 0.0000 0.0000 0.0000
# 2 -3.5486 97.5752 87.5168 0.0000 0.0000 0.0000
# 3 1.8013 87.5168 212.8773 0.0000 0.0000 0.0000
# 4 0.0000 0.0000 0.0000 35.0486 0.0000 0.0000
# 5 0.0000 0.0000 0.0000 0.0000 38.3231 0.0000
# 6 0.0000 0.0000 0.0000 0.0000 0.0000 10.2706
#
#
#
# Elastic Compliance Matrix: (Units=1/GPa)
#
#
# Indices 1 2 3 4 5 6 
#
# 1 0.056041 0.003902 -0.002079 0.000000 0.000000 0.000000
# 2 0.003902 0.016507 -0.006819 0.000000 0.000000 0.000000
# 3 -0.002079 -0.006819 0.007519 0.000000 0.000000 0.000000
# 4 0.000000 0.000000 0.000000 0.028532 0.000000 0.000000
# 5 0.000000 0.000000 0.000000 0.000000 0.026094 0.000000
# 6 0.000000 0.000000 0.000000 0.000000 0.000000 0.097365
#
#
# Mechanical properties :
#
#
# Convention : Reuss Voigt Hill
#
# Bulk Modulus (GPa) = 14.27037 55.57218 34.92128
# Shear Modulus (GPa) = 18.83906 32.91785 25.87845
#
# Velocity S-wave (km/s) = 3.00882 3.97724 3.52643
# Velocity P-wave (km/s) = 4.35065 6.91347 5.77600
#
# Compressibility (1/GPa) = 0.07007525
#
# Stress axis : x y z
#
# Youngs Moduli (GPa) = 17.84419 60.58176 133.00405
#
# Poissons Ratio (x) = -0.23641 0.27645
# Poissons Ratio (y) = -0.06963 0.90697
# Poissons Ratio (z) = 0.03709 0.41311
#
# Static dielectric constant tensor:
#      x y z
#    x 1.747930 0.000000 0.000000 
#    y 0.000000 1.753600 0.000000 
#    z 0.000000 0.000000 1.764180 
# 
# From -- ./inp_files/11856.got.cif
#   From: 2010.05.17/outbox.cif.g08.bks.cpg/sg35_6_cif.got.tgz:11856.got - 2010.06.03 17:29:28.
