data_PCOD9349299
_publ_section_title
;
Structure prediction by ZEFSAII (Michael W. Deem and Ramdas Pophale) SiO2 
 PCOD9349299
Probable space group: C M M 2
;
_chemical_formula_sum "Si O2"
_cell_formula_units_Z 52
_cell_length_a 15.111463
_cell_length_b 13.943016
_cell_length_c 12.818740
_cell_angle_alpha 90.000000
_cell_angle_beta 90.000000
_cell_angle_gamma 90.000000
_cell_volume 2700.900447
_symmetry_space_group_name_H-M "C M M 2"
_symmetry_group_IT_number 35
_symmetry_cell_setting 'orthorhombic'
loop_
_space_group_symop_operation_xyz
x,y,z
-x,-y,z
-x,y,z
x,-y,z
1/2+x,1/2+y,z
1/2-x,1/2-y,z
1/2-x,1/2+y,z
1/2+x,1/2-y,z
loop_
_atom_site_type_symbol
_atom_site_label
_atom_site_fract_x
_atom_site_fract_y
_atom_site_fract_z
Si Si1 0.761266 0.108078 0.227210
Si Si2 0.750000 0.250000 0.743619
Si Si3 0.199184 0.890962 0.573837
Si Si4 0.903225 0.814258 0.372569
Si Si5 0.902701 0.386252 0.096016
Si Si6 0.638336 0.104181 0.430347
Si Si7 0.897995 0.386996 0.845313
O O1 0.843332 0.169144 0.270206
O O2 0.689830 0.148239 0.144949
O O3 0.704226 0.097735 0.332426
O O4 0.789898 0.000000 0.194985
O O5 0.807862 0.181046 0.669007
O O6 0.820324 0.317749 0.804035
O O7 0.141032 0.863876 0.473277
O O8 0.300421 0.883773 0.532061
O O9 0.181362 0.000000 0.604011
O O10 0.908875 0.702946 0.405195
O O11 0.000000 0.854165 0.353908
O O12 0.904040 0.500000 0.123187
O O13 0.000000 0.347570 0.131627
O O14 0.899206 0.378913 0.971303
O O15 0.593908 0.000000 0.437329
O O16 0.881205 0.500000 0.819537
O O17 0.000000 0.364925 0.810200
#
# Coordination Sequence:
#
# PCOD9349299 Si02
#       7
#     8   4   8   8   8   8   8
#     4   9  17  31  55  80 108 147 188 224 268 337
#     4  12  20  36  62  90 116 150 194 252 300 350
#     4  10  20  36  56  77 110 154 194 232 281 341
#     4  11  21  34  51  80 121 157 191 229 275 339
#     4   8  15  32  58  85 113 146 186 235 294 353
#     4   9  18  35  53  73 104 144 189 239 283 325
#     4   9  20  39  62  90 120 151 194 249 306 359
#
# _framework density 19.252838000000001
#
# number of rings (size 3 to 8) (size 9 to 14) (size 15 to 20)
#    0.000    2.462    1.538    4.154    0.000    2.769 
#    2.769    1.538    0.000    1.385    0.000    2.154 
#    0.000    1.231    0.000    0.000    0.000    0.000 
#
# Total GULP energy -144746.765018 kJ/mol
# GULP energy per Si atom -5567.183270 kJ/mol
# Density = 1.920902 g / cm^3
# Si number density = 19.252838 Si / 1000 Ang^3
#
#
#
# Elastic Constant Matrix: (Units=GPa)
#
#
# Indices 1 2 3 4 5 6 
#
# 1 143.5678 56.6097 43.7762 0.0000 0.0000 0.0000
# 2 56.6097 110.2535 31.0860 0.0000 0.0000 0.0000
# 3 43.7762 31.0860 53.1509 0.0000 0.0000 0.0000
# 4 0.0000 0.0000 0.0000 23.9710 0.0000 0.0000
# 5 0.0000 0.0000 0.0000 0.0000 8.2049 0.0000
# 6 0.0000 0.0000 0.0000 0.0000 0.0000 -8.6328
#
#
#
# Elastic Compliance Matrix: (Units=1/GPa)
#
#
# Indices 1 2 3 4 5 6 
#
# 1 0.010302 -0.003469 -0.006456 0.000000 0.000000 0.000000
# 2 -0.003469 0.012029 -0.004178 0.000000 0.000000 0.000000
# 3 -0.006456 -0.004178 0.026575 0.000000 0.000000 0.000000
# 4 0.000000 0.000000 0.000000 0.041717 0.000000 0.000000
# 5 0.000000 0.000000 0.000000 0.000000 0.121879 0.000000
# 6 0.000000 0.000000 0.000000 0.000000 0.000000 -0.115837
#
#
# Mechanical properties :
#
#
# Convention : Reuss Voigt Hill
#
# Bulk Modulus (GPa) = 48.30937 63.32402 55.81670
# Shear Modulus (GPa) = 37.94459 16.40862 27.17661
#
# Velocity S-wave (km/s) = 4.44425 2.92253 3.76115
# Velocity P-wave (km/s) = 7.17507 6.65961 6.92214
#
# Compressibility (1/GPa) = 0.02069992
#
# Stress axis : x y z
#
# Youngs Moduli (GPa) = 97.07086 83.13013 37.62921
#
# Poissons Ratio (x) = 0.28840 0.24292
# Poissons Ratio (y) = 0.33676 0.15722
# Poissons Ratio (z) = 0.62666 0.34733
#
# Static dielectric constant tensor:
#      x y z
#    x 1.755230 0.000000 0.000000 
#    y 0.000000 1.740800 0.000000 
#    z 0.000000 0.000000 1.658690 
# 
# From -- ./inp_files/12966.got.cif
#   From: 2010.05.17/outbox.cif.g08.bks.cpg/sg35_7_cif.got.tgz:12966.got - 2010.06.03 17:29:28.
