data_PCOD9349369
_publ_section_title
;
Structure prediction by ZEFSAII (Michael W. Deem and Ramdas Pophale) SiO2 
 PCOD9349369
Probable space group: C M M 2
;
_chemical_formula_sum "Si O2"
_cell_formula_units_Z 58
_cell_length_a 29.965448
_cell_length_b 8.181490
_cell_length_c 12.766814
_cell_angle_alpha 90.000000
_cell_angle_beta 90.000000
_cell_angle_gamma 90.000000
_cell_volume 3129.937822
_symmetry_space_group_name_H-M "C M M 2"
_symmetry_group_IT_number 35
_symmetry_cell_setting 'orthorhombic'
loop_
_space_group_symop_operation_xyz
x,y,z
-x,-y,z
-x,y,z
x,-y,z
1/2+x,1/2+y,z
1/2-x,1/2-y,z
1/2-x,1/2+y,z
1/2+x,1/2-y,z
loop_
_atom_site_type_symbol
_atom_site_label
_atom_site_fract_x
_atom_site_fract_y
_atom_site_fract_z
Si Si1 0.797943 0.805032 0.662150
Si Si2 0.895152 0.688333 0.684020
Si Si3 0.567031 0.310247 0.117150
Si Si4 0.297601 0.304808 0.420939
Si Si5 0.000000 0.500000 0.150950
Si Si6 0.448097 0.307450 0.880695
Si Si7 0.051697 0.193081 0.482343
Si Si8 0.615356 0.810770 0.301364
O O1 0.750000 0.750000 0.706974
O O2 0.844884 0.746336 0.708379
O O3 0.799502 0.744205 0.541388
O O4 0.798232 0.000000 0.662214
O O5 0.893620 0.500000 0.653411
O O6 0.924976 0.713466 0.786834
O O7 0.918783 0.779169 0.586529
O O8 0.549393 0.500000 0.126813
O O9 0.537638 0.150564 0.147770
O O10 0.607401 0.295687 0.198010
O O11 0.575043 0.288456 0.993283
O O12 0.299913 0.500000 0.423345
O O13 0.250000 0.250000 0.376873
O O14 0.339503 0.238059 0.359400
O O15 0.500000 0.257901 0.894541
O O16 0.447515 0.500000 0.853438
O O17 0.075150 0.279457 0.384146
O O18 0.000000 0.245988 0.497499
O O19 0.051507 0.000000 0.459940
O O20 0.617401 0.000000 0.274848
#
# Coordination Sequence:
#
# PCOD9349369 Si02
#       8
#     8   8   8   8   2   8   8   8
#     4  10  20  36  59  84 116 150 192 240 294 353
#     4  12  24  36  57  86 118 154 196 244 295 356
#     4  11  24  41  62  89 121 160 206 258 304 351
#     4  10  20  36  60  86 116 155 194 244 299 356
#     4  12  22  40  64  90 118 160 210 256 304 348
#     4  10  22  40  62  84 115 157 203 250 297 350
#     4  11  24  39  54  77 116 161 198 238 296 358
#     4  12  24  38  59  88 122 156 200 248 299 363
#
# _framework density 18.530721
#
# number of rings (size 3 to 8) (size 9 to 14) (size 15 to 20)
#    0.000    1.103    2.759    4.345    1.931    4.138 
#    0.000    0.000    0.000    0.828    0.000    0.000 
#    0.000    0.000    0.000    0.000    0.000    0.000 
#
# Total GULP energy -161586.450450 kJ/mol
# GULP energy per Si atom -5571.946567 kJ/mol
# Density = 1.848854 g / cm^3
# Si number density = 18.530721 Si / 1000 Ang^3
#
#
#
# Elastic Constant Matrix: (Units=GPa)
#
#
# Indices 1 2 3 4 5 6 
#
# 1 78.7493 12.5534 18.5379 0.0000 0.0000 0.0000
# 2 12.5534 81.9608 5.6552 0.0000 0.0000 0.0000
# 3 18.5379 5.6552 61.0567 0.0000 0.0000 0.0000
# 4 0.0000 0.0000 0.0000 19.5524 0.0000 0.0000
# 5 0.0000 0.0000 0.0000 0.0000 15.8383 0.0000
# 6 0.0000 0.0000 0.0000 0.0000 0.0000 31.5302
#
#
#
# Elastic Compliance Matrix: (Units=1/GPa)
#
#
# Indices 1 2 3 4 5 6 
#
# 1 0.013951 -0.001856 -0.004064 0.000000 0.000000 0.000000
# 2 -0.001856 0.012526 -0.000597 0.000000 0.000000 0.000000
# 3 -0.004064 -0.000597 0.017667 0.000000 0.000000 0.000000
# 4 0.000000 0.000000 0.000000 0.051145 0.000000 0.000000
# 5 0.000000 0.000000 0.000000 0.000000 0.063138 0.000000
# 6 0.000000 0.000000 0.000000 0.000000 0.000000 0.031716
#
#
# Mechanical properties :
#
#
# Convention : Reuss Voigt Hill
#
# Bulk Modulus (GPa) = 32.14276 32.80662 32.47469
# Shear Modulus (GPa) = 23.41402 25.71886 24.56644
#
# Velocity S-wave (km/s) = 3.55846 3.72950 3.64499
# Velocity P-wave (km/s) = 5.85379 6.02394 5.93948
#
# Compressibility (1/GPa) = 0.03111121
#
# Stress axis : x y z
#
# Youngs Moduli (GPa) = 71.67892 79.83106 56.60165
#
# Poissons Ratio (x) = 0.14820 0.23002
# Poissons Ratio (y) = 0.13306 0.03377
# Poissons Ratio (z) = 0.29129 0.04763
#
# Static dielectric constant tensor:
#      x y z
#    x 1.655810 0.000000 0.000000 
#    y 0.000000 1.641660 0.000000 
#    z 0.000000 0.000000 1.627340 
# 
# From -- ./inp_files/14335.got.cif
#   From: 2010.05.17/outbox.cif.g08.bks.cpg/sg35_8_cif.got.tgz:14335.got - 2010.06.03 17:29:28.
