data_PCOD9349708
_publ_section_title
;
Structure prediction by ZEFSAII (Michael W. Deem and Ramdas Pophale) SiO2 
 PCOD9349708
Probable space group: C M M 2
;
_chemical_formula_sum "Si O2"
_cell_formula_units_Z 64
_cell_length_a 8.718934
_cell_length_b 28.441360
_cell_length_c 13.213287
_cell_angle_alpha 90.000000
_cell_angle_beta 90.000000
_cell_angle_gamma 90.000000
_cell_volume 3276.608986
_symmetry_space_group_name_H-M "C M M 2"
_symmetry_group_IT_number 35
_symmetry_cell_setting 'orthorhombic'
loop_
_space_group_symop_operation_xyz
x,y,z
-x,-y,z
-x,y,z
x,-y,z
1/2+x,1/2+y,z
1/2-x,1/2-y,z
1/2-x,1/2+y,z
1/2+x,1/2-y,z
loop_
_atom_site_type_symbol
_atom_site_label
_atom_site_fract_x
_atom_site_fract_y
_atom_site_fract_z
Si Si1 0.316983 0.802692 0.426310
Si Si2 0.683971 0.697458 0.024621
Si Si3 0.183519 0.197117 0.636979
Si Si4 0.825391 0.557051 0.538309
Si Si5 0.681652 0.855506 0.831098
Si Si6 0.681011 0.555097 0.750829
Si Si7 0.314614 0.945457 0.310739
Si Si8 0.182751 0.855356 0.233185
O O1 0.250000 0.750000 0.417324
O O2 0.249319 0.822721 0.531262
O O3 0.265250 0.830663 0.327659
O O4 0.000000 0.698875 0.433350
O O5 0.500000 0.699308 0.014484
O O6 0.750000 0.750000 0.025215
O O7 0.721760 0.671433 0.129786
O O8 0.753643 0.668776 0.931263
O O9 0.250000 0.250000 0.645485
O O10 0.240344 0.168839 0.733983
O O11 0.000000 0.198538 0.632914
O O12 0.834255 0.500000 0.535754
O O13 0.723276 0.568459 0.634928
O O14 0.770026 0.569297 0.425803
O O15 0.000000 0.574791 0.552992
O O16 0.500000 0.849404 0.825360
O O17 0.726728 0.910209 0.823151
O O18 0.500000 0.561144 0.766247
O O19 0.719448 0.500000 0.764147
O O20 0.500000 0.942276 0.306676
O O21 0.238167 0.909196 0.234584
O O22 0.272788 0.000000 0.294947
O O23 0.000000 0.852910 0.247359
#
# Coordination Sequence:
#
# PCOD9349708 Si02
#       8
#     8   8   8   8   8   8   8   8
#     4  11  22  38  60  88 124 161 200 248 305 368
#     4  11  25  46  69  93 121 156 204 259 313 369
#     4  11  22  39  61  88 124 160 199 247 305 370
#     4   8  15  30  52  79 115 159 203 247 296 352
#     4  12  25  41  64  91 121 160 206 252 308 369
#     4  10  21  37  58  87 124 164 206 254 305 360
#     4   9  19  36  58  86 123 165 209 257 306 361
#     4  11  24  40  62  91 123 162 207 254 308 367
#
# _framework density 19.532388999999998
#
# number of rings (size 3 to 8) (size 9 to 14) (size 15 to 20)
#    0.000    1.625    0.000    6.750    1.750    4.500 
#    0.000    1.875    0.000    0.750    0.000    0.000 
#    0.000    0.000    0.000    0.000    0.000    0.000 
#
# Total GULP energy -178936.321586 kJ/mol
# GULP energy per Si atom -5591.760050 kJ/mol
# Density = 1.948793 g / cm^3
# Si number density = 19.532389 Si / 1000 Ang^3
#
#
#
# Elastic Constant Matrix: (Units=GPa)
#
#
# Indices 1 2 3 4 5 6 
#
# 1 122.4809 56.9809 77.7753 0.0000 0.0000 0.0000
# 2 56.9809 107.4937 73.5515 0.0000 0.0000 0.0000
# 3 77.7753 73.5515 133.6612 0.0000 0.0000 0.0000
# 4 0.0000 0.0000 0.0000 36.3641 0.0000 0.0000
# 5 0.0000 0.0000 0.0000 0.0000 29.4426 0.0000
# 6 0.0000 0.0000 0.0000 0.0000 0.0000 29.3278
#
#
#
# Elastic Compliance Matrix: (Units=1/GPa)
#
#
# Indices 1 2 3 4 5 6 
#
# 1 0.013473 -0.002851 -0.006271 0.000000 0.000000 0.000000
# 2 -0.002851 0.015524 -0.006884 0.000000 0.000000 0.000000
# 3 -0.006271 -0.006884 0.014918 0.000000 0.000000 0.000000
# 4 0.000000 0.000000 0.000000 0.027500 0.000000 0.000000
# 5 0.000000 0.000000 0.000000 0.000000 0.033964 0.000000
# 6 0.000000 0.000000 0.000000 0.000000 0.000000 0.034097
#
#
# Mechanical properties :
#
#
# Convention : Reuss Voigt Hill
#
# Bulk Modulus (GPa) = 84.00210 86.69459 85.34835
# Shear Modulus (GPa) = 28.49711 29.38210 28.93961
#
# Velocity S-wave (km/s) = 3.82379 3.88271 3.85336
# Velocity P-wave (km/s) = 7.91170 8.03629 7.97424
#
# Compressibility (1/GPa) = 0.01190446
#
# Stress axis : x y z
#
# Youngs Moduli (GPa) = 74.22341 64.41494 67.03094
#
# Poissons Ratio (x) = 0.18365 0.42033
# Poissons Ratio (y) = 0.21162 0.46143
# Poissons Ratio (z) = 0.46544 0.44342
#
# Static dielectric constant tensor:
#      x y z
#    x 1.655190 0.000000 0.000000 
#    y 0.000000 1.724790 0.000000 
#    z 0.000000 0.000000 1.659290 
# 
# From -- ./inp_files/11906.got.cif
#   From: 2010.05.17/outbox.cif.g08.bks.cpg/sg35_6_cif.got.tgz:11906.got - 2010.06.03 17:29:28.
