data_PCOD9349116
_publ_section_title
;
Structure prediction by ZEFSAII (Michael W. Deem and Ramdas Pophale) SiO2 
 PCOD9349116
Probable space group: C M M 2
;
_chemical_formula_sum "Si O2"
_cell_formula_units_Z 56
_cell_length_a 18.742438
_cell_length_b 8.747879
_cell_length_c 18.742889
_cell_angle_alpha 90.000000
_cell_angle_beta 90.000000
_cell_angle_gamma 90.000000
_cell_volume 3073.019976
_symmetry_space_group_name_H-M "C M M 2"
_symmetry_group_IT_number 35
_symmetry_cell_setting 'orthorhombic'
loop_
_space_group_symop_operation_xyz
x,y,z
-x,-y,z
-x,y,z
x,-y,z
1/2+x,1/2+y,z
1/2-x,1/2-y,z
1/2-x,1/2+y,z
1/2+x,1/2-y,z
loop_
_atom_site_type_symbol
_atom_site_label
_atom_site_fract_x
_atom_site_fract_y
_atom_site_fract_z
Si Si1 0.413332 0.677899 0.853840
Si Si2 0.670260 0.682509 0.417516
Si Si3 0.416429 0.183964 0.286146
Si Si4 0.582046 0.816407 0.706152
Si Si5 0.329239 0.816743 0.143642
Si Si6 0.329397 0.184377 0.567766
Si Si7 0.583612 0.685248 0.011558
O O1 0.500000 0.687028 0.854841
O O2 0.394009 0.500000 0.848331
O O3 0.388550 0.761209 0.782386
O O4 0.391571 0.735595 0.932214
O O5 0.674883 0.500000 0.421606
O O6 0.750000 0.750000 0.406748
O O7 0.620731 0.735207 0.352829
O O8 0.642796 0.749843 0.492760
O O9 0.500000 0.222394 0.280780
O O10 0.374995 0.225533 0.213678
O O11 0.410557 0.000000 0.295188
O O12 0.500000 0.763033 0.700173
O O13 0.625524 0.767404 0.636714
O O14 0.581637 0.000000 0.706786
O O15 0.250000 0.750000 0.149016
O O16 0.369009 0.753495 0.073957
O O17 0.325760 0.000000 0.139983
O O18 0.250000 0.250000 0.575527
O O19 0.327711 0.000000 0.563885
O O20 0.500000 0.727530 0.020927
O O21 0.586864 0.500000 0.012737
#
# Coordination Sequence:
#
# PCOD9349116 Si02
#       7
#     8   8   8   8   8   8   8
#     4   8  15  29  50  76 105 137 172 213 264 316
#     4  11  22  37  58  82 108 141 181 220 264 318
#     4  10  22  40  60  83 111 140 173 217 267 316
#     4   9  18  32  51  76 104 136 176 219 263 312
#     4  11  23  38  57  81 109 143 181 219 264 317
#     4  10  20  35  54  76 105 141 178 217 265 317
#     4   9  18  34  56  81 109 141 178 222 271 319
#
# _framework density 18.223115
#
# number of rings (size 3 to 8) (size 9 to 14) (size 15 to 20)
#    0.000    2.286    0.000    4.714    0.000    5.714 
#    0.000    3.571    0.000    1.714    0.000    0.000 
#    0.000    0.000    0.000    0.000    0.000    0.000 
#
# Total GULP energy -156246.042380 kJ/mol
# GULP energy per Si atom -5580.215799 kJ/mol
# Density = 1.818164 g / cm^3
# Si number density = 18.223115 Si / 1000 Ang^3
#
#
#
# Elastic Constant Matrix: (Units=GPa)
#
#
# Indices 1 2 3 4 5 6 
#
# 1 85.5010 38.9708 92.0159 0.0000 0.0000 0.0000
# 2 38.9708 50.6126 63.5833 0.0000 0.0000 0.0000
# 3 92.0159 63.5833 216.6349 0.0000 0.0000 0.0000
# 4 0.0000 0.0000 0.0000 35.8886 0.0000 0.0000
# 5 0.0000 0.0000 0.0000 0.0000 109.7988 0.0000
# 6 0.0000 0.0000 0.0000 0.0000 0.0000 21.5622
#
#
#
# Elastic Compliance Matrix: (Units=1/GPa)
#
#
# Indices 1 2 3 4 5 6 
#
# 1 0.023845 -0.008929 -0.007508 0.000000 0.000000 0.000000
# 2 -0.008929 0.034642 -0.006375 0.000000 0.000000 0.000000
# 3 -0.007508 -0.006375 0.009676 0.000000 0.000000 0.000000
# 4 0.000000 0.000000 0.000000 0.027864 0.000000 0.000000
# 5 0.000000 0.000000 0.000000 0.000000 0.009108 0.000000
# 6 0.000000 0.000000 0.000000 0.000000 0.000000 0.046377
#
#
# Mechanical properties :
#
#
# Convention : Reuss Voigt Hill
#
# Bulk Modulus (GPa) = 44.36531 82.43206 63.39868
# Shear Modulus (GPa) = 24.43226 43.99517 34.21371
#
# Velocity S-wave (km/s) = 3.66557 4.91883 4.33770
# Velocity P-wave (km/s) = 6.50490 8.80869 7.74295
#
# Compressibility (1/GPa) = 0.02254013
#
# Stress axis : x y z
#
# Youngs Moduli (GPa) = 41.93738 28.86706 103.34813
#
# Poissons Ratio (x) = 0.25774 0.77590
# Poissons Ratio (y) = 0.37444 0.65885
# Poissons Ratio (z) = 0.31485 0.18403
#
# Static dielectric constant tensor:
#      x y z
#    x 1.605990 0.000000 0.000000 
#    y 0.000000 1.531760 0.000000 
#    z 0.000000 0.000000 1.629970 
# 
# From -- ./inp_files/17410.got.cif
#   From: 2010.05.17/outbox.cif.g08.bks.cpg/sg35_9_cif.got.tgz:17410.got - 2010.06.03 17:29:28.
