data_PCOD9349350
_publ_section_title
;
Structure prediction by ZEFSAII (Michael W. Deem and Ramdas Pophale) SiO2 
 PCOD9349350
Probable space group: C M M 2
;
_chemical_formula_sum "Si O2"
_cell_formula_units_Z 48
_cell_length_a 8.795435
_cell_length_b 15.601056
_cell_length_c 17.777958
_cell_angle_alpha 90.000000
_cell_angle_beta 90.000000
_cell_angle_gamma 90.000000
_cell_volume 2439.457156
_symmetry_space_group_name_H-M "C M M 2"
_symmetry_group_IT_number 35
_symmetry_cell_setting 'orthorhombic'
loop_
_space_group_symop_operation_xyz
x,y,z
-x,-y,z
-x,y,z
x,-y,z
1/2+x,1/2+y,z
1/2-x,1/2-y,z
1/2-x,1/2+y,z
1/2+x,1/2-y,z
loop_
_atom_site_type_symbol
_atom_site_label
_atom_site_fract_x
_atom_site_fract_y
_atom_site_fract_z
Si Si1 0.826027 0.604283 0.401010
Si Si2 0.683644 0.655139 0.716393
Si Si3 0.184408 0.000000 0.991963
Si Si4 0.318580 0.000000 0.158412
Si Si5 0.679644 0.341176 0.248985
Si Si6 0.816447 0.845704 0.882560
Si Si7 0.672478 0.398125 0.552850
O O1 0.819250 0.500000 0.397713
O O2 0.719390 0.640884 0.336223
O O3 0.773990 0.633398 0.483857
O O4 0.000000 0.629604 0.386006
O O5 0.500000 0.654071 0.714552
O O6 0.750000 0.750000 0.716182
O O7 0.727034 0.620147 0.798765
O O8 0.733688 0.615468 0.637165
O O9 0.259030 0.000000 0.073347
O O10 0.228320 0.084894 0.944812
O O11 0.000000 0.000000 0.998850
O O12 0.255385 0.083090 0.201401
O O13 0.500000 0.000000 0.161270
O O14 0.500000 0.341572 0.237662
O O15 0.750000 0.250000 0.227564
O O16 0.750000 0.750000 0.893063
O O17 0.000000 0.838592 0.883958
O O18 0.500000 0.362776 0.547618
O O19 0.661683 0.500000 0.542918
#
# Coordination Sequence:
#
# PCOD9349350 Si02
#       7
#     8   8   4   4   8   8   8
#     4  10  20  36  58  84 121 162 204 253 306 359
#     4   9  18  32  51  76 108 149 192 244 298 350
#     4  10  22  40  64  91 118 157 200 241 300 369
#     4  12  26  46  68  95 130 161 198 251 306 369
#     4  12  25  43  69  97 126 163 206 251 306 368
#     4   9  19  36  59  86 119 155 198 248 301 358
#     4   9  18  31  50  77 110 151 202 249 294 349
#
# _framework density 19.67651
#
# number of rings (size 3 to 8) (size 9 to 14) (size 15 to 20)
#    0.000    2.000    0.833    2.750    1.167    3.333 
#    0.000    3.333    0.000    0.000    0.000    0.000 
#    0.000    0.000    0.000    0.000    0.000    0.000 
#
# Total GULP energy -133955.876367 kJ/mol
# GULP energy per Si atom -5581.494849 kJ/mol
# Density = 1.963173 g / cm^3
# Si number density = 19.676510 Si / 1000 Ang^3
#
#
#
# Elastic Constant Matrix: (Units=GPa)
#
#
# Indices 1 2 3 4 5 6 
#
# 1 80.6887 40.8097 52.8179 0.0000 0.0000 0.0000
# 2 40.8097 91.5951 65.0394 0.0000 0.0000 0.0000
# 3 52.8179 65.0394 158.6988 0.0000 0.0000 0.0000
# 4 0.0000 0.0000 0.0000 -56.2889 0.0000 0.0000
# 5 0.0000 0.0000 0.0000 0.0000 17.4577 0.0000
# 6 0.0000 0.0000 0.0000 0.0000 0.0000 26.1579
#
#
#
# Elastic Compliance Matrix: (Units=1/GPa)
#
#
# Indices 1 2 3 4 5 6 
#
# 1 0.017405 -0.005136 -0.003688 0.000000 0.000000 0.000000
# 2 -0.005136 0.016914 -0.005223 0.000000 0.000000 0.000000
# 3 -0.003688 -0.005223 0.009669 0.000000 0.000000 0.000000
# 4 0.000000 0.000000 0.000000 -0.017765 0.000000 0.000000
# 5 0.000000 0.000000 0.000000 0.000000 0.057281 0.000000
# 6 0.000000 0.000000 0.000000 0.000000 0.000000 0.038229
#
#
# Mechanical properties :
#
#
# Convention : Reuss Voigt Hill
#
# Bulk Modulus (GPa) = 62.91135 72.03516 67.47326
# Shear Modulus (GPa) = 32.23211 8.95306 20.59258
#
# Velocity S-wave (km/s) = 4.05174 2.13542 3.23856
# Velocity P-wave (km/s) = 7.34377 6.53982 6.95342
#
# Compressibility (1/GPa) = 0.01589538
#
# Stress axis : x y z
#
# Youngs Moduli (GPa) = 57.45491 59.12113 103.42341
#
# Poissons Ratio (x) = 0.30365 0.38140
# Poissons Ratio (y) = 0.29509 0.54014
# Poissons Ratio (z) = 0.21188 0.30877
#
# Static dielectric constant tensor:
#      x y z
#    x 1.672670 0.000000 0.000000 
#    y 0.000000 1.676010 0.000000 
#    z 0.000000 0.000000 1.706820 
# 
# From -- ./inp_files/17845.got.cif
#   From: 2010.05.17/outbox.cif.g08.bks.cpg/sg35_9_cif.got.tgz:17845.got - 2010.06.03 17:29:28.
