data_PCOD9349186
_publ_section_title
;
Structure prediction by ZEFSAII (Michael W. Deem and Ramdas Pophale) SiO2 
 PCOD9349186
Probable space group: C M M 2
;
_chemical_formula_sum "Si O2"
_cell_formula_units_Z 48
_cell_length_a 8.734178
_cell_length_b 18.818129
_cell_length_c 15.856367
_cell_angle_alpha 90.000000
_cell_angle_beta 90.000000
_cell_angle_gamma 90.000000
_cell_volume 2606.166566
_symmetry_space_group_name_H-M "C M M 2"
_symmetry_group_IT_number 35
_symmetry_cell_setting 'orthorhombic'
loop_
_space_group_symop_operation_xyz
x,y,z
-x,-y,z
-x,y,z
x,-y,z
1/2+x,1/2+y,z
1/2-x,1/2-y,z
1/2-x,1/2+y,z
1/2+x,1/2-y,z
loop_
_atom_site_type_symbol
_atom_site_label
_atom_site_fract_x
_atom_site_fract_y
_atom_site_fract_z
Si Si1 0.317190 0.829509 0.423340
Si Si2 0.815386 0.916902 0.268351
Si Si3 0.817117 0.583172 0.946092
Si Si4 0.683428 0.329061 0.101092
Si Si5 0.316792 0.583300 0.766906
Si Si6 0.815722 0.828977 0.601507
O O1 0.500000 0.825076 0.426555
O O2 0.250000 0.750000 0.410515
O O3 0.262310 0.879541 0.347960
O O4 0.252420 0.856126 0.513165
O O5 0.772176 0.874739 0.183496
O O6 0.000000 0.912020 0.277552
O O7 0.774970 0.000000 0.261951
O O8 0.770527 0.500000 0.956054
O O9 0.763983 0.606751 0.853045
O O10 0.000000 0.586866 0.951904
O O11 0.743278 0.630689 0.018417
O O12 0.500000 0.325313 0.098261
O O13 0.750000 0.250000 0.106409
O O14 0.500000 0.590787 0.777836
O O15 0.282497 0.500000 0.755120
O O16 0.272126 0.625452 0.683143
O O17 0.750000 0.750000 0.612167
O O18 0.000000 0.827006 0.595115
#
# Coordination Sequence:
#
# PCOD9349186 Si02
#       6
#     8   8   8   8   8   8
#     4  11  22  37  58  83 113 149 188 231 279 330
#     4  10  22  40  61  85 113 146 184 227 277 332
#     4  10  21  37  58  84 114 148 186 231 280 329
#     4  11  23  39  60  85 113 147 186 229 277 330
#     4   9  19  36  57  80 108 146 189 230 275 328
#     4  10  20  35  56  81 110 146 186 230 279 329
#
# _framework density 18.417857000000001
#
# number of rings (size 3 to 8) (size 9 to 14) (size 15 to 20)
#    0.000    1.833    0.000    5.000    0.000    7.333 
#    0.000    3.333    0.000    0.000    0.000    0.000 
#    0.000    0.000    0.000    0.000    0.000    0.000 
#
# Total GULP energy -134097.192143 kJ/mol
# GULP energy per Si atom -5587.383006 kJ/mol
# Density = 1.837594 g / cm^3
# Si number density = 18.417857 Si / 1000 Ang^3
#
#
#
# Elastic Constant Matrix: (Units=GPa)
#
#
# Indices 1 2 3 4 5 6 
#
# 1 67.0131 54.4114 77.5236 0.0000 0.0000 0.0000
# 2 54.4114 109.9916 112.1309 0.0000 0.0000 0.0000
# 3 77.5236 112.1309 211.3944 0.0000 0.0000 0.0000
# 4 0.0000 0.0000 0.0000 42.7389 0.0000 0.0000
# 5 0.0000 0.0000 0.0000 0.0000 19.2071 0.0000
# 6 0.0000 0.0000 0.0000 0.0000 0.0000 27.5616
#
#
#
# Elastic Compliance Matrix: (Units=1/GPa)
#
#
# Indices 1 2 3 4 5 6 
#
# 1 0.028501 -0.007499 -0.006474 0.000000 0.000000 0.000000
# 2 -0.007499 0.021770 -0.008797 0.000000 0.000000 0.000000
# 3 -0.006474 -0.008797 0.011771 0.000000 0.000000 0.000000
# 4 0.000000 0.000000 0.000000 0.023398 0.000000 0.000000
# 5 0.000000 0.000000 0.000000 0.000000 0.052064 0.000000
# 6 0.000000 0.000000 0.000000 0.000000 0.000000 0.036282
#
#
# Mechanical properties :
#
#
# Convention : Reuss Voigt Hill
#
# Bulk Modulus (GPa) = 60.60314 97.39233 78.99774
# Shear Modulus (GPa) = 22.23927 27.52372 24.88150
#
# Velocity S-wave (km/s) = 3.47866 3.86995 3.67951
# Velocity P-wave (km/s) = 7.00790 8.54182 7.81260
#
# Compressibility (1/GPa) = 0.01650079
#
# Stress axis : x y z
#
# Youngs Moduli (GPa) = 35.08656 45.93564 84.95243
#
# Poissons Ratio (x) = 0.34445 0.55002
# Poissons Ratio (y) = 0.26310 0.74736
# Poissons Ratio (z) = 0.22717 0.40411
#
# Static dielectric constant tensor:
#      x y z
#    x 1.619590 0.000000 0.000000 
#    y 0.000000 1.611580 0.000000 
#    z 0.000000 0.000000 1.614950 
# 
# From -- ./inp_files/15108.got.cif
#   From: 2010.05.17/outbox.cif.g08.bks.cpg/sg35_8_cif.got.tgz:15108.got - 2010.06.03 17:29:28.
