data_PCOD9349564
_publ_section_title
;
Structure prediction by ZEFSAII (Michael W. Deem and Ramdas Pophale) SiO2 
 PCOD9349564
Probable space group: C M M 2
;
_chemical_formula_sum "Si O2"
_cell_formula_units_Z 48
_cell_length_a 15.522156
_cell_length_b 10.210068
_cell_length_c 16.233060
_cell_angle_alpha 90.000000
_cell_angle_beta 90.000000
_cell_angle_gamma 90.000000
_cell_volume 2572.652170
_symmetry_space_group_name_H-M "C M M 2"
_symmetry_group_IT_number 35
_symmetry_cell_setting 'orthorhombic'
loop_
_space_group_symop_operation_xyz
x,y,z
-x,-y,z
-x,y,z
x,-y,z
1/2+x,1/2+y,z
1/2-x,1/2-y,z
1/2-x,1/2+y,z
1/2+x,1/2-y,z
loop_
_atom_site_type_symbol
_atom_site_label
_atom_site_fract_x
_atom_site_fract_y
_atom_site_fract_z
Si Si1 0.145717 0.264750 0.281440
Si Si2 0.102891 0.647839 0.925998
Si Si3 0.899196 0.340488 0.746467
Si Si4 0.598611 0.000000 0.403057
Si Si5 0.833154 0.657988 0.104044
Si Si6 0.404218 0.500000 0.365833
Si Si7 0.750000 0.750000 0.624249
Si Si8 0.235278 0.000000 0.511760
O O1 0.250000 0.250000 0.284721
O O2 0.116762 0.374236 0.346060
O O3 0.119139 0.308410 0.189465
O O4 0.107871 0.127102 0.309352
O O5 0.138818 0.500000 0.924811
O O6 0.127951 0.709340 0.838354
O O7 0.000000 0.640440 0.921108
O O8 0.124503 0.697165 0.016934
O O9 0.896210 0.500000 0.747552
O O10 0.831607 0.288808 0.680450
O O11 0.000000 0.305334 0.731243
O O12 0.668055 0.000000 0.475499
O O13 0.500000 0.000000 0.431681
O O14 0.817167 0.500000 0.104933
O O15 0.750000 0.750000 0.107611
O O16 0.500000 0.500000 0.402586
O O17 0.331234 0.500000 0.435912
O O18 0.775208 0.871624 0.566858
#
# Coordination Sequence:
#
# PCOD9349564 Si02
#       8
#     8   8   8   4   8   4   4   4
#     4  11  21  41  64  87 128 163 201 257 298 351
#     4   8  16  33  57  86 123 159 196 246 288 343
#     4   9  19  39  65  93 124 161 204 245 297 367
#     4  12  24  42  68  91 115 160 209 253 300 364
#     4  10  21  34  58  92 122 161 203 243 291 347
#     4  12  26  44  66  89 121 164 201 249 318 372
#     4  12  24  40  68  92 120 160 196 256 316 362
#     4  12  26  44  62  92 126 152 198 262 316 364
#
# _framework density 18.657789000000001
#
# number of rings (size 3 to 8) (size 9 to 14) (size 15 to 20)
#    0.000    1.667    3.333    2.500    4.667    2.667 
#    0.000    0.000    0.000    0.000    0.000    0.000 
#    0.000    0.000    0.000    0.000    0.000    0.000 
#
# Total GULP energy -133801.864466 kJ/mol
# GULP energy per Si atom -5575.077686 kJ/mol
# Density = 1.861532 g / cm^3
# Si number density = 18.657789 Si / 1000 Ang^3
#
#
#
# Elastic Constant Matrix: (Units=GPa)
#
#
# Indices 1 2 3 4 5 6 
#
# 1 92.2885 18.7264 44.5711 0.0000 0.0000 0.0000
# 2 18.7264 107.7685 49.5649 0.0000 0.0000 0.0000
# 3 44.5711 49.5649 127.9119 0.0000 0.0000 0.0000
# 4 0.0000 0.0000 0.0000 7.8466 0.0000 0.0000
# 5 0.0000 0.0000 0.0000 0.0000 -66.5025 0.0000
# 6 0.0000 0.0000 0.0000 0.0000 0.0000 39.8054
#
#
#
# Elastic Compliance Matrix: (Units=1/GPa)
#
#
# Indices 1 2 3 4 5 6 
#
# 1 0.013032 -0.000214 -0.004458 0.000000 0.000000 0.000000
# 2 -0.000214 0.011295 -0.004302 0.000000 0.000000 0.000000
# 3 -0.004458 -0.004302 0.011038 0.000000 0.000000 0.000000
# 4 0.000000 0.000000 0.000000 0.127444 0.000000 0.000000
# 5 0.000000 0.000000 0.000000 0.000000 -0.015037 0.000000
# 6 0.000000 0.000000 0.000000 0.000000 0.000000 0.025122
#
#
# Mechanical properties :
#
#
# Convention : Reuss Voigt Hill
#
# Bulk Modulus (GPa) = 57.41602 61.52154 59.46878
# Shear Modulus (GPa) = 25.42599 10.57033 17.99816
#
# Velocity S-wave (km/s) = 3.69556 2.38279 3.10924
# Velocity P-wave (km/s) = 7.00354 6.37303 6.69571
#
# Compressibility (1/GPa) = 0.01741674
#
# Stress axis : x y z
#
# Youngs Moduli (GPa) = 76.73370 88.53489 90.59348
#
# Poissons Ratio (x) = 0.01896 0.40387
# Poissons Ratio (y) = 0.01643 0.38974
# Poissons Ratio (z) = 0.34208 0.38089
#
# Static dielectric constant tensor:
#      x y z
#    x 1.649100 0.000000 0.000000 
#    y 0.000000 1.615590 0.000000 
#    z 0.000000 0.000000 1.689520 
# 
# From -- ./inp_files/18813.got.cif
#   From: 2010.05.17/outbox.cif.g08.bks.cpg/sg35_10_cif.got.tgz:18813.got - 2010.06.03 17:29:28.
