data_PCOD9349745
_publ_section_title
;
Structure prediction by ZEFSAII (Michael W. Deem and Ramdas Pophale) SiO2 
 PCOD9349745
Probable space group: C M M 2
;
_chemical_formula_sum "Si O2"
_cell_formula_units_Z 32
_cell_length_a 28.868458
_cell_length_b 8.943058
_cell_length_c 7.153224
_cell_angle_alpha 90.000000
_cell_angle_beta 90.000000
_cell_angle_gamma 90.000000
_cell_volume 1846.764251
_symmetry_space_group_name_H-M "C M M 2"
_symmetry_group_IT_number 35
_symmetry_cell_setting 'orthorhombic'
loop_
_space_group_symop_operation_xyz
x,y,z
-x,-y,z
-x,y,z
x,-y,z
1/2+x,1/2+y,z
1/2-x,1/2-y,z
1/2-x,1/2+y,z
1/2+x,1/2-y,z
loop_
_atom_site_type_symbol
_atom_site_label
_atom_site_fract_x
_atom_site_fract_y
_atom_site_fract_z
Si Si1 0.126995 0.177828 0.816720
Si Si2 0.699585 0.178494 0.538319
Si Si3 0.375164 0.822416 0.220008
Si Si4 0.054142 0.679217 0.544524
O O1 0.170270 0.251600 0.708119
O O2 0.081619 0.236969 0.707744
O O3 0.129911 0.000000 0.804031
O O4 0.125895 0.231529 0.029825
O O5 0.750000 0.250000 0.526001
O O6 0.669317 0.207044 0.351537
O O7 0.702551 0.000000 0.562643
O O8 0.419435 0.786807 0.350567
O O9 0.376283 0.000000 0.177997
O O10 0.059231 0.500000 0.574177
O O11 0.000000 0.715378 0.538306
#
# Coordination Sequence:
#
# PCOD9349745 Si02
#       4
#     8   8   8   8
#     4  11  22  35  54  81 113 145 177 218 267 319
#     4  10  21  38  59  81 107 140 179 223 268 316
#     4   9  19  36  56  79 108 142 181 222 265 317
#     4   9  19  37  59  80 105 141 183 225 268 316
#
# _framework density 17.327604000000001
#
# number of rings (size 3 to 8) (size 9 to 14) (size 15 to 20)
#    0.000    2.250    0.000    4.500    0.000    7.500 
#    0.000    5.000    0.000    0.000    0.000    0.000 
#    0.000    0.000    0.000    0.000    0.000    0.000 
#
# Total GULP energy -89328.140651 kJ/mol
# GULP energy per Si atom -5583.008791 kJ/mol
# Density = 1.728817 g / cm^3
# Si number density = 17.327604 Si / 1000 Ang^3
#
#
#
# Elastic Constant Matrix: (Units=GPa)
#
#
# Indices 1 2 3 4 5 6 
#
# 1 176.2207 88.5051 84.2098 0.0000 0.0000 0.0000
# 2 88.5051 102.8976 95.1062 0.0000 0.0000 0.0000
# 3 84.2098 95.1062 147.7101 0.0000 0.0000 0.0000
# 4 0.0000 0.0000 0.0000 7.1384 0.0000 0.0000
# 5 0.0000 0.0000 0.0000 0.0000 3.6866 0.0000
# 6 0.0000 0.0000 0.0000 0.0000 0.0000 30.6510
#
#
#
# Elastic Compliance Matrix: (Units=1/GPa)
#
#
# Indices 1 2 3 4 5 6 
#
# 1 0.010000 -0.008230 -0.000402 0.000000 0.000000 0.000000
# 2 -0.008230 0.030775 -0.015124 0.000000 0.000000 0.000000
# 3 -0.000402 -0.015124 0.016737 0.000000 0.000000 0.000000
# 4 0.000000 0.000000 0.000000 0.140087 0.000000 0.000000
# 5 0.000000 0.000000 0.000000 0.000000 0.271255 0.000000
# 6 0.000000 0.000000 0.000000 0.000000 0.000000 0.032625
#
#
# Mechanical properties :
#
#
# Convention : Reuss Voigt Hill
#
# Bulk Modulus (GPa) = 99.98513 106.94116 103.46315
# Shear Modulus (GPa) = 9.05264 18.89568 13.97416
#
# Velocity S-wave (km/s) = 2.28818 3.30585 2.84292
# Velocity P-wave (km/s) = 8.05041 8.74201 8.40333
#
# Compressibility (1/GPa) = 0.01000149
#
# Stress axis : x y z
#
# Youngs Moduli (GPa) = 99.99821 32.49351 59.74746
#
# Poissons Ratio (x) = 0.26741 0.02404
# Poissons Ratio (y) = 0.82294 0.90360
# Poissons Ratio (z) = 0.04024 0.49142
#
# Static dielectric constant tensor:
#      x y z
#    x 1.571440 0.000000 0.000000 
#    y 0.000000 1.575430 0.000000 
#    z 0.000000 0.000000 1.558540 
# 
# From -- ./inp_files/527.got.cif
#   From: 2010.05.17/outbox.cif.g08.bks.cpg/sg35_1_cif.got.tgz:527.got - 2010.06.03 17:29:28.
