data_PCOD9349504
_publ_section_title
;
Structure prediction by ZEFSAII (Michael W. Deem and Ramdas Pophale) SiO2 
 PCOD9349504
Probable space group: C M M 2
;
_chemical_formula_sum "Si O2"
_cell_formula_units_Z 48
_cell_length_a 14.812484
_cell_length_b 10.836618
_cell_length_c 15.850953
_cell_angle_alpha 90.000000
_cell_angle_beta 90.000000
_cell_angle_gamma 90.000000
_cell_volume 2544.351080
_symmetry_space_group_name_H-M "C M M 2"
_symmetry_group_IT_number 35
_symmetry_cell_setting 'orthorhombic'
loop_
_space_group_symop_operation_xyz
x,y,z
-x,-y,z
-x,y,z
x,-y,z
1/2+x,1/2+y,z
1/2-x,1/2-y,z
1/2-x,1/2+y,z
1/2+x,1/2-y,z
loop_
_atom_site_type_symbol
_atom_site_label
_atom_site_fract_x
_atom_site_fract_y
_atom_site_fract_z
Si Si1 0.150958 0.632801 0.597920
Si Si2 0.897114 0.148576 0.322075
Si Si3 0.000000 0.861931 0.031719
Si Si4 0.652429 0.637531 0.509381
Si Si5 0.681764 0.644701 0.142285
Si Si6 0.685250 0.861570 0.797836
Si Si7 0.500000 0.860771 0.900715
O O1 0.106143 0.500000 0.584531
O O2 0.246580 0.627758 0.547607
O O3 0.105370 0.755331 0.562735
O O4 0.170537 0.645994 0.697009
O O5 0.850867 0.175761 0.411445
O O6 0.844139 0.183273 0.237950
O O7 0.000000 0.196789 0.321748
O O8 0.902647 0.000000 0.317305
O O9 0.089120 0.853703 0.089499
O O10 0.000000 0.000000 0.992301
O O11 0.000000 0.749617 0.966971
O O12 0.612451 0.500000 0.515932
O O13 0.714120 0.500000 0.141257
O O14 0.750000 0.750000 0.109692
O O15 0.750000 0.750000 0.824036
O O16 0.589191 0.851237 0.843403
O O17 0.721959 0.000000 0.815713
O O18 0.500000 0.000000 0.938560
#
# Coordination Sequence:
#
# PCOD9349504 Si02
#       7
#     8   8   4   8   8   8   4
#     4   9  17  30  48  72 109 151 188 233 286 337
#     4   9  17  32  53  79 115 157 199 241 287 342
#     4  10  22  44  66  87 120 156 194 243 298 360
#     4   9  16  27  47  74 102 142 193 234 270 319
#     4  10  21  38  63  90 118 157 198 240 297 358
#     4  10  20  38  61  85 118 157 196 240 299 359
#     4  10  24  42  64  91 118 154 194 243 306 368
#
# _framework density 18.865321999999999
#
# number of rings (size 3 to 8) (size 9 to 14) (size 15 to 20)
#    0.000    2.500    2.500    0.000    2.333    2.000 
#    1.500    3.333    0.000    1.000    0.000    0.000 
#    0.000    0.000    0.000    0.000    0.000    0.000 
#
# Total GULP energy -133667.838975 kJ/mol
# GULP energy per Si atom -5569.493291 kJ/mol
# Density = 1.882238 g / cm^3
# Si number density = 18.865322 Si / 1000 Ang^3
#
#
#
# Elastic Constant Matrix: (Units=GPa)
#
#
# Indices 1 2 3 4 5 6 
#
# 1 85.4918 54.7647 25.6742 0.0000 0.0000 0.0000
# 2 54.7647 170.4991 46.9155 0.0000 0.0000 0.0000
# 3 25.6742 46.9155 60.9927 0.0000 0.0000 0.0000
# 4 0.0000 0.0000 0.0000 32.0267 0.0000 0.0000
# 5 0.0000 0.0000 0.0000 0.0000 16.6632 0.0000
# 6 0.0000 0.0000 0.0000 0.0000 0.0000 18.3778
#
#
#
# Elastic Compliance Matrix: (Units=1/GPa)
#
#
# Indices 1 2 3 4 5 6 
#
# 1 0.015253 -0.003974 -0.003364 0.000000 0.000000 0.000000
# 2 -0.003974 0.008475 -0.004846 0.000000 0.000000 0.000000
# 3 -0.003364 -0.004846 0.021539 0.000000 0.000000 0.000000
# 4 0.000000 0.000000 0.000000 0.031224 0.000000 0.000000
# 5 0.000000 0.000000 0.000000 0.000000 0.060013 0.000000
# 6 0.000000 0.000000 0.000000 0.000000 0.000000 0.054413
#
#
# Mechanical properties :
#
#
# Convention : Reuss Voigt Hill
#
# Bulk Modulus (GPa) = 47.84881 63.52137 55.68509
# Shear Modulus (GPa) = 22.49709 26.05548 24.27629
#
# Velocity S-wave (km/s) = 3.45702 3.72039 3.59112
# Velocity P-wave (km/s) = 6.43064 7.22490 6.83931
#
# Compressibility (1/GPa) = 0.02089916
#
# Stress axis : x y z
#
# Youngs Moduli (GPa) = 65.56230 117.99430 46.42688
#
# Poissons Ratio (x) = 0.46885 0.15618
# Poissons Ratio (y) = 0.26051 0.22500
# Poissons Ratio (z) = 0.22055 0.57184
#
# Static dielectric constant tensor:
#      x y z
#    x 1.795420 0.000000 0.000000 
#    y 0.000000 1.735720 0.000000 
#    z 0.000000 0.000000 1.638090 
# 
# From -- ./inp_files/16717.got.cif
#   From: 2010.05.17/outbox.cif.g08.bks.cpg/sg35_9_cif.got.tgz:16717.got - 2010.06.03 17:29:28.
