data_PCOD9349205
_publ_section_title
;
Structure prediction by ZEFSAII (Michael W. Deem and Ramdas Pophale) SiO2 
 PCOD9349205
Probable space group: C M M 2
;
_chemical_formula_sum "Si O2"
_cell_formula_units_Z 56
_cell_length_a 21.791779
_cell_length_b 8.617256
_cell_length_c 14.497270
_cell_angle_alpha 90.000000
_cell_angle_beta 90.000000
_cell_angle_gamma 90.000000
_cell_volume 2722.374752
_symmetry_space_group_name_H-M "C M M 2"
_symmetry_group_IT_number 35
_symmetry_cell_setting 'orthorhombic'
loop_
_space_group_symop_operation_xyz
x,y,z
-x,-y,z
-x,y,z
x,-y,z
1/2+x,1/2+y,z
1/2-x,1/2-y,z
1/2-x,1/2+y,z
1/2+x,1/2-y,z
loop_
_atom_site_type_symbol
_atom_site_label
_atom_site_fract_x
_atom_site_fract_y
_atom_site_fract_z
Si Si1 0.568377 0.185771 0.081420
Si Si2 0.365809 0.186939 0.363988
Si Si3 0.631168 0.314703 0.567550
Si Si4 0.314413 0.686927 0.756466
Si Si5 0.186784 0.183964 0.185371
Si Si6 0.000000 0.676633 0.577109
Si Si7 0.567758 0.312315 0.873794
Si Si8 0.500000 0.824273 0.353312
O O1 0.500000 0.232222 0.116713
O O2 0.626175 0.258308 0.132896
O O3 0.572350 0.000000 0.088274
O O4 0.571113 0.238366 0.974997
O O5 0.354938 0.239099 0.468765
O O6 0.319601 0.252610 0.289487
O O7 0.433880 0.246727 0.333197
O O8 0.367084 0.000000 0.361151
O O9 0.633140 0.500000 0.557444
O O10 0.675557 0.264798 0.650116
O O11 0.562569 0.265522 0.598797
O O12 0.313292 0.500000 0.758760
O O13 0.250000 0.750000 0.792322
O O14 0.374202 0.738185 0.813567
O O15 0.250000 0.250000 0.144335
O O16 0.189042 0.000000 0.185122
O O17 0.000000 0.500000 0.612432
O O18 0.000000 0.665705 0.465025
O O19 0.500000 0.273884 0.834158
O O20 0.570429 0.500000 0.882412
O O21 0.500000 0.000000 0.315060
#
# Coordination Sequence:
#
# PCOD9349205 Si02
#       8
#     8   8   8   8   8   4   8   4
#     4  10  22  42  68  97 128 160 198 248 308 369
#     4  10  20  37  59  86 122 163 205 254 310 362
#     4  10  20  35  56  84 119 162 210 254 303 364
#     4  10  23  39  59  87 122 164 205 252 305 361
#     4  12  26  43  63  91 125 164 211 255 308 368
#     4   9  17  31  51  79 110 147 194 251 309 354
#     4   9  19  39  66  92 120 157 203 251 305 365
#     4   7  14  29  51  77 108 145 188 235 293 350
#
# _framework density 20.570274999999999
#
# number of rings (size 3 to 8) (size 9 to 14) (size 15 to 20)
#    0.000    2.143    0.000    3.643    2.000    3.714 
#    0.000    3.571    0.000    0.000    0.000    0.000 
#    0.000    0.000    0.000    0.000    0.000    0.000 
#
# Total GULP energy -156365.022110 kJ/mol
# GULP energy per Si atom -5584.465075 kJ/mol
# Density = 2.052346 g / cm^3
# Si number density = 20.570275 Si / 1000 Ang^3
#
#
#
# Elastic Constant Matrix: (Units=GPa)
#
#
# Indices 1 2 3 4 5 6 
#
# 1 169.1428 45.4706 66.8727 0.0000 0.0000 0.0000
# 2 45.4706 70.8726 27.0029 0.0000 0.0000 0.0000
# 3 66.8727 27.0029 74.7124 0.0000 0.0000 0.0000
# 4 0.0000 0.0000 0.0000 14.3718 0.0000 0.0000
# 5 0.0000 0.0000 0.0000 0.0000 20.6182 0.0000
# 6 0.0000 0.0000 0.0000 0.0000 0.0000 30.3894
#
#
#
# Elastic Compliance Matrix: (Units=1/GPa)
#
#
# Indices 1 2 3 4 5 6 
#
# 1 0.009817 -0.003422 -0.007550 0.000000 0.000000 0.000000
# 2 -0.003422 0.017556 -0.003282 0.000000 0.000000 0.000000
# 3 -0.007550 -0.003282 0.021329 0.000000 0.000000 0.000000
# 4 0.000000 0.000000 0.000000 0.069581 0.000000 0.000000
# 5 0.000000 0.000000 0.000000 0.000000 0.048501 0.000000
# 6 0.000000 0.000000 0.000000 0.000000 0.000000 0.032906
#
#
# Mechanical properties :
#
#
# Convention : Reuss Voigt Hill
#
# Bulk Modulus (GPa) = 49.52196 65.93557 57.72876
# Shear Modulus (GPa) = 21.28298 24.76799 23.02548
#
# Velocity S-wave (km/s) = 3.22008 3.47373 3.34931
# Velocity P-wave (km/s) = 6.16052 6.94352 6.56371
#
# Compressibility (1/GPa) = 0.02019306
#
# Stress axis : x y z
#
# Youngs Moduli (GPa) = 101.86264 56.96130 46.88458
#
# Poissons Ratio (x) = 0.19491 0.35399
# Poissons Ratio (y) = 0.34855 0.15389
# Poissons Ratio (z) = 0.76909 0.18697
#
# Static dielectric constant tensor:
#      x y z
#    x 1.765300 0.000000 0.000000 
#    y 0.000000 1.694060 0.000000 
#    z 0.000000 0.000000 1.734770 
# 
# From -- ./inp_files/17429.got.cif
#   From: 2010.05.17/outbox.cif.g08.bks.cpg/sg35_9_cif.got.tgz:17429.got - 2010.06.03 17:29:28.
