data_PCOD9349363
_publ_section_title
;
Structure prediction by ZEFSAII (Michael W. Deem and Ramdas Pophale) SiO2 
 PCOD9349363
Probable space group: C M M 2
;
_chemical_formula_sum "Si O2"
_cell_formula_units_Z 48
_cell_length_a 8.864364
_cell_length_b 15.969364
_cell_length_c 17.809397
_cell_angle_alpha 90.000000
_cell_angle_beta 90.000000
_cell_angle_gamma 90.000000
_cell_volume 2521.067168
_symmetry_space_group_name_H-M "C M M 2"
_symmetry_group_IT_number 35
_symmetry_cell_setting 'orthorhombic'
loop_
_space_group_symop_operation_xyz
x,y,z
-x,-y,z
-x,y,z
x,-y,z
1/2+x,1/2+y,z
1/2-x,1/2-y,z
1/2-x,1/2+y,z
1/2+x,1/2-y,z
loop_
_atom_site_type_symbol
_atom_site_label
_atom_site_fract_x
_atom_site_fract_y
_atom_site_fract_z
Si Si1 0.820093 0.341621 0.742020
Si Si2 0.334260 0.401997 0.591246
Si Si3 0.679224 0.841500 0.441238
Si Si4 0.818497 0.343412 0.908964
Si Si5 0.818141 0.344590 0.271180
Si Si6 0.181215 0.000000 0.179495
Si Si7 0.683222 0.000000 0.013736
O O1 0.750000 0.250000 0.744338
O O2 0.754178 0.380220 0.666679
O O3 0.780547 0.376585 0.824712
O O4 0.000000 0.340038 0.736371
O O5 0.500000 0.359695 0.591165
O O6 0.353435 0.500000 0.593546
O O7 0.249327 0.383834 0.513964
O O8 0.500000 0.838714 0.449429
O O9 0.750000 0.750000 0.441179
O O10 0.712010 0.874284 0.357341
O O11 0.750000 0.250000 0.920467
O O12 0.000000 0.333938 0.911802
O O13 0.775556 0.415424 0.967959
O O14 0.750000 0.250000 0.261424
O O15 0.747113 0.415628 0.218310
O O16 0.000000 0.339923 0.261182
O O17 0.237100 0.000000 0.093802
O O18 0.000000 0.000000 0.184829
O O19 0.500000 0.000000 0.022167
#
# Coordination Sequence:
#
# PCOD9349363 Si02
#       7
#     8   8   8   8   8   4   4
#     4  10  20  36  59  83 112 151 196 243 293 350
#     4  11  24  37  51  79 117 156 197 243 293 342
#     4  10  21  38  61  85 113 151 196 243 294 350
#     4   9  20  38  63  90 119 156 199 247 302 359
#     4  10  22  42  67  95 125 162 206 255 309 367
#     4  12  26  42  64  95 128 165 204 247 306 371
#     4  10  22  42  64  89 122 159 198 247 304 365
#
# _framework density 19.039555
#
# number of rings (size 3 to 8) (size 9 to 14) (size 15 to 20)
#    0.000    1.833    0.000    3.250    2.333    5.333 
#    0.000    1.667    0.000    0.000    0.000    0.000 
#    0.000    0.000    0.000    0.000    0.000    0.000 
#
# Total GULP energy -133846.111826 kJ/mol
# GULP energy per Si atom -5576.921326 kJ/mol
# Density = 1.899622 g / cm^3
# Si number density = 19.039555 Si / 1000 Ang^3
#
#
#
# Elastic Constant Matrix: (Units=GPa)
#
#
# Indices 1 2 3 4 5 6 
#
# 1 98.2835 49.4236 90.4525 0.0000 0.0000 0.0000
# 2 49.4236 94.1964 95.4519 0.0000 0.0000 0.0000
# 3 90.4525 95.4519 200.3719 0.0000 0.0000 0.0000
# 4 0.0000 0.0000 0.0000 41.8206 0.0000 0.0000
# 5 0.0000 0.0000 0.0000 0.0000 28.4572 0.0000
# 6 0.0000 0.0000 0.0000 0.0000 0.0000 19.5344
#
#
#
# Elastic Compliance Matrix: (Units=1/GPa)
#
#
# Indices 1 2 3 4 5 6 
#
# 1 0.017659 -0.002296 -0.006878 0.000000 0.000000 0.000000
# 2 -0.002296 0.020822 -0.008882 0.000000 0.000000 0.000000
# 3 -0.006878 -0.008882 0.012327 0.000000 0.000000 0.000000
# 4 0.000000 0.000000 0.000000 0.023912 0.000000 0.000000
# 5 0.000000 0.000000 0.000000 0.000000 0.035140 0.000000
# 6 0.000000 0.000000 0.000000 0.000000 0.000000 0.051192
#
#
# Mechanical properties :
#
#
# Convention : Reuss Voigt Hill
#
# Bulk Modulus (GPa) = 68.05003 95.94533 81.99768
# Shear Modulus (GPa) = 24.74480 28.46404 26.60442
#
# Velocity S-wave (km/s) = 3.60898 3.87071 3.74213
# Velocity P-wave (km/s) = 7.29283 8.39515 7.86333
#
# Compressibility (1/GPa) = 0.01469507
#
# Stress axis : x y z
#
# Youngs Moduli (GPa) = 56.62765 48.02717 81.12236
#
# Poissons Ratio (x) = 0.11026 0.55797
# Poissons Ratio (y) = 0.13000 0.72057
# Poissons Ratio (z) = 0.38949 0.42660
#
# Static dielectric constant tensor:
#      x y z
#    x 1.719020 0.000000 0.000000 
#    y 0.000000 1.632130 0.000000 
#    z 0.000000 0.000000 1.763370 
# 
# From -- ./inp_files/15193.got.cif
#   From: 2010.05.17/outbox.cif.g08.bks.cpg/sg35_8_cif.got.tgz:15193.got - 2010.06.03 17:29:28.
