data_PCOD9349692
_publ_section_title
;
Structure prediction by ZEFSAII (Michael W. Deem and Ramdas Pophale) SiO2 
 PCOD9349692
Probable space group: C M M 2
;
_chemical_formula_sum "Si O2"
_cell_formula_units_Z 64
_cell_length_a 8.857290
_cell_length_b 28.695509
_cell_length_c 13.196381
_cell_angle_alpha 90.000000
_cell_angle_beta 90.000000
_cell_angle_gamma 90.000000
_cell_volume 3354.050852
_symmetry_space_group_name_H-M "C M M 2"
_symmetry_group_IT_number 35
_symmetry_cell_setting 'orthorhombic'
loop_
_space_group_symop_operation_xyz
x,y,z
-x,-y,z
-x,y,z
x,-y,z
1/2+x,1/2+y,z
1/2-x,1/2-y,z
1/2-x,1/2+y,z
1/2+x,1/2-y,z
loop_
_atom_site_type_symbol
_atom_site_label
_atom_site_fract_x
_atom_site_fract_y
_atom_site_fract_z
Si Si1 0.819087 0.641266 0.813290
Si Si2 0.671821 0.056525 0.112925
Si Si3 0.180912 0.358734 0.412560
Si Si4 0.181900 0.698450 0.612925
Si Si5 0.180099 0.054519 0.327335
Si Si6 0.180099 0.054518 0.898515
Si Si7 0.181076 0.801763 0.227210
Si Si8 0.681076 0.698237 0.998640
O O1 0.773975 0.669696 0.713078
O O2 0.754960 0.589054 0.818311
O O3 0.000000 0.640220 0.818920
O O4 0.752428 0.667476 0.910868
O O5 0.500000 0.074445 0.112925
O O6 0.757773 0.068486 0.216150
O O7 0.664980 0.000000 0.112924
O O8 0.757772 0.068486 0.009700
O O9 0.226025 0.330304 0.512772
O O10 0.245038 0.410947 0.407539
O O11 0.247573 0.332524 0.314983
O O12 0.000000 0.359780 0.406930
O O13 0.250000 0.750000 0.612925
O O14 0.000000 0.702444 0.612925
O O15 0.000000 0.059608 0.327864
O O16 0.216855 0.000000 0.343741
O O17 0.000000 0.059608 0.897986
O O18 0.216856 0.000000 0.882108
O O19 0.250000 0.750000 0.235077
O O20 0.214821 0.819078 0.112925
O O21 0.000000 0.799875 0.238462
O O22 0.500000 0.700125 0.987388
O O23 0.750000 0.750000 0.990773
#
# Coordination Sequence:
#
# PCOD9349692 Si02
#       8
#     8   8   8   8   8   8   8   8
#     4  11  23  39  61  87 117 154 201 247 299 359
#     4   9  17  31  53  81 114 155 198 239 287 343
#     4  11  23  39  61  87 117 154 201 247 299 359
#     4  10  24  44  65  90 117 151 196 251 303 354
#     4  10  21  37  57  84 120 159 200 246 296 351
#     4  10  21  37  57  84 120 159 200 246 296 351
#     4  10  21  37  57  84 119 154 190 237 296 358
#     4  10  21  37  57  84 119 154 190 237 296 358
#
# _framework density 19.081405
#
# number of rings (size 3 to 8) (size 9 to 14) (size 15 to 20)
#    0.000    1.875    0.000    3.375    1.750    8.500 
#    0.000    0.625    0.000    3.750    0.000    0.000 
#    0.000    0.000    0.000    0.000    0.000    0.000 
#
# Total GULP energy -178837.093515 kJ/mol
# GULP energy per Si atom -5588.659172 kJ/mol
# Density = 1.903797 g / cm^3
# Si number density = 19.081405 Si / 1000 Ang^3
#
#
#
# Elastic Constant Matrix: (Units=GPa)
#
#
# Indices 1 2 3 4 5 6 
#
# 1 75.0244 58.2781 62.1511 0.0000 0.0000 0.0000
# 2 58.2781 132.6738 95.2528 0.0000 0.0000 0.0000
# 3 62.1511 95.2528 134.2123 0.0000 0.0000 0.0000
# 4 0.0000 0.0000 0.0000 23.8367 0.0000 0.0000
# 5 0.0000 0.0000 0.0000 0.0000 24.0218 0.0000
# 6 0.0000 0.0000 0.0000 0.0000 0.0000 35.1042
#
#
#
# Elastic Compliance Matrix: (Units=1/GPa)
#
#
# Indices 1 2 3 4 5 6 
#
# 1 0.023170 -0.005045 -0.007149 0.000000 0.000000 0.000000
# 2 -0.005045 0.016466 -0.009350 0.000000 0.000000 0.000000
# 3 -0.007149 -0.009350 0.017397 0.000000 0.000000 0.000000
# 4 0.000000 0.000000 0.000000 0.041952 0.000000 0.000000
# 5 0.000000 0.000000 0.000000 0.000000 0.041629 0.000000
# 6 0.000000 0.000000 0.000000 0.000000 0.000000 0.028487
#
#
# Mechanical properties :
#
#
# Convention : Reuss Voigt Hill
#
# Bulk Modulus (GPa) = 71.70821 85.91939 78.81380
# Shear Modulus (GPa) = 23.05856 25.00776 24.03316
#
# Velocity S-wave (km/s) = 3.48002 3.62412 3.55280
# Velocity P-wave (km/s) = 7.33547 7.91441 7.63043
#
# Compressibility (1/GPa) = 0.01394540
#
# Stress axis : x y z
#
# Youngs Moduli (GPa) = 43.15843 60.73014 57.47956
#
# Poissons Ratio (x) = 0.30639 0.41093
# Poissons Ratio (y) = 0.21774 0.53744
# Poissons Ratio (z) = 0.30855 0.56784
#
# Static dielectric constant tensor:
#      x y z
#    x 1.638870 0.000000 0.000000 
#    y 0.000000 1.690410 0.000000 
#    z 0.000000 0.000000 1.641480 
# 
# From -- ./inp_files/12016.got.cif
#   From: 2010.05.17/outbox.cif.g08.bks.cpg/sg35_7_cif.got.tgz:12016.got - 2010.06.03 17:29:28.
