data_PCOD9349471
_publ_section_title
;
Structure prediction by ZEFSAII (Michael W. Deem and Ramdas Pophale) SiO2 
 PCOD9349471
Probable space group: C M M 2
;
_chemical_formula_sum "Si O2"
_cell_formula_units_Z 58
_cell_length_a 7.687201
_cell_length_b 30.068449
_cell_length_c 12.173123
_cell_angle_alpha 90.000000
_cell_angle_beta 90.000000
_cell_angle_gamma 90.000000
_cell_volume 2813.722568
_symmetry_space_group_name_H-M "C M M 2"
_symmetry_group_IT_number 35
_symmetry_cell_setting 'orthorhombic'
loop_
_space_group_symop_operation_xyz
x,y,z
-x,-y,z
-x,y,z
x,-y,z
1/2+x,1/2+y,z
1/2-x,1/2-y,z
1/2-x,1/2+y,z
1/2+x,1/2-y,z
loop_
_atom_site_type_symbol
_atom_site_label
_atom_site_fract_x
_atom_site_fract_y
_atom_site_fract_z
Si Si1 0.799470 0.878041 0.677070
Si Si2 0.294250 0.301916 0.826152
Si Si3 0.705038 0.549900 0.109965
Si Si4 0.208845 0.449381 0.855274
Si Si5 0.296127 0.576545 0.453817
Si Si6 0.698232 0.868953 0.252998
Si Si7 0.500000 0.000000 0.414809
Si Si8 0.294312 0.801916 0.074775
O O1 0.717918 0.833942 0.732164
O O2 0.790692 0.914235 0.773857
O O3 0.730759 0.901562 0.567978
O O4 0.000000 0.867938 0.649241
O O5 0.500000 0.305616 0.818062
O O6 0.250000 0.250000 0.814932
O O7 0.251368 0.316637 0.950853
O O8 0.500000 0.552438 0.136104
O O9 0.767542 0.500000 0.137222
O O10 0.802263 0.587561 0.175629
O O11 0.729636 0.556364 0.980110
O O12 0.252098 0.500000 0.821867
O O13 0.000000 0.444666 0.852687
O O14 0.500000 0.561082 0.465026
O O15 0.293735 0.615105 0.361812
O O16 0.156469 0.538935 0.420129
O O17 0.500000 0.856886 0.282666
O O18 0.779369 0.830961 0.174810
O O19 0.500000 0.806916 0.082242
O O20 0.250000 0.750000 0.083958
#
# Coordination Sequence:
#
# PCOD9349471 Si02
#       8
#     8   8   8   8   8   8   2   8
#     4  10  23  40  59  85 120 158 204 258 312 381
#     4  10  20  37  61  92 125 160 205 257 318 388
#     4  10  21  35  53  80 114 154 197 244 307 376
#     4  10  21  34  53  81 113 151 194 244 306 370
#     4  11  26  45  67  94 127 171 221 269 325 376
#     4  11  23  40  60  88 123 159 209 266 316 383
#     4  12  26  48  68  94 126 172 226 280 308 384
#     4  10  21  37  61  93 126 162 207 259 320 390
#
# _framework density 20.613261000000001
#
# number of rings (size 3 to 8) (size 9 to 14) (size 15 to 20)
#    0.000    1.655    0.690    3.931    2.897    7.172 
#    0.000    0.690    0.000    3.310    0.000    0.000 
#    0.000    0.000    0.000    0.000    0.000    0.000 
#
# Total GULP energy -161653.489299 kJ/mol
# GULP energy per Si atom -5574.258252 kJ/mol
# Density = 2.056634 g / cm^3
# Si number density = 20.613261 Si / 1000 Ang^3
#
#
#
# Elastic Constant Matrix: (Units=GPa)
#
#
# Indices 1 2 3 4 5 6 
#
# 1 81.2672 5.2317 -1.9717 0.0000 0.0000 0.0000
# 2 5.2317 62.2958 36.9036 0.0000 0.0000 0.0000
# 3 -1.9717 36.9036 55.2505 0.0000 0.0000 0.0000
# 4 0.0000 0.0000 0.0000 -0.8664 0.0000 0.0000
# 5 0.0000 0.0000 0.0000 0.0000 17.7999 0.0000
# 6 0.0000 0.0000 0.0000 0.0000 0.0000 24.9920
#
#
#
# Elastic Compliance Matrix: (Units=1/GPa)
#
#
# Indices 1 2 3 4 5 6 
#
# 1 0.012491 -0.002173 0.001897 0.000000 0.000000 0.000000
# 2 -0.002173 0.026941 -0.018072 0.000000 0.000000 0.000000
# 3 0.001897 -0.018072 0.030238 0.000000 0.000000 0.000000
# 4 0.000000 0.000000 0.000000 -1.154198 0.000000 0.000000
# 5 0.000000 0.000000 0.000000 0.000000 0.056180 0.000000
# 6 0.000000 0.000000 0.000000 0.000000 0.000000 0.040013
#
#
# Mechanical properties :
#
#
# Convention : Reuss Voigt Hill
#
# Bulk Modulus (GPa) = 30.32692 31.01562 30.67127
# Shear Modulus (GPa) = -5.31548 18.96177 6.82315
#
# Velocity S-wave (km/s) = -1.60757 3.03625 1.82134
# Velocity P-wave (km/s) = 3.36134 5.23171 4.39712
#
# Compressibility (1/GPa) = 0.03297400
#
# Stress axis : x y z
#
# Youngs Moduli (GPa) = 80.05769 37.11857 33.07097
#
# Poissons Ratio (x) = 0.08065 -0.06274
# Poissons Ratio (y) = 0.17395 0.59766
# Poissons Ratio (z) = -0.15187 0.67081
#
# Static dielectric constant tensor:
#      x y z
#    x 1.769810 0.000000 0.000000 
#    y 0.000000 1.831910 0.000000 
#    z 0.000000 0.000000 1.751070 
# 
# From -- ./inp_files/11814.got.cif
#   From: 2010.05.17/outbox.cif.g08.bks.cpg/sg35_6_cif.got.tgz:11814.got - 2010.06.03 17:29:28.
