data_PCOD9349814
_publ_section_title
;
Structure prediction by ZEFSAII (Michael W. Deem and Ramdas Pophale) SiO2 
 PCOD9349814
Probable space group: C M M 2
;
_chemical_formula_sum "Si O2"
_cell_formula_units_Z 48
_cell_length_a 16.061108
_cell_length_b 8.908965
_cell_length_c 16.878738
_cell_angle_alpha 90.000000
_cell_angle_beta 90.000000
_cell_angle_gamma 90.000000
_cell_volume 2415.142315
_symmetry_space_group_name_H-M "C M M 2"
_symmetry_group_IT_number 35
_symmetry_cell_setting 'orthorhombic'
loop_
_space_group_symop_operation_xyz
x,y,z
-x,-y,z
-x,y,z
x,-y,z
1/2+x,1/2+y,z
1/2-x,1/2-y,z
1/2-x,1/2+y,z
1/2+x,1/2-y,z
loop_
_atom_site_type_symbol
_atom_site_label
_atom_site_fract_x
_atom_site_fract_y
_atom_site_fract_z
Si Si1 0.500000 0.675347 0.000000
Si Si2 0.337087 0.180779 0.921827
Si Si3 0.000000 0.824948 0.189810
Si Si4 0.903234 0.324411 0.753100
Si Si5 0.159076 0.821245 0.594555
Si Si6 0.097832 0.177090 0.420883
Si Si7 0.663014 0.821699 0.267323
O O1 0.500000 0.500000 0.975807
O O2 0.582986 0.754902 0.967404
O O3 0.500000 0.682200 0.094989
O O4 0.250000 0.250000 0.950244
O O5 0.350002 0.222931 0.829122
O O6 0.336104 0.000000 0.927324
O O7 0.916824 0.746568 0.222549
O O8 0.000000 0.000000 0.214849
O O9 0.885876 0.500000 0.737538
O O10 0.886405 0.235477 0.673122
O O11 0.000000 0.310665 0.775883
O O12 0.250000 0.750000 0.593816
O O13 0.114519 0.781125 0.511984
O O14 0.164853 0.000000 0.597572
O O15 0.149322 0.274626 0.358987
O O16 0.000000 0.195104 0.403771
O O17 0.118744 0.000000 0.410795
O O18 0.750000 0.750000 0.239614
O O19 0.665238 0.000000 0.258889
#
# Coordination Sequence:
#
# PCOD9349814 Si02
#       7
#     4   8   4   8   8   8   8
#     4  11  25  45  71 100 129 168 211 259 324 387
#     4  11  23  42  67  97 133 172 215 265 320 382
#     4  11  25  47  71  98 133 166 207 265 322 385
#     4  10  21  39  61  88 122 164 211 264 320 373
#     4  11  23  37  55  85 121 166 215 264 317 371
#     4  10  21  39  62  88 125 167 211 266 322 376
#     4  12  25  42  68 100 131 172 218 261 319 383
#
# _framework density 19.874604999999999
#
# number of rings (size 3 to 8) (size 9 to 14) (size 15 to 20)
#    0.000    1.167    1.667    4.500    0.000    8.333 
#    0.000    0.000    0.000    0.000    0.000    0.000 
#    0.000    0.000    0.000    0.000    0.000    0.000 
#
# Total GULP energy -134238.182241 kJ/mol
# GULP energy per Si atom -5593.257593 kJ/mol
# Density = 1.982937 g / cm^3
# Si number density = 19.874605 Si / 1000 Ang^3
#
#
#
# Elastic Constant Matrix: (Units=GPa)
#
#
# Indices 1 2 3 4 5 6 
#
# 1 146.6295 71.0449 47.9880 0.0000 0.0000 0.0000
# 2 71.0449 106.4789 48.0628 0.0000 0.0000 0.0000
# 3 47.9880 48.0628 80.6501 0.0000 0.0000 0.0000
# 4 0.0000 0.0000 0.0000 32.3538 0.0000 0.0000
# 5 0.0000 0.0000 0.0000 0.0000 6.8796 0.0000
# 6 0.0000 0.0000 0.0000 0.0000 0.0000 33.1630
#
#
#
# Elastic Compliance Matrix: (Units=1/GPa)
#
#
# Indices 1 2 3 4 5 6 
#
# 1 0.010534 -0.005745 -0.002845 0.000000 0.000000 0.000000
# 2 -0.005745 0.015980 -0.006105 0.000000 0.000000 0.000000
# 3 -0.002845 -0.006105 0.017730 0.000000 0.000000 0.000000
# 4 0.000000 0.000000 0.000000 0.030908 0.000000 0.000000
# 5 0.000000 0.000000 0.000000 0.000000 0.145358 0.000000
# 6 0.000000 0.000000 0.000000 0.000000 0.000000 0.030154
#
#
# Mechanical properties :
#
#
# Convention : Reuss Voigt Hill
#
# Bulk Modulus (GPa) = 67.31342 74.21667 70.76505
# Shear Modulus (GPa) = 17.54352 25.59012 21.56682
#
# Velocity S-wave (km/s) = 2.97427 3.59218 3.29773
# Velocity P-wave (km/s) = 6.76296 7.39111 7.08400
#
# Compressibility (1/GPa) = 0.01485588
#
# Stress axis : x y z
#
# Youngs Moduli (GPa) = 94.92819 62.57716 56.40133
#
# Poissons Ratio (x) = 0.35949 0.16044
# Poissons Ratio (y) = 0.54533 0.34434
# Poissons Ratio (z) = 0.27003 0.38204
#
# Static dielectric constant tensor:
#      x y z
#    x 1.685140 0.000000 0.000000 
#    y 0.000000 1.668540 0.000000 
#    z 0.000000 0.000000 1.708010 
# 
# From -- ./inp_files/18776.got.cif
#   From: 2010.05.17/outbox.cif.g08.bks.cpg/sg35_10_cif.got.tgz:18776.got - 2010.06.03 17:29:28.
