data_PCOD9349686
_publ_section_title
;
Structure prediction by ZEFSAII (Michael W. Deem and Ramdas Pophale) SiO2 
 PCOD9349686
Probable space group: C M M 2
;
_chemical_formula_sum "Si O2"
_cell_formula_units_Z 56
_cell_length_a 8.738929
_cell_length_b 19.568302
_cell_length_c 18.023499
_cell_angle_alpha 90.000000
_cell_angle_beta 90.000000
_cell_angle_gamma 90.000000
_cell_volume 3082.126503
_symmetry_space_group_name_H-M "C M M 2"
_symmetry_group_IT_number 35
_symmetry_cell_setting 'orthorhombic'
loop_
_space_group_symop_operation_xyz
x,y,z
-x,-y,z
-x,y,z
x,-y,z
1/2+x,1/2+y,z
1/2-x,1/2-y,z
1/2-x,1/2+y,z
1/2+x,1/2-y,z
loop_
_atom_site_type_symbol
_atom_site_label
_atom_site_fract_x
_atom_site_fract_y
_atom_site_fract_z
Si Si1 0.817543 0.675841 0.436170
Si Si2 0.317254 0.324812 0.846931
Si Si3 0.681769 0.080745 0.720533
Si Si4 0.818753 0.918662 0.561788
Si Si5 0.816667 0.174684 0.019664
Si Si6 0.683578 0.080222 0.146336
Si Si7 0.816738 0.174938 0.274032
O O1 0.750000 0.750000 0.456750
O O2 0.769245 0.622053 0.498325
O O3 0.744697 0.658319 0.356311
O O4 0.000000 0.680149 0.428852
O O5 0.500000 0.323588 0.839039
O O6 0.250000 0.250000 0.831135
O O7 0.246130 0.378030 0.789927
O O8 0.281829 0.340408 0.933235
O O9 0.500000 0.090765 0.714003
O O10 0.761196 0.102071 0.643507
O O11 0.711512 0.000000 0.730529
O O12 0.000000 0.906362 0.555207
O O13 0.791277 0.000000 0.554477
O O14 0.750000 0.250000 0.036662
O O15 0.000000 0.176185 0.029197
O O16 0.743747 0.118883 0.073391
O O17 0.500000 0.086191 0.150488
O O18 0.757698 0.119594 0.215663
O O19 0.723597 0.000000 0.145703
O O20 0.750000 0.250000 0.254670
O O21 0.000000 0.178280 0.274137
#
# Coordination Sequence:
#
# PCOD9349686 Si02
#       7
#     8   8   8   8   8   8   8
#     4  11  22  38  60  86 116 147 186 232 278 330
#     4  10  21  37  58  84 113 146 186 232 280 331
#     4  10  21  37  57  82 113 149 188 230 279 334
#     4  10  21  38  59  83 113 149 189 231 278 333
#     4  10  21  38  60  84 112 147 187 230 278 334
#     4  11  24  40  58  83 115 149 187 231 278 328
#     4  11  22  39  62  85 113 148 187 229 277 333
#
# _framework density 18.169273
#
# number of rings (size 3 to 8) (size 9 to 14) (size 15 to 20)
#    0.000    1.571    0.000    6.000    0.000    6.286 
#    0.000    5.714    0.000    0.000    0.000    0.000 
#    0.000    0.000    0.000    0.000    0.000    0.000 
#
# Total GULP energy -156519.515161 kJ/mol
# GULP energy per Si atom -5589.982684 kJ/mol
# Density = 1.812792 g / cm^3
# Si number density = 18.169273 Si / 1000 Ang^3
#
#
#
# Elastic Constant Matrix: (Units=GPa)
#
#
# Indices 1 2 3 4 5 6 
#
# 1 121.8636 76.0286 74.0702 0.0000 0.0000 0.0000
# 2 76.0286 105.9398 94.3140 0.0000 0.0000 0.0000
# 3 74.0702 94.3140 113.9930 0.0000 0.0000 0.0000
# 4 0.0000 0.0000 0.0000 43.5030 0.0000 0.0000
# 5 0.0000 0.0000 0.0000 0.0000 35.7673 0.0000
# 6 0.0000 0.0000 0.0000 0.0000 0.0000 31.8952
#
#
#
# Elastic Compliance Matrix: (Units=1/GPa)
#
#
# Indices 1 2 3 4 5 6 
#
# 1 0.015165 -0.008012 -0.003224 0.000000 0.000000 0.000000
# 2 -0.008012 0.040066 -0.027943 0.000000 0.000000 0.000000
# 3 -0.003224 -0.027943 0.033987 0.000000 0.000000 0.000000
# 4 0.000000 0.000000 0.000000 0.022987 0.000000 0.000000
# 5 0.000000 0.000000 0.000000 0.000000 0.027958 0.000000
# 6 0.000000 0.000000 0.000000 0.000000 0.000000 0.031353
#
#
# Mechanical properties :
#
#
# Convention : Reuss Voigt Hill
#
# Bulk Modulus (GPa) = 92.10074 92.29133 92.19604
# Shear Modulus (GPa) = 19.72426 28.72534 24.22480
#
# Velocity S-wave (km/s) = 3.29839 3.98047 3.65538
# Velocity P-wave (km/s) = 8.08123 8.48711 8.28666
#
# Compressibility (1/GPa) = 0.01085768
#
# Stress axis : x y z
#
# Youngs Moduli (GPa) = 65.94338 24.95868 29.42314
#
# Poissons Ratio (x) = 0.19998 0.09487
# Poissons Ratio (y) = 0.52837 0.82218
# Poissons Ratio (z) = 0.21263 0.69742
#
# Static dielectric constant tensor:
#      x y z
#    x 1.606050 0.000000 0.000000 
#    y 0.000000 1.595440 0.000000 
#    z 0.000000 0.000000 1.604240 
# 
# From -- ./inp_files/15625.got.cif
#   From: 2010.05.17/outbox.cif.g08.bks.cpg/sg35_8_cif.got.tgz:15625.got - 2010.06.03 17:29:28.
