data_PCOD9349389
_publ_section_title
;
Structure prediction by ZEFSAII (Michael W. Deem and Ramdas Pophale) SiO2 
 PCOD9349389
Probable space group: C M M 2
;
_chemical_formula_sum "Si O2"
_cell_formula_units_Z 48
_cell_length_a 8.776790
_cell_length_b 15.510899
_cell_length_c 17.635724
_cell_angle_alpha 90.000000
_cell_angle_beta 90.000000
_cell_angle_gamma 90.000000
_cell_volume 2400.855216
_symmetry_space_group_name_H-M "C M M 2"
_symmetry_group_IT_number 35
_symmetry_cell_setting 'orthorhombic'
loop_
_space_group_symop_operation_xyz
x,y,z
-x,-y,z
-x,y,z
x,-y,z
1/2+x,1/2+y,z
1/2-x,1/2-y,z
1/2-x,1/2+y,z
1/2+x,1/2-y,z
loop_
_atom_site_type_symbol
_atom_site_label
_atom_site_fract_x
_atom_site_fract_y
_atom_site_fract_z
Si Si1 0.316398 0.500000 0.596480
Si Si2 0.683127 0.347531 0.329259
Si Si3 0.181628 0.840066 0.704217
Si Si4 0.169955 0.102185 0.017933
Si Si5 0.323119 0.895239 0.863218
Si Si6 0.682214 0.000000 0.429659
Si Si7 0.181137 0.345361 0.171474
O O1 0.500000 0.500000 0.583371
O O2 0.277695 0.583192 0.647064
O O3 0.229843 0.500000 0.517381
O O4 0.500000 0.343511 0.331223
O O5 0.750000 0.250000 0.338688
O O6 0.747088 0.414761 0.390364
O O7 0.739696 0.381811 0.247007
O O8 0.250000 0.750000 0.677652
O O9 0.244572 0.860461 0.787814
O O10 0.000000 0.834890 0.708255
O O11 0.272530 0.113340 0.091997
O O12 0.000000 0.138514 0.031009
O O13 0.155845 0.000000 0.006556
O O14 0.243389 0.136085 0.940442
O O15 0.500000 0.870637 0.864020
O O16 0.314952 0.000000 0.860893
O O17 0.500000 0.000000 0.420344
O O18 0.250000 0.250000 0.166392
O O19 0.000000 0.344864 0.181721
#
# Coordination Sequence:
#
# PCOD9349389 Si02
#       7
#     4   8   8   8   8   4   8
#     4  10  24  46  68  93 130 167 204 258 316 377
#     4  11  23  43  68  96 132 170 214 265 319 379
#     4  11  23  41  66  95 127 166 210 255 312 374
#     4  10  21  36  56  84 120 162 209 256 310 366
#     4  10  20  36  59  87 122 162 208 261 315 369
#     4  12  26  44  70 101 130 169 212 256 318 385
#     4  11  22  38  59  85 121 161 207 258 313 369
#
# _framework density 19.992875999999999
#
# number of rings (size 3 to 8) (size 9 to 14) (size 15 to 20)
#    0.000    1.333    0.833    6.250    1.167    4.333 
#    0.000    5.000    0.000    0.000    0.000    0.000 
#    0.000    0.000    0.000    0.000    0.000    0.000 
#
# Total GULP energy -134171.962613 kJ/mol
# GULP energy per Si atom -5590.498442 kJ/mol
# Density = 1.994737 g / cm^3
# Si number density = 19.992876 Si / 1000 Ang^3
#
#
#
# Elastic Constant Matrix: (Units=GPa)
#
#
# Indices 1 2 3 4 5 6 
#
# 1 170.1825 59.1643 82.1225 0.0000 0.0000 0.0000
# 2 59.1643 90.4410 63.8030 0.0000 0.0000 0.0000
# 3 82.1225 63.8030 155.0061 0.0000 0.0000 0.0000
# 4 0.0000 0.0000 0.0000 20.3000 0.0000 0.0000
# 5 0.0000 0.0000 0.0000 0.0000 14.3032 0.0000
# 6 0.0000 0.0000 0.0000 0.0000 0.0000 29.8292
#
#
#
# Elastic Compliance Matrix: (Units=1/GPa)
#
#
# Indices 1 2 3 4 5 6 
#
# 1 0.008573 -0.003388 -0.003147 0.000000 0.000000 0.000000
# 2 -0.003388 0.016920 -0.005170 0.000000 0.000000 0.000000
# 3 -0.003147 -0.005170 0.010247 0.000000 0.000000 0.000000
# 4 0.000000 0.000000 0.000000 0.049261 0.000000 0.000000
# 5 0.000000 0.000000 0.000000 0.000000 0.069914 0.000000
# 6 0.000000 0.000000 0.000000 0.000000 0.000000 0.033524
#
#
# Mechanical properties :
#
#
# Convention : Reuss Voigt Hill
#
# Bulk Modulus (GPa) = 81.10357 91.75659 86.43008
# Shear Modulus (GPa) = 23.15256 26.92246 25.03751
#
# Velocity S-wave (km/s) = 3.40669 3.67359 3.54265
# Velocity P-wave (km/s) = 7.49189 7.99925 7.74972
#
# Compressibility (1/GPa) = 0.01232991
#
# Stress axis : x y z
#
# Youngs Moduli (GPa) = 116.65189 59.10103 97.59112
#
# Poissons Ratio (x) = 0.20021 0.30715
# Poissons Ratio (y) = 0.39517 0.50453
# Poissons Ratio (z) = 0.36714 0.30554
#
# Static dielectric constant tensor:
#      x y z
#    x 1.689220 0.000000 0.000000 
#    y 0.000000 1.726230 0.000000 
#    z 0.000000 0.000000 1.691960 
# 
# From -- ./inp_files/15238.got.cif
#   From: 2010.05.17/outbox.cif.g08.bks.cpg/sg35_8_cif.got.tgz:15238.got - 2010.06.03 17:29:28.
