data_PCOD9349748
_publ_section_title
;
Structure prediction by ZEFSAII (Michael W. Deem and Ramdas Pophale) SiO2 
 PCOD9349748
Probable space group: C M M 2
;
_chemical_formula_sum "Si O2"
_cell_formula_units_Z 64
_cell_length_a 23.891449
_cell_length_b 15.334331
_cell_length_c 8.215173
_cell_angle_alpha 90.000000
_cell_angle_beta 90.000000
_cell_angle_gamma 90.000000
_cell_volume 3009.705745
_symmetry_space_group_name_H-M "C M M 2"
_symmetry_group_IT_number 35
_symmetry_cell_setting 'orthorhombic'
loop_
_space_group_symop_operation_xyz
x,y,z
-x,-y,z
-x,y,z
x,-y,z
1/2+x,1/2+y,z
1/2-x,1/2-y,z
1/2-x,1/2+y,z
1/2+x,1/2-y,z
loop_
_atom_site_type_symbol
_atom_site_label
_atom_site_fract_x
_atom_site_fract_y
_atom_site_fract_z
Si Si1 0.253046 0.354131 0.204390
Si Si2 0.130861 0.901805 0.369457
Si Si3 0.436303 0.754274 0.476065
Si Si4 0.562626 0.904315 0.054333
Si Si5 0.208450 0.399461 0.845066
Si Si6 0.357847 0.905064 0.363209
Si Si7 0.170305 0.099101 0.745859
Si Si8 0.108591 0.737130 0.823628
O O1 0.250000 0.250000 0.198030
O O2 0.314928 0.382407 0.258514
O O3 0.207105 0.386556 0.334366
O O4 0.231305 0.388433 0.030197
O O5 0.084183 0.826601 0.365748
O O6 0.149895 0.897428 0.559373
O O7 0.110856 0.000000 0.336573
O O8 0.500000 0.777760 0.438874
O O9 0.391129 0.830035 0.451731
O O10 0.429491 0.739417 0.668740
O O11 0.500000 0.901809 0.125799
O O12 0.611003 0.905716 0.188293
O O13 0.566172 0.000000 0.967808
O O14 0.571939 0.817641 0.950278
O O15 0.190990 0.500000 0.823593
O O16 0.263839 0.381672 0.741237
O O17 0.160169 0.331286 0.801937
O O18 0.365372 0.000000 0.439376
O O19 0.139230 0.170697 0.856999
O O20 0.162810 0.000000 0.806528
#
# Coordination Sequence:
#
# PCOD9349748 Si02
#       8
#     8   8   8   8   8   8   8   8
#     4  12  22  37  62  93 125 160 197 250 307 370
#     4  10  22  41  63  88 119 157 202 254 311 364
#     4  11  25  42  61  89 121 161 213 257 303 364
#     4  10  21  38  59  83 115 158 204 247 297 362
#     4  11  22  36  56  89 126 157 195 242 301 370
#     4  11  23  40  60  86 123 160 199 250 307 366
#     4   9  21  37  56  83 118 154 193 246 306 363
#     4  11  21  37  60  84 118 157 203 252 301 360
#
# _framework density 21.264537000000001
#
# number of rings (size 3 to 8) (size 9 to 14) (size 15 to 20)
#    0.000    1.375    2.500    3.375    1.750    2.000 
#    0.000    0.000    0.000    1.125    0.000    0.000 
#    0.000    0.000    0.000    0.000    0.000    0.000 
#
# Total GULP energy -178634.181435 kJ/mol
# GULP energy per Si atom -5582.318170 kJ/mol
# Density = 2.121614 g / cm^3
# Si number density = 21.264537 Si / 1000 Ang^3
#
#
#
# Elastic Constant Matrix: (Units=GPa)
#
#
# Indices 1 2 3 4 5 6 
#
# 1 42.4912 4.4952 21.0355 0.0000 0.0000 0.0000
# 2 4.4952 104.0392 14.7186 0.0000 0.0000 0.0000
# 3 21.0355 14.7186 32.6962 0.0000 0.0000 0.0000
# 4 0.0000 0.0000 0.0000 20.7152 0.0000 0.0000
# 5 0.0000 0.0000 0.0000 0.0000 22.3923 0.0000
# 6 0.0000 0.0000 0.0000 0.0000 0.0000 25.3800
#
#
#
# Elastic Compliance Matrix: (Units=1/GPa)
#
#
# Indices 1 2 3 4 5 6 
#
# 1 0.034839 0.001779 -0.023215 0.000000 0.000000 0.000000
# 2 0.001779 0.010356 -0.005807 0.000000 0.000000 0.000000
# 3 -0.023215 -0.005807 0.048134 0.000000 0.000000 0.000000
# 4 0.000000 0.000000 0.000000 0.048274 0.000000 0.000000
# 5 0.000000 0.000000 0.000000 0.000000 0.044658 0.000000
# 6 0.000000 0.000000 0.000000 0.000000 0.000000 0.039401
#
#
# Mechanical properties :
#
#
# Convention : Reuss Voigt Hill
#
# Bulk Modulus (GPa) = 25.74377 28.85838 27.30107
# Shear Modulus (GPa) = 17.05931 22.96263 20.01097
#
# Velocity S-wave (km/s) = 2.83546 3.28968 3.07098
# Velocity P-wave (km/s) = 4.78043 5.29433 5.04393
#
# Compressibility (1/GPa) = 0.03884435
#
# Stress axis : x y z
#
# Youngs Moduli (GPa) = 28.70374 96.55902 20.77532
#
# Poissons Ratio (x) = -0.17177 0.48229
# Poissons Ratio (y) = -0.05106 0.12063
# Poissons Ratio (z) = 0.66635 0.56068
#
# Static dielectric constant tensor:
#      x y z
#    x 1.763780 0.000000 0.000000 
#    y 0.000000 1.794230 0.000000 
#    z 0.000000 0.000000 1.830960 
# 
# From -- ./inp_files/7872.got.cif
#   From: 2010.05.17/outbox.cif.g08.bks.cpg/sg35_4_cif.got.tgz:7872.got - 2010.06.03 17:29:28.
