data_PCOD9349245
_publ_section_title
;
Structure prediction by ZEFSAII (Michael W. Deem and Ramdas Pophale) SiO2 
 PCOD9349245
Probable space group: C M M 2
;
_chemical_formula_sum "Si O2"
_cell_formula_units_Z 48
_cell_length_a 7.720241
_cell_length_b 15.943720
_cell_length_c 18.041254
_cell_angle_alpha 90.000000
_cell_angle_beta 90.000000
_cell_angle_gamma 90.000000
_cell_volume 2220.686424
_symmetry_space_group_name_H-M "C M M 2"
_symmetry_group_IT_number 35
_symmetry_cell_setting 'orthorhombic'
loop_
_space_group_symop_operation_xyz
x,y,z
-x,-y,z
-x,y,z
x,-y,z
1/2+x,1/2+y,z
1/2-x,1/2-y,z
1/2-x,1/2+y,z
1/2+x,1/2-y,z
loop_
_atom_site_type_symbol
_atom_site_label
_atom_site_fract_x
_atom_site_fract_y
_atom_site_fract_z
Si Si1 0.698917 0.100352 0.401900
Si Si2 0.791992 0.341487 0.085648
Si Si3 0.788277 0.401585 0.243066
Si Si4 0.701336 0.000000 0.997189
Si Si5 0.293024 0.151212 0.723266
Si Si6 0.698264 0.500000 0.831163
Si Si7 0.291922 0.847961 0.560077
O O1 0.500000 0.132578 0.405241
O O2 0.775918 0.130023 0.323483
O O3 0.779043 0.118085 0.482159
O O4 0.691179 0.000000 0.394522
O O5 0.750000 0.250000 0.056426
O O6 0.727827 0.353603 0.170093
O O7 0.000000 0.346848 0.089324
O O8 0.723886 0.416095 0.033998
O O9 0.743039 0.500000 0.233590
O O10 0.000000 0.398552 0.246223
O O11 0.500000 0.000000 0.019702
O O12 0.704441 0.000000 0.908976
O O13 0.500000 0.146906 0.721340
O O14 0.250000 0.250000 0.736260
O O15 0.226992 0.124119 0.641071
O O16 0.233333 0.083607 0.783225
O O17 0.500000 0.500000 0.852892
O O18 0.500000 0.863547 0.560114
O O19 0.250000 0.750000 0.558818
#
# Coordination Sequence:
#
# PCOD9349245 Si02
#       7
#     8   8   8   4   8   4   8
#     4   8  14  24  44  74 105 140 186 230 264 309
#     4  10  20  35  58  85 112 146 187 228 277 334
#     4   8  13  26  48  74 106 145 188 230 268 317
#     4  10  22  42  62  81 112 148 184 229 282 346
#     4  10  21  39  62  88 121 156 195 241 289 344
#     4  12  26  42  64  91 116 148 190 235 296 360
#     4   9  18  31  50  75 107 145 184 228 276 324
#
# _framework density 21.614936
#
# number of rings (size 3 to 8) (size 9 to 14) (size 15 to 20)
#    0.000    2.667    0.833    2.250    1.167    2.667 
#    0.000    1.667    0.000    0.000    0.000    2.333 
#    0.000    0.000    0.000    0.000    0.000    0.000 
#
# Total GULP energy -133784.383869 kJ/mol
# GULP energy per Si atom -5574.349328 kJ/mol
# Density = 2.156574 g / cm^3
# Si number density = 21.614936 Si / 1000 Ang^3
#
#
#
# Elastic Constant Matrix: (Units=GPa)
#
#
# Indices 1 2 3 4 5 6 
#
# 1 39.4778 -2.9817 -8.4903 0.0000 0.0000 0.0000
# 2 -2.9817 101.2245 71.4854 0.0000 0.0000 0.0000
# 3 -8.4903 71.4854 144.4646 0.0000 0.0000 0.0000
# 4 0.0000 0.0000 0.0000 -21.7032 0.0000 0.0000
# 5 0.0000 0.0000 0.0000 0.0000 -7.6380 0.0000
# 6 0.0000 0.0000 0.0000 0.0000 0.0000 18.0793
#
#
#
# Elastic Compliance Matrix: (Units=1/GPa)
#
#
# Indices 1 2 3 4 5 6 
#
# 1 0.025670 -0.000475 0.001744 0.000000 0.000000 0.000000
# 2 -0.000475 0.015194 -0.007547 0.000000 0.000000 0.000000
# 3 0.001744 -0.007547 0.010759 0.000000 0.000000 0.000000
# 4 0.000000 0.000000 0.000000 -0.046076 0.000000 0.000000
# 5 0.000000 0.000000 0.000000 0.000000 -0.130924 0.000000
# 6 0.000000 0.000000 0.000000 0.000000 0.000000 0.055312
#
#
# Mechanical properties :
#
#
# Convention : Reuss Voigt Hill
#
# Bulk Modulus (GPa) = 25.59710 45.02152 35.30931
# Shear Modulus (GPa) = -112.39513 12.75783 -49.81865
#
# Velocity S-wave (km/s) = -7.21884 2.43211 -4.80607
# Velocity P-wave (km/s) = 7.59041 5.36292 3.79824
#
# Compressibility (1/GPa) = 0.03906693
#
# Stress axis : x y z
#
# Youngs Moduli (GPa) = 38.95624 65.81330 92.94638
#
# Poissons Ratio (x) = 0.03129 -0.16209
# Poissons Ratio (y) = 0.01852 0.70143
# Poissons Ratio (z) = -0.06793 0.49667
#
# Static dielectric constant tensor:
#      x y z
#    x 1.813280 0.000000 0.000000 
#    y 0.000000 1.782520 0.000000 
#    z 0.000000 0.000000 1.839690 
# 
# From -- ./inp_files/17878.got.cif
#   From: 2010.05.17/outbox.cif.g08.bks.cpg/sg35_9_cif.got.tgz:17878.got - 2010.06.03 17:29:28.
