data_PCOD9349335
_publ_section_title
;
Structure prediction by ZEFSAII (Michael W. Deem and Ramdas Pophale) SiO2 
 PCOD9349335
Probable space group: C M M 2
;
_chemical_formula_sum "Si O2"
_cell_formula_units_Z 24
_cell_length_a 11.292562
_cell_length_b 16.716991
_cell_length_c 4.086758
_cell_angle_alpha 90.000000
_cell_angle_beta 90.000000
_cell_angle_gamma 90.000000
_cell_volume 771.488601
_symmetry_space_group_name_H-M "C M M 2"
_symmetry_group_IT_number 35
_symmetry_cell_setting 'orthorhombic'
loop_
_space_group_symop_operation_xyz
x,y,z
-x,-y,z
-x,y,z
x,-y,z
1/2+x,1/2+y,z
1/2-x,1/2-y,z
1/2-x,1/2+y,z
1/2+x,1/2-y,z
loop_
_atom_site_type_symbol
_atom_site_label
_atom_site_fract_x
_atom_site_fract_y
_atom_site_fract_z
Si Si1 0.000000 0.244095 0.177431
Si Si2 0.739977 0.088319 0.713185
Si Si3 0.000000 0.086696 0.729772
Si Si4 0.750000 0.250000 0.145332
Si Si5 0.500000 0.913700 0.283470
O O1 0.872002 0.243781 0.345381
O O2 0.000000 0.335871 0.051657
O O3 0.000000 0.167886 0.942210
O O4 0.872240 0.087006 0.551199
O O5 0.622460 0.089427 0.489776
O O6 0.736489 0.000000 0.880362
O O7 0.742905 0.168268 0.934551
O O8 0.000000 0.000000 0.907765
O O9 0.500000 0.000000 0.115140
#
# Coordination Sequence:
#
# PCOD9349335 Si02
#       5
#     4   8   4   4   4
#     4  10  21  35  53  84 115 143 179 224 284 330
#     4   9  18  34  57  82 107 142 188 230 269 319
#     4   8  16  35  62  85 105 140 192 234 266 318
#     4  10  20  36  58  80 108 150 190 226 266 324
#     4  10  21  36  55  83 116 145 177 226 282 328
#
# _framework density 31.108689999999999
#
# number of rings (size 3 to 8) (size 9 to 14) (size 15 to 20)
#    0.000    2.667    0.000    1.000    0.000    2.667 
#    0.000    1.667    0.000    2.000    0.000    0.000 
#    0.000    0.000    0.000    0.000    0.000    0.000 
#
# Total GULP energy -67005.501544 kJ/mol
# GULP energy per Si atom -5583.791795 kJ/mol
# Density = 3.103788 g / cm^3
# Si number density = 31.108690 Si / 1000 Ang^3
#
#
#
# Elastic Constant Matrix: (Units=GPa)
#
#
# Indices 1 2 3 4 5 6 
#
# 1 441.9655 -9.2426 64.8919 0.0000 0.0000 0.0000
# 2 -9.2426 424.9001 81.5925 0.0000 0.0000 0.0000
# 3 64.8919 81.5925 58.9948 0.0000 0.0000 0.0000
# 4 0.0000 0.0000 0.0000 59.0982 0.0000 0.0000
# 5 0.0000 0.0000 0.0000 0.0000 30.9254 0.0000
# 6 0.0000 0.0000 0.0000 0.0000 0.0000 39.8834
#
#
#
# Elastic Compliance Matrix: (Units=1/GPa)
#
#
# Indices 1 2 3 4 5 6 
#
# 1 0.002948 0.000935 -0.004536 0.000000 0.000000 0.000000
# 2 0.000935 0.003501 -0.005871 0.000000 0.000000 0.000000
# 3 -0.004536 -0.005871 0.030061 0.000000 0.000000 0.000000
# 4 0.000000 0.000000 0.000000 0.016921 0.000000 0.000000
# 5 0.000000 0.000000 0.000000 0.000000 0.032336 0.000000
# 6 0.000000 0.000000 0.000000 0.000000 0.000000 0.025073
#
#
# Mechanical properties :
#
#
# Convention : Reuss Voigt Hill
#
# Bulk Modulus (GPa) = 56.92995 133.37155 95.15075
# Shear Modulus (GPa) = 36.86227 78.55594 57.70911
#
# Velocity S-wave (km/s) = 3.44605 5.03060 4.31174
# Velocity P-wave (km/s) = 5.84583 8.75833 7.44587
#
# Compressibility (1/GPa) = 0.01756545
#
# Stress axis : x y z
#
# Youngs Moduli (GPa) = 339.18453 285.61141 33.26610
#
# Poissons Ratio (x) = -0.26712 0.15091
# Poissons Ratio (y) = -0.31722 0.19531
# Poissons Ratio (z) = 1.53870 1.67687
#
# Static dielectric constant tensor:
#      x y z
#    x 2.370180 0.000000 0.000000 
#    y 0.000000 2.364170 0.000000 
#    z 0.000000 0.000000 2.392400 
# 
# From -- ./inp_files/862.got.cif
#   From: 2010.05.17/outbox.cif.g08.bks.cpg/sg35_1_cif.got.tgz:862.got - 2010.06.03 17:29:28.
