data_PCOD9349079
_publ_section_title
;
Structure prediction by ZEFSAII (Michael W. Deem and Ramdas Pophale) SiO2 
 PCOD9349079
Probable space group: C M M 2
;
_chemical_formula_sum "Si O2"
_cell_formula_units_Z 64
_cell_length_a 16.137480
_cell_length_b 16.006200
_cell_length_c 11.812104
_cell_angle_alpha 90.000000
_cell_angle_beta 90.000000
_cell_angle_gamma 90.000000
_cell_volume 3051.063302
_symmetry_space_group_name_H-M "C M M 2"
_symmetry_group_IT_number 35
_symmetry_cell_setting 'orthorhombic'
loop_
_space_group_symop_operation_xyz
x,y,z
-x,-y,z
-x,y,z
x,-y,z
1/2+x,1/2+y,z
1/2-x,1/2-y,z
1/2-x,1/2+y,z
1/2+x,1/2-y,z
loop_
_atom_site_type_symbol
_atom_site_label
_atom_site_fract_x
_atom_site_fract_y
_atom_site_fract_z
Si Si1 0.726297 0.403940 0.051590
Si Si2 0.593202 0.601112 0.233133
Si Si3 0.406074 0.096607 0.297547
Si Si4 0.593651 0.330290 0.902914
Si Si5 0.292817 0.837277 0.495901
Si Si6 0.621132 0.594455 0.498578
Si Si7 0.092648 0.333166 0.053281
Si Si8 0.907695 0.246984 0.662852
O O1 0.741464 0.500000 0.077252
O O2 0.672799 0.369409 0.159959
O O3 0.816157 0.367472 0.020611
O O4 0.662030 0.393249 0.948571
O O5 0.500000 0.630872 0.198649
O O6 0.591858 0.500000 0.219211
O O7 0.604009 0.616376 0.366962
O O8 0.500000 0.098364 0.340345
O O9 0.347429 0.127806 0.395380
O O10 0.402402 0.156234 0.188656
O O11 0.387619 0.000000 0.264379
O O12 0.500000 0.365039 0.890736
O O13 0.618343 0.287837 0.784619
O O14 0.590125 0.256820 0.995920
O O15 0.250000 0.750000 0.460226
O O16 0.219373 0.901121 0.518324
O O17 0.346351 0.812578 0.605330
O O18 0.591772 0.500000 0.519134
O O19 0.588265 0.667093 0.579192
O O20 0.000000 0.371502 0.024578
O O21 0.000000 0.282563 0.674991
#
# Coordination Sequence:
#
# PCOD9349079 Si02
#       8
#     8   8   8   8   8   8   8   8
#     4  11  22  36  60  90 118 150 192 246 301 349
#     4   9  18  33  53  81 118 153 185 228 287 351
#     4  10  20  36  60  87 114 144 183 234 284 331
#     4  10  23  42  61  81 111 154 201 248 293 343
#     4  10  21  35  55  84 117 153 188 227 279 343
#     4  10  20  34  56  85 116 151 189 234 288 342
#     4  10  22  39  59  84 117 157 194 231 286 357
#     4  10  22  40  59  80 110 150 196 241 286 341
#
# _framework density 20.976292999999998
#
# number of rings (size 3 to 8) (size 9 to 14) (size 15 to 20)
#    0.000    2.000    0.000    3.000    0.000    9.750 
#    0.000    5.000    0.000    2.250    0.000    8.750 
#    0.000    0.000    0.000    0.000    0.000    0.000 
#
# Total GULP energy -178479.636081 kJ/mol
# GULP energy per Si atom -5577.488628 kJ/mol
# Density = 2.092855 g / cm^3
# Si number density = 20.976293 Si / 1000 Ang^3
#
#
#
# Elastic Constant Matrix: (Units=GPa)
#
#
# Indices 1 2 3 4 5 6 
#
# 1 123.4592 21.2744 23.4658 0.0000 0.0000 0.0000
# 2 21.2744 29.7047 9.2160 0.0000 0.0000 0.0000
# 3 23.4658 9.2160 69.1505 0.0000 0.0000 0.0000
# 4 0.0000 0.0000 0.0000 14.8888 0.0000 0.0000
# 5 0.0000 0.0000 0.0000 0.0000 122.4890 0.0000
# 6 0.0000 0.0000 0.0000 0.0000 0.0000 1.2029
#
#
#
# Elastic Compliance Matrix: (Units=1/GPa)
#
#
# Indices 1 2 3 4 5 6 
#
# 1 0.009622 -0.006132 -0.002448 0.000000 0.000000 0.000000
# 2 -0.006132 0.039024 -0.003120 0.000000 0.000000 0.000000
# 3 -0.002448 -0.003120 0.015708 0.000000 0.000000 0.000000
# 4 0.000000 0.000000 0.000000 0.067165 0.000000 0.000000
# 5 0.000000 0.000000 0.000000 0.000000 0.008164 0.000000
# 6 0.000000 0.000000 0.000000 0.000000 0.000000 0.831293
#
#
# Mechanical properties :
#
#
# Convention : Reuss Voigt Hill
#
# Bulk Modulus (GPa) = 24.41749 36.69188 30.55469
# Shear Modulus (GPa) = 4.96019 38.94001 21.95010
#
# Velocity S-wave (km/s) = 1.53941 4.31325 3.23836
# Velocity P-wave (km/s) = 3.85039 6.50658 5.34608
#
# Compressibility (1/GPa) = 0.04095424
#
# Stress axis : x y z
#
# Youngs Moduli (GPa) = 103.93181 25.62515 63.66285
#
# Poissons Ratio (x) = 0.15712 0.15584
# Poissons Ratio (y) = 0.63726 0.19864
# Poissons Ratio (z) = 0.25441 0.07996
#
# Static dielectric constant tensor:
#      x y z
#    x 1.820730 0.000000 0.000000 
#    y 0.000000 1.758730 0.000000 
#    z 0.000000 0.000000 1.737020 
# 
# From -- ./inp_files/13216.got.cif
#   From: 2010.05.17/outbox.cif.g08.bks.cpg/sg35_7_cif.got.tgz:13216.got - 2010.06.03 17:29:28.
