data_PCOD9349114
_publ_section_title
;
Structure prediction by ZEFSAII (Michael W. Deem and Ramdas Pophale) SiO2 
 PCOD9349114
Probable space group: C M M 2
;
_chemical_formula_sum "Si O2"
_cell_formula_units_Z 56
_cell_length_a 8.685118
_cell_length_b 19.358115
_cell_length_c 18.502644
_cell_angle_alpha 90.000000
_cell_angle_beta 90.000000
_cell_angle_gamma 90.000000
_cell_volume 3110.803520
_symmetry_space_group_name_H-M "C M M 2"
_symmetry_group_IT_number 35
_symmetry_cell_setting 'orthorhombic'
loop_
_space_group_symop_operation_xyz
x,y,z
-x,-y,z
-x,y,z
x,-y,z
1/2+x,1/2+y,z
1/2-x,1/2-y,z
1/2-x,1/2+y,z
1/2+x,1/2-y,z
loop_
_atom_site_type_symbol
_atom_site_label
_atom_site_fract_x
_atom_site_fract_y
_atom_site_fract_z
Si Si1 0.314735 0.327144 0.180300
Si Si2 0.813627 0.672767 0.606368
Si Si3 0.316765 0.172963 0.027280
Si Si4 0.814377 0.419662 0.742934
Si Si5 0.185731 0.420025 0.470983
Si Si6 0.314516 0.579933 0.315827
Si Si7 0.816894 0.918470 0.899666
O O1 0.500000 0.325019 0.177055
O O2 0.250000 0.250000 0.189628
O O3 0.266682 0.373890 0.247993
O O4 0.251394 0.353409 0.103492
O O5 0.750000 0.750000 0.606440
O O6 0.766759 0.630045 0.677722
O O7 0.763499 0.629693 0.535667
O O8 0.000000 0.675161 0.605786
O O9 0.500000 0.176826 0.032428
O O10 0.250000 0.250000 0.016871
O O11 0.265635 0.125541 0.961062
O O12 0.774216 0.500000 0.727407
O O13 0.740711 0.399805 0.819421
O O14 0.000000 0.416486 0.749451
O O15 0.234674 0.500000 0.483062
O O16 0.246799 0.397477 0.392763
O O17 0.000000 0.419690 0.469682
O O18 0.500000 0.582486 0.320257
O O19 0.268718 0.500000 0.304757
O O20 0.000000 0.908318 0.904634
O O21 0.783663 0.000000 0.909360
#
# Coordination Sequence:
#
# PCOD9349114 Si02
#       7
#     8   8   8   8   8   8   8
#     4  10  20  35  54  76 105 140 176 215 262 315
#     4  10  21  35  52  77 107 137 171 214 262 310
#     4  11  22  37  57  80 108 142 181 221 265 318
#     4   9  18  35  57  77 101 137 179 219 260 309
#     4   9  18  34  55  76 100 134 175 215 256 305
#     4   9  19  35  54  77 104 135 172 214 261 310
#     4  10  21  37  57  82 111 141 176 219 266 316
#
# _framework density 18.001781000000001
#
# number of rings (size 3 to 8) (size 9 to 14) (size 15 to 20)
#    0.000    2.286    0.000    3.429    0.000    6.571 
#    0.000    5.714    0.000    4.286    0.000    0.000 
#    0.000    0.000    0.000    0.000    0.000    0.000 
#
# Total GULP energy -156300.071412 kJ/mol
# GULP energy per Si atom -5582.145408 kJ/mol
# Density = 1.796081 g / cm^3
# Si number density = 18.001781 Si / 1000 Ang^3
#
#
#
# Elastic Constant Matrix: (Units=GPa)
#
#
# Indices 1 2 3 4 5 6 
#
# 1 47.2503 36.9587 56.8173 0.0000 0.0000 0.0000
# 2 36.9587 85.3940 105.0984 0.0000 0.0000 0.0000
# 3 56.8173 105.0984 196.7482 0.0000 0.0000 0.0000
# 4 0.0000 0.0000 0.0000 143.1196 0.0000 0.0000
# 5 0.0000 0.0000 0.0000 0.0000 32.5451 0.0000
# 6 0.0000 0.0000 0.0000 0.0000 0.0000 27.2361
#
#
#
# Elastic Compliance Matrix: (Units=1/GPa)
#
#
# Indices 1 2 3 4 5 6 
#
# 1 0.034072 -0.007697 -0.005728 0.000000 0.000000 0.000000
# 2 -0.007697 0.035923 -0.016967 0.000000 0.000000 0.000000
# 3 -0.005728 -0.016967 0.015800 0.000000 0.000000 0.000000
# 4 0.000000 0.000000 0.000000 0.006987 0.000000 0.000000
# 5 0.000000 0.000000 0.000000 0.000000 0.030727 0.000000
# 6 0.000000 0.000000 0.000000 0.000000 0.000000 0.036716
#
#
# Mechanical properties :
#
#
# Convention : Reuss Voigt Hill
#
# Bulk Modulus (GPa) = 39.98022 80.79350 60.38686
# Shear Modulus (GPa) = 21.80116 49.28136 35.54126
#
# Velocity S-wave (km/s) = 3.48380 5.23787 4.44815
# Velocity P-wave (km/s) = 6.19998 9.03098 7.74591
#
# Compressibility (1/GPa) = 0.02501237
#
# Stress axis : x y z
#
# Youngs Moduli (GPa) = 29.34972 27.83697 63.29107
#
# Poissons Ratio (x) = 0.21426 0.36252
# Poissons Ratio (y) = 0.22590 1.07385
# Poissons Ratio (z) = 0.16811 0.47230
#
# Static dielectric constant tensor:
#      x y z
#    x 1.610110 0.000000 0.000000 
#    y 0.000000 1.597220 0.000000 
#    z 0.000000 0.000000 1.599010 
# 
# From -- ./inp_files/15623.got.cif
#   From: 2010.05.17/outbox.cif.g08.bks.cpg/sg35_8_cif.got.tgz:15623.got - 2010.06.03 17:29:28.
