data_PCOD9349775
_publ_section_title
;
Structure prediction by ZEFSAII (Michael W. Deem and Ramdas Pophale) SiO2 
 PCOD9349775
Probable space group: C M M 2
;
_chemical_formula_sum "Si O2"
_cell_formula_units_Z 48
_cell_length_a 8.844344
_cell_length_b 15.688470
_cell_length_c 17.605524
_cell_angle_alpha 90.000000
_cell_angle_beta 90.000000
_cell_angle_gamma 90.000000
_cell_volume 2442.840847
_symmetry_space_group_name_H-M "C M M 2"
_symmetry_group_IT_number 35
_symmetry_cell_setting 'orthorhombic'
loop_
_space_group_symop_operation_xyz
x,y,z
-x,-y,z
-x,y,z
x,-y,z
1/2+x,1/2+y,z
1/2-x,1/2-y,z
1/2-x,1/2+y,z
1/2+x,1/2-y,z
loop_
_atom_site_type_symbol
_atom_site_label
_atom_site_fract_x
_atom_site_fract_y
_atom_site_fract_z
Si Si1 0.822542 0.103436 0.413370
Si Si2 0.819945 0.339723 0.090036
Si Si3 0.680311 0.396995 0.245271
Si Si4 0.819440 0.000000 0.001739
Si Si5 0.318217 0.162334 0.732234
Si Si6 0.817600 0.500000 0.835186
Si Si7 0.318604 0.899758 0.569153
O O1 0.769581 0.131242 0.329755
O O2 0.741789 0.134861 0.489219
O O3 0.000000 0.122468 0.418858
O O4 0.806945 0.000000 0.413025
O O5 0.750000 0.250000 0.064843
O O6 0.771846 0.354991 0.177498
O O7 0.748670 0.417091 0.042817
O O8 0.000000 0.339441 0.082585
O O9 0.500000 0.379814 0.237178
O O10 0.697455 0.500000 0.240251
O O11 0.000000 0.000000 0.009328
O O12 0.767503 0.000000 0.914630
O O13 0.500000 0.167656 0.730210
O O14 0.250000 0.250000 0.761089
O O15 0.264214 0.145412 0.645796
O O16 0.279242 0.082779 0.785250
O O17 0.000000 0.500000 0.847815
O O18 0.500000 0.896043 0.567873
O O19 0.276298 0.000000 0.575182
#
# Coordination Sequence:
#
# PCOD9349775 Si02
#       7
#     8   8   8   4   8   4   8
#     4   8  15  27  47  79 115 155 199 247 301 349
#     4  12  25  42  66  96 127 164 208 252 306 367
#     4   9  17  33  57  84 121 164 205 253 308 361
#     4  12  26  46  70  97 128 159 198 249 306 371
#     4  10  21  38  61  88 120 157 198 245 300 358
#     4  10  22  44  68  89 120 159 196 239 300 369
#     4   9  16  30  52  78 111 155 202 246 294 350
#
# _framework density 19.649255
#
# number of rings (size 3 to 8) (size 9 to 14) (size 15 to 20)
#    0.000    2.167    1.667    3.250    0.000    2.667 
#    0.000    4.167    0.000    2.000    0.000    0.000 
#    0.000    0.000    0.000    0.000    0.000    0.000 
#
# Total GULP energy -134033.060777 kJ/mol
# GULP energy per Si atom -5584.710866 kJ/mol
# Density = 1.960453 g / cm^3
# Si number density = 19.649255 Si / 1000 Ang^3
#
#
#
# Elastic Constant Matrix: (Units=GPa)
#
#
# Indices 1 2 3 4 5 6 
#
# 1 77.4745 55.9444 61.2418 0.0000 0.0000 0.0000
# 2 55.9444 127.8899 71.3685 0.0000 0.0000 0.0000
# 3 61.2418 71.3685 140.8393 0.0000 0.0000 0.0000
# 4 0.0000 0.0000 0.0000 -11.1559 0.0000 0.0000
# 5 0.0000 0.0000 0.0000 0.0000 32.6816 0.0000
# 6 0.0000 0.0000 0.0000 0.0000 0.0000 24.0355
#
#
#
# Elastic Compliance Matrix: (Units=1/GPa)
#
#
# Indices 1 2 3 4 5 6 
#
# 1 0.022687 -0.006161 -0.006743 0.000000 0.000000 0.000000
# 2 -0.006161 0.012575 -0.003693 0.000000 0.000000 0.000000
# 3 -0.006743 -0.003693 0.011904 0.000000 0.000000 0.000000
# 4 0.000000 0.000000 0.000000 -0.089639 0.000000 0.000000
# 5 0.000000 0.000000 0.000000 0.000000 0.030598 0.000000
# 6 0.000000 0.000000 0.000000 0.000000 0.000000 0.041605
#
#
# Mechanical properties :
#
#
# Convention : Reuss Voigt Hill
#
# Bulk Modulus (GPa) = 71.57615 80.36811 75.97213
# Shear Modulus (GPa) = 73.98413 19.62219 46.80316
#
# Velocity S-wave (km/s) = 6.14281 3.16353 4.88580
# Velocity P-wave (km/s) = 9.31763 7.37116 8.40096
#
# Compressibility (1/GPa) = 0.01397113
#
# Stress axis : x y z
#
# Youngs Moduli (GPa) = 44.07905 79.51998 84.00665
#
# Poissons Ratio (x) = 0.48994 0.56644
# Poissons Ratio (y) = 0.27158 0.31026
# Poissons Ratio (z) = 0.29721 0.29369
#
# Static dielectric constant tensor:
#      x y z
#    x 1.657450 0.000000 0.000000 
#    y 0.000000 1.704260 0.000000 
#    z 0.000000 0.000000 1.694010 
# 
# From -- ./inp_files/17861.got.cif
#   From: 2010.05.17/outbox.cif.g08.bks.cpg/sg35_9_cif.got.tgz:17861.got - 2010.06.03 17:29:28.
