data_PCOD9349138
_publ_section_title
;
Structure prediction by ZEFSAII (Michael W. Deem and Ramdas Pophale) SiO2 
 PCOD9349138
Probable space group: C M M 2
;
_chemical_formula_sum "Si O2"
_cell_formula_units_Z 56
_cell_length_a 19.432219
_cell_length_b 8.695044
_cell_length_c 18.412572
_cell_angle_alpha 90.000000
_cell_angle_beta 90.000000
_cell_angle_gamma 90.000000
_cell_volume 3111.061801
_symmetry_space_group_name_H-M "C M M 2"
_symmetry_group_IT_number 35
_symmetry_cell_setting 'orthorhombic'
loop_
_space_group_symop_operation_xyz
x,y,z
-x,-y,z
-x,y,z
x,-y,z
1/2+x,1/2+y,z
1/2-x,1/2-y,z
1/2-x,1/2+y,z
1/2+x,1/2-y,z
loop_
_atom_site_type_symbol
_atom_site_label
_atom_site_fract_x
_atom_site_fract_y
_atom_site_fract_z
Si Si1 0.173199 0.184684 0.713080
Si Si2 0.418362 0.683510 0.011494
Si Si3 0.921234 0.812776 0.846567
Si Si4 0.580261 0.183806 0.585015
Si Si5 0.673284 0.684793 0.291794
Si Si6 0.326492 0.817427 0.138207
Si Si7 0.080204 0.815436 0.428125
O O1 0.250000 0.250000 0.711481
O O2 0.131763 0.237491 0.785071
O O3 0.129322 0.239658 0.644028
O O4 0.176056 0.000000 0.713546
O O5 0.500000 0.707413 0.021999
O O6 0.405526 0.500000 0.017082
O O7 0.374449 0.768941 0.071760
O O8 0.402273 0.733073 0.928698
O O9 0.000000 0.762920 0.831211
O O10 0.922256 0.000000 0.846366
O O11 0.500000 0.229877 0.596542
O O12 0.599639 0.235683 0.503687
O O13 0.584473 0.000000 0.590829
O O14 0.675717 0.500000 0.288213
O O15 0.750000 0.750000 0.301584
O O16 0.647306 0.748211 0.214582
O O17 0.626273 0.730750 0.359747
O O18 0.250000 0.750000 0.126951
O O19 0.321934 0.000000 0.144536
O O20 0.000000 0.780405 0.413881
O O21 0.086389 0.000000 0.437324
#
# Coordination Sequence:
#
# PCOD9349138 Si02
#       7
#     8   8   8   8   8   8   8
#     4  11  22  36  55  80 111 143 179 222 266 315
#     4   9  18  35  58  82 109 140 176 219 267 319
#     4   8  16  33  57  81 104 137 179 219 264 319
#     4  10  21  37  57  81 109 141 178 220 267 318
#     4  10  20  35  55  78 105 139 178 219 266 318
#     4  11  22  36  54  77 108 144 183 223 266 318
#     4   9  19  36  57  80 105 137 178 219 261 313
#
# _framework density 18.000285999999999
#
# number of rings (size 3 to 8) (size 9 to 14) (size 15 to 20)
#    0.000    2.286    0.000    4.714    0.000    4.571 
#    0.000    5.714    0.000    1.714    0.000    0.000 
#    0.000    0.000    0.000    0.000    0.000    0.000 
#
# Total GULP energy -156303.228194 kJ/mol
# GULP energy per Si atom -5582.258150 kJ/mol
# Density = 1.795932 g / cm^3
# Si number density = 18.000286 Si / 1000 Ang^3
#
#
#
# Elastic Constant Matrix: (Units=GPa)
#
#
# Indices 1 2 3 4 5 6 
#
# 1 91.7609 44.3081 106.8701 0.0000 0.0000 0.0000
# 2 44.3081 60.6382 58.9677 0.0000 0.0000 0.0000
# 3 106.8701 58.9677 179.2890 0.0000 0.0000 0.0000
# 4 0.0000 0.0000 0.0000 21.5139 0.0000 0.0000
# 5 0.0000 0.0000 0.0000 0.0000 71.9065 0.0000
# 6 0.0000 0.0000 0.0000 0.0000 0.0000 23.2615
#
#
#
# Elastic Compliance Matrix: (Units=1/GPa)
#
#
# Indices 1 2 3 4 5 6 
#
# 1 0.038426 -0.008533 -0.020098 0.000000 0.000000 0.000000
# 2 -0.008533 0.026141 -0.003511 0.000000 0.000000 0.000000
# 3 -0.020098 -0.003511 0.018713 0.000000 0.000000 0.000000
# 4 0.000000 0.000000 0.000000 0.046482 0.000000 0.000000
# 5 0.000000 0.000000 0.000000 0.000000 0.013907 0.000000
# 6 0.000000 0.000000 0.000000 0.000000 0.000000 0.042989
#
#
# Mechanical properties :
#
#
# Convention : Reuss Voigt Hill
#
# Bulk Modulus (GPa) = 52.64808 83.55334 68.10071
# Shear Modulus (GPa) = 19.43453 31.43917 25.43685
#
# Velocity S-wave (km/s) = 3.28941 4.18376 3.76325
# Velocity P-wave (km/s) = 6.61354 8.35805 7.53644
#
# Compressibility (1/GPa) = 0.01899405
#
# Stress axis : x y z
#
# Youngs Moduli (GPa) = 26.02419 38.25417 53.43998
#
# Poissons Ratio (x) = 0.32642 1.07405
# Poissons Ratio (y) = 0.22207 0.18765
# Poissons Ratio (z) = 0.52304 0.13432
#
# Static dielectric constant tensor:
#      x y z
#    x 1.592170 0.000000 0.000000 
#    y 0.000000 1.606680 0.000000 
#    z 0.000000 0.000000 1.604270 
# 
# From -- ./inp_files/17421.got.cif
#   From: 2010.05.17/outbox.cif.g08.bks.cpg/sg35_9_cif.got.tgz:17421.got - 2010.06.03 17:29:28.
