data_PCOD9349734
_publ_section_title
;
Structure prediction by ZEFSAII (Michael W. Deem and Ramdas Pophale) SiO2 
 PCOD9349734
Probable space group: C M M 2
;
_chemical_formula_sum "Si O2"
_cell_formula_units_Z 48
_cell_length_a 21.614862
_cell_length_b 19.319473
_cell_length_c 5.272205
_cell_angle_alpha 90.000000
_cell_angle_beta 90.000000
_cell_angle_gamma 90.000000
_cell_volume 2201.608186
_symmetry_space_group_name_H-M "C M M 2"
_symmetry_group_IT_number 35
_symmetry_cell_setting 'orthorhombic'
loop_
_space_group_symop_operation_xyz
x,y,z
-x,-y,z
-x,y,z
x,-y,z
1/2+x,1/2+y,z
1/2-x,1/2-y,z
1/2-x,1/2+y,z
1/2+x,1/2-y,z
loop_
_atom_site_type_symbol
_atom_site_label
_atom_site_fract_x
_atom_site_fract_y
_atom_site_fract_z
Si Si1 0.873054 0.311539 0.007330
Si Si2 0.871596 0.845719 0.032285
Si Si3 0.426084 0.417502 0.537608
Si Si4 0.434567 0.072889 0.265959
Si Si5 0.747622 0.824001 0.341218
Si Si6 0.318443 0.923736 0.636428
O O1 0.890829 0.232884 0.958802
O O2 0.928866 0.358739 0.102443
O O3 0.818998 0.312185 0.215422
O O4 0.841222 0.359360 0.799095
O O5 0.905662 0.876704 0.281889
O O6 0.800358 0.836635 0.129507
O O7 0.887976 0.890846 0.784314
O O8 0.500000 0.406598 0.580975
O O9 0.416350 0.500000 0.502617
O O10 0.500000 0.074777 0.408214
O O11 0.374790 0.069300 0.439899
O O12 0.433697 0.000000 0.114253
O O13 0.750000 0.750000 0.488684
O O14 0.742692 0.893904 0.502559
O O15 0.308571 0.000000 0.754007
#
# Coordination Sequence:
#
# PCOD9349734 Si02
#       6
#     8   8   8   8   8   8
#     4  10  22  38  60  94 131 172 218 279 340 393
#     4  11  25  43  72 104 131 179 229 274 345 419
#     4  11  26  49  72  99 138 178 224 290 356 411
#     4   9  19  36  55  81 123 173 220 267 326 393
#     4   9  22  40  62  91 132 172 219 277 339 402
#     4  10  21  37  61  91 131 175 220 276 338 399
#
# _framework density 21.802242
#
# number of rings (size 3 to 8) (size 9 to 14) (size 15 to 20)
#    0.000    2.000    0.000    1.500    9.333    6.000 
#    0.000    1.667    0.000    0.000    0.000    0.000 
#    0.000    0.000    0.000    0.000    0.000    0.000 
#
# Total GULP energy -133603.278558 kJ/mol
# GULP energy per Si atom -5566.803273 kJ/mol
# Density = 2.175262 g / cm^3
# Si number density = 21.802242 Si / 1000 Ang^3
#
#
#
# Elastic Constant Matrix: (Units=GPa)
#
#
# Indices 1 2 3 4 5 6 
#
# 1 64.1361 37.9941 6.4532 0.0000 0.0000 0.0000
# 2 37.9941 189.5460 54.7340 0.0000 0.0000 0.0000
# 3 6.4532 54.7340 70.6256 0.0000 0.0000 0.0000
# 4 0.0000 0.0000 0.0000 29.7416 0.0000 0.0000
# 5 0.0000 0.0000 0.0000 0.0000 15.9892 0.0000
# 6 0.0000 0.0000 0.0000 0.0000 0.0000 23.9018
#
#
#
# Elastic Compliance Matrix: (Units=1/GPa)
#
#
# Indices 1 2 3 4 5 6 
#
# 1 0.017810 -0.003994 0.001468 0.000000 0.000000 0.000000
# 2 -0.003994 0.007692 -0.005597 0.000000 0.000000 0.000000
# 3 0.001468 -0.005597 0.018362 0.000000 0.000000 0.000000
# 4 0.000000 0.000000 0.000000 0.033623 0.000000 0.000000
# 5 0.000000 0.000000 0.000000 0.000000 0.062542 0.000000
# 6 0.000000 0.000000 0.000000 0.000000 0.000000 0.041838
#
#
# Mechanical properties :
#
#
# Convention : Reuss Voigt Hill
#
# Bulk Modulus (GPa) = 36.20613 58.07448 47.14030
# Shear Modulus (GPa) = 24.11734 28.93494 26.52614
#
# Velocity S-wave (km/s) = 3.32955 3.64697 3.49186
# Velocity P-wave (km/s) = 5.60570 6.66548 6.15842
#
# Compressibility (1/GPa) = 0.02761963
#
# Stress axis : x y z
#
# Youngs Moduli (GPa) = 56.14786 129.99814 54.45929
#
# Poissons Ratio (x) = 0.51919 -0.07994
# Poissons Ratio (y) = 0.22425 0.30479
# Poissons Ratio (z) = -0.08242 0.72755
#
# Static dielectric constant tensor:
#      x y z
#    x 1.857660 0.000000 0.000000 
#    y 0.000000 2.027480 0.000000 
#    z 0.000000 0.000000 1.889890 
# 
# From -- ./inp_files/3376.got.cif
#   From: 2010.05.17/outbox.cif.g08.bks.cpg/sg35_2_cif.got.tgz:3376.got - 2010.06.03 17:29:28.
