data_PCOD9349042
_publ_section_title
;
Structure prediction by ZEFSAII (Michael W. Deem and Ramdas Pophale) SiO2 
 PCOD9349042
Probable space group: C M M 2
;
_chemical_formula_sum "Si O2"
_cell_formula_units_Z 64
_cell_length_a 8.598473
_cell_length_b 19.032217
_cell_length_c 20.936367
_cell_angle_alpha 90.000000
_cell_angle_beta 90.000000
_cell_angle_gamma 90.000000
_cell_volume 3426.194671
_symmetry_space_group_name_H-M "C M M 2"
_symmetry_group_IT_number 35
_symmetry_cell_setting 'orthorhombic'
loop_
_space_group_symop_operation_xyz
x,y,z
-x,-y,z
-x,y,z
x,-y,z
1/2+x,1/2+y,z
1/2-x,1/2-y,z
1/2-x,1/2+y,z
1/2+x,1/2-y,z
loop_
_atom_site_type_symbol
_atom_site_label
_atom_site_fract_x
_atom_site_fract_y
_atom_site_fract_z
Si Si1 0.312306 0.672440 0.238150
Si Si2 0.313463 0.327893 0.092246
Si Si3 0.687876 0.919141 0.977562
Si Si4 0.186681 0.171223 0.479829
Si Si5 0.186673 0.328816 0.854459
Si Si6 0.189790 0.080361 0.357255
Si Si7 0.813618 0.081561 0.737397
Si Si8 0.186361 0.418405 0.596898
O O1 0.500000 0.674772 0.239340
O O2 0.250000 0.750000 0.253545
O O3 0.265205 0.655348 0.165336
O O4 0.260200 0.617238 0.291452
O O5 0.500000 0.326359 0.089593
O O6 0.250000 0.250000 0.077209
O O7 0.250120 0.382986 0.041456
O O8 0.500000 0.918212 0.979148
O O9 0.737969 0.873547 0.916352
O O10 0.738748 0.000000 0.971887
O O11 0.250000 0.250000 0.476892
O O12 0.238474 0.126813 0.417781
O O13 0.245269 0.131578 0.542869
O O14 0.000000 0.173064 0.480245
O O15 0.250000 0.250000 0.857888
O O16 0.245861 0.368183 0.791360
O O17 0.000000 0.326989 0.853713
O O18 0.000000 0.079514 0.357181
O O19 0.242702 0.000000 0.362331
O O20 0.749930 0.099445 0.667159
O O21 0.000000 0.086030 0.737010
O O22 0.769343 0.000000 0.750468
O O23 0.230232 0.500000 0.583915
O O24 0.000000 0.413697 0.597175
#
# Coordination Sequence:
#
# PCOD9349042 Si02
#       8
#     8   8   8   8   8   8   8   8
#     4   9  18  33  54  79 108 142 180 223 271 325
#     4  10  20  34  55  82 111 146 186 228 274 326
#     4  10  22  39  58  81 111 146 183 227 278 330
#     4  11  22  36  56  81 110 145 186 230 276 327
#     4  11  23  39  59  83 112 146 185 227 274 327
#     4   9  18  33  54  79 107 141 181 226 276 329
#     4  10  21  38  61  88 116 146 182 224 270 323
#     4  10  21  38  60  85 114 147 182 223 272 326
#
# _framework density 18.679614999999998
#
# number of rings (size 3 to 8) (size 9 to 14) (size 15 to 20)
#    0.000    2.000    0.000    3.375    0.000    6.250 
#    0.000    4.375    0.000    1.875    0.000    0.000 
#    0.000    0.000    0.000    0.000    0.000    0.000 
#
# Total GULP energy -178777.527480 kJ/mol
# GULP energy per Si atom -5586.797734 kJ/mol
# Density = 1.863710 g / cm^3
# Si number density = 18.679615 Si / 1000 Ang^3
#
#
#
# Elastic Constant Matrix: (Units=GPa)
#
#
# Indices 1 2 3 4 5 6 
#
# 1 32.8615 41.6813 36.6773 0.0000 0.0000 0.0000
# 2 41.6813 184.8493 138.7433 0.0000 0.0000 0.0000
# 3 36.6773 138.7433 159.8603 0.0000 0.0000 0.0000
# 4 0.0000 0.0000 0.0000 42.2238 0.0000 0.0000
# 5 0.0000 0.0000 0.0000 0.0000 11.0932 0.0000
# 6 0.0000 0.0000 0.0000 0.0000 0.0000 21.8536
#
#
#
# Elastic Compliance Matrix: (Units=1/GPa)
#
#
# Indices 1 2 3 4 5 6 
#
# 1 0.043590 -0.006663 -0.004218 0.000000 0.000000 0.000000
# 2 -0.006663 0.016538 -0.012825 0.000000 0.000000 0.000000
# 3 -0.004218 -0.012825 0.018354 0.000000 0.000000 0.000000
# 4 0.000000 0.000000 0.000000 0.023683 0.000000 0.000000
# 5 0.000000 0.000000 0.000000 0.000000 0.090146 0.000000
# 6 0.000000 0.000000 0.000000 0.000000 0.000000 0.045759
#
#
# Mechanical properties :
#
#
# Convention : Reuss Voigt Hill
#
# Bulk Modulus (GPa) = 32.18516 90.19719 61.19118
# Shear Modulus (GPa) = 16.90106 25.73207 21.31656
#
# Velocity S-wave (km/s) = 3.01123 3.71556 3.38178
# Velocity P-wave (km/s) = 5.41826 8.17303 6.93383
#
# Compressibility (1/GPa) = 0.03107022
#
# Stress axis : x y z
#
# Youngs Moduli (GPa) = 22.94101 60.46559 54.48375
#
# Poissons Ratio (x) = 0.40288 0.22982
# Poissons Ratio (y) = 0.15285 0.69875
# Poissons Ratio (z) = 0.09677 0.77547
#
# Static dielectric constant tensor:
#      x y z
#    x 1.632610 0.000000 0.000000 
#    y 0.000000 1.615900 0.000000 
#    z 0.000000 0.000000 1.625580 
# 
# From -- ./inp_files/18414.got.cif
#   From: 2010.05.17/outbox.cif.g08.bks.cpg/sg35_10_cif.got.tgz:18414.got - 2010.06.03 17:29:28.
