data_PCOD9349447
_publ_section_title
;
Structure prediction by ZEFSAII (Michael W. Deem and Ramdas Pophale) SiO2 
 PCOD9349447
Probable space group: C M M 2
;
_chemical_formula_sum "Si O2"
_cell_formula_units_Z 40
_cell_length_a 26.416007
_cell_length_b 8.674077
_cell_length_c 9.337520
_cell_angle_alpha 90.000000
_cell_angle_beta 90.000000
_cell_angle_gamma 90.000000
_cell_volume 2139.547778
_symmetry_space_group_name_H-M "C M M 2"
_symmetry_group_IT_number 35
_symmetry_cell_setting 'orthorhombic'
loop_
_space_group_symop_operation_xyz
x,y,z
-x,-y,z
-x,y,z
x,-y,z
1/2+x,1/2+y,z
1/2-x,1/2-y,z
1/2-x,1/2+y,z
1/2+x,1/2-y,z
loop_
_atom_site_type_symbol
_atom_site_label
_atom_site_fract_x
_atom_site_fract_y
_atom_site_fract_z
Si Si1 0.000000 0.185914 0.399511
Si Si2 0.902034 0.313275 0.903499
Si Si3 0.804433 0.685486 0.723621
Si Si4 0.500000 0.814087 0.719254
Si Si5 0.195066 0.314955 0.390708
Si Si6 0.900677 0.814951 0.222713
O O1 0.949636 0.235640 0.314600
O O2 0.000000 0.247856 0.560225
O O3 0.000000 0.000000 0.403439
O O4 0.901866 0.500000 0.913333
O O5 0.850523 0.264198 0.823702
O O6 0.950096 0.267610 0.807242
O O7 0.905434 0.244631 0.061226
O O8 0.802363 0.500000 0.727161
O O9 0.750000 0.750000 0.768493
O O10 0.813288 0.730694 0.557575
O O11 0.500000 0.000000 0.709276
O O12 0.195716 0.500000 0.382559
O O13 0.250000 0.250000 0.348099
O O14 0.150027 0.249939 0.295015
O O15 0.898967 0.000000 0.223242
#
# Coordination Sequence:
#
# PCOD9349447 Si02
#       6
#     4   8   8   4   8   8
#     4  10  23  40  58  82 114 148 187 234 284 336
#     4  10  21  37  56  82 113 144 181 230 282 333
#     4   9  19  35  56  81 109 141 181 225 272 326
#     4  10  21  38  62  86 108 140 187 236 284 336
#     4  10  20  37  60  85 113 147 187 234 282 333
#     4  11  23  38  56  82 115 152 190 230 279 336
#
# _framework density 18.695539
#
# number of rings (size 3 to 8) (size 9 to 14) (size 15 to 20)
#    0.000    2.000    0.000    3.000    0.000    6.400 
#    0.000    2.000    0.000    0.000    0.000    0.000 
#    0.000    0.000    0.000    0.000    0.000    0.000 
#
# Total GULP energy -111747.707997 kJ/mol
# GULP energy per Si atom -5587.385400 kJ/mol
# Density = 1.865299 g / cm^3
# Si number density = 18.695539 Si / 1000 Ang^3
#
#
#
# Elastic Constant Matrix: (Units=GPa)
#
#
# Indices 1 2 3 4 5 6 
#
# 1 206.3088 47.0677 137.1977 0.0000 0.0000 0.0000
# 2 47.0677 28.4769 40.9399 0.0000 0.0000 0.0000
# 3 137.1977 40.9399 170.9231 0.0000 0.0000 0.0000
# 4 0.0000 0.0000 0.0000 31.6399 0.0000 0.0000
# 5 0.0000 0.0000 0.0000 0.0000 -16.5093 0.0000
# 6 0.0000 0.0000 0.0000 0.0000 0.0000 28.0112
#
#
#
# Elastic Compliance Matrix: (Units=1/GPa)
#
#
# Indices 1 2 3 4 5 6 
#
# 1 0.011713 -0.008912 -0.007267 0.000000 0.000000 0.000000
# 2 -0.008912 0.060340 -0.007299 0.000000 0.000000 0.000000
# 3 -0.007267 -0.007299 0.013432 0.000000 0.000000 0.000000
# 4 0.000000 0.000000 0.000000 0.031606 0.000000 0.000000
# 5 0.000000 0.000000 0.000000 0.000000 -0.060572 0.000000
# 6 0.000000 0.000000 0.000000 0.000000 0.000000 0.035700
#
#
# Mechanical properties :
#
#
# Convention : Reuss Voigt Hill
#
# Bulk Modulus (GPa) = 25.95488 95.12437 60.53963
# Shear Modulus (GPa) = 32.89047 20.66194 26.77620
#
# Velocity S-wave (km/s) = 4.19891 3.32803 3.78858
# Velocity P-wave (km/s) = 6.11726 8.10919 7.18261
#
# Compressibility (1/GPa) = 0.03852839
#
# Stress axis : x y z
#
# Youngs Moduli (GPa) = 85.37343 16.57269 74.44706
#
# Poissons Ratio (x) = 0.14770 0.54104
# Poissons Ratio (y) = 0.76086 0.54340
# Poissons Ratio (z) = 0.62044 0.12097
#
# Static dielectric constant tensor:
#      x y z
#    x 1.626890 0.000000 0.000000 
#    y 0.000000 1.635040 0.000000 
#    z 0.000000 0.000000 1.610460 
# 
# From -- ./inp_files/4991.got.cif
#   From: 2010.05.17/outbox.cif.g08.bks.cpg/sg35_3_cif.got.tgz:4991.got - 2010.06.03 17:29:28.
