data_PCOD9349654
_publ_section_title
;
Structure prediction by ZEFSAII (Michael W. Deem and Ramdas Pophale) SiO2 
 PCOD9349654
Probable space group: C M M 2
;
_chemical_formula_sum "Si O2"
_cell_formula_units_Z 42
_cell_length_a 7.282522
_cell_length_b 20.949924
_cell_length_c 12.932406
_cell_angle_alpha 90.000000
_cell_angle_beta 90.000000
_cell_angle_gamma 90.000000
_cell_volume 1973.074971
_symmetry_space_group_name_H-M "C M M 2"
_symmetry_group_IT_number 35
_symmetry_cell_setting 'orthorhombic'
loop_
_space_group_symop_operation_xyz
x,y,z
-x,-y,z
-x,y,z
x,-y,z
1/2+x,1/2+y,z
1/2-x,1/2-y,z
1/2-x,1/2+y,z
1/2+x,1/2-y,z
loop_
_atom_site_type_symbol
_atom_site_label
_atom_site_fract_x
_atom_site_fract_y
_atom_site_fract_z
Si Si1 0.775703 0.120909 0.162490
Si Si2 0.217564 0.176559 0.943176
Si Si3 0.276382 0.427986 0.781326
Si Si4 0.000000 0.500000 0.162490
Si Si5 0.217564 0.823441 0.381804
Si Si6 0.776382 0.927986 0.543654
O O1 0.723310 0.159685 0.265823
O O2 0.000000 0.111036 0.162490
O O3 0.661716 0.055865 0.162490
O O4 0.723309 0.159684 0.059157
O O5 0.250000 0.250000 0.916304
O O6 0.290094 0.125802 0.859879
O O7 0.000000 0.167496 0.943100
O O8 0.500000 0.427399 0.781266
O O9 0.221482 0.500000 0.812102
O O10 0.220167 0.417028 0.662490
O O11 0.250000 0.750000 0.408677
O O12 0.290094 0.874198 0.465101
O O13 0.000000 0.832504 0.381880
O O14 0.000000 0.927399 0.543714
O O15 0.721482 0.000000 0.512878
#
# Coordination Sequence:
#
# PCOD9349654 Si02
#       6
#     8   8   8   2   8   8
#     4  10  24  42  61  92 125 154 200 247 297 356
#     4  10  21  36  57  83 118 158 197 246 297 355
#     4   8  15  30  53  80 110 149 197 247 301 355
#     4  12  26  40  68  94 118 164 192 248 300 356
#     4  10  21  36  57  83 118 158 197 246 297 355
#     4   8  15  30  53  80 110 149 197 247 301 355
#
# _framework density 21.286572
#
# number of rings (size 3 to 8) (size 9 to 14) (size 15 to 20)
#    0.000    2.667    0.000    2.000    5.333    0.762 
#    0.000    0.000    0.000    0.000    0.000    4.000 
#    0.000    0.000    0.000    0.000    0.000    0.000 
#
# Total GULP energy -116984.409990 kJ/mol
# GULP energy per Si atom -5570.686190 kJ/mol
# Density = 2.123812 g / cm^3
# Si number density = 21.286572 Si / 1000 Ang^3
#
#
#
# Elastic Constant Matrix: (Units=GPa)
#
#
# Indices 1 2 3 4 5 6 
#
# 1 100.4587 8.4951 9.4192 0.0000 0.0000 0.0000
# 2 8.4951 218.7138 139.5810 0.0000 0.0000 0.0000
# 3 9.4192 139.5810 161.2701 0.0000 0.0000 0.0000
# 4 0.0000 0.0000 0.0000 9.8175 0.0000 0.0000
# 5 0.0000 0.0000 0.0000 0.0000 -36.3750 0.0000
# 6 0.0000 0.0000 0.0000 0.0000 0.0000 31.3119
#
#
#
# Elastic Compliance Matrix: (Units=1/GPa)
#
#
# Indices 1 2 3 4 5 6 
#
# 1 0.010009 -0.000035 -0.000554 0.000000 0.000000 0.000000
# 2 -0.000035 0.010214 -0.008838 0.000000 0.000000 0.000000
# 3 -0.000554 -0.008838 0.013883 0.000000 0.000000 0.000000
# 4 0.000000 0.000000 0.000000 0.101859 0.000000 0.000000
# 5 0.000000 0.000000 0.000000 0.000000 -0.027491 0.000000
# 6 0.000000 0.000000 0.000000 0.000000 0.000000 0.031937
#
#
# Mechanical properties :
#
#
# Convention : Reuss Voigt Hill
#
# Bulk Modulus (GPa) = 65.57007 88.38147 76.97577
# Shear Modulus (GPa) = 30.42292 22.48069 26.45181
#
# Velocity S-wave (km/s) = 3.78459 3.25329 3.52895
# Velocity P-wave (km/s) = 7.06879 7.46471 7.26944
#
# Compressibility (1/GPa) = 0.01525086
#
# Stress axis : x y z
#
# Youngs Moduli (GPa) = 99.90733 97.90370 72.03118
#
# Poissons Ratio (x) = 0.00343 0.03993
# Poissons Ratio (y) = 0.00350 0.63664
# Poissons Ratio (z) = 0.05538 0.86531
#
# Static dielectric constant tensor:
#      x y z
#    x 1.843560 0.000000 0.000000 
#    y 0.000000 1.741310 0.000000 
#    z 0.000000 0.000000 1.759490 
# 
# From -- ./inp_files/11217.got.cif
#   From: 2010.05.17/outbox.cif.g08.bks.cpg/sg35_6_cif.got.tgz:11217.got - 2010.06.03 17:29:28.
