data_PCOD9349007
_publ_section_title
;
Structure prediction by ZEFSAII (Michael W. Deem and Ramdas Pophale) SiO2 
 PCOD9349007
Probable space group: C M M 2
;
_chemical_formula_sum "Si O2"
_cell_formula_units_Z 40
_cell_length_a 18.082864
_cell_length_b 15.116480
_cell_length_c 7.819751
_cell_angle_alpha 90.000000
_cell_angle_beta 90.000000
_cell_angle_gamma 90.000000
_cell_volume 2137.523087
_symmetry_space_group_name_H-M "C M M 2"
_symmetry_group_IT_number 35
_symmetry_cell_setting 'orthorhombic'
loop_
_space_group_symop_operation_xyz
x,y,z
-x,-y,z
-x,y,z
x,-y,z
1/2+x,1/2+y,z
1/2-x,1/2-y,z
1/2-x,1/2+y,z
1/2+x,1/2-y,z
loop_
_atom_site_type_symbol
_atom_site_label
_atom_site_fract_x
_atom_site_fract_y
_atom_site_fract_z
Si Si1 0.216191 0.152140 0.818400
Si Si2 0.419171 0.601872 0.291799
Si Si3 0.416407 0.265915 0.972389
Si Si4 0.761816 0.855590 0.445713
Si Si5 0.321475 0.902339 0.103229
O O1 0.250000 0.250000 0.829176
O O2 0.245125 0.112119 0.641104
O O3 0.129874 0.176469 0.834601
O O4 0.248427 0.103142 0.983277
O O5 0.500000 0.611709 0.379104
O O6 0.414531 0.500000 0.232688
O O7 0.418326 0.670004 0.135998
O O8 0.346009 0.621986 0.397968
O O9 0.500000 0.245915 0.917631
O O10 0.374119 0.176691 0.035376
O O11 0.750000 0.750000 0.446712
O O12 0.707122 0.889841 0.297758
O O13 0.354981 0.000000 0.085412
#
# Coordination Sequence:
#
# PCOD9349007 Si02
#       5
#     8   8   8   8   8
#     4   9  20  35  56  83 108 146 189 230 283 334
#     4  10  20  34  54  79 109 144 178 222 280 334
#     4  10  20  38  58  81 115 151 192 236 282 341
#     4  11  19  35  58  83 113 146 185 233 286 338
#     4  11  21  36  57  83 117 150 188 236 282 336
#
# _framework density 18.713248
#
# number of rings (size 3 to 8) (size 9 to 14) (size 15 to 20)
#    0.000    1.800    4.000    1.200    0.000    2.800 
#    0.000    0.000    0.000    2.400    0.000    2.800 
#    0.000    0.000    0.000    0.000    0.000    0.000 
#
# Total GULP energy -111354.938740 kJ/mol
# GULP energy per Si atom -5567.746937 kJ/mol
# Density = 1.867066 g / cm^3
# Si number density = 18.713248 Si / 1000 Ang^3
#
#
#
# Elastic Constant Matrix: (Units=GPa)
#
#
# Indices 1 2 3 4 5 6 
#
# 1 91.9691 27.2882 4.3642 0.0000 0.0000 0.0000
# 2 27.2882 107.9157 15.9351 0.0000 0.0000 0.0000
# 3 4.3642 15.9351 80.4055 0.0000 0.0000 0.0000
# 4 0.0000 0.0000 0.0000 -8.8892 0.0000 0.0000
# 5 0.0000 0.0000 0.0000 0.0000 16.6903 0.0000
# 6 0.0000 0.0000 0.0000 0.0000 0.0000 22.5823
#
#
#
# Elastic Compliance Matrix: (Units=1/GPa)
#
#
# Indices 1 2 3 4 5 6 
#
# 1 0.011755 -0.002965 -0.000050 0.000000 0.000000 0.000000
# 2 -0.002965 0.010294 -0.001879 0.000000 0.000000 0.000000
# 3 -0.000050 -0.001879 0.012812 0.000000 0.000000 0.000000
# 4 0.000000 0.000000 0.000000 -0.112497 0.000000 0.000000
# 5 0.000000 0.000000 0.000000 0.000000 0.059915 0.000000
# 6 0.000000 0.000000 0.000000 0.000000 0.000000 0.044283
#
#
# Mechanical properties :
#
#
# Convention : Reuss Voigt Hill
#
# Bulk Modulus (GPa) = 39.88516 41.71837 40.80177
# Shear Modulus (GPa) = 111.83481 21.59019 66.71250
#
# Velocity S-wave (km/s) = 7.73900 3.40036 5.97723
# Velocity P-wave (km/s) = 10.06063 6.14479 8.33591
#
# Compressibility (1/GPa) = 0.02507198
#
# Stress axis : x y z
#
# Youngs Moduli (GPa) = 85.06737 97.14638 78.05112
#
# Poissons Ratio (x) = 0.28805 0.00393
# Poissons Ratio (y) = 0.25223 0.14667
# Poissons Ratio (z) = 0.00429 0.18255
#
# Static dielectric constant tensor:
#      x y z
#    x 1.695260 0.000000 0.000000 
#    y 0.000000 1.650430 0.000000 
#    z 0.000000 0.000000 1.669770 
# 
# From -- ./inp_files/6995.got.cif
#   From: 2010.05.17/outbox.cif.g08.bks.cpg/sg35_4_cif.got.tgz:6995.got - 2010.06.03 17:29:28.
