data_PCOD9349629
_publ_section_title
;
Structure prediction by ZEFSAII (Michael W. Deem and Ramdas Pophale) SiO2 
 PCOD9349629
Probable space group: C M M 2
;
_chemical_formula_sum "Si O2"
_cell_formula_units_Z 64
_cell_length_a 8.929815
_cell_length_b 28.665378
_cell_length_c 13.328902
_cell_angle_alpha 90.000000
_cell_angle_beta 90.000000
_cell_angle_gamma 90.000000
_cell_volume 3411.885982
_symmetry_space_group_name_H-M "C M M 2"
_symmetry_group_IT_number 35
_symmetry_cell_setting 'orthorhombic'
loop_
_space_group_symop_operation_xyz
x,y,z
-x,-y,z
-x,y,z
x,-y,z
1/2+x,1/2+y,z
1/2-x,1/2-y,z
1/2-x,1/2+y,z
1/2+x,1/2-y,z
loop_
_atom_site_type_symbol
_atom_site_label
_atom_site_fract_x
_atom_site_fract_y
_atom_site_fract_z
Si Si1 0.821394 0.054446 0.064950
Si Si2 0.319485 0.139198 0.549789
Si Si3 0.169651 0.443391 0.853972
Si Si4 0.821394 0.945554 0.642993
Si Si5 0.319447 0.801434 0.353972
Si Si6 0.680515 0.860802 0.158154
Si Si7 0.319780 0.801281 0.742953
Si Si8 0.180220 0.698719 0.964990
O O1 0.753892 0.088604 0.148052
O O2 0.000000 0.058436 0.060690
O O3 0.783135 0.000000 0.081936
O O4 0.752500 0.068665 0.956935
O O5 0.500000 0.134445 0.550264
O O6 0.246108 0.088604 0.559891
O O7 0.276606 0.169095 0.452552
O O8 0.272824 0.167380 0.649630
O O9 0.162490 0.500000 0.853972
O O10 0.252500 0.431335 0.751008
O O11 0.000000 0.424621 0.853971
O O12 0.000000 0.941564 0.647253
O O13 0.783135 0.000000 0.626007
O O14 0.500000 0.796814 0.353972
O O15 0.250000 0.750000 0.353972
O O16 0.276606 0.830905 0.255392
O O17 0.500000 0.865555 0.157679
O O18 0.727176 0.832620 0.058313
O O19 0.500000 0.797395 0.739345
O O20 0.250000 0.750000 0.733585
O O21 0.278897 0.819826 0.853972
O O22 0.250000 0.750000 0.974358
O O23 0.000000 0.702605 0.968598
#
# Coordination Sequence:
#
# PCOD9349629 Si02
#       8
#     8   8   8   8   8   8   8   8
#     4  10  21  36  54  81 116 150 190 238 283 333
#     4  10  21  36  56  81 110 146 191 235 283 341
#     4   9  17  31  53  79 110 151 190 225 273 331
#     4  10  21  36  54  81 116 150 190 238 283 333
#     4  10  22  40  61  86 113 145 190 243 289 340
#     4  10  21  36  56  81 110 146 191 235 283 341
#     4   9  18  32  50  75 106 138 174 220 274 336
#     4   9  18  32  50  75 106 138 174 220 274 336
#
# _framework density 18.757953000000001
#
# number of rings (size 3 to 8) (size 9 to 14) (size 15 to 20)
#    0.000    2.375    0.000    1.875    1.750    5.000 
#    0.000    0.625    0.000    3.750    0.000    0.000 
#    0.000    0.000    0.000    0.000    0.000    0.000 
#
# Total GULP energy -178657.693597 kJ/mol
# GULP energy per Si atom -5583.052925 kJ/mol
# Density = 1.871526 g / cm^3
# Si number density = 18.757953 Si / 1000 Ang^3
#
#
#
# Elastic Constant Matrix: (Units=GPa)
#
#
# Indices 1 2 3 4 5 6 
#
# 1 30.5229 45.7874 42.3694 0.0000 0.0000 0.0000
# 2 45.7874 133.1768 93.6080 0.0000 0.0000 0.0000
# 3 42.3694 93.6080 140.6674 0.0000 0.0000 0.0000
# 4 0.0000 0.0000 0.0000 36.5997 0.0000 0.0000
# 5 0.0000 0.0000 0.0000 0.0000 17.7335 0.0000
# 6 0.0000 0.0000 0.0000 0.0000 0.0000 32.4151
#
#
#
# Elastic Compliance Matrix: (Units=1/GPa)
#
#
# Indices 1 2 3 4 5 6 
#
# 1 0.074655 -0.018528 -0.010157 0.000000 0.000000 0.000000
# 2 -0.018528 0.018706 -0.006867 0.000000 0.000000 0.000000
# 3 -0.010157 -0.006867 0.014738 0.000000 0.000000 0.000000
# 4 0.000000 0.000000 0.000000 0.027323 0.000000 0.000000
# 5 0.000000 0.000000 0.000000 0.000000 0.056390 0.000000
# 6 0.000000 0.000000 0.000000 0.000000 0.000000 0.030850
#
#
# Mechanical properties :
#
#
# Convention : Reuss Voigt Hill
#
# Bulk Modulus (GPa) = 27.03081 74.21073 50.62077
# Shear Modulus (GPa) = 16.33472 25.52314 20.92893
#
# Velocity S-wave (km/s) = 2.95416 3.69271 3.34389
# Velocity P-wave (km/s) = 5.10663 7.60458 6.47716
#
# Compressibility (1/GPa) = 0.03699483
#
# Stress axis : x y z
#
# Youngs Moduli (GPa) = 13.39500 53.45952 67.85205
#
# Poissons Ratio (x) = 0.99050 0.68915
# Poissons Ratio (y) = 0.24818 0.46595
# Poissons Ratio (z) = 0.13605 0.36711
#
# Static dielectric constant tensor:
#      x y z
#    x 1.626070 0.000000 0.000000 
#    y 0.000000 1.660980 0.000000 
#    z 0.000000 0.000000 1.643060 
# 
# From -- ./inp_files/11879.got.cif
#   From: 2010.05.17/outbox.cif.g08.bks.cpg/sg35_6_cif.got.tgz:11879.got - 2010.06.03 17:29:28.
