data_PCOD9349195
_publ_section_title
;
Structure prediction by ZEFSAII (Michael W. Deem and Ramdas Pophale) SiO2 
 PCOD9349195
Probable space group: C M M 2
;
_chemical_formula_sum "Si O2"
_cell_formula_units_Z 56
_cell_length_a 8.729243
_cell_length_b 23.860765
_cell_length_c 15.811740
_cell_angle_alpha 90.000000
_cell_angle_beta 90.000000
_cell_angle_gamma 90.000000
_cell_volume 3293.370653
_symmetry_space_group_name_H-M "C M M 2"
_symmetry_group_IT_number 35
_symmetry_cell_setting 'orthorhombic'
loop_
_space_group_symop_operation_xyz
x,y,z
-x,-y,z
-x,y,z
x,-y,z
1/2+x,1/2+y,z
1/2-x,1/2-y,z
1/2-x,1/2+y,z
1/2+x,1/2-y,z
loop_
_atom_site_type_symbol
_atom_site_label
_atom_site_fract_x
_atom_site_fract_y
_atom_site_fract_z
Si Si1 0.182744 0.116907 0.551280
Si Si2 0.184558 0.500000 0.610328
Si Si3 0.186469 0.500000 0.808334
Si Si4 0.182035 0.813010 0.034094
Si Si5 0.816862 0.380267 0.878135
Si Si6 0.316184 0.186808 0.396788
Si Si7 0.816974 0.312788 0.207845
Si Si8 0.682464 0.811967 0.705470
O O1 0.252733 0.055538 0.565854
O O2 0.245712 0.147089 0.467575
O O3 0.237622 0.154029 0.630640
O O4 0.000000 0.114152 0.548741
O O5 0.233244 0.500000 0.709619
O O6 0.000000 0.500000 0.608658
O O7 0.234592 0.556725 0.855414
O O8 0.000000 0.500000 0.807081
O O9 0.250000 0.750000 0.023355
O O10 0.243854 0.837626 0.123145
O O11 0.000000 0.808193 0.037429
O O12 0.234548 0.851507 0.956742
O O13 0.791861 0.343424 0.794045
O O14 0.000000 0.381118 0.894423
O O15 0.500000 0.189853 0.405970
O O16 0.250000 0.250000 0.405209
O O17 0.281971 0.164685 0.301603
O O18 0.750000 0.250000 0.209983
O O19 0.000000 0.310984 0.198001
O O20 0.500000 0.810388 0.689831
O O21 0.750000 0.750000 0.709382
#
# Coordination Sequence:
#
# PCOD9349195 Si02
#       8
#     8   4   4   8   8   8   8   8
#     4  12  24  37  55  81 111 144 182 226 274 324
#     4  11  21  41  63  80 103 140 189 231 274 322
#     4   9  18  37  61  80  99 136 183 227 270 316
#     4  11  21  33  52  80 113 146 179 220 272 325
#     4  10  20  36  57  79 105 139 181 225 270 320
#     4  10  20  35  56  83 113 146 182 225 274 328
#     4   9  17  31  53  79 108 142 180 220 267 323
#     4  11  22  36  54  77 109 145 180 223 273 326
#
# _framework density 17.003855000000001
#
# number of rings (size 3 to 8) (size 9 to 14) (size 15 to 20)
#    0.000    1.571    1.429    5.786    0.000    4.000 
#    0.000    0.357    0.000    0.857    0.000    2.000 
#    0.000    0.000    0.000    0.000    0.000    0.000 
#
# Total GULP energy -156343.956816 kJ/mol
# GULP energy per Si atom -5583.712743 kJ/mol
# Density = 1.696515 g / cm^3
# Si number density = 17.003855 Si / 1000 Ang^3
#
#
#
# Elastic Constant Matrix: (Units=GPa)
#
#
# Indices 1 2 3 4 5 6 
#
# 1 110.2577 56.8986 85.7308 0.0000 0.0000 0.0000
# 2 56.8986 129.6005 73.7651 0.0000 0.0000 0.0000
# 3 85.7308 73.7651 159.5907 0.0000 0.0000 0.0000
# 4 0.0000 0.0000 0.0000 -9.1955 0.0000 0.0000
# 5 0.0000 0.0000 0.0000 0.0000 22.6821 0.0000
# 6 0.0000 0.0000 0.0000 0.0000 0.0000 12.5039
#
#
#
# Elastic Compliance Matrix: (Units=1/GPa)
#
#
# Indices 1 2 3 4 5 6 
#
# 1 0.016372 -0.002961 -0.007426 0.000000 0.000000 0.000000
# 2 -0.002961 0.011006 -0.003497 0.000000 0.000000 0.000000
# 3 -0.007426 -0.003497 0.011872 0.000000 0.000000 0.000000
# 4 0.000000 0.000000 0.000000 -0.108749 0.000000 0.000000
# 5 0.000000 0.000000 0.000000 0.000000 0.044088 0.000000
# 6 0.000000 0.000000 0.000000 0.000000 0.000000 0.079975
#
#
# Mechanical properties :
#
#
# Convention : Reuss Voigt Hill
#
# Bulk Modulus (GPa) = 87.09304 92.47091 89.78197
# Shear Modulus (GPa) = 58.03223 17.40171 37.71697
#
# Velocity S-wave (km/s) = 5.84833 3.20253 4.71483
# Velocity P-wave (km/s) = 9.84554 8.25683 9.08598
#
# Compressibility (1/GPa) = 0.01148197
#
# Stress axis : x y z
#
# Youngs Moduli (GPa) = 61.07992 90.85839 84.23499
#
# Poissons Ratio (x) = 0.26903 0.62555
# Poissons Ratio (y) = 0.18086 0.29454
# Poissons Ratio (z) = 0.45360 0.31769
#
# Static dielectric constant tensor:
#      x y z
#    x 1.572090 0.000000 0.000000 
#    y 0.000000 1.537760 0.000000 
#    z 0.000000 0.000000 1.587270 
# 
# From -- ./inp_files/15763.got.cif
#   From: 2010.05.17/outbox.cif.g08.bks.cpg/sg35_8_cif.got.tgz:15763.got - 2010.06.03 17:29:28.
