data_PCOD9349495
_publ_section_title
;
Structure prediction by ZEFSAII (Michael W. Deem and Ramdas Pophale) SiO2 
 PCOD9349495
Probable space group: C M M 2
;
_chemical_formula_sum "Si O2"
_cell_formula_units_Z 48
_cell_length_a 7.759165
_cell_length_b 18.216708
_cell_length_c 17.803059
_cell_angle_alpha 90.000000
_cell_angle_beta 90.000000
_cell_angle_gamma 90.000000
_cell_volume 2516.399066
_symmetry_space_group_name_H-M "C M M 2"
_symmetry_group_IT_number 35
_symmetry_cell_setting 'orthorhombic'
loop_
_space_group_symop_operation_xyz
x,y,z
-x,-y,z
-x,y,z
x,-y,z
1/2+x,1/2+y,z
1/2-x,1/2-y,z
1/2-x,1/2+y,z
1/2+x,1/2-y,z
loop_
_atom_site_type_symbol
_atom_site_label
_atom_site_fract_x
_atom_site_fract_y
_atom_site_fract_z
Si Si1 0.793795 0.083890 0.248420
Si Si2 0.706722 0.083790 0.413882
Si Si3 0.500000 0.088572 0.997737
Si Si4 0.207043 0.163948 0.095428
Si Si5 0.206292 0.335264 0.563017
Si Si6 0.692945 0.587688 0.716355
Si Si7 0.500000 0.910756 0.823787
O O1 0.746810 0.113116 0.330845
O O2 0.742763 0.133288 0.178045
O O3 0.000000 0.079404 0.245923
O O4 0.725041 0.000000 0.241598
O O5 0.500000 0.080915 0.419752
O O6 0.770558 0.129567 0.484917
O O7 0.773230 0.000000 0.417354
O O8 0.329166 0.120538 0.037667
O O9 0.500000 0.000000 0.003028
O O10 0.500000 0.111437 0.910287
O O11 0.250000 0.250000 0.090653
O O12 0.000000 0.152784 0.084328
O O13 0.250000 0.250000 0.564758
O O14 0.281198 0.374953 0.635960
O O15 0.000000 0.344583 0.566419
O O16 0.500000 0.601656 0.743862
O O17 0.714419 0.500000 0.706170
O O18 0.833665 0.613260 0.776401
O O19 0.500000 0.000000 0.824209
#
# Coordination Sequence:
#
# PCOD9349495 Si02
#       7
#     8   8   4   8   8   8   4
#     4   9  19  35  56  84 117 154 203 259 306 358
#     4   9  19  34  54  80 111 154 203 250 300 353
#     4  11  24  42  70  99 126 166 207 257 324 376
#     4  11  23  41  64  92 131 169 211 259 312 382
#     4  11  22  36  54  79 119 157 201 252 297 357
#     4  10  20  37  64  91 117 153 196 243 301 360
#     4   9  20  40  64  93 123 150 195 251 297 360
#
# _framework density 19.074876
#
# number of rings (size 3 to 8) (size 9 to 14) (size 15 to 20)
#    0.000    2.000    1.667    1.500    1.167    4.333 
#    0.000    7.500    0.000    0.000    0.000    0.000 
#    0.000    0.000    0.000    0.000    0.000    0.000 
#
# Total GULP energy -133975.174133 kJ/mol
# GULP energy per Si atom -5582.298922 kJ/mol
# Density = 1.903146 g / cm^3
# Si number density = 19.074876 Si / 1000 Ang^3
#
#
#
# Elastic Constant Matrix: (Units=GPa)
#
#
# Indices 1 2 3 4 5 6 
#
# 1 98.7681 44.2929 73.4217 0.0000 0.0000 0.0000
# 2 44.2929 68.4327 66.0602 0.0000 0.0000 0.0000
# 3 73.4217 66.0602 192.3217 0.0000 0.0000 0.0000
# 4 0.0000 0.0000 0.0000 -12.9012 0.0000 0.0000
# 5 0.0000 0.0000 0.0000 0.0000 -3.4450 0.0000
# 6 0.0000 0.0000 0.0000 0.0000 0.0000 20.1180
#
#
#
# Elastic Compliance Matrix: (Units=1/GPa)
#
#
# Indices 1 2 3 4 5 6 
#
# 1 0.015927 -0.006641 -0.003799 0.000000 0.000000 0.000000
# 2 -0.006641 0.024631 -0.005925 0.000000 0.000000 0.000000
# 3 -0.003799 -0.005925 0.008685 0.000000 0.000000 0.000000
# 4 0.000000 0.000000 0.000000 -0.077512 0.000000 0.000000
# 5 0.000000 0.000000 0.000000 0.000000 -0.290274 0.000000
# 6 0.000000 0.000000 0.000000 0.000000 0.000000 0.049707
#
#
# Mechanical properties :
#
#
# Convention : Reuss Voigt Hill
#
# Bulk Modulus (GPa) = 60.56086 80.78582 70.67334
# Shear Modulus (GPa) = -21.68260 12.47086 -4.60587
#
# Velocity S-wave (km/s) = -3.37517 2.55970 -1.55559
# Velocity P-wave (km/s) = 4.07786 7.15402 5.82275
#
# Compressibility (1/GPa) = 0.01651231
#
# Stress axis : x y z
#
# Youngs Moduli (GPa) = 62.78495 40.59894 115.13790
#
# Poissons Ratio (x) = 0.26963 0.43744
# Poissons Ratio (y) = 0.41698 0.68220
# Poissons Ratio (z) = 0.23854 0.24055
#
# Static dielectric constant tensor:
#      x y z
#    x 1.684370 0.000000 0.000000 
#    y 0.000000 1.641170 0.000000 
#    z 0.000000 0.000000 1.642480 
# 
# From -- ./inp_files/15174.got.cif
#   From: 2010.05.17/outbox.cif.g08.bks.cpg/sg35_8_cif.got.tgz:15174.got - 2010.06.03 17:29:28.
