data_PCOD9349147
_publ_section_title
;
Structure prediction by ZEFSAII (Michael W. Deem and Ramdas Pophale) SiO2 
 PCOD9349147
Probable space group: C M M 2
;
_chemical_formula_sum "Si O2"
_cell_formula_units_Z 64
_cell_length_a 8.698334
_cell_length_b 20.247897
_cell_length_c 20.601616
_cell_angle_alpha 90.000000
_cell_angle_beta 90.000000
_cell_angle_gamma 90.000000
_cell_volume 3628.417815
_symmetry_space_group_name_H-M "C M M 2"
_symmetry_group_IT_number 35
_symmetry_cell_setting 'orthorhombic'
loop_
_space_group_symop_operation_xyz
x,y,z
-x,-y,z
-x,y,z
x,-y,z
1/2+x,1/2+y,z
1/2-x,1/2-y,z
1/2-x,1/2+y,z
1/2+x,1/2-y,z
loop_
_atom_site_type_symbol
_atom_site_label
_atom_site_fract_x
_atom_site_fract_y
_atom_site_fract_z
Si Si1 0.685378 0.576582 0.849920
Si Si2 0.816442 0.177789 0.095584
Si Si3 0.183899 0.423019 0.484765
Si Si4 0.314761 0.322288 0.738829
Si Si5 0.184710 0.177127 0.589939
Si Si6 0.683868 0.577340 0.342688
Si Si7 0.316363 0.077410 0.991206
Si Si8 0.683684 0.177687 0.237991
O O1 0.500000 0.581318 0.856472
O O2 0.722777 0.500000 0.835868
O O3 0.735331 0.624091 0.791637
O O4 0.760925 0.594419 0.918578
O O5 0.750000 0.250000 0.078098
O O6 0.763726 0.124079 0.043433
O O7 0.749283 0.161277 0.166641
O O8 0.000000 0.181438 0.099257
O O9 0.220889 0.500000 0.498413
O O10 0.249335 0.375776 0.540042
O O11 0.256245 0.406532 0.414809
O O12 0.000000 0.416560 0.480930
O O13 0.500000 0.319388 0.740391
O O14 0.250000 0.250000 0.754156
O O15 0.270398 0.338817 0.664603
O O16 0.250000 0.250000 0.575519
O O17 0.000000 0.178414 0.585950
O O18 0.500000 0.585047 0.340192
O O19 0.720603 0.500000 0.330600
O O20 0.761584 0.624202 0.289980
O O21 0.500000 0.084517 0.995816
O O22 0.277510 0.000000 0.001954
O O23 0.500000 0.180962 0.235152
O O24 0.750000 0.250000 0.255116
#
# Coordination Sequence:
#
# PCOD9349147 Si02
#       8
#     8   8   8   8   8   8   8   8
#     4   9  18  34  54  76 104 139 179 221 266 317
#     4  11  22  38  59  82 110 143 181 223 269 320
#     4  10  21  37  56  80 110 142 178 222 271 321
#     4   9  19  34  53  77 105 138 175 219 267 318
#     4  10  20  35  55  79 108 142 181 223 269 320
#     4  10  21  38  59  83 111 143 181 223 267 318
#     4  10  21  37  56  80 110 143 181 224 269 318
#     4  11  22  38  59  83 113 145 180 222 268 318
#
# _framework density 17.638541
#
# number of rings (size 3 to 8) (size 9 to 14) (size 15 to 20)
#    0.000    2.000    0.000    4.500    0.000    5.250 
#    0.000    5.000    0.000    1.500    0.000    0.000 
#    0.000    0.000    0.000    0.000    0.000    0.000 
#
# Total GULP energy -178714.277084 kJ/mol
# GULP energy per Si atom -5584.821159 kJ/mol
# Density = 1.759840 g / cm^3
# Si number density = 17.638541 Si / 1000 Ang^3
#
#
#
# Elastic Constant Matrix: (Units=GPa)
#
#
# Indices 1 2 3 4 5 6 
#
# 1 94.6802 65.4677 71.5937 0.0000 0.0000 0.0000
# 2 65.4677 118.4435 124.3096 0.0000 0.0000 0.0000
# 3 71.5937 124.3096 151.5001 0.0000 0.0000 0.0000
# 4 0.0000 0.0000 0.0000 44.4187 0.0000 0.0000
# 5 0.0000 0.0000 0.0000 0.0000 30.5447 0.0000
# 6 0.0000 0.0000 0.0000 0.0000 0.0000 30.6712
#
#
#
# Elastic Compliance Matrix: (Units=1/GPa)
#
#
# Indices 1 2 3 4 5 6 
#
# 1 0.017212 -0.007037 -0.002360 0.000000 0.000000 0.000000
# 2 -0.007037 0.063688 -0.048932 0.000000 0.000000 0.000000
# 3 -0.002360 -0.048932 0.047866 0.000000 0.000000 0.000000
# 4 0.000000 0.000000 0.000000 0.022513 0.000000 0.000000
# 5 0.000000 0.000000 0.000000 0.000000 0.032739 0.000000
# 6 0.000000 0.000000 0.000000 0.000000 0.000000 0.032604
#
#
# Mechanical properties :
#
#
# Convention : Reuss Voigt Hill
#
# Bulk Modulus (GPa) = 82.58988 98.59619 90.59304
# Shear Modulus (GPa) = 14.82289 28.01044 21.41666
#
# Velocity S-wave (km/s) = 2.90206 3.98933 3.48831
# Velocity P-wave (km/s) = 7.62591 8.78858 8.22781
#
# Compressibility (1/GPa) = 0.01210802
#
# Stress axis : x y z
#
# Youngs Moduli (GPa) = 58.09863 15.70148 20.89173
#
# Poissons Ratio (x) = 0.11050 0.04930
# Poissons Ratio (y) = 0.40886 1.02228
# Poissons Ratio (z) = 0.13709 0.76831
#
# Static dielectric constant tensor:
#      x y z
#    x 1.591810 0.000000 0.000000 
#    y 0.000000 1.578050 0.000000 
#    z 0.000000 0.000000 1.574460 
# 
# From -- ./inp_files/18322.got.cif
#   From: 2010.05.17/outbox.cif.g08.bks.cpg/sg35_10_cif.got.tgz:18322.got - 2010.06.03 17:29:28.
