data_PCOD9349646
_publ_section_title
;
Structure prediction by ZEFSAII (Michael W. Deem and Ramdas Pophale) SiO2 
 PCOD9349646
Probable space group: C M M 2
;
_chemical_formula_sum "Si O2"
_cell_formula_units_Z 48
_cell_length_a 18.812944
_cell_length_b 8.873530
_cell_length_c 15.714430
_cell_angle_alpha 90.000000
_cell_angle_beta 90.000000
_cell_angle_gamma 90.000000
_cell_volume 2623.323305
_symmetry_space_group_name_H-M "C M M 2"
_symmetry_group_IT_number 35
_symmetry_cell_setting 'orthorhombic'
loop_
_space_group_symop_operation_xyz
x,y,z
-x,-y,z
-x,y,z
x,-y,z
1/2+x,1/2+y,z
1/2-x,1/2-y,z
1/2-x,1/2+y,z
1/2+x,1/2-y,z
loop_
_atom_site_type_symbol
_atom_site_label
_atom_site_fract_x
_atom_site_fract_y
_atom_site_fract_z
Si Si1 0.828720 0.819715 0.203700
Si Si2 0.328667 0.681428 0.894011
Si Si3 0.827042 0.821235 0.699818
Si Si4 0.085061 0.675952 0.551041
Si Si5 0.084143 0.319552 0.046991
Si Si6 0.084244 0.681622 0.357851
O O1 0.750000 0.750000 0.200635
O O2 0.874278 0.755932 0.125030
O O3 0.868517 0.765810 0.289071
O O4 0.824783 0.000000 0.199658
O O5 0.325958 0.500000 0.903291
O O6 0.250000 0.750000 0.908642
O O7 0.349370 0.719034 0.796440
O O8 0.382643 0.752650 0.960931
O O9 0.750000 0.750000 0.685383
O O10 0.878994 0.765925 0.626534
O O11 0.820657 0.000000 0.696847
O O12 0.104518 0.500000 0.559661
O O13 0.104251 0.723647 0.454822
O O14 0.000000 0.686846 0.556699
O O15 0.094381 0.500000 0.049614
O O16 0.000000 0.288964 0.052662
O O17 0.092646 0.500000 0.349333
O O18 0.000000 0.713150 0.345652
#
# Coordination Sequence:
#
# PCOD9349646 Si02
#       6
#     8   8   8   8   8   8
#     4  12  25  40  60  85 114 148 186 229 277 330
#     4  10  21  38  59  83 113 148 188 233 280 330
#     4  10  21  36  56  82 113 150 189 233 281 329
#     4   9  19  36  58  83 113 150 188 229 279 333
#     4  11  24  41  61  85 114 148 184 225 276 333
#     4   9  19  38  61  84 113 148 186 230 280 332
#
# _framework density 18.2974
#
# number of rings (size 3 to 8) (size 9 to 14) (size 15 to 20)
#    0.000    1.833    0.000    5.000    0.000    8.000 
#    0.000    5.000    0.000    0.000    0.000    0.000 
#    0.000    0.000    0.000    0.000    0.000    0.000 
#
# Total GULP energy -134090.116950 kJ/mol
# GULP energy per Si atom -5587.088206 kJ/mol
# Density = 1.825575 g / cm^3
# Si number density = 18.297400 Si / 1000 Ang^3
#
#
#
# Elastic Constant Matrix: (Units=GPa)
#
#
# Indices 1 2 3 4 5 6 
#
# 1 104.0929 71.6913 93.2047 0.0000 0.0000 0.0000
# 2 71.6913 97.0901 80.5668 0.0000 0.0000 0.0000
# 3 93.2047 80.5668 151.6323 0.0000 0.0000 0.0000
# 4 0.0000 0.0000 0.0000 21.7046 0.0000 0.0000
# 5 0.0000 0.0000 0.0000 0.0000 37.2555 0.0000
# 6 0.0000 0.0000 0.0000 0.0000 0.0000 35.2218
#
#
#
# Elastic Compliance Matrix: (Units=1/GPa)
#
#
# Indices 1 2 3 4 5 6 
#
# 1 0.026491 -0.010819 -0.010535 0.000000 0.000000 0.000000
# 2 -0.010819 0.022841 -0.005486 0.000000 0.000000 0.000000
# 3 -0.010535 -0.005486 0.015985 0.000000 0.000000 0.000000
# 4 0.000000 0.000000 0.000000 0.046073 0.000000 0.000000
# 5 0.000000 0.000000 0.000000 0.000000 0.026842 0.000000
# 6 0.000000 0.000000 0.000000 0.000000 0.000000 0.028392
#
#
# Mechanical properties :
#
#
# Convention : Reuss Voigt Hill
#
# Bulk Modulus (GPa) = 85.92873 93.74899 89.83886
# Shear Modulus (GPa) = 22.30331 25.99320 24.14826
#
# Velocity S-wave (km/s) = 3.49511 3.77317 3.63680
# Velocity P-wave (km/s) = 7.95939 8.38629 8.17563
#
# Compressibility (1/GPa) = 0.01163755
#
# Stress axis : x y z
#
# Youngs Moduli (GPa) = 37.74847 43.78183 62.55758
#
# Poissons Ratio (x) = 0.47367 0.65905
# Poissons Ratio (y) = 0.40840 0.34317
# Poissons Ratio (z) = 0.39768 0.24018
#
# Static dielectric constant tensor:
#      x y z
#    x 1.593550 0.000000 0.000000 
#    y 0.000000 1.613370 0.000000 
#    z 0.000000 0.000000 1.626630 
# 
# From -- ./inp_files/15081.got.cif
#   From: 2010.05.17/outbox.cif.g08.bks.cpg/sg35_8_cif.got.tgz:15081.got - 2010.06.03 17:29:28.
