data_PCOD9349275
_publ_section_title
;
Structure prediction by ZEFSAII (Michael W. Deem and Ramdas Pophale) SiO2 
 PCOD9349275
Probable space group: C M M 2
;
_chemical_formula_sum "Si O2"
_cell_formula_units_Z 40
_cell_length_a 16.740717
_cell_length_b 19.521873
_cell_length_c 5.061445
_cell_angle_alpha 90.000000
_cell_angle_beta 90.000000
_cell_angle_gamma 90.000000
_cell_volume 1654.131606
_symmetry_space_group_name_H-M "C M M 2"
_symmetry_group_IT_number 35
_symmetry_cell_setting 'orthorhombic'
loop_
_space_group_symop_operation_xyz
x,y,z
-x,-y,z
-x,y,z
x,-y,z
1/2+x,1/2+y,z
1/2-x,1/2-y,z
1/2-x,1/2+y,z
1/2+x,1/2-y,z
loop_
_atom_site_type_symbol
_atom_site_label
_atom_site_fract_x
_atom_site_fract_y
_atom_site_fract_z
Si Si1 0.595518 0.167236 0.670290
Si Si2 0.317254 0.427593 0.593135
Si Si3 0.404284 0.077563 0.152971
Si Si4 0.589610 0.394932 0.105160
Si Si5 0.677427 0.286859 0.361322
O O1 0.500000 0.181110 0.696429
O O2 0.605060 0.110153 0.440620
O O3 0.637698 0.236298 0.571543
O O4 0.626989 0.131383 0.936629
O O5 0.273330 0.500000 0.560167
O O6 0.348973 0.421432 0.888718
O O7 0.392141 0.428231 0.388523
O O8 0.284148 0.354212 0.502452
O O9 0.500000 0.073389 0.105288
O O10 0.372617 0.000000 0.127570
O O11 0.500000 0.405370 0.017573
O O12 0.610580 0.315667 0.164502
O O13 0.750000 0.250000 0.219174
#
# Coordination Sequence:
#
# PCOD9349275 Si02
#       5
#     8   8   8   8   8
#     4  10  20  35  60  88 116 155 207 256 306 367
#     4  10  23  41  65  95 130 168 217 268 326 389
#     4   9  18  34  57  86 119 151 193 250 304 354
#     4  10  22  39  66  96 127 164 217 270 325 382
#     4  10  25  44  64  89 135 169 214 256 328 383
#
# _framework density 24.181871999999998
#
# number of rings (size 3 to 8) (size 9 to 14) (size 15 to 20)
#    1.200    1.000    0.000    2.400    2.800    5.600 
#    0.000    2.000    0.000    0.000    0.000    0.000 
#    0.000    0.000    0.000    0.000    0.000    0.000 
#
# Total GULP energy -111637.778550 kJ/mol
# GULP energy per Si atom -5581.888927 kJ/mol
# Density = 2.412683 g / cm^3
# Si number density = 24.181872 Si / 1000 Ang^3
#
#
#
# Elastic Constant Matrix: (Units=GPa)
#
#
# Indices 1 2 3 4 5 6 
#
# 1 46.7494 31.5401 -2.5596 0.0000 0.0000 0.0000
# 2 31.5401 140.6088 -7.1749 0.0000 0.0000 0.0000
# 3 -2.5596 -7.1749 70.0048 0.0000 0.0000 0.0000
# 4 0.0000 0.0000 0.0000 21.5607 0.0000 0.0000
# 5 0.0000 0.0000 0.0000 0.0000 14.4862 0.0000
# 6 0.0000 0.0000 0.0000 0.0000 0.0000 4.9333
#
#
#
# Elastic Compliance Matrix: (Units=1/GPa)
#
#
# Indices 1 2 3 4 5 6 
#
# 1 0.025213 -0.005638 0.000344 0.000000 0.000000 0.000000
# 2 -0.005638 0.008410 0.000656 0.000000 0.000000 0.000000
# 3 0.000344 0.000656 0.014365 0.000000 0.000000 0.000000
# 4 0.000000 0.000000 0.000000 0.046381 0.000000 0.000000
# 5 0.000000 0.000000 0.000000 0.000000 0.069031 0.000000
# 6 0.000000 0.000000 0.000000 0.000000 0.000000 0.202703
#
#
# Mechanical properties :
#
#
# Convention : Reuss Voigt Hill
#
# Bulk Modulus (GPa) = 25.83217 33.44160 29.63688
# Shear Modulus (GPa) = 12.87720 23.89987 18.38854
#
# Velocity S-wave (km/s) = 2.31013 3.14720 2.76057
# Velocity P-wave (km/s) = 4.22152 5.20247 4.73745
#
# Compressibility (1/GPa) = 0.03871142
#
# Stress axis : x y z
#
# Youngs Moduli (GPa) = 39.66160 118.90498 69.61595
#
# Poissons Ratio (x) = 0.67040 -0.02395
# Poissons Ratio (y) = 0.22362 -0.04566
# Poissons Ratio (z) = -0.01364 -0.07798
#
# Static dielectric constant tensor:
#      x y z
#    x 1.923280 0.000000 0.000000 
#    y 0.000000 1.991070 0.000000 
#    z 0.000000 0.000000 1.876920 
# 
# From -- ./inp_files/2468.got.cif
#   From: 2010.05.17/outbox.cif.g08.bks.cpg/sg35_2_cif.got.tgz:2468.got - 2010.06.03 17:29:28.
