data_PCOD9349390
_publ_section_title
;
Structure prediction by ZEFSAII (Michael W. Deem and Ramdas Pophale) SiO2 
 PCOD9349390
Probable space group: C M M 2
;
_chemical_formula_sum "Si O2"
_cell_formula_units_Z 64
_cell_length_a 8.716576
_cell_length_b 29.914443
_cell_length_c 12.522736
_cell_angle_alpha 90.000000
_cell_angle_beta 90.000000
_cell_angle_gamma 90.000000
_cell_volume 3265.322395
_symmetry_space_group_name_H-M "C M M 2"
_symmetry_group_IT_number 35
_symmetry_cell_setting 'orthorhombic'
loop_
_space_group_symop_operation_xyz
x,y,z
-x,-y,z
-x,y,z
x,-y,z
1/2+x,1/2+y,z
1/2-x,1/2-y,z
1/2-x,1/2+y,z
1/2+x,1/2-y,z
loop_
_atom_site_type_symbol
_atom_site_label
_atom_site_fract_x
_atom_site_fract_y
_atom_site_fract_z
Si Si1 0.176129 0.829309 0.506000
Si Si2 0.682674 0.699903 0.088230
Si Si3 0.184060 0.204056 0.729342
Si Si4 0.676924 0.568049 0.574912
Si Si5 0.682292 0.860686 0.899154
Si Si6 0.684563 0.550697 0.817875
Si Si7 0.683994 0.951610 0.349047
Si Si8 0.317660 0.852807 0.287282
O O1 0.224637 0.798779 0.604343
O O2 0.176004 0.878746 0.557816
O O3 0.281099 0.831150 0.402371
O O4 0.000000 0.819039 0.474613
O O5 0.500000 0.702752 0.081329
O O6 0.750000 0.750000 0.081640
O O7 0.733879 0.675649 0.197245
O O8 0.745218 0.668180 0.994196
O O9 0.250000 0.250000 0.775390
O O10 0.259455 0.163350 0.791740
O O11 0.000000 0.201941 0.739129
O O12 0.500000 0.552629 0.566770
O O13 0.733324 0.556310 0.693325
O O14 0.770045 0.550250 0.473794
O O15 0.500000 0.859134 0.907046
O O16 0.739341 0.911563 0.890395
O O17 0.500000 0.557249 0.819016
O O18 0.718285 0.500000 0.851273
O O19 0.500000 0.950747 0.341461
O O20 0.737632 0.904877 0.295956
O O21 0.738440 0.000000 0.306021
O O22 0.500000 0.852664 0.267399
#
# Coordination Sequence:
#
# PCOD9349390 Si02
#       8
#     8   8   8   8   8   8   8   8
#     4   9  18  34  56  82 121 165 203 245 299 356
#     4  12  26  47  72  93 116 150 200 255 312 372
#     4  11  22  38  59  87 122 160 202 248 304 369
#     4   9  16  30  52  80 116 162 208 248 290 343
#     4  12  25  42  64  90 123 159 202 253 308 364
#     4  10  20  36  59  88 124 166 208 251 302 358
#     4   9  18  32  52  83 124 166 204 244 292 347
#     4  10  21  38  61  90 124 159 202 251 304 360
#
# _framework density 19.599900999999999
#
# number of rings (size 3 to 8) (size 9 to 14) (size 15 to 20)
#    0.000    1.750    1.250    3.750    0.000    3.500 
#    0.000    1.875    0.000    2.250    0.000    0.000 
#    0.000    0.000    0.000    0.000    0.000    0.000 
#
# Total GULP energy -178674.663028 kJ/mol
# GULP energy per Si atom -5583.583220 kJ/mol
# Density = 1.955529 g / cm^3
# Si number density = 19.599901 Si / 1000 Ang^3
#
#
#
# Elastic Constant Matrix: (Units=GPa)
#
#
# Indices 1 2 3 4 5 6 
#
# 1 83.9617 59.1903 53.8374 0.0000 0.0000 0.0000
# 2 59.1903 144.1629 66.3099 0.0000 0.0000 0.0000
# 3 53.8374 66.3099 83.5554 0.0000 0.0000 0.0000
# 4 0.0000 0.0000 0.0000 17.1496 0.0000 0.0000
# 5 0.0000 0.0000 0.0000 0.0000 13.8293 0.0000
# 6 0.0000 0.0000 0.0000 0.0000 0.0000 23.9358
#
#
#
# Elastic Compliance Matrix: (Units=1/GPa)
#
#
# Indices 1 2 3 4 5 6 
#
# 1 0.021593 -0.003884 -0.010831 0.000000 0.000000 0.000000
# 2 -0.003884 0.011623 -0.006721 0.000000 0.000000 0.000000
# 3 -0.010831 -0.006721 0.024281 0.000000 0.000000 0.000000
# 4 0.000000 0.000000 0.000000 0.058311 0.000000 0.000000
# 5 0.000000 0.000000 0.000000 0.000000 0.072310 0.000000
# 6 0.000000 0.000000 0.000000 0.000000 0.000000 0.041778
#
#
# Mechanical properties :
#
#
# Convention : Reuss Voigt Hill
#
# Bulk Modulus (GPa) = 68.37821 74.48391 71.43106
# Shear Modulus (GPa) = 18.00871 19.80576 18.90724
#
# Velocity S-wave (km/s) = 3.03449 3.18229 3.10927
# Velocity P-wave (km/s) = 6.87315 7.18243 7.02949
#
# Compressibility (1/GPa) = 0.01462454
#
# Stress axis : x y z
#
# Youngs Moduli (GPa) = 46.31122 86.03729 41.18460
#
# Poissons Ratio (x) = 0.33416 0.44606
# Poissons Ratio (y) = 0.17987 0.27682
# Poissons Ratio (z) = 0.50159 0.57830
#
# Static dielectric constant tensor:
#      x y z
#    x 1.676980 0.000000 0.000000 
#    y 0.000000 0.388590 0.000000 
#    z 0.000000 0.000000 1.676290 
# 
# From -- ./inp_files/11904.got.cif
#   From: 2010.05.17/outbox.cif.g08.bks.cpg/sg35_6_cif.got.tgz:11904.got - 2010.06.03 17:29:28.
