data_PCOD9349405
_publ_section_title
;
Structure prediction by ZEFSAII (Michael W. Deem and Ramdas Pophale) SiO2 
 PCOD9349405
Probable space group: C M M 2
;
_chemical_formula_sum "Si O2"
_cell_formula_units_Z 48
_cell_length_a 10.274835
_cell_length_b 17.870442
_cell_length_c 14.159521
_cell_angle_alpha 90.000000
_cell_angle_beta 90.000000
_cell_angle_gamma 90.000000
_cell_volume 2599.912384
_symmetry_space_group_name_H-M "C M M 2"
_symmetry_group_IT_number 35
_symmetry_cell_setting 'orthorhombic'
loop_
_space_group_symop_operation_xyz
x,y,z
-x,-y,z
-x,y,z
x,-y,z
1/2+x,1/2+y,z
1/2-x,1/2-y,z
1/2-x,1/2+y,z
1/2+x,1/2-y,z
loop_
_atom_site_type_symbol
_atom_site_label
_atom_site_fract_x
_atom_site_fract_y
_atom_site_fract_z
Si Si1 0.259527 0.910897 0.318440
Si Si2 0.500000 0.408956 0.001358
Si Si3 0.000000 0.854497 0.217130
Si Si4 0.846283 0.319519 0.711878
Si Si5 0.000000 0.414975 0.038789
Si Si6 0.762060 0.412610 0.894361
Si Si7 0.651820 0.912616 0.521461
Si Si8 0.500000 0.175460 0.226235
O O1 0.260204 0.894944 0.430779
O O2 0.373612 0.861224 0.274020
O O3 0.126599 0.889811 0.266608
O O4 0.286578 0.000000 0.307356
O O5 0.500000 0.500000 0.011401
O O6 0.500000 0.374500 0.105918
O O7 0.627711 0.386801 0.942126
O O8 0.000000 0.764970 0.231029
O O9 0.750000 0.250000 0.710861
O O10 0.807079 0.368690 0.802318
O O11 0.826209 0.364714 0.614624
O O12 0.000000 0.300133 0.718085
O O13 0.000000 0.353323 0.118969
O O14 0.000000 0.500000 0.079512
O O15 0.125965 0.407528 0.973095
O O16 0.746802 0.500000 0.869285
O O17 0.500000 0.902728 0.492310
O O18 0.668881 0.000000 0.544863
#
# Coordination Sequence:
#
# PCOD9349405 Si02
#       8
#     8   4   4   8   4   8   8   4
#     4  11  22  42  66  91 122 168 218 259 307 373
#     4  10  22  40  61  88 125 170 207 252 312 376
#     4  12  26  40  61  94 137 166 203 258 336 374
#     4  11  24  40  62  92 128 163 197 248 317 375
#     4  10  20  36  61  90 115 154 215 264 298 360
#     4  10  21  39  64  90 116 158 212 256 300 358
#     4   9  19  40  68  92 115 156 212 260 298 354
#     4  12  24  38  61  94 125 164 207 266 316 376
#
# _framework density 18.462161999999999
#
# number of rings (size 3 to 8) (size 9 to 14) (size 15 to 20)
#    0.000    1.500    1.667    3.500    1.167    4.667 
#    1.500    0.000    0.000    0.000    0.000    0.000 
#    0.000    0.000    0.000    0.000    0.000    0.000 
#
# Total GULP energy -134093.996338 kJ/mol
# GULP energy per Si atom -5587.249847 kJ/mol
# Density = 1.842014 g / cm^3
# Si number density = 18.462162 Si / 1000 Ang^3
#
#
#
# Elastic Constant Matrix: (Units=GPa)
#
#
# Indices 1 2 3 4 5 6 
#
# 1 130.2889 35.2997 55.2084 0.0000 0.0000 0.0000
# 2 35.2997 78.5895 56.7842 0.0000 0.0000 0.0000
# 3 55.2084 56.7842 115.7556 0.0000 0.0000 0.0000
# 4 0.0000 0.0000 0.0000 -160.0852 0.0000 0.0000
# 5 0.0000 0.0000 0.0000 0.0000 18.2592 0.0000
# 6 0.0000 0.0000 0.0000 0.0000 0.0000 12.5614
#
#
#
# Elastic Compliance Matrix: (Units=1/GPa)
#
#
# Indices 1 2 3 4 5 6 
#
# 1 0.009744 -0.001578 -0.003873 0.000000 0.000000 0.000000
# 2 -0.001578 0.019966 -0.009042 0.000000 0.000000 0.000000
# 3 -0.003873 -0.009042 0.014922 0.000000 0.000000 0.000000
# 4 0.000000 0.000000 0.000000 -0.006247 0.000000 0.000000
# 5 0.000000 0.000000 0.000000 0.000000 0.054767 0.000000
# 6 0.000000 0.000000 0.000000 0.000000 0.000000 0.079609
#
#
# Mechanical properties :
#
#
# Convention : Reuss Voigt Hill
#
# Bulk Modulus (GPa) = 63.91538 68.80208 66.35873
# Shear Modulus (GPa) = 24.15894 -14.03014 5.06440
#
# Velocity S-wave (km/s) = 3.62133 -2.75969 1.65803
# Velocity P-wave (km/s) = 7.22359 5.21468 6.29973
#
# Compressibility (1/GPa) = 0.01564569
#
# Stress axis : x y z
#
# Youngs Moduli (GPa) = 102.62691 50.08441 67.01690
#
# Poissons Ratio (x) = 0.07904 0.25957
# Poissons Ratio (y) = 0.16197 0.60595
# Poissons Ratio (z) = 0.39749 0.45285
#
# Static dielectric constant tensor:
#      x y z
#    x 1.643530 0.000000 0.000000 
#    y 0.000000 1.684840 0.000000 
#    z 0.000000 0.000000 1.614770 
# 
# From -- ./inp_files/15327.got.cif
#   From: 2010.05.17/outbox.cif.g08.bks.cpg/sg35_8_cif.got.tgz:15327.got - 2010.06.03 17:29:28.
