data_PCOD9349969
_publ_section_title
;
Structure prediction by ZEFSAII (Michael W. Deem and Ramdas Pophale) SiO2 
 PCOD9349969
Probable space group: C M M 2
;
_chemical_formula_sum "Si O2"
_cell_formula_units_Z 40
_cell_length_a 9.128140
_cell_length_b 30.617660
_cell_length_c 7.354708
_cell_angle_alpha 90.000000
_cell_angle_beta 90.000000
_cell_angle_gamma 90.000000
_cell_volume 2055.510612
_symmetry_space_group_name_H-M "C M M 2"
_symmetry_group_IT_number 35
_symmetry_cell_setting 'orthorhombic'
loop_
_space_group_symop_operation_xyz
x,y,z
-x,-y,z
-x,y,z
x,-y,z
1/2+x,1/2+y,z
1/2-x,1/2-y,z
1/2-x,1/2+y,z
1/2+x,1/2-y,z
loop_
_atom_site_type_symbol
_atom_site_label
_atom_site_fract_x
_atom_site_fract_y
_atom_site_fract_z
Si Si1 0.333213 0.207028 0.368340
Si Si2 0.324307 0.887854 0.324712
Si Si3 0.330775 0.205991 0.925207
Si Si4 0.173208 0.448548 0.661584
Si Si5 0.825301 0.115957 0.935858
O O1 0.500000 0.210563 0.428583
O O2 0.250000 0.250000 0.430802
O O3 0.277940 0.158541 0.414701
O O4 0.330383 0.207173 0.146932
O O5 0.500000 0.884199 0.286566
O O6 0.301768 0.926936 0.464645
O O7 0.238047 0.892951 0.137555
O O8 0.500000 0.204377 0.867913
O O9 0.250000 0.250000 0.864247
O O10 0.245611 0.162055 0.874367
O O11 0.203147 0.500000 0.661676
O O12 0.000000 0.442102 0.704484
O O13 0.269362 0.422162 0.804982
O O14 0.000000 0.119324 0.939438
#
# Coordination Sequence:
#
# PCOD9349969 Si02
#       5
#     8   8   8   8   8
#     4   8  14  25  45  74 107 140 175 218 266 319
#     4   9  19  37  59  83 111 146 190 238 284 333
#     4   9  16  29  51  80 114 151 192 233 274 327
#     4  10  22  41  63  83 106 143 193 246 295 344
#     4  11  22  36  57  86 120 155 188 228 284 346
#
# _framework density 19.459886000000001
#
# number of rings (size 3 to 8) (size 9 to 14) (size 15 to 20)
#    0.000    2.600    0.000    3.600    0.000    6.800 
#    0.000    3.000    0.000    2.400    0.000    0.000 
#    0.000    0.000    0.000    0.000    0.000    0.000 
#
# Total GULP energy -111669.209333 kJ/mol
# GULP energy per Si atom -5583.460467 kJ/mol
# Density = 1.941559 g / cm^3
# Si number density = 19.459886 Si / 1000 Ang^3
#
#
#
# Elastic Constant Matrix: (Units=GPa)
#
#
# Indices 1 2 3 4 5 6 
#
# 1 127.0604 98.7443 57.6459 0.0000 0.0000 0.0000
# 2 98.7443 172.5955 56.4738 0.0000 0.0000 0.0000
# 3 57.6459 56.4738 82.7696 0.0000 0.0000 0.0000
# 4 0.0000 0.0000 0.0000 37.8121 0.0000 0.0000
# 5 0.0000 0.0000 0.0000 0.0000 42.0217 0.0000
# 6 0.0000 0.0000 0.0000 0.0000 0.0000 31.3220
#
#
#
# Elastic Compliance Matrix: (Units=1/GPa)
#
#
# Indices 1 2 3 4 5 6 
#
# 1 0.016506 -0.007315 -0.006505 0.000000 0.000000 0.000000
# 2 -0.007315 0.010701 -0.002207 0.000000 0.000000 0.000000
# 3 -0.006505 -0.002207 0.018118 0.000000 0.000000 0.000000
# 4 0.000000 0.000000 0.000000 0.026447 0.000000 0.000000
# 5 0.000000 0.000000 0.000000 0.000000 0.023797 0.000000
# 6 0.000000 0.000000 0.000000 0.000000 0.000000 0.031926
#
#
# Mechanical properties :
#
#
# Convention : Reuss Voigt Hill
#
# Bulk Modulus (GPa) = 75.34780 89.79483 82.57131
# Shear Modulus (GPa) = 30.49289 33.53525 32.01407
#
# Velocity S-wave (km/s) = 3.96278 4.15577 4.06042
# Velocity P-wave (km/s) = 7.72928 8.32292 8.03159
#
# Compressibility (1/GPa) = 0.01327179
#
# Stress axis : x y z
#
# Youngs Moduli (GPa) = 60.58265 93.44964 55.19436
#
# Poissons Ratio (x) = 0.68359 0.35904
# Poissons Ratio (y) = 0.44317 0.12179
# Poissons Ratio (z) = 0.39409 0.20621
#
# Static dielectric constant tensor:
#      x y z
#    x 1.652670 0.000000 0.000000 
#    y 0.000000 1.670210 0.000000 
#    z 0.000000 0.000000 1.708350 
# 
# From -- ./inp_files/4950.got.cif
#   From: 2010.05.17/outbox.cif.g08.bks.cpg/sg35_3_cif.got.tgz:4950.got - 2010.06.03 17:29:28.
