data_PCOD9349602
_publ_section_title
;
Structure prediction by ZEFSAII (Michael W. Deem and Ramdas Pophale) SiO2 
 PCOD9349602
Probable space group: C M M 2
;
_chemical_formula_sum "Si O2"
_cell_formula_units_Z 58
_cell_length_a 14.508521
_cell_length_b 17.975988
_cell_length_c 12.338463
_cell_angle_alpha 90.000000
_cell_angle_beta 90.000000
_cell_angle_gamma 90.000000
_cell_volume 3217.932835
_symmetry_space_group_name_H-M "C M M 2"
_symmetry_group_IT_number 35
_symmetry_cell_setting 'orthorhombic'
loop_
_space_group_symop_operation_xyz
x,y,z
-x,-y,z
-x,y,z
x,-y,z
1/2+x,1/2+y,z
1/2-x,1/2-y,z
1/2-x,1/2+y,z
1/2+x,1/2-y,z
loop_
_atom_site_type_symbol
_atom_site_label
_atom_site_fract_x
_atom_site_fract_y
_atom_site_fract_z
Si Si1 0.107139 0.588733 0.793670
Si Si2 0.110609 0.913442 0.822546
Si Si3 0.000000 0.000000 0.421354
Si Si4 0.739685 0.662227 0.650781
Si Si5 0.806437 0.918639 0.435949
Si Si6 0.389936 0.148053 0.031591
Si Si7 0.758980 0.912508 0.191240
Si Si8 0.390401 0.323290 0.039789
O O1 0.114451 0.500000 0.789308
O O2 0.169515 0.624992 0.701936
O O3 0.000000 0.610128 0.780852
O O4 0.136135 0.615268 0.914038
O O5 0.157464 0.872744 0.722260
O O6 0.000000 0.912720 0.811124
O O7 0.139947 0.000000 0.829285
O O8 0.134511 0.867980 0.930728
O O9 0.916105 0.063910 0.422842
O O10 0.750000 0.750000 0.663776
O O11 0.718970 0.639516 0.527800
O O12 0.762638 0.900065 0.319769
O O13 0.768453 0.000000 0.471677
O O14 0.500000 0.138158 0.044649
O O15 0.333937 0.109204 0.127893
O O16 0.368777 0.236069 0.030925
O O17 0.837151 0.862335 0.136622
O O18 0.778845 0.000000 0.173860
O O19 0.500000 0.330380 0.054368
#
# Coordination Sequence:
#
# PCOD9349602 Si02
#       8
#     8   8   2   8   8   8   8   8
#     4  10  21  39  61  81 111 155 201 239 275 332
#     4  10  21  36  58  87 117 152 195 246 299 350
#     4   8  20  44  68  88 104 152 194 244 288 346
#     4  12  24  37  57  86 119 150 188 238 296 352
#     4   9  22  40  63  86 111 146 194 235 287 348
#     4  10  21  38  58  84 116 157 199 236 285 341
#     4  11  22  36  60  84 113 149 191 242 287 342
#     4  10  21  35  55  85 121 152 184 237 299 354
#
# _framework density 18.023993000000001
#
# number of rings (size 3 to 8) (size 9 to 14) (size 15 to 20)
#    0.414    1.379    0.000    4.138    1.931    4.414 
#    0.000    0.690    0.000    0.828    0.000    0.000 
#    0.000    0.000    0.000    0.000    0.000    0.000 
#
# Total GULP energy -161616.676136 kJ/mol
# GULP energy per Si atom -5572.988832 kJ/mol
# Density = 1.798297 g / cm^3
# Si number density = 18.023993 Si / 1000 Ang^3
#
#
#
# Elastic Constant Matrix: (Units=GPa)
#
#
# Indices 1 2 3 4 5 6 
#
# 1 69.6889 13.6641 27.2293 0.0000 0.0000 0.0000
# 2 13.6641 63.9493 25.0950 0.0000 0.0000 0.0000
# 3 27.2293 25.0950 55.7620 0.0000 0.0000 0.0000
# 4 0.0000 0.0000 0.0000 255.3741 0.0000 0.0000
# 5 0.0000 0.0000 0.0000 0.0000 36.9349 0.0000
# 6 0.0000 0.0000 0.0000 0.0000 0.0000 28.7106
#
#
#
# Elastic Compliance Matrix: (Units=1/GPa)
#
#
# Indices 1 2 3 4 5 6 
#
# 1 0.017745 -0.000475 -0.008451 0.000000 0.000000 0.000000
# 2 -0.000475 0.019004 -0.008321 0.000000 0.000000 0.000000
# 3 -0.008451 -0.008321 0.025805 0.000000 0.000000 0.000000
# 4 0.000000 0.000000 0.000000 0.003916 0.000000 0.000000
# 5 0.000000 0.000000 0.000000 0.000000 0.027075 0.000000
# 6 0.000000 0.000000 0.000000 0.000000 0.000000 0.034830
#
#
# Mechanical properties :
#
#
# Convention : Reuss Voigt Hill
#
# Bulk Modulus (GPa) = 35.63805 35.70854 35.67329
# Shear Modulus (GPa) = 29.03244 72.43138 50.73191
#
# Velocity S-wave (km/s) = 4.01779 6.34613 5.31112
# Velocity P-wave (km/s) = 6.42954 8.57627 7.57930
#
# Compressibility (1/GPa) = 0.02805990
#
# Stress axis : x y z
#
# Youngs Moduli (GPa) = 56.35476 52.62035 38.75267
#
# Poissons Ratio (x) = 0.02500 0.32750
# Poissons Ratio (y) = 0.02678 0.32244
# Poissons Ratio (z) = 0.47626 0.43783
#
# Static dielectric constant tensor:
#      x y z
#    x 1.636280 0.000000 0.000000 
#    y 0.000000 1.587230 0.000000 
#    z 0.000000 0.000000 1.610700 
# 
# From -- ./inp_files/13112.got.cif
#   From: 2010.05.17/outbox.cif.g08.bks.cpg/sg35_7_cif.got.tgz:13112.got - 2010.06.03 17:29:28.
