data_PCOD9349779
_publ_section_title
;
Structure prediction by ZEFSAII (Michael W. Deem and Ramdas Pophale) SiO2 
 PCOD9349779
Probable space group: C M M 2
;
_chemical_formula_sum "Si O2"
_cell_formula_units_Z 32
_cell_length_a 11.996752
_cell_length_b 13.717128
_cell_length_c 7.692254
_cell_angle_alpha 90.000000
_cell_angle_beta 90.000000
_cell_angle_gamma 90.000000
_cell_volume 1265.844878
_symmetry_space_group_name_H-M "C M M 2"
_symmetry_group_IT_number 35
_symmetry_cell_setting 'orthorhombic'
loop_
_space_group_symop_operation_xyz
x,y,z
-x,-y,z
-x,y,z
x,-y,z
1/2+x,1/2+y,z
1/2-x,1/2-y,z
1/2-x,1/2+y,z
1/2+x,1/2-y,z
loop_
_atom_site_type_symbol
_atom_site_label
_atom_site_fract_x
_atom_site_fract_y
_atom_site_fract_z
Si Si1 0.882930 0.824046 0.196210
Si Si2 0.374917 0.384441 0.794845
Si Si3 0.343208 0.108681 0.301953
Si Si4 0.877809 0.612976 0.706651
O O1 0.788840 0.876463 0.305661
O O2 0.875779 0.705930 0.197151
O O3 0.000000 0.851462 0.274666
O O4 0.876218 0.860443 0.999854
O O5 0.500000 0.352618 0.727606
O O6 0.373554 0.500000 0.766351
O O7 0.248880 0.350573 0.742667
O O8 0.384902 0.116914 0.497629
O O9 0.370171 0.000000 0.234270
O O10 0.875565 0.500000 0.761951
O O11 0.000000 0.650232 0.774140
#
# Coordination Sequence:
#
# PCOD9349779 Si02
#       4
#     8   8   8   8
#     4  10  21  38  61  90 125 166 210 255 310 376
#     4   9  18  35  61  93 127 164 210 262 313 370
#     4  10  21  38  62  92 126 163 205 257 316 376
#     4   9  18  35  61  92 125 163 208 259 315 373
#
# _framework density 25.279558000000002
#
# number of rings (size 3 to 8) (size 9 to 14) (size 15 to 20)
#    0.000    2.500    0.000    1.500    0.000    4.000 
#    0.000   13.750    0.000   24.000    0.000    1.750 
#    0.000    2.000    0.000    0.000    0.000    0.000 
#
# Total GULP energy -89141.799255 kJ/mol
# GULP energy per Si atom -5571.362453 kJ/mol
# Density = 2.522202 g / cm^3
# Si number density = 25.279558 Si / 1000 Ang^3
#
#
#
# Elastic Constant Matrix: (Units=GPa)
#
#
# Indices 1 2 3 4 5 6 
#
# 1 321.7500 30.8789 33.6122 0.0000 0.0000 0.0000
# 2 30.8789 143.2337 -7.5498 0.0000 0.0000 0.0000
# 3 33.6122 -7.5498 27.6710 0.0000 0.0000 0.0000
# 4 0.0000 0.0000 0.0000 98.4018 0.0000 0.0000
# 5 0.0000 0.0000 0.0000 0.0000 100.1330 0.0000
# 6 0.0000 0.0000 0.0000 0.0000 0.0000 -78.1148
#
#
#
# Elastic Compliance Matrix: (Units=1/GPa)
#
#
# Indices 1 2 3 4 5 6 
#
# 1 0.003710 -0.001052 -0.004793 0.000000 0.000000 0.000000
# 2 -0.001052 0.007382 0.003293 0.000000 0.000000 0.000000
# 3 -0.004793 0.003293 0.042860 0.000000 0.000000 0.000000
# 4 0.000000 0.000000 0.000000 0.010162 0.000000 0.000000
# 5 0.000000 0.000000 0.000000 0.000000 0.009987 0.000000
# 6 0.000000 0.000000 0.000000 0.000000 0.000000 -0.012802
#
#
# Mechanical properties :
#
#
# Convention : Reuss Voigt Hill
#
# Bulk Modulus (GPa) = 20.47293 67.39304 43.93299
# Shear Modulus (GPa) = 60.46863 53.13154 56.80009
#
# Velocity S-wave (km/s) = 4.89611 4.58947 4.74527
# Velocity P-wave (km/s) = 6.33078 7.40279 6.88767
#
# Compressibility (1/GPa) = 0.04884499
#
# Stress axis : x y z
#
# Youngs Moduli (GPa) = 269.55927 135.46414 23.33184
#
# Poissons Ratio (x) = 0.14257 0.11184
# Poissons Ratio (y) = 0.28369 -0.07682
# Poissons Ratio (z) = 1.29211 -0.44602
#
# Static dielectric constant tensor:
#      x y z
#    x 2.058840 0.000000 0.000000 
#    y 0.000000 1.893780 0.000000 
#    z 0.000000 0.000000 1.908160 
# 
# From -- ./inp_files/5585.got.cif
#   From: 2010.05.17/outbox.cif.g08.bks.cpg/sg35_3_cif.got.tgz:5585.got - 2010.06.03 17:29:28.
