data_PCOD9349087
_publ_section_title
;
Structure prediction by ZEFSAII (Michael W. Deem and Ramdas Pophale) SiO2 
 PCOD9349087
Probable space group: C M M 2
;
_chemical_formula_sum "Si O2"
_cell_formula_units_Z 48
_cell_length_a 28.825930
_cell_length_b 8.742395
_cell_length_c 10.495728
_cell_angle_alpha 90.000000
_cell_angle_beta 90.000000
_cell_angle_gamma 90.000000
_cell_volume 2645.003919
_symmetry_space_group_name_H-M "C M M 2"
_symmetry_group_IT_number 35
_symmetry_cell_setting 'orthorhombic'
loop_
_space_group_symop_operation_xyz
x,y,z
-x,-y,z
-x,y,z
x,-y,z
1/2+x,1/2+y,z
1/2-x,1/2-y,z
1/2-x,1/2+y,z
1/2+x,1/2-y,z
loop_
_atom_site_type_symbol
_atom_site_label
_atom_site_fract_x
_atom_site_fract_y
_atom_site_fract_z
Si Si1 0.198067 0.817599 0.211530
Si Si2 0.698735 0.816186 0.716085
Si Si3 0.643723 0.816407 0.970570
Si Si4 0.446664 0.682764 0.864541
Si Si5 0.646345 0.815419 0.455563
Si Si6 0.052716 0.316196 0.582267
O O1 0.250000 0.750000 0.214576
O O2 0.170058 0.764022 0.336206
O O3 0.200935 0.000000 0.206933
O O4 0.170701 0.755184 0.088869
O O5 0.750000 0.750000 0.721069
O O6 0.669653 0.768866 0.839956
O O7 0.673474 0.772843 0.585043
O O8 0.701051 0.000000 0.717959
O O9 0.591121 0.759543 0.955257
O O10 0.644794 0.000000 0.980111
O O11 0.500000 0.722843 0.896516
O O12 0.441880 0.500000 0.868564
O O13 0.438664 0.740213 0.719641
O O14 0.592692 0.774225 0.482526
O O15 0.649303 0.000000 0.439464
O O16 0.055876 0.500000 0.600959
O O17 0.000000 0.279117 0.542784
#
# Coordination Sequence:
#
# PCOD9349087 Si02
#       6
#     8   8   8   8   8   8
#     4  12  26  43  61  85 116 159 201 243 300 359
#     4  10  21  35  55  84 113 144 189 242 293 344
#     4  11  22  40  62  86 115 155 201 246 294 351
#     4  10  20  34  56  89 125 157 192 239 296 353
#     4  10  20  38  59  86 118 153 197 244 291 350
#     4   9  17  33  59  88 119 155 195 240 291 349
#
# _framework density 18.147421000000001
#
# number of rings (size 3 to 8) (size 9 to 14) (size 15 to 20)
#    0.000    1.667    1.667    3.500    0.000    6.333 
#    0.000    0.833    0.000    3.000    0.000    0.000 
#    0.000    0.000    0.000    0.000    0.000    0.000 
#
# Total GULP energy -134074.956224 kJ/mol
# GULP energy per Si atom -5586.456509 kJ/mol
# Density = 1.810612 g / cm^3
# Si number density = 18.147421 Si / 1000 Ang^3
#
#
#
# Elastic Constant Matrix: (Units=GPa)
#
#
# Indices 1 2 3 4 5 6 
#
# 1 177.2837 66.0259 90.5488 0.0000 0.0000 0.0000
# 2 66.0259 64.3106 58.3100 0.0000 0.0000 0.0000
# 3 90.5488 58.3100 141.2366 0.0000 0.0000 0.0000
# 4 0.0000 0.0000 0.0000 25.2500 0.0000 0.0000
# 5 0.0000 0.0000 0.0000 0.0000 31.9672 0.0000
# 6 0.0000 0.0000 0.0000 0.0000 0.0000 27.9712
#
#
#
# Elastic Compliance Matrix: (Units=1/GPa)
#
#
# Indices 1 2 3 4 5 6 
#
# 1 0.010117 -0.007202 -0.003513 0.000000 0.000000 0.000000
# 2 -0.007202 0.029979 -0.007760 0.000000 0.000000 0.000000
# 3 -0.003513 -0.007760 0.012536 0.000000 0.000000 0.000000
# 4 0.000000 0.000000 0.000000 0.039604 0.000000 0.000000
# 5 0.000000 0.000000 0.000000 0.000000 0.031282 0.000000
# 6 0.000000 0.000000 0.000000 0.000000 0.000000 0.035751
#
#
# Mechanical properties :
#
#
# Convention : Reuss Voigt Hill
#
# Bulk Modulus (GPa) = 63.76184 90.28890 77.02537
# Shear Modulus (GPa) = 24.82048 28.23408 26.52728
#
# Velocity S-wave (km/s) = 3.70227 3.94866 3.82745
# Velocity P-wave (km/s) = 7.31352 8.40537 7.87838
#
# Compressibility (1/GPa) = 0.01568336
#
# Stress axis : x y z
#
# Youngs Moduli (GPa) = 98.84266 33.35645 79.76903
#
# Poissons Ratio (x) = 0.24023 0.28022
# Poissons Ratio (y) = 0.71184 0.61900
# Poissons Ratio (z) = 0.34723 0.25884
#
# Static dielectric constant tensor:
#      x y z
#    x 1.629100 0.000000 0.000000 
#    y 0.000000 1.609060 0.000000 
#    z 0.000000 0.000000 1.590460 
# 
# From -- ./inp_files/5296.got.cif
#   From: 2010.05.17/outbox.cif.g08.bks.cpg/sg35_3_cif.got.tgz:5296.got - 2010.06.03 17:29:28.
