data_PCOD9349493
_publ_section_title
;
Structure prediction by ZEFSAII (Michael W. Deem and Ramdas Pophale) SiO2 
 PCOD9349493
Probable space group: C M M 2
;
_chemical_formula_sum "Si O2"
_cell_formula_units_Z 48
_cell_length_a 7.941955
_cell_length_b 17.707000
_cell_length_c 18.121317
_cell_angle_alpha 90.000000
_cell_angle_beta 90.000000
_cell_angle_gamma 90.000000
_cell_volume 2548.368140
_symmetry_space_group_name_H-M "C M M 2"
_symmetry_group_IT_number 35
_symmetry_cell_setting 'orthorhombic'
loop_
_space_group_symop_operation_xyz
x,y,z
-x,-y,z
-x,y,z
x,-y,z
1/2+x,1/2+y,z
1/2-x,1/2-y,z
1/2-x,1/2+y,z
1/2+x,1/2-y,z
loop_
_atom_site_type_symbol
_atom_site_label
_atom_site_fract_x
_atom_site_fract_y
_atom_site_fract_z
Si Si1 0.199605 0.161673 0.973510
Si Si2 0.695927 0.837060 0.816133
Si Si3 0.500000 0.090581 0.233797
Si Si4 0.804891 0.092456 0.508418
Si Si5 0.199370 0.083928 0.668342
Si Si6 0.203492 0.839171 0.138076
Si Si7 0.000000 0.591978 0.404149
O O1 0.250000 0.250000 0.974790
O O2 0.268093 0.128289 0.897069
O O3 0.000000 0.157943 0.968008
O O4 0.245562 0.132072 0.054637
O O5 0.500000 0.840800 0.803279
O O6 0.750000 0.750000 0.819887
O O7 0.778071 0.873530 0.744690
O O8 0.669373 0.120404 0.193925
O O9 0.500000 0.115835 0.319168
O O10 0.500000 0.000000 0.231404
O O11 0.743095 0.117989 0.590085
O O12 0.668900 0.115928 0.447555
O O13 0.000000 0.115281 0.494397
O O14 0.805210 0.000000 0.511169
O O15 0.000000 0.077123 0.656623
O O16 0.273695 0.000000 0.676446
O O17 0.250000 0.750000 0.140329
O O18 0.000000 0.847799 0.150058
O O19 0.000000 0.500000 0.404940
#
# Coordination Sequence:
#
# PCOD9349493 Si02
#       7
#     8   8   4   8   8   8   4
#     4   9  17  30  52  78 103 135 187 232 265 315
#     4  11  21  31  49  76 106 142 179 225 268 317
#     4  11  24  38  58  93 128 150 184 249 309 348
#     4   8  15  29  51  76 102 137 182 227 268 324
#     4   9  18  33  52  75 104 137 177 226 272 317
#     4  10  20  37  64  89 112 155 202 241 284 353
#     4   9  18  32  52  79 111 144 178 225 282 340
#
# _framework density 18.835584000000001
#
# number of rings (size 3 to 8) (size 9 to 14) (size 15 to 20)
#    0.000    2.500    0.833    4.000    3.500    1.333 
#    0.000    2.500    0.000    2.000    0.000    0.000 
#    0.000    0.000    0.000    0.000    0.000    0.000 
#
# Total GULP energy -133634.923987 kJ/mol
# GULP energy per Si atom -5568.121833 kJ/mol
# Density = 1.879271 g / cm^3
# Si number density = 18.835584 Si / 1000 Ang^3
#
#
#
# Elastic Constant Matrix: (Units=GPa)
#
#
# Indices 1 2 3 4 5 6 
#
# 1 88.9851 12.0300 69.6237 0.0000 0.0000 0.0000
# 2 12.0300 18.0814 31.8146 0.0000 0.0000 0.0000
# 3 69.6237 31.8146 188.2991 0.0000 0.0000 0.0000
# 4 0.0000 0.0000 0.0000 28.6905 0.0000 0.0000
# 5 0.0000 0.0000 0.0000 0.0000 42.2762 0.0000
# 6 0.0000 0.0000 0.0000 0.0000 0.0000 14.9579
#
#
#
# Elastic Compliance Matrix: (Units=1/GPa)
#
#
# Indices 1 2 3 4 5 6 
#
# 1 0.015814 -0.000332 -0.005791 0.000000 0.000000 0.000000
# 2 -0.000332 0.078709 -0.013176 0.000000 0.000000 0.000000
# 3 -0.005791 -0.013176 0.009678 0.000000 0.000000 0.000000
# 4 0.000000 0.000000 0.000000 0.034855 0.000000 0.000000
# 5 0.000000 0.000000 0.000000 0.000000 0.023654 0.000000
# 6 0.000000 0.000000 0.000000 0.000000 0.000000 0.066854
#
#
# Mechanical properties :
#
#
# Convention : Reuss Voigt Hill
#
# Bulk Modulus (GPa) = 15.24304 58.03358 36.63831
# Shear Modulus (GPa) = 17.23964 29.31142 23.27553
#
# Velocity S-wave (km/s) = 3.02862 3.94912 3.51910
# Velocity P-wave (km/s) = 4.51003 7.18829 6.00049
#
# Compressibility (1/GPa) = 0.06560371
#
# Stress axis : x y z
#
# Youngs Moduli (GPa) = 63.23614 12.70499 103.32581
#
# Poissons Ratio (x) = 0.00421 0.59837
# Poissons Ratio (y) = 0.02098 1.36141
# Poissons Ratio (z) = 0.36621 0.16740
#
# Static dielectric constant tensor:
#      x y z
#    x 1.643770 0.000000 0.000000 
#    y 0.000000 1.642120 0.000000 
#    z 0.000000 0.000000 1.709230 
# 
# From -- ./inp_files/17852.got.cif
#   From: 2010.05.17/outbox.cif.g08.bks.cpg/sg35_9_cif.got.tgz:17852.got - 2010.06.03 17:29:28.
