data_PCOD9349332
_publ_section_title
;
Structure prediction by ZEFSAII (Michael W. Deem and Ramdas Pophale) SiO2 
 PCOD9349332
Probable space group: C M M 2
;
_chemical_formula_sum "Si O2"
_cell_formula_units_Z 48
_cell_length_a 10.306305
_cell_length_b 29.222443
_cell_length_c 8.524642
_cell_angle_alpha 90.000000
_cell_angle_beta 90.000000
_cell_angle_gamma 90.000000
_cell_volume 2567.412553
_symmetry_space_group_name_H-M "C M M 2"
_symmetry_group_IT_number 35
_symmetry_cell_setting 'orthorhombic'
loop_
_space_group_symop_operation_xyz
x,y,z
-x,-y,z
-x,y,z
x,-y,z
1/2+x,1/2+y,z
1/2-x,1/2-y,z
1/2-x,1/2+y,z
1/2+x,1/2-y,z
loop_
_atom_site_type_symbol
_atom_site_label
_atom_site_fract_x
_atom_site_fract_y
_atom_site_fract_z
Si Si1 0.000000 0.310899 0.417241
Si Si2 0.849174 0.949979 0.472457
Si Si3 0.500000 0.310096 0.936770
Si Si4 0.500000 0.290989 0.302807
Si Si5 0.759447 0.352947 0.815319
Si Si6 0.500000 0.790161 0.790596
Si Si7 0.772438 0.852384 0.436654
Si Si8 0.348373 0.050289 0.765772
O O1 0.000000 0.262817 0.330983
O O2 0.128959 0.339367 0.382227
O O3 0.000000 0.297809 0.602646
O O4 0.816250 0.903063 0.383750
O O5 0.747717 0.950877 0.616431
O O6 0.000000 0.946153 0.525826
O O7 0.837494 0.000000 0.392671
O O8 0.627422 0.338649 0.895836
O O9 0.500000 0.262727 0.838119
O O10 0.500000 0.299144 0.118908
O O11 0.374895 0.314990 0.379828
O O12 0.872008 0.316313 0.850271
O O13 0.733214 0.352067 0.626991
O O14 0.807762 0.403983 0.856555
O O15 0.500000 0.055763 0.718027
O O16 0.336944 0.000000 0.843028
#
# Coordination Sequence:
#
# PCOD9349332 Si02
#       8
#     4   8   4   4   8   4   8   8
#     4  10  22  36  59  83 109 140 188 229 277 334
#     4   9  17  29  51  85 117 146 175 216 273 327
#     4  12  26  36  55  78 113 146 190 232 275 328
#     4  12  24  40  53  78 107 150 192 232 277 322
#     4  10  20  36  57  85 111 146 179 223 277 331
#     4  10  20  38  57  83 109 142 182 225 279 334
#     4  10  20  36  59  82 111 144 183 227 275 330
#     4   9  17  30  53  86 118 143 175 224 277 327
#
# _framework density 18.695865000000001
#
# number of rings (size 3 to 8) (size 9 to 14) (size 15 to 20)
#    0.000    2.000    1.667    2.500    7.000    5.333 
#    0.000    0.000    0.000    2.000    0.000    0.000 
#    0.000    0.000    0.000    0.000    0.000    0.000 
#
# Total GULP energy -133822.494614 kJ/mol
# GULP energy per Si atom -5575.937276 kJ/mol
# Density = 1.865331 g / cm^3
# Si number density = 18.695865 Si / 1000 Ang^3
#
#
#
# Elastic Constant Matrix: (Units=GPa)
#
#
# Indices 1 2 3 4 5 6 
#
# 1 173.1740 75.1627 26.3277 0.0000 0.0000 0.0000
# 2 75.1627 143.6956 19.7505 0.0000 0.0000 0.0000
# 3 26.3277 19.7505 11.3671 0.0000 0.0000 0.0000
# 4 0.0000 0.0000 0.0000 -3.9012 0.0000 0.0000
# 5 0.0000 0.0000 0.0000 0.0000 -20.2797 0.0000
# 6 0.0000 0.0000 0.0000 0.0000 0.0000 37.5408
#
#
#
# Elastic Compliance Matrix: (Units=1/GPa)
#
#
# Indices 1 2 3 4 5 6 
#
# 1 0.009589 -0.002579 -0.017729 0.000000 0.000000 0.000000
# 2 -0.002579 0.009836 -0.011117 0.000000 0.000000 0.000000
# 3 -0.017729 -0.011117 0.148352 0.000000 0.000000 0.000000
# 4 0.000000 0.000000 0.000000 -0.256329 0.000000 0.000000
# 5 0.000000 0.000000 0.000000 0.000000 -0.049310 0.000000
# 6 0.000000 0.000000 0.000000 0.000000 0.000000 0.026638
#
#
# Mechanical properties :
#
#
# Convention : Reuss Voigt Hill
#
# Bulk Modulus (GPa) = 9.53040 63.41314 36.47177
# Shear Modulus (GPa) = -373.16951 16.47170 -178.34891
#
# Velocity S-wave (km/s) = -14.14331 2.97144 -9.77762
# Velocity P-wave (km/s) = 16.17413 6.76495 10.38841
#
# Compressibility (1/GPa) = 0.10492743
#
# Stress axis : x y z
#
# Youngs Moduli (GPa) = 104.28346 101.66540 6.74073
#
# Poissons Ratio (x) = 0.26220 0.11951
# Poissons Ratio (y) = 0.26895 0.07494
# Poissons Ratio (z) = 1.84882 1.13022
#
# Static dielectric constant tensor:
#      x y z
#    x 1.635680 0.000000 0.000000 
#    y 0.000000 1.689610 0.000000 
#    z 0.000000 0.000000 1.610330 
# 
# From -- ./inp_files/5457.got.cif
#   From: 2010.05.17/outbox.cif.g08.bks.cpg/sg35_3_cif.got.tgz:5457.got - 2010.06.03 17:29:28.
