data_PCOD9349130
_publ_section_title
;
Structure prediction by ZEFSAII (Michael W. Deem and Ramdas Pophale) SiO2 
 PCOD9349130
Probable space group: C M M 2
;
_chemical_formula_sum "Si O2"
_cell_formula_units_Z 48
_cell_length_a 18.523446
_cell_length_b 8.873177
_cell_length_c 16.248242
_cell_angle_alpha 90.000000
_cell_angle_beta 90.000000
_cell_angle_gamma 90.000000
_cell_volume 2670.590546
_symmetry_space_group_name_H-M "C M M 2"
_symmetry_group_IT_number 35
_symmetry_cell_setting 'orthorhombic'
loop_
_space_group_symop_operation_xyz
x,y,z
-x,-y,z
-x,y,z
x,-y,z
1/2+x,1/2+y,z
1/2-x,1/2-y,z
1/2-x,1/2+y,z
1/2+x,1/2-y,z
loop_
_atom_site_type_symbol
_atom_site_label
_atom_site_fract_x
_atom_site_fract_y
_atom_site_fract_z
Si Si1 0.170264 0.818460 0.675370
Si Si2 0.330157 0.820668 0.328162
Si Si3 0.913094 0.175831 0.178189
Si Si4 0.085266 0.819445 0.837315
Si Si5 0.169190 0.181035 0.494679
Si Si6 0.087888 0.326271 0.007637
O O1 0.250000 0.750000 0.680323
O O2 0.124738 0.769061 0.754244
O O3 0.137743 0.782076 0.584975
O O4 0.175854 0.000000 0.678007
O O5 0.250000 0.750000 0.319703
O O6 0.376231 0.771362 0.249712
O O7 0.363597 0.753181 0.412625
O O8 0.324520 0.000000 0.334665
O O9 0.889771 0.233264 0.088015
O O10 0.000000 0.191212 0.182888
O O11 0.894987 0.000000 0.188386
O O12 0.000000 0.788355 0.829449
O O13 0.093627 0.000000 0.845701
O O14 0.112575 0.742032 0.920820
O O15 0.250000 0.250000 0.497494
O O16 0.172299 0.000000 0.485742
O O17 0.109460 0.500000 0.015716
O O18 0.000000 0.320545 0.005983
#
# Coordination Sequence:
#
# PCOD9349130 Si02
#       6
#     8   8   8   8   8   8
#     4   9  18  31  49  72  97 127 163 203 244 288
#     4  11  21  34  53  76 103 133 167 207 250 297
#     4  10  20  35  55  77 101 131 167 206 249 298
#     4   9  17  31  50  71  96 127 163 201 242 290
#     4   9  16  29  48  70  96 128 167 203 241 292
#     4   9  17  30  49  73  99 128 163 201 243 293
#
# _framework density 17.973554
#
# number of rings (size 3 to 8) (size 9 to 14) (size 15 to 20)
#    0.000    2.500    0.000    4.000    0.000    4.333 
#    0.000    1.667    0.000    5.000    0.000    0.000 
#    0.000    0.000    0.000    0.000    0.000    0.000 
#
# Total GULP energy -133777.319488 kJ/mol
# GULP energy per Si atom -5574.054979 kJ/mol
# Density = 1.793264 g / cm^3
# Si number density = 17.973554 Si / 1000 Ang^3
#
#
#
# Elastic Constant Matrix: (Units=GPa)
#
#
# Indices 1 2 3 4 5 6 
#
# 1 12.2412 21.8398 30.1837 0.0000 0.0000 0.0000
# 2 21.8398 92.8094 66.2127 0.0000 0.0000 0.0000
# 3 30.1837 66.2127 179.2751 0.0000 0.0000 0.0000
# 4 0.0000 0.0000 0.0000 30.5632 0.0000 0.0000
# 5 0.0000 0.0000 0.0000 0.0000 29.5340 0.0000
# 6 0.0000 0.0000 0.0000 0.0000 0.0000 18.1191
#
#
#
# Elastic Compliance Matrix: (Units=1/GPa)
#
#
# Indices 1 2 3 4 5 6 
#
# 1 0.182254 -0.028508 -0.020156 0.000000 0.000000 0.000000
# 2 -0.028508 0.019089 -0.002250 0.000000 0.000000 0.000000
# 3 -0.020156 -0.002250 0.009803 0.000000 0.000000 0.000000
# 4 0.000000 0.000000 0.000000 0.032719 0.000000 0.000000
# 5 0.000000 0.000000 0.000000 0.000000 0.033859 0.000000
# 6 0.000000 0.000000 0.000000 0.000000 0.000000 0.055190
#
#
# Mechanical properties :
#
#
# Convention : Reuss Voigt Hill
#
# Bulk Modulus (GPa) = 9.14778 57.86643 33.50710
# Shear Modulus (GPa) = 10.61163 26.71589 18.66376
#
# Velocity S-wave (km/s) = 2.43246 3.85957 3.22592
# Velocity P-wave (km/s) = 3.60413 7.21990 5.70599
#
# Compressibility (1/GPa) = 0.10931619
#
# Stress axis : x y z
#
# Youngs Moduli (GPa) = 5.48686 52.38695 102.01190
#
# Poissons Ratio (x) = 1.49344 2.05617
# Poissons Ratio (y) = 0.15642 0.22957
# Poissons Ratio (z) = 0.11059 0.11789
#
# Static dielectric constant tensor:
#      x y z
#    x 1.596200 0.000000 0.000000 
#    y 0.000000 1.602340 0.000000 
#    z 0.000000 0.000000 1.648030 
# 
# From -- ./inp_files/11380.got.cif
#   From: 2010.05.17/outbox.cif.g08.bks.cpg/sg35_6_cif.got.tgz:11380.got - 2010.06.03 17:29:28.
