data_PCOD9349844
_publ_section_title
;
Structure prediction by ZEFSAII (Michael W. Deem and Ramdas Pophale) SiO2 
 PCOD9349844
Probable space group: C M M 2
;
_chemical_formula_sum "Si O2"
_cell_formula_units_Z 56
_cell_length_a 9.137636
_cell_length_b 20.873956
_cell_length_c 14.838874
_cell_angle_alpha 90.000000
_cell_angle_beta 90.000000
_cell_angle_gamma 90.000000
_cell_volume 2830.346228
_symmetry_space_group_name_H-M "C M M 2"
_symmetry_group_IT_number 35
_symmetry_cell_setting 'orthorhombic'
loop_
_space_group_symop_operation_xyz
x,y,z
-x,-y,z
-x,y,z
x,-y,z
1/2+x,1/2+y,z
1/2-x,1/2-y,z
1/2-x,1/2+y,z
1/2+x,1/2-y,z
loop_
_atom_site_type_symbol
_atom_site_label
_atom_site_fract_x
_atom_site_fract_y
_atom_site_fract_z
Si Si1 0.677099 0.000000 0.062030
Si Si2 0.322949 0.574565 0.651097
Si Si3 0.676854 0.682185 0.799809
Si Si4 0.837422 0.115165 0.334545
Si Si5 0.323858 0.137040 0.984189
Si Si6 0.829142 0.500000 0.270449
Si Si7 0.834861 0.192368 0.155557
Si Si8 0.173762 0.816328 0.513613
O O1 0.500000 0.000000 0.066525
O O2 0.731763 0.000000 0.166378
O O3 0.718044 0.936477 0.007119
O O4 0.500000 0.570287 0.648027
O O5 0.269977 0.500000 0.653846
O O6 0.287671 0.621202 0.735684
O O7 0.277082 0.619466 0.566802
O O8 0.500000 0.689383 0.802565
O O9 0.750000 0.750000 0.770836
O O10 0.743414 0.664596 0.897061
O O11 0.720940 0.059990 0.328444
O O12 0.843484 0.139888 0.232605
O O13 0.803250 0.168806 0.408098
O O14 0.000000 0.090241 0.358813
O O15 0.500000 0.142096 0.975517
O O16 0.264494 0.173846 0.071428
O O17 0.000000 0.500000 0.258755
O O18 0.750000 0.250000 0.201757
O O19 0.000000 0.207997 0.126623
O O20 0.250000 0.750000 0.540154
O O21 0.000000 0.809098 0.530411
#
# Coordination Sequence:
#
# PCOD9349844 Si02
#       8
#     4   8   8   8   8   4   8   8
#     4   9  20  37  57  82 113 154 196 241 299 353
#     4   9  20  39  64  93 122 156 198 245 299 361
#     4  11  23  40  63  91 121 156 200 248 302 359
#     4  10  22  37  57  87 119 157 202 245 294 354
#     4  11  22  39  60  84 117 155 198 243 299 360
#     4  11  21  37  59  84 117 160 202 249 303 351
#     4  11  22  36  54  81 116 154 198 245 293 345
#     4  10  21  39  65  92 122 161 201 248 302 357
#
# _framework density 19.785565999999999
#
# number of rings (size 3 to 8) (size 9 to 14) (size 15 to 20)
#    0.000    1.714    1.429    2.786    2.000    1.143 
#    0.000    1.786    0.000    1.714    0.000    0.000 
#    0.000    0.000    0.000    0.000    0.000    0.000 
#
# Total GULP energy -156096.153720 kJ/mol
# GULP energy per Si atom -5574.862633 kJ/mol
# Density = 1.974053 g / cm^3
# Si number density = 19.785566 Si / 1000 Ang^3
#
#
#
# Elastic Constant Matrix: (Units=GPa)
#
#
# Indices 1 2 3 4 5 6 
#
# 1 66.4603 50.8043 26.3084 0.0000 0.0000 0.0000
# 2 50.8043 152.1302 37.2344 0.0000 0.0000 0.0000
# 3 26.3084 37.2344 94.1992 0.0000 0.0000 0.0000
# 4 0.0000 0.0000 0.0000 25.7433 0.0000 0.0000
# 5 0.0000 0.0000 0.0000 0.0000 5.0015 0.0000
# 6 0.0000 0.0000 0.0000 0.0000 0.0000 27.8324
#
#
#
# Elastic Compliance Matrix: (Units=1/GPa)
#
#
# Indices 1 2 3 4 5 6 
#
# 1 0.021172 -0.006226 -0.003452 0.000000 0.000000 0.000000
# 2 -0.006226 0.009108 -0.001861 0.000000 0.000000 0.000000
# 3 -0.003452 -0.001861 0.012316 0.000000 0.000000 0.000000
# 4 0.000000 0.000000 0.000000 0.038845 0.000000 0.000000
# 5 0.000000 0.000000 0.000000 0.000000 0.199938 0.000000
# 6 0.000000 0.000000 0.000000 0.000000 0.000000 0.035929
#
#
# Mechanical properties :
#
#
# Convention : Reuss Voigt Hill
#
# Bulk Modulus (GPa) = 51.23646 60.16489 55.70068
# Shear Modulus (GPa) = 14.41368 24.94496 19.67932
#
# Velocity S-wave (km/s) = 2.70199 3.55458 3.15720
# Velocity P-wave (km/s) = 5.97381 6.87904 6.44235
#
# Compressibility (1/GPa) = 0.01951735
#
# Stress axis : x y z
#
# Youngs Moduli (GPa) = 47.23185 109.79431 81.19686
#
# Poissons Ratio (x) = 0.68353 0.28031
# Poissons Ratio (y) = 0.29404 0.15114
# Poissons Ratio (z) = 0.16306 0.20437
#
# Static dielectric constant tensor:
#      x y z
#    x 1.685360 0.000000 0.000000 
#    y 0.000000 1.778270 0.000000 
#    z 0.000000 0.000000 1.715730 
# 
# From -- ./inp_files/15791.got.cif
#   From: 2010.05.17/outbox.cif.g08.bks.cpg/sg35_8_cif.got.tgz:15791.got - 2010.06.03 17:29:28.
