data_PCOD9349303
_publ_section_title
;
Structure prediction by ZEFSAII (Michael W. Deem and Ramdas Pophale) SiO2 
 PCOD9349303
Probable space group: C M M 2
;
_chemical_formula_sum "Si O2"
_cell_formula_units_Z 48
_cell_length_a 36.226740
_cell_length_b 8.103576
_cell_length_c 7.938577
_cell_angle_alpha 90.000000
_cell_angle_beta 90.000000
_cell_angle_gamma 90.000000
_cell_volume 2330.497414
_symmetry_space_group_name_H-M "C M M 2"
_symmetry_group_IT_number 35
_symmetry_cell_setting 'orthorhombic'
loop_
_space_group_symop_operation_xyz
x,y,z
-x,-y,z
-x,y,z
x,-y,z
1/2+x,1/2+y,z
1/2-x,1/2-y,z
1/2-x,1/2+y,z
1/2+x,1/2-y,z
loop_
_atom_site_type_symbol
_atom_site_label
_atom_site_fract_x
_atom_site_fract_y
_atom_site_fract_z
Si Si1 0.657972 0.302914 0.488830
Si Si2 0.000000 0.813848 0.018830
Si Si3 0.343114 0.802524 0.099803
Si Si4 0.292338 0.197515 0.795279
Si Si5 0.500000 0.311579 0.620947
Si Si6 0.421906 0.688819 0.523289
Si Si7 0.923571 0.306370 0.156530
O O1 0.654594 0.500000 0.486152
O O2 0.663765 0.249968 0.294209
O O3 0.689436 0.254110 0.619808
O O4 0.618387 0.236002 0.559476
O O5 0.962486 0.724042 0.070205
O O6 0.000000 0.000000 0.090675
O O7 0.000000 0.825354 0.819482
O O8 0.386036 0.763792 0.057134
O O9 0.339559 0.000000 0.099118
O O10 0.315751 0.736774 0.956129
O O11 0.250000 0.250000 0.807071
O O12 0.294136 0.000000 0.798203
O O13 0.500000 0.500000 0.546215
O O14 0.539093 0.230983 0.573298
O O15 0.422692 0.500000 0.589265
O O16 0.422639 0.694447 0.321705
O O17 0.920752 0.500000 0.204255
#
# Coordination Sequence:
#
# PCOD9349303 Si02
#       7
#     8   4   8   8   4   8   8
#     4  10  21  37  62  93 123 158 199 246 296 352
#     4  11  22  33  50  78 112 153 190 235 288 336
#     4   9  21  41  63  87 120 161 201 244 297 355
#     4  11  24  42  64  90 120 156 195 242 299 359
#     4   9  19  33  50  76 110 147 190 235 278 326
#     4   9  18  35  57  81 110 149 194 236 281 336
#     4  10  20  36  56  80 110 147 192 239 286 340
#
# _framework density 20.596461000000001
#
# number of rings (size 3 to 8) (size 9 to 14) (size 15 to 20)
#    0.000    2.167    0.000    2.250    2.333    4.000 
#    0.000    3.333    0.000    0.000    0.000    0.000 
#    0.000    0.000    0.000    0.000    0.000    0.000 
#
# Total GULP energy -133803.796915 kJ/mol
# GULP energy per Si atom -5575.158205 kJ/mol
# Density = 2.054958 g / cm^3
# Si number density = 20.596461 Si / 1000 Ang^3
#
#
#
# Elastic Constant Matrix: (Units=GPa)
#
#
# Indices 1 2 3 4 5 6 
#
# 1 191.4163 15.5322 75.2557 0.0000 0.0000 0.0000
# 2 15.5322 37.3592 4.6119 0.0000 0.0000 0.0000
# 3 75.2557 4.6119 76.2244 0.0000 0.0000 0.0000
# 4 0.0000 0.0000 0.0000 19.0111 0.0000 0.0000
# 5 0.0000 0.0000 0.0000 0.0000 39.6750 0.0000
# 6 0.0000 0.0000 0.0000 0.0000 0.0000 6.1811
#
#
#
# Elastic Compliance Matrix: (Units=1/GPa)
#
#
# Indices 1 2 3 4 5 6 
#
# 1 0.008782 -0.002600 -0.008513 0.000000 0.000000 0.000000
# 2 -0.002600 0.027739 0.000889 0.000000 0.000000 0.000000
# 3 -0.008513 0.000889 0.021470 0.000000 0.000000 0.000000
# 4 0.000000 0.000000 0.000000 0.052601 0.000000 0.000000
# 5 0.000000 0.000000 0.000000 0.000000 0.025205 0.000000
# 6 0.000000 0.000000 0.000000 0.000000 0.000000 0.161783
#
#
# Mechanical properties :
#
#
# Convention : Reuss Voigt Hill
#
# Bulk Modulus (GPa) = 26.63687 55.08882 40.86285
# Shear Modulus (GPa) = 15.12663 26.94678 21.03671
#
# Velocity S-wave (km/s) = 2.71297 3.62100 3.19936
# Velocity P-wave (km/s) = 4.77226 6.65484 5.79057
#
# Compressibility (1/GPa) = 0.03754195
#
# Stress axis : x y z
#
# Youngs Moduli (GPa) = 113.86641 36.05093 46.57561
#
# Poissons Ratio (x) = 0.09374 0.39651
# Poissons Ratio (y) = 0.29608 -0.04140
# Poissons Ratio (z) = 0.96938 -0.03205
#
# Static dielectric constant tensor:
#      x y z
#    x 1.803120 0.000000 0.000000 
#    y 0.000000 1.757700 0.000000 
#    z 0.000000 0.000000 1.702450 
# 
# From -- ./inp_files/10499.got.cif
#   From: 2010.05.17/outbox.cif.g08.bks.cpg/sg35_6_cif.got.tgz:10499.got - 2010.06.03 17:29:28.
