data_PCOD9349755
_publ_section_title
;
Structure prediction by ZEFSAII (Michael W. Deem and Ramdas Pophale) SiO2 
 PCOD9349755
Probable space group: C M M 2
;
_chemical_formula_sum "Si O2"
_cell_formula_units_Z 48
_cell_length_a 8.704867
_cell_length_b 19.204665
_cell_length_c 15.657675
_cell_angle_alpha 90.000000
_cell_angle_beta 90.000000
_cell_angle_gamma 90.000000
_cell_volume 2617.557015
_symmetry_space_group_name_H-M "C M M 2"
_symmetry_group_IT_number 35
_symmetry_cell_setting 'orthorhombic'
loop_
_space_group_symop_operation_xyz
x,y,z
-x,-y,z
-x,y,z
x,-y,z
1/2+x,1/2+y,z
1/2-x,1/2-y,z
1/2-x,1/2+y,z
1/2+x,1/2-y,z
loop_
_atom_site_type_symbol
_atom_site_label
_atom_site_fract_x
_atom_site_fract_y
_atom_site_fract_z
Si Si1 0.184840 0.581916 0.864010
Si Si2 0.183813 0.081393 0.371064
Si Si3 0.682767 0.327539 0.711512
Si Si4 0.684753 0.827470 0.217631
Si Si5 0.315964 0.081281 0.558075
Si Si6 0.813168 0.579388 0.058797
O O1 0.217337 0.500000 0.848239
O O2 0.265205 0.630505 0.795568
O O3 0.000000 0.590447 0.857261
O O4 0.231750 0.597581 0.961850
O O5 0.257059 0.129375 0.298972
O O6 0.249085 0.098177 0.464804
O O7 0.000000 0.089009 0.371256
O O8 0.220873 0.000000 0.353960
O O9 0.500000 0.324458 0.706937
O O10 0.750000 0.250000 0.713169
O O11 0.747378 0.369562 0.630333
O O12 0.500000 0.825554 0.218267
O O13 0.750000 0.750000 0.219295
O O14 0.737144 0.867867 0.131897
O O15 0.500000 0.087622 0.556751
O O16 0.278024 0.000000 0.576268
O O17 0.762931 0.500000 0.077102
O O18 0.000000 0.578610 0.059191
#
# Coordination Sequence:
#
# PCOD9349755 Si02
#       6
#     8   8   8   8   8   8
#     4   9  18  36  61  86 113 146 185 229 278 332
#     4  10  21  38  60  86 114 144 183 231 279 328
#     4  12  25  39  56  81 115 151 188 230 278 331
#     4  11  22  36  55  81 115 152 190 230 277 332
#     4  10  21  39  63  88 113 144 183 226 275 332
#     4   8  16  33  58  84 109 143 187 232 277 328
#
# _framework density 18.337710999999999
#
# number of rings (size 3 to 8) (size 9 to 14) (size 15 to 20)
#    0.000    2.000    0.000    5.000    0.000    6.333 
#    0.000    6.667    0.000    2.000    0.000    0.000 
#    0.000    0.000    0.000    0.000    0.000    0.000 
#
# Total GULP energy -134083.410957 kJ/mol
# GULP energy per Si atom -5586.808790 kJ/mol
# Density = 1.829597 g / cm^3
# Si number density = 18.337711 Si / 1000 Ang^3
#
#
#
# Elastic Constant Matrix: (Units=GPa)
#
#
# Indices 1 2 3 4 5 6 
#
# 1 72.6692 66.9517 66.7871 0.0000 0.0000 0.0000
# 2 66.9517 144.8294 138.2464 0.0000 0.0000 0.0000
# 3 66.7871 138.2464 180.8894 0.0000 0.0000 0.0000
# 4 0.0000 0.0000 0.0000 -31.9651 0.0000 0.0000
# 5 0.0000 0.0000 0.0000 0.0000 22.2933 0.0000
# 6 0.0000 0.0000 0.0000 0.0000 0.0000 21.4327
#
#
#
# Elastic Compliance Matrix: (Units=1/GPa)
#
#
# Indices 1 2 3 4 5 6 
#
# 1 0.024068 -0.009774 -0.001416 0.000000 0.000000 0.000000
# 2 -0.009774 0.029497 -0.018935 0.000000 0.000000 0.000000
# 3 -0.001416 -0.018935 0.020522 0.000000 0.000000 0.000000
# 4 0.000000 0.000000 0.000000 -0.031284 0.000000 0.000000
# 5 0.000000 0.000000 0.000000 0.000000 0.044856 0.000000
# 6 0.000000 0.000000 0.000000 0.000000 0.000000 0.046658
#
#
# Mechanical properties :
#
#
# Convention : Reuss Voigt Hill
#
# Bulk Modulus (GPa) = 72.27068 104.70649 88.48859
# Shear Modulus (GPa) = 25.10302 10.77905 17.94104
#
# Velocity S-wave (km/s) = 3.70392 2.42711 3.13128
# Velocity P-wave (km/s) = 7.60188 8.06706 7.83792
#
# Compressibility (1/GPa) = 0.01383687
#
# Stress axis : x y z
#
# Youngs Moduli (GPa) = 41.54943 33.90153 48.72811
#
# Poissons Ratio (x) = 0.33137 0.06900
# Poissons Ratio (y) = 0.40612 0.92265
# Poissons Ratio (z) = 0.05883 0.64191
#
# Static dielectric constant tensor:
#      x y z
#    x 1.616020 0.000000 0.000000 
#    y 0.000000 1.603380 0.000000 
#    z 0.000000 0.000000 1.610590 
# 
# From -- ./inp_files/15096.got.cif
#   From: 2010.05.17/outbox.cif.g08.bks.cpg/sg35_8_cif.got.tgz:15096.got - 2010.06.03 17:29:28.
