data_PCOD9349958
_publ_section_title
;
Structure prediction by ZEFSAII (Michael W. Deem and Ramdas Pophale) SiO2 
 PCOD9349958
Probable space group: C M M 2
;
_chemical_formula_sum "Si O2"
_cell_formula_units_Z 48
_cell_length_a 15.743133
_cell_length_b 8.775030
_cell_length_c 17.718451
_cell_angle_alpha 90.000000
_cell_angle_beta 90.000000
_cell_angle_gamma 90.000000
_cell_volume 2447.741360
_symmetry_space_group_name_H-M "C M M 2"
_symmetry_group_IT_number 35
_symmetry_cell_setting 'orthorhombic'
loop_
_space_group_symop_operation_xyz
x,y,z
-x,-y,z
-x,y,z
x,-y,z
1/2+x,1/2+y,z
1/2-x,1/2-y,z
1/2-x,1/2+y,z
1/2+x,1/2-y,z
loop_
_atom_site_type_symbol
_atom_site_label
_atom_site_fract_x
_atom_site_fract_y
_atom_site_fract_z
Si Si1 0.500000 0.315513 0.070140
Si Si2 0.000000 0.316113 0.237297
Si Si3 0.162433 0.682240 0.336712
Si Si4 0.654752 0.181590 0.643794
Si Si5 0.400660 0.675101 0.489217
Si Si6 0.155070 0.816534 0.964790
Si Si7 0.345459 0.317442 0.796222
O O1 0.500000 0.500000 0.070430
O O2 0.500000 0.254555 0.154684
O O3 0.585019 0.266152 0.025307
O O4 0.083216 0.271327 0.284773
O O5 0.000000 0.500000 0.231378
O O6 0.166283 0.500000 0.339260
O O7 0.250000 0.750000 0.306627
O O8 0.147866 0.745069 0.420949
O O9 0.750000 0.250000 0.639841
O O10 0.610397 0.238981 0.568107
O O11 0.614302 0.245218 0.721383
O O12 0.658232 0.000000 0.646660
O O13 0.500000 0.675360 0.469317
O O14 0.371763 0.500000 0.497703
O O15 0.250000 0.750000 0.974944
O O16 0.121357 0.780880 0.879928
O O17 0.162699 0.000000 0.968534
O O18 0.343265 0.500000 0.787462
O O19 0.250000 0.250000 0.797938
#
# Coordination Sequence:
#
# PCOD9349958 Si02
#       7
#     4   4   8   8   8   8   8
#     4  10  22  40  62  89 120 155 194 239 294 359
#     4  10  24  44  64  89 124 157 190 241 296 353
#     4  11  23  42  66  92 122 157 198 242 297 354
#     4  11  21  34  54  80 115 154 199 246 294 346
#     4  11  23  39  59  84 116 155 200 246 296 350
#     4   9  19  36  59  86 118 156 198 244 296 351
#     4   9  16  30  52  78 110 149 196 244 293 343
#
# _framework density 19.609914
#
# number of rings (size 3 to 8) (size 9 to 14) (size 15 to 20)
#    0.000    1.833    0.833    4.500    0.000    4.333 
#    1.500    3.333    0.000    0.000    0.000    0.000 
#    0.000    0.000    0.000    0.000    0.000    0.000 
#
# Total GULP energy -134027.752902 kJ/mol
# GULP energy per Si atom -5584.489704 kJ/mol
# Density = 1.956528 g / cm^3
# Si number density = 19.609914 Si / 1000 Ang^3
#
#
#
# Elastic Constant Matrix: (Units=GPa)
#
#
# Indices 1 2 3 4 5 6 
#
# 1 109.7697 38.4526 69.4972 0.0000 0.0000 0.0000
# 2 38.4526 90.8735 55.6727 0.0000 0.0000 0.0000
# 3 69.4972 55.6727 165.0569 0.0000 0.0000 0.0000
# 4 0.0000 0.0000 0.0000 -165.5436 0.0000 0.0000
# 5 0.0000 0.0000 0.0000 0.0000 12.9800 0.0000
# 6 0.0000 0.0000 0.0000 0.0000 0.0000 23.3918
#
#
#
# Elastic Compliance Matrix: (Units=1/GPa)
#
#
# Indices 1 2 3 4 5 6 
#
# 1 0.012923 -0.002691 -0.004534 0.000000 0.000000 0.000000
# 2 -0.002691 0.014431 -0.003734 0.000000 0.000000 0.000000
# 3 -0.004534 -0.003734 0.009227 0.000000 0.000000 0.000000
# 4 0.000000 0.000000 0.000000 -0.006041 0.000000 0.000000
# 5 0.000000 0.000000 0.000000 0.000000 0.077042 0.000000
# 6 0.000000 0.000000 0.000000 0.000000 0.000000 0.042750
#
#
# Mechanical properties :
#
#
# Convention : Reuss Voigt Hill
#
# Bulk Modulus (GPa) = 68.19898 76.99391 72.59644
# Shear Modulus (GPa) = 28.22675 -12.36253 7.93211
#
# Velocity S-wave (km/s) = 3.79807 -2.51355 2.01339
# Velocity P-wave (km/s) = 7.35440 5.56094 6.51963
#
# Compressibility (1/GPa) = 0.01466298
#
# Stress axis : x y z
#
# Youngs Moduli (GPa) = 77.38218 69.29636 108.37754
#
# Poissons Ratio (x) = 0.18646 0.49134
# Poissons Ratio (y) = 0.20822 0.40473
# Poissons Ratio (z) = 0.35082 0.25878
#
# Static dielectric constant tensor:
#      x y z
#    x 1.698320 0.000000 0.000000 
#    y 0.000000 1.666700 0.000000 
#    z 0.000000 0.000000 1.692030 
# 
# From -- ./inp_files/17873.got.cif
#   From: 2010.05.17/outbox.cif.g08.bks.cpg/sg35_9_cif.got.tgz:17873.got - 2010.06.03 17:29:28.
