data_PCOD9349223
_publ_section_title
;
Structure prediction by ZEFSAII (Michael W. Deem and Ramdas Pophale) SiO2 
 PCOD9349223
Probable space group: C M M 2
;
_chemical_formula_sum "Si O2"
_cell_formula_units_Z 64
_cell_length_a 28.703086
_cell_length_b 8.596996
_cell_length_c 13.456849
_cell_angle_alpha 90.000000
_cell_angle_beta 90.000000
_cell_angle_gamma 90.000000
_cell_volume 3320.616305
_symmetry_space_group_name_H-M "C M M 2"
_symmetry_group_IT_number 35
_symmetry_cell_setting 'orthorhombic'
loop_
_space_group_symop_operation_xyz
x,y,z
-x,-y,z
-x,y,z
x,-y,z
1/2+x,1/2+y,z
1/2-x,1/2-y,z
1/2-x,1/2+y,z
1/2+x,1/2-y,z
loop_
_atom_site_type_symbol
_atom_site_label
_atom_site_fract_x
_atom_site_fract_y
_atom_site_fract_z
Si Si1 0.946334 0.309822 0.183160
Si Si2 0.555796 0.314807 0.577421
Si Si3 0.697135 0.186534 0.689924
Si Si4 0.801972 0.312748 0.469207
Si Si5 0.802216 0.183976 0.897548
Si Si6 0.604986 0.812589 0.382379
Si Si7 0.055943 0.185649 0.798321
Si Si8 0.890342 0.314418 0.987791
O O1 0.946523 0.500000 0.183921
O O2 0.921549 0.256365 0.284426
O O3 0.000000 0.259187 0.179084
O O4 0.917868 0.261208 0.085798
O O5 0.500000 0.292670 0.571761
O O6 0.564638 0.500000 0.573287
O O7 0.579092 0.235645 0.483156
O O8 0.570704 0.258985 0.687710
O O9 0.750000 0.250000 0.688323
O O10 0.679725 0.230542 0.580300
O O11 0.677771 0.259824 0.790410
O O12 0.696504 0.000000 0.699532
O O13 0.798921 0.500000 0.467895
O O14 0.750000 0.250000 0.454226
O O15 0.841300 0.260176 0.392285
O O16 0.750000 0.250000 0.909932
O O17 0.839012 0.242682 0.977920
O O18 0.799286 0.000000 0.896587
O O19 0.605451 0.000000 0.378409
O O20 0.080607 0.267064 0.890211
O O21 0.000000 0.206922 0.805030
O O22 0.064968 0.000000 0.803743
O O23 0.886046 0.500000 0.990945
#
# Coordination Sequence:
#
# PCOD9349223 Si02
#       8
#     8   8   8   8   8   8   8   8
#     4   9  19  37  60  84 111 145 187 236 287 336
#     4   9  19  35  53  78 113 147 179 221 280 345
#     4   9  16  29  48  74 108 145 184 225 269 321
#     4   9  19  33  51  78 112 147 185 227 271 324
#     4  11  22  37  56  81 113 150 190 232 284 338
#     4  10  20  35  57  84 111 144 189 235 280 333
#     4   9  19  36  55  79 114 150 183 228 288 349
#     4  11  22  36  57  83 111 146 193 241 286 338
#
# _framework density 19.273530999999998
#
# number of rings (size 3 to 8) (size 9 to 14) (size 15 to 20)
#    0.000    2.375    0.000    4.125    1.750    3.000 
#    0.000    3.125    0.000    4.500    0.000    0.000 
#    0.000    0.000    0.000    0.000    0.000    0.000 
#
# Total GULP energy -178576.872928 kJ/mol
# GULP energy per Si atom -5580.527279 kJ/mol
# Density = 1.922966 g / cm^3
# Si number density = 19.273531 Si / 1000 Ang^3
#
#
#
# Elastic Constant Matrix: (Units=GPa)
#
#
# Indices 1 2 3 4 5 6 
#
# 1 122.6245 33.2935 92.8650 0.0000 0.0000 0.0000
# 2 33.2935 42.2320 33.1508 0.0000 0.0000 0.0000
# 3 92.8650 33.1508 149.0272 0.0000 0.0000 0.0000
# 4 0.0000 0.0000 0.0000 20.8794 0.0000 0.0000
# 5 0.0000 0.0000 0.0000 0.0000 37.2263 0.0000
# 6 0.0000 0.0000 0.0000 0.0000 0.0000 25.2831
#
#
#
# Elastic Compliance Matrix: (Units=1/GPa)
#
#
# Indices 1 2 3 4 5 6 
#
# 1 0.016618 -0.006024 -0.009015 0.000000 0.000000 0.000000
# 2 -0.006024 0.030872 -0.003114 0.000000 0.000000 0.000000
# 3 -0.009015 -0.003114 0.013021 0.000000 0.000000 0.000000
# 4 0.000000 0.000000 0.000000 0.047894 0.000000 0.000000
# 5 0.000000 0.000000 0.000000 0.000000 0.026863 0.000000
# 6 0.000000 0.000000 0.000000 0.000000 0.000000 0.039552
#
#
# Mechanical properties :
#
#
# Convention : Reuss Voigt Hill
#
# Bulk Modulus (GPa) = 41.31449 70.27805 55.79627
# Shear Modulus (GPa) = 22.81094 26.98272 24.89683
#
# Velocity S-wave (km/s) = 3.44399 3.74570 3.59801
# Velocity P-wave (km/s) = 6.10714 7.43301 6.80246
#
# Compressibility (1/GPa) = 0.02420458
#
# Stress axis : x y z
#
# Youngs Moduli (GPa) = 60.17595 32.39206 76.80139
#
# Poissons Ratio (x) = 0.19513 0.69239
# Poissons Ratio (y) = 0.36250 0.23913
# Poissons Ratio (z) = 0.54250 0.10086
#
# Static dielectric constant tensor:
#      x y z
#    x 1.678890 0.000000 0.000000 
#    y 0.000000 1.656710 0.000000 
#    z 0.000000 0.000000 1.678730 
# 
# From -- ./inp_files/11899.got.cif
#   From: 2010.05.17/outbox.cif.g08.bks.cpg/sg35_6_cif.got.tgz:11899.got - 2010.06.03 17:29:28.
