data_PCOD9349997
_publ_section_title
;
Structure prediction by ZEFSAII (Michael W. Deem and Ramdas Pophale) SiO2 
 PCOD9349997
Probable space group: C M M 2
;
_chemical_formula_sum "Si O2"
_cell_formula_units_Z 56
_cell_length_a 8.677892
_cell_length_b 22.366305
_cell_length_c 14.965348
_cell_angle_alpha 90.000000
_cell_angle_beta 90.000000
_cell_angle_gamma 90.000000
_cell_volume 2904.659999
_symmetry_space_group_name_H-M "C M M 2"
_symmetry_group_IT_number 35
_symmetry_cell_setting 'orthorhombic'
loop_
_space_group_symop_operation_xyz
x,y,z
-x,-y,z
-x,y,z
x,-y,z
1/2+x,1/2+y,z
1/2-x,1/2-y,z
1/2-x,1/2+y,z
1/2+x,1/2-y,z
loop_
_atom_site_type_symbol
_atom_site_label
_atom_site_fract_x
_atom_site_fract_y
_atom_site_fract_z
Si Si1 0.184341 0.378931 0.476520
Si Si2 0.681068 0.500000 0.505258
Si Si3 0.186731 0.069260 0.196864
Si Si4 0.183814 0.314864 0.300070
Si Si5 0.685054 0.384676 0.807241
Si Si6 0.813070 0.067784 0.990880
Si Si7 0.315977 0.813153 0.653656
Si Si8 0.684442 0.000000 0.704861
O O1 0.267969 0.440519 0.454162
O O2 0.220049 0.328132 0.404366
O O3 0.230142 0.359633 0.576267
O O4 0.000000 0.388658 0.475436
O O5 0.500000 0.500000 0.520213
O O6 0.765493 0.500000 0.601371
O O7 0.253084 0.125727 0.250486
O O8 0.000000 0.070930 0.202450
O O9 0.231945 0.000000 0.220825
O O10 0.233714 0.078856 0.092719
O O11 0.250000 0.250000 0.273082
O O12 0.000000 0.313160 0.289139
O O13 0.500000 0.385060 0.804388
O O14 0.736385 0.389258 0.910485
O O15 0.748439 0.330303 0.749479
O O16 0.748394 0.442602 0.755395
O O17 0.000000 0.068460 0.991508
O O18 0.765764 0.000000 0.967028
O O19 0.500000 0.812436 0.657583
O O20 0.250000 0.750000 0.625279
O O21 0.500000 0.000000 0.708901
#
# Coordination Sequence:
#
# PCOD9349997 Si02
#       8
#     8   4   8   8   8   8   8   4
#     4  10  23  41  60  83 119 156 189 242 303 351
#     4  12  24  36  58  89 118 155 200 241 286 348
#     4   9  19  38  64  92 123 157 195 247 306 363
#     4  11  24  42  64  89 119 159 203 250 302 362
#     4  11  20  34  58  86 114 149 195 240 283 343
#     4   8  15  31  57  87 117 149 188 237 295 349
#     4  11  23  39  57  78 111 155 198 242 292 347
#     4  12  22  34  52  81 120 155 186 229 284 334
#
# _framework density 19.279364000000001
#
# number of rings (size 3 to 8) (size 9 to 14) (size 15 to 20)
#    0.000    1.714    2.143    3.857    1.000    2.000 
#    0.000    2.143    0.000    0.000    0.000    0.000 
#    0.000    0.000    0.000    0.000    0.000    0.000 
#
# Total GULP energy -156260.978326 kJ/mol
# GULP energy per Si atom -5580.749226 kJ/mol
# Density = 1.923548 g / cm^3
# Si number density = 19.279364 Si / 1000 Ang^3
#
#
#
# Elastic Constant Matrix: (Units=GPa)
#
#
# Indices 1 2 3 4 5 6 
#
# 1 44.5661 38.8665 26.9969 0.0000 0.0000 0.0000
# 2 38.8665 122.1028 42.1326 0.0000 0.0000 0.0000
# 3 26.9969 42.1326 88.6431 0.0000 0.0000 0.0000
# 4 0.0000 0.0000 0.0000 26.3246 0.0000 0.0000
# 5 0.0000 0.0000 0.0000 0.0000 18.9950 0.0000
# 6 0.0000 0.0000 0.0000 0.0000 0.0000 31.0328
#
#
#
# Elastic Compliance Matrix: (Units=1/GPa)
#
#
# Indices 1 2 3 4 5 6 
#
# 1 0.033666 -0.008586 -0.006172 0.000000 0.000000 0.000000
# 2 -0.008586 0.011987 -0.003082 0.000000 0.000000 0.000000
# 3 -0.006172 -0.003082 0.014626 0.000000 0.000000 0.000000
# 4 0.000000 0.000000 0.000000 0.037987 0.000000 0.000000
# 5 0.000000 0.000000 0.000000 0.000000 0.052646 0.000000
# 6 0.000000 0.000000 0.000000 0.000000 0.000000 0.032224
#
#
# Mechanical properties :
#
#
# Convention : Reuss Voigt Hill
#
# Bulk Modulus (GPa) = 40.65551 52.36714 46.51133
# Shear Modulus (GPa) = 22.02497 25.09154 23.55826
#
# Velocity S-wave (km/s) = 3.38363 3.61150 3.49942
# Velocity P-wave (km/s) = 6.03312 6.67921 6.36437
#
# Compressibility (1/GPa) = 0.02459691
#
# Stress axis : x y z
#
# Youngs Moduli (GPa) = 29.70383 83.42718 68.37191
#
# Poissons Ratio (x) = 0.71634 0.42199
# Poissons Ratio (y) = 0.25505 0.21074
# Poissons Ratio (z) = 0.18333 0.25714
#
# Static dielectric constant tensor:
#      x y z
#    x 1.644310 0.000000 0.000000 
#    y 0.000000 1.654230 0.000000 
#    z 0.000000 0.000000 1.687340 
# 
# From -- ./inp_files/15801.got.cif
#   From: 2010.05.17/outbox.cif.g08.bks.cpg/sg35_8_cif.got.tgz:15801.got - 2010.06.03 17:29:28.
