data_PCOD9349735
_publ_section_title
;
Structure prediction by ZEFSAII (Michael W. Deem and Ramdas Pophale) SiO2 
 PCOD9349735
Probable space group: C M M 2
;
_chemical_formula_sum "Si O2"
_cell_formula_units_Z 56
_cell_length_a 14.146558
_cell_length_b 21.528666
_cell_length_c 10.277818
_cell_angle_alpha 90.000000
_cell_angle_beta 90.000000
_cell_angle_gamma 90.000000
_cell_volume 3130.176506
_symmetry_space_group_name_H-M "C M M 2"
_symmetry_group_IT_number 35
_symmetry_cell_setting 'orthorhombic'
loop_
_space_group_symop_operation_xyz
x,y,z
-x,-y,z
-x,y,z
x,-y,z
1/2+x,1/2+y,z
1/2-x,1/2-y,z
1/2-x,1/2+y,z
1/2+x,1/2-y,z
loop_
_atom_site_type_symbol
_atom_site_label
_atom_site_fract_x
_atom_site_fract_y
_atom_site_fract_z
Si Si1 0.728412 0.146572 0.065160
Si Si2 0.389032 0.742329 0.143751
Si Si3 0.797264 0.926697 0.300494
Si Si4 0.209940 0.075536 0.812429
Si Si5 0.000000 0.925293 0.897923
Si Si6 0.251077 0.854335 0.549513
Si Si7 0.000000 0.924651 0.201192
Si Si8 0.887976 0.251016 0.454971
O O1 0.640378 0.192996 0.075636
O O2 0.820674 0.191099 0.080173
O O3 0.731859 0.103848 0.192180
O O4 0.739259 0.103454 0.939787
O O5 0.500000 0.729767 0.130641
O O6 0.366865 0.747582 0.299109
O O7 0.764372 0.906403 0.440945
O O8 0.904740 0.903828 0.272203
O O9 0.797626 0.000000 0.285115
O O10 0.098174 0.091818 0.829678
O O11 0.248340 0.112172 0.687697
O O12 0.218581 0.000000 0.804519
O O13 0.000000 0.906631 0.049749
O O14 0.000000 0.000000 0.900671
O O15 0.165575 0.805322 0.526692
O O16 0.343237 0.813746 0.514304
O O17 0.000000 0.000000 0.204039
O O18 0.000000 0.248040 0.471014
#
# Coordination Sequence:
#
# PCOD9349735 Si02
#       8
#     8   8   8   8   4   8   4   8
#     4  11  20  37  59  87 115 155 193 235 293 343
#     4  10  21  37  62  91 115 146 196 254 293 330
#     4  11  20  32  56  84 114 150 195 239 282 345
#     4  11  24  38  57  85 126 160 186 234 290 351
#     4   9  18  33  49  77 117 155 183 219 282 343
#     4  11  22  39  58  87 118 155 195 234 292 348
#     4   9  18  29  49  83 113 149 191 225 274 341
#     4  10  21  39  62  87 116 151 193 251 296 330
#
# _framework density 17.890364999999999
#
# number of rings (size 3 to 8) (size 9 to 14) (size 15 to 20)
#    0.000    1.571    4.286    1.714    4.000    2.286 
#    0.000    4.286    0.000    5.143    0.000    0.000 
#    0.000    0.000    0.000    0.000    0.000    0.000 
#
# Total GULP energy -156297.339157 kJ/mol
# GULP energy per Si atom -5582.047827 kJ/mol
# Density = 1.784965 g / cm^3
# Si number density = 17.890365 Si / 1000 Ang^3
#
#
#
# Elastic Constant Matrix: (Units=GPa)
#
#
# Indices 1 2 3 4 5 6 
#
# 1 61.7103 16.4615 11.7753 0.0000 0.0000 0.0000
# 2 16.4615 77.0907 18.8315 0.0000 0.0000 0.0000
# 3 11.7753 18.8315 83.3327 0.0000 0.0000 0.0000
# 4 0.0000 0.0000 0.0000 30.0013 0.0000 0.0000
# 5 0.0000 0.0000 0.0000 0.0000 14.1332 0.0000
# 6 0.0000 0.0000 0.0000 0.0000 0.0000 24.5140
#
#
#
# Elastic Compliance Matrix: (Units=1/GPa)
#
#
# Indices 1 2 3 4 5 6 
#
# 1 0.017412 -0.003299 -0.001715 0.000000 0.000000 0.000000
# 2 -0.003299 0.014355 -0.002778 0.000000 0.000000 0.000000
# 3 -0.001715 -0.002778 0.012870 0.000000 0.000000 0.000000
# 4 0.000000 0.000000 0.000000 0.033332 0.000000 0.000000
# 5 0.000000 0.000000 0.000000 0.000000 0.070755 0.000000
# 6 0.000000 0.000000 0.000000 0.000000 0.000000 0.040793
#
#
# Mechanical properties :
#
#
# Convention : Reuss Voigt Hill
#
# Bulk Modulus (GPa) = 34.41931 35.14114 34.78023
# Shear Modulus (GPa) = 23.27910 25.40074 24.33992
#
# Velocity S-wave (km/s) = 3.61114 3.77211 3.69250
# Velocity P-wave (km/s) = 6.05540 6.21747 6.13697
#
# Compressibility (1/GPa) = 0.02905346
#
# Stress axis : x y z
#
# Youngs Moduli (GPa) = 57.43157 69.66333 77.69939
#
# Poissons Ratio (x) = 0.22983 0.13324
# Poissons Ratio (y) = 0.18948 0.21583
# Poissons Ratio (z) = 0.09849 0.19350
#
# Static dielectric constant tensor:
#      x y z
#    x 1.616430 0.000000 0.000000 
#    y 0.000000 1.634840 0.000000 
#    z 0.000000 0.000000 1.591670 
# 
# From -- ./inp_files/7691.got.cif
#   From: 2010.05.17/outbox.cif.g08.bks.cpg/sg35_4_cif.got.tgz:7691.got - 2010.06.03 17:29:28.
