data_PCOD9349244
_publ_section_title
;
Structure prediction by ZEFSAII (Michael W. Deem and Ramdas Pophale) SiO2 
 PCOD9349244
Probable space group: C M M 2
;
_chemical_formula_sum "Si O2"
_cell_formula_units_Z 64
_cell_length_a 8.428400
_cell_length_b 31.949874
_cell_length_c 12.244437
_cell_angle_alpha 90.000000
_cell_angle_beta 90.000000
_cell_angle_gamma 90.000000
_cell_volume 3297.259356
_symmetry_space_group_name_H-M "C M M 2"
_symmetry_group_IT_number 35
_symmetry_cell_setting 'orthorhombic'
loop_
_space_group_symop_operation_xyz
x,y,z
-x,-y,z
-x,y,z
x,-y,z
1/2+x,1/2+y,z
1/2-x,1/2-y,z
1/2-x,1/2+y,z
1/2+x,1/2-y,z
loop_
_atom_site_type_symbol
_atom_site_label
_atom_site_fract_x
_atom_site_fract_y
_atom_site_fract_z
Si Si1 0.690007 0.323436 0.512870
Si Si2 0.808289 0.374823 0.139131
Si Si3 0.310418 0.204958 0.279316
Si Si4 0.691188 0.046504 0.746551
Si Si5 0.808189 0.046998 0.277937
Si Si6 0.691392 0.421320 0.515949
Si Si7 0.689802 0.794856 0.746463
Si Si8 0.193994 0.625452 0.888086
O O1 0.500000 0.321198 0.510524
O O2 0.755539 0.302594 0.403449
O O3 0.737745 0.372417 0.514158
O O4 0.751238 0.302462 0.623301
O O5 0.752336 0.334089 0.206432
O O6 0.754126 0.416886 0.199261
O O7 0.000000 0.374067 0.139480
O O8 0.754658 0.373675 0.013618
O O9 0.500000 0.205111 0.276620
O O10 0.250000 0.250000 0.240673
O O11 0.500000 0.046432 0.752342
O O12 0.739437 0.057039 0.622885
O O13 0.748327 0.083725 0.825120
O O14 0.748259 0.000000 0.776495
O O15 0.758773 0.057556 0.402314
O O16 0.000000 0.048155 0.275929
O O17 0.756679 0.000000 0.248363
O O18 0.500000 0.423450 0.522105
O O19 0.500000 0.794816 0.745986
O O20 0.750000 0.750000 0.786109
O O21 0.745200 0.833520 0.821243
O O22 0.000000 0.625299 0.887235
#
# Coordination Sequence:
#
# PCOD9349244 Si02
#       8
#     8   8   8   8   8   8   8   8
#     4  11  21  36  60  87 115 149 189 229 282 341
#     4  10  22  40  61  84 111 149 197 241 281 330
#     4  11  23  38  59  86 116 149 188 234 286 340
#     4  10  20  35  58  86 114 147 188 231 277 332
#     4  10  21  38  59  85 118 153 187 230 288 343
#     4  10  20  35  58  84 116 151 183 226 283 341
#     4  11  22  38  60  85 117 150 186 232 283 337
#     4   9  20  39  59  81 112 150 189 234 283 328
#
# _framework density 19.410059
#
# number of rings (size 3 to 8) (size 9 to 14) (size 15 to 20)
#    0.000    1.750    2.500    1.875    0.000    3.500 
#    0.000    3.125    0.000    0.000    0.000    0.000 
#    0.000    0.000    0.000    0.000    0.000    0.000 
#
# Total GULP energy -178807.916775 kJ/mol
# GULP energy per Si atom -5587.747399 kJ/mol
# Density = 1.936588 g / cm^3
# Si number density = 19.410059 Si / 1000 Ang^3
#
#
#
# Elastic Constant Matrix: (Units=GPa)
#
#
# Indices 1 2 3 4 5 6 
#
# 1 17.4625 26.4231 14.4529 0.0000 0.0000 0.0000
# 2 26.4231 205.8815 93.2686 0.0000 0.0000 0.0000
# 3 14.4529 93.2686 157.5043 0.0000 0.0000 0.0000
# 4 0.0000 0.0000 0.0000 4.5976 0.0000 0.0000
# 5 0.0000 0.0000 0.0000 0.0000 6.1819 0.0000
# 6 0.0000 0.0000 0.0000 0.0000 0.0000 26.7610
#
#
#
# Elastic Compliance Matrix: (Units=1/GPa)
#
#
# Indices 1 2 3 4 5 6 
#
# 1 0.071338 -0.008459 -0.001537 0.000000 0.000000 0.000000
# 2 -0.008459 0.007641 -0.003748 0.000000 0.000000 0.000000
# 3 -0.001537 -0.003748 0.008710 0.000000 0.000000 0.000000
# 4 0.000000 0.000000 0.000000 0.217506 0.000000 0.000000
# 5 0.000000 0.000000 0.000000 0.000000 0.161762 0.000000
# 6 0.000000 0.000000 0.000000 0.000000 0.000000 0.037368
#
#
# Mechanical properties :
#
#
# Convention : Reuss Voigt Hill
#
# Bulk Modulus (GPa) = 16.61153 72.12641 44.36897
# Shear Modulus (GPa) = 9.05995 23.95502 16.50748
#
# Velocity S-wave (km/s) = 2.16282 3.51687 2.91943
# Velocity P-wave (km/s) = 3.84887 7.33015 5.85427
#
# Compressibility (1/GPa) = 0.06019915
#
# Stress axis : x y z
#
# Youngs Moduli (GPa) = 14.01786 130.87302 114.81366
#
# Poissons Ratio (x) = 1.10711 0.17644
# Poissons Ratio (y) = 0.11858 0.43038
# Poissons Ratio (z) = 0.02154 0.49058
#
# Static dielectric constant tensor:
#      x y z
#    x 1.670020 0.000000 0.000000 
#    y 0.000000 1.680370 0.000000 
#    z 0.000000 0.000000 1.640520 
# 
# From -- ./inp_files/11853.got.cif
#   From: 2010.05.17/outbox.cif.g08.bks.cpg/sg35_6_cif.got.tgz:11853.got - 2010.06.03 17:29:28.
