data_PCOD9349009
_publ_section_title
;
Structure prediction by ZEFSAII (Michael W. Deem and Ramdas Pophale) SiO2 
 PCOD9349009
Probable space group: C M M 2
;
_chemical_formula_sum "Si O2"
_cell_formula_units_Z 48
_cell_length_a 15.548345
_cell_length_b 8.957879
_cell_length_c 17.769989
_cell_angle_alpha 90.000000
_cell_angle_beta 90.000000
_cell_angle_gamma 90.000000
_cell_volume 2475.007500
_symmetry_space_group_name_H-M "C M M 2"
_symmetry_group_IT_number 35
_symmetry_cell_setting 'orthorhombic'
loop_
_space_group_symop_operation_xyz
x,y,z
-x,-y,z
-x,y,z
x,-y,z
1/2+x,1/2+y,z
1/2-x,1/2-y,z
1/2-x,1/2+y,z
1/2+x,1/2-y,z
loop_
_atom_site_type_symbol
_atom_site_label
_atom_site_fract_x
_atom_site_fract_y
_atom_site_fract_z
Si Si1 0.000000 0.319860 0.405110
Si Si2 0.660484 0.822102 0.507476
Si Si3 0.155404 0.319846 0.974613
Si Si4 0.500000 0.678869 0.241091
Si Si5 0.102193 0.667833 0.808218
Si Si6 0.654528 0.320119 0.128739
Si Si7 0.604566 0.329836 0.659564
O O1 0.916410 0.273003 0.452633
O O2 0.000000 0.255290 0.321842
O O3 0.000000 0.500000 0.401630
O O4 0.750000 0.750000 0.484116
O O5 0.638673 0.770771 0.592064
O O6 0.666230 0.000000 0.505251
O O7 0.155889 0.500000 0.982088
O O8 0.250000 0.250000 0.971279
O O9 0.115145 0.281518 0.893922
O O10 0.118351 0.246634 0.050177
O O11 0.500000 0.500000 0.250389
O O12 0.414115 0.716806 0.193565
O O13 0.138769 0.500000 0.801320
O O14 0.134422 0.771880 0.741173
O O15 0.000000 0.657767 0.797097
O O16 0.662550 0.500000 0.122796
O O17 0.750000 0.250000 0.141003
O O18 0.500000 0.325872 0.657537
O O19 0.632098 0.500000 0.647541
#
# Coordination Sequence:
#
# PCOD9349009 Si02
#       7
#     4   8   8   4   8   8   8
#     4  10  24  44  66  91 122 155 192 239 294 355
#     4  11  23  41  64  92 122 158 199 243 296 355
#     4  10  20  34  54  79 110 151 194 241 293 344
#     4  10  24  42  64  91 120 155 192 235 296 355
#     4   9  19  34  52  77 111 153 199 244 291 341
#     4  10  21  39  60  87 120 156 195 241 293 348
#     4  10  20  35  57  85 117 157 202 247 297 349
#
# _framework density 19.393879999999999
#
# number of rings (size 3 to 8) (size 9 to 14) (size 15 to 20)
#    0.000    2.000    0.833    3.000    1.167    6.000 
#    0.000    5.000    0.000    0.000    0.000    0.000 
#    0.000    0.000    0.000    0.000    0.000    0.000 
#
# Total GULP energy -133973.211195 kJ/mol
# GULP energy per Si atom -5582.217133 kJ/mol
# Density = 1.934974 g / cm^3
# Si number density = 19.393880 Si / 1000 Ang^3
#
#
#
# Elastic Constant Matrix: (Units=GPa)
#
#
# Indices 1 2 3 4 5 6 
#
# 1 87.7140 43.2289 64.7070 0.0000 0.0000 0.0000
# 2 43.2289 69.9641 58.8400 0.0000 0.0000 0.0000
# 3 64.7070 58.8400 162.7506 0.0000 0.0000 0.0000
# 4 0.0000 0.0000 0.0000 34.1274 0.0000 0.0000
# 5 0.0000 0.0000 0.0000 0.0000 -63.2146 0.0000
# 6 0.0000 0.0000 0.0000 0.0000 0.0000 24.2833
#
#
#
# Elastic Compliance Matrix: (Units=1/GPa)
#
#
# Indices 1 2 3 4 5 6 
#
# 1 0.018550 -0.007557 -0.004643 0.000000 0.000000 0.000000
# 2 -0.007557 0.023616 -0.005534 0.000000 0.000000 0.000000
# 3 -0.004643 -0.005534 0.009991 0.000000 0.000000 0.000000
# 4 0.000000 0.000000 0.000000 0.029302 0.000000 0.000000
# 5 0.000000 0.000000 0.000000 0.000000 -0.015819 0.000000
# 6 0.000000 0.000000 0.000000 0.000000 0.000000 0.041181
#
#
# Mechanical properties :
#
#
# Convention : Reuss Voigt Hill
#
# Bulk Modulus (GPa) = 59.91563 72.66448 66.29006
# Shear Modulus (GPa) = 33.81783 9.28274 21.55029
#
# Velocity S-wave (km/s) = 4.18034 2.19016 3.33707
# Velocity P-wave (km/s) = 7.36624 6.62909 7.00736
#
# Compressibility (1/GPa) = 0.01669013
#
# Stress axis : x y z
#
# Youngs Moduli (GPa) = 53.90748 42.34444 100.08989
#
# Poissons Ratio (x) = 0.31999 0.46475
# Poissons Ratio (y) = 0.40736 0.55385
# Poissons Ratio (z) = 0.25031 0.23431
#
# Static dielectric constant tensor:
#      x y z
#    x 1.716730 0.000000 0.000000 
#    y 0.000000 1.663740 0.000000 
#    z 0.000000 0.000000 1.672680 
# 
# From -- ./inp_files/17092.got.cif
#   From: 2010.05.17/outbox.cif.g08.bks.cpg/sg35_9_cif.got.tgz:17092.got - 2010.06.03 17:29:28.
