data_PCOD9349563
_publ_section_title
;
Structure prediction by ZEFSAII (Michael W. Deem and Ramdas Pophale) SiO2 
 PCOD9349563
Probable space group: C M M 2
;
_chemical_formula_sum "Si O2"
_cell_formula_units_Z 48
_cell_length_a 15.590464
_cell_length_b 9.064063
_cell_length_c 17.444695
_cell_angle_alpha 90.000000
_cell_angle_beta 90.000000
_cell_angle_gamma 90.000000
_cell_volume 2465.161276
_symmetry_space_group_name_H-M "C M M 2"
_symmetry_group_IT_number 35
_symmetry_cell_setting 'orthorhombic'
loop_
_space_group_symop_operation_xyz
x,y,z
-x,-y,z
-x,y,z
x,-y,z
1/2+x,1/2+y,z
1/2-x,1/2-y,z
1/2-x,1/2+y,z
1/2+x,1/2-y,z
loop_
_atom_site_type_symbol
_atom_site_label
_atom_site_fract_x
_atom_site_fract_y
_atom_site_fract_z
Si Si1 0.500000 0.825960 0.041340
Si Si2 0.000000 0.325980 0.224762
Si Si3 0.160826 0.822381 0.307295
Si Si4 0.601381 0.163384 0.628693
Si Si5 0.396744 0.673349 0.477872
Si Si6 0.155220 0.822728 0.951924
Si Si7 0.342419 0.325129 0.778325
O O1 0.500000 0.813269 0.133076
O O2 0.500000 0.000000 0.021183
O O3 0.415167 0.748451 0.007263
O O4 0.916999 0.246593 0.259819
O O5 0.000000 0.500000 0.244924
O O6 0.250000 0.750000 0.282607
O O7 0.144852 0.785614 0.397022
O O8 0.161883 0.000000 0.299985
O O9 0.500000 0.150707 0.615381
O O10 0.636072 0.238058 0.551545
O O11 0.610842 0.257792 0.705351
O O12 0.638423 0.000000 0.640214
O O13 0.500000 0.693702 0.469570
O O14 0.382512 0.500000 0.491573
O O15 0.250000 0.750000 0.960547
O O16 0.123565 0.795720 0.864107
O O17 0.161774 0.000000 0.962524
O O18 0.336286 0.500000 0.769726
O O19 0.250000 0.250000 0.777100
#
# Coordination Sequence:
#
# PCOD9349563 Si02
#       7
#     4   4   8   8   8   8   8
#     4  11  25  43  67  96 125 162 203 247 308 373
#     4  11  25  45  67  94 127 162 201 251 308 369
#     4  11  23  41  66  96 126 164 207 252 308 368
#     4  10  21  34  52  83 118 158 203 246 296 350
#     4   9  18  36  58  81 116 161 205 253 305 355
#     4  10  22  41  65  94 126 163 207 255 309 366
#     4  10  21  37  57  81 114 155 198 248 301 353
#
# _framework density 19.471342
#
# number of rings (size 3 to 8) (size 9 to 14) (size 15 to 20)
#    0.000    1.833    0.833    2.500    1.167    7.000 
#    0.000    1.667    0.000    0.000    0.000    0.000 
#    0.000    0.000    0.000    0.000    0.000    0.000 
#
# Total GULP energy -134026.505873 kJ/mol
# GULP energy per Si atom -5584.437745 kJ/mol
# Density = 1.942702 g / cm^3
# Si number density = 19.471342 Si / 1000 Ang^3
#
#
#
# Elastic Constant Matrix: (Units=GPa)
#
#
# Indices 1 2 3 4 5 6 
#
# 1 100.0655 59.9407 60.8570 0.0000 0.0000 0.0000
# 2 59.9407 115.6909 80.2017 0.0000 0.0000 0.0000
# 3 60.8570 80.2017 111.4545 0.0000 0.0000 0.0000
# 4 0.0000 0.0000 0.0000 42.2233 0.0000 0.0000
# 5 0.0000 0.0000 0.0000 0.0000 -82.2075 0.0000
# 6 0.0000 0.0000 0.0000 0.0000 0.0000 29.6465
#
#
#
# Elastic Compliance Matrix: (Units=1/GPa)
#
#
# Indices 1 2 3 4 5 6 
#
# 1 0.016042 -0.004468 -0.005544 0.000000 0.000000 0.000000
# 2 -0.004468 0.018492 -0.010867 0.000000 0.000000 0.000000
# 3 -0.005544 -0.010867 0.019819 0.000000 0.000000 0.000000
# 4 0.000000 0.000000 0.000000 0.023684 0.000000 0.000000
# 5 0.000000 0.000000 0.000000 0.000000 -0.012164 0.000000
# 6 0.000000 0.000000 0.000000 0.000000 0.000000 0.033731
#
#
# Mechanical properties :
#
#
# Convention : Reuss Voigt Hill
#
# Bulk Modulus (GPa) = 79.39780 81.02329 80.21055
# Shear Modulus (GPa) = 34.35015 6.34656 20.34835
#
# Velocity S-wave (km/s) = 4.20472 1.80735 3.23622
# Velocity P-wave (km/s) = 8.02734 6.78655 7.43288
#
# Compressibility (1/GPa) = 0.01259481
#
# Stress axis : x y z
#
# Youngs Moduli (GPa) = 62.33820 54.07677 50.45567
#
# Poissons Ratio (x) = 0.24161 0.27972
# Poissons Ratio (y) = 0.27853 0.54831
# Poissons Ratio (z) = 0.34560 0.58766
#
# Static dielectric constant tensor:
#      x y z
#    x 1.673430 0.000000 0.000000 
#    y 0.000000 1.667140 0.000000 
#    z 0.000000 0.000000 1.679380 
# 
# From -- ./inp_files/17120.got.cif
#   From: 2010.05.17/outbox.cif.g08.bks.cpg/sg35_9_cif.got.tgz:17120.got - 2010.06.03 17:29:28.
