data_PCOD9349348
_publ_section_title
;
Structure prediction by ZEFSAII (Michael W. Deem and Ramdas Pophale) SiO2 
 PCOD9349348
Probable space group: C M M 2
;
_chemical_formula_sum "Si O2"
_cell_formula_units_Z 48
_cell_length_a 8.708213
_cell_length_b 18.904916
_cell_length_c 15.808716
_cell_angle_alpha 90.000000
_cell_angle_beta 90.000000
_cell_angle_gamma 90.000000
_cell_volume 2602.557855
_symmetry_space_group_name_H-M "C M M 2"
_symmetry_group_IT_number 35
_symmetry_cell_setting 'orthorhombic'
loop_
_space_group_symop_operation_xyz
x,y,z
-x,-y,z
-x,y,z
x,-y,z
1/2+x,1/2+y,z
1/2-x,1/2-y,z
1/2-x,1/2+y,z
1/2+x,1/2-y,z
loop_
_atom_site_type_symbol
_atom_site_label
_atom_site_fract_x
_atom_site_fract_y
_atom_site_fract_z
Si Si1 0.814988 0.171792 0.079070
Si Si2 0.184381 0.582716 0.424778
Si Si3 0.182935 0.170965 0.581784
Si Si4 0.815183 0.829275 0.270269
Si Si5 0.682956 0.583656 0.917022
Si Si6 0.182965 0.416591 0.736314
O O1 0.750000 0.250000 0.067318
O O2 0.772369 0.148498 0.174242
O O3 0.000000 0.174111 0.077170
O O4 0.763834 0.123367 0.001348
O O5 0.227145 0.500000 0.430020
O O6 0.251946 0.626082 0.503371
O O7 0.247076 0.618313 0.339492
O O8 0.000000 0.587655 0.426692
O O9 0.250000 0.250000 0.579981
O O10 0.234073 0.130851 0.666896
O O11 0.000000 0.174340 0.576437
O O12 0.750000 0.750000 0.283609
O O13 0.000000 0.827163 0.277125
O O14 0.500000 0.595910 0.905995
O O15 0.705793 0.500000 0.928411
O O16 0.768032 0.604848 0.831006
O O17 0.223819 0.500000 0.725658
O O18 0.000000 0.410283 0.726158
#
# Coordination Sequence:
#
# PCOD9349348 Si02
#       6
#     8   8   8   8   8   8
#     4   9  19  34  54  80 110 146 185 230 279 327
#     4  11  24  41  60  84 115 148 183 227 278 331
#     4  12  25  41  62  86 113 146 185 228 276 331
#     4  10  20  36  58  83 113 149 190 233 279 331
#     4   9  18  34  55  79 109 147 190 232 276 327
#     4  10  21  38  59  84 115 149 186 230 279 330
#
# _framework density 18.443394999999999
#
# number of rings (size 3 to 8) (size 9 to 14) (size 15 to 20)
#    0.000    1.833    0.000    4.000    0.000    7.000 
#    0.000    3.333    0.000    2.000    0.000    0.000 
#    0.000    0.000    0.000    0.000    0.000    0.000 
#
# Total GULP energy -134080.739926 kJ/mol
# GULP energy per Si atom -5586.697497 kJ/mol
# Density = 1.840142 g / cm^3
# Si number density = 18.443395 Si / 1000 Ang^3
#
#
#
# Elastic Constant Matrix: (Units=GPa)
#
#
# Indices 1 2 3 4 5 6 
#
# 1 73.6112 60.5018 64.3233 0.0000 0.0000 0.0000
# 2 60.5018 118.8230 106.4886 0.0000 0.0000 0.0000
# 3 64.3233 106.4886 172.1564 0.0000 0.0000 0.0000
# 4 0.0000 0.0000 0.0000 42.5751 0.0000 0.0000
# 5 0.0000 0.0000 0.0000 0.0000 5.1542 0.0000
# 6 0.0000 0.0000 0.0000 0.0000 0.0000 29.4482
#
#
#
# Elastic Compliance Matrix: (Units=1/GPa)
#
#
# Indices 1 2 3 4 5 6 
#
# 1 0.024111 -0.009432 -0.003175 0.000000 0.000000 0.000000
# 2 -0.009432 0.022574 -0.010439 0.000000 0.000000 0.000000
# 3 -0.003175 -0.010439 0.013452 0.000000 0.000000 0.000000
# 4 0.000000 0.000000 0.000000 0.023488 0.000000 0.000000
# 5 0.000000 0.000000 0.000000 0.000000 0.194015 0.000000
# 6 0.000000 0.000000 0.000000 0.000000 0.000000 0.033958
#
#
# Mechanical properties :
#
#
# Convention : Reuss Voigt Hill
#
# Bulk Modulus (GPa) = 71.19542 91.91312 81.55427
# Shear Modulus (GPa) = 13.79803 24.32063 19.05933
#
# Velocity S-wave (km/s) = 2.73816 3.63528 3.21814
# Velocity P-wave (km/s) = 6.97729 8.21972 7.62386
#
# Compressibility (1/GPa) = 0.01404585
#
# Stress axis : x y z
#
# Youngs Moduli (GPa) = 41.47509 44.29913 74.33780
#
# Poissons Ratio (x) = 0.41781 0.23600
# Poissons Ratio (y) = 0.39117 0.77603
# Poissons Ratio (z) = 0.13167 0.46245
#
# Static dielectric constant tensor:
#      x y z
#    x 1.620630 0.000000 0.000000 
#    y 0.000000 1.602950 0.000000 
#    z 0.000000 0.000000 1.628010 
# 
# From -- ./inp_files/15100.got.cif
#   From: 2010.05.17/outbox.cif.g08.bks.cpg/sg35_8_cif.got.tgz:15100.got - 2010.06.03 17:29:28.
