data_PCOD9349099
_publ_section_title
;
Structure prediction by ZEFSAII (Michael W. Deem and Ramdas Pophale) SiO2 
 PCOD9349099
Probable space group: C M M 2
;
_chemical_formula_sum "Si O2"
_cell_formula_units_Z 64
_cell_length_a 17.578660
_cell_length_b 14.008837
_cell_length_c 12.938305
_cell_angle_alpha 90.000000
_cell_angle_beta 90.000000
_cell_angle_gamma 90.000000
_cell_volume 3186.142774
_symmetry_space_group_name_H-M "C M M 2"
_symmetry_group_IT_number 35
_symmetry_cell_setting 'orthorhombic'
loop_
_space_group_symop_operation_xyz
x,y,z
-x,-y,z
-x,y,z
x,-y,z
1/2+x,1/2+y,z
1/2-x,1/2-y,z
1/2-x,1/2+y,z
1/2+x,1/2-y,z
loop_
_atom_site_type_symbol
_atom_site_label
_atom_site_fract_x
_atom_site_fract_y
_atom_site_fract_z
Si Si1 0.188746 0.886506 0.371890
Si Si2 0.160284 0.385836 0.724137
Si Si3 0.585872 0.384904 0.570374
Si Si4 0.585139 0.889118 0.518201
Si Si5 0.834688 0.113221 0.782764
Si Si6 0.644896 0.810046 0.318320
Si Si7 0.908180 0.391472 0.101762
Si Si8 0.089808 0.267689 0.905350
O O1 0.149590 0.866661 0.483234
O O2 0.276696 0.856124 0.362552
O O3 0.150448 0.804097 0.301635
O O4 0.179547 0.000000 0.349352
O O5 0.148625 0.500000 0.725035
O O6 0.141110 0.353872 0.607668
O O7 0.247410 0.366668 0.754052
O O8 0.107479 0.337542 0.809342
O O9 0.500000 0.348567 0.548410
O O10 0.580820 0.500000 0.572161
O O11 0.614232 0.357310 0.684005
O O12 0.500000 0.886266 0.562029
O O13 0.588377 0.832750 0.411720
O O14 0.603224 0.000000 0.494550
O O15 0.863087 0.172960 0.879898
O O16 0.842609 0.000000 0.798044
O O17 0.623818 0.860186 0.212032
O O18 0.884703 0.500000 0.077686
O O19 0.000000 0.389727 0.107646
O O20 0.885550 0.320721 0.009826
O O21 0.000000 0.247572 0.910543
#
# Coordination Sequence:
#
# PCOD9349099 Si02
#       8
#     8   8   8   8   8   8   8   8
#     4  10  22  39  58  88 124 163 207 251 305 368
#     4  10  21  38  59  88 125 162 200 257 321 374
#     4   9  18  34  57  84 121 168 207 242 292 362
#     4  10  20  34  58  92 127 161 201 256 318 376
#     4  10  21  38  60  89 124 167 213 255 306 374
#     4  11  22  38  63  90 122 163 207 256 310 371
#     4  10  22  42  67  92 120 158 206 258 313 376
#     4  11  23  39  62  89 119 159 208 260 315 374
#
# _framework density 20.086984999999999
#
# number of rings (size 3 to 8) (size 9 to 14) (size 15 to 20)
#    0.000    1.875    0.000    3.750    1.750    6.000 
#    4.500    0.625    0.000    0.750    0.000    0.000 
#    0.000    0.000    0.000    0.000    0.000    0.000 
#
# Total GULP energy -178685.162787 kJ/mol
# GULP energy per Si atom -5583.911337 kJ/mol
# Density = 2.004127 g / cm^3
# Si number density = 20.086985 Si / 1000 Ang^3
#
#
#
# Elastic Constant Matrix: (Units=GPa)
#
#
# Indices 1 2 3 4 5 6 
#
# 1 66.0960 30.6906 43.6182 0.0000 0.0000 0.0000
# 2 30.6906 129.9261 46.4774 0.0000 0.0000 0.0000
# 3 43.6182 46.4774 113.6406 0.0000 0.0000 0.0000
# 4 0.0000 0.0000 0.0000 32.3399 0.0000 0.0000
# 5 0.0000 0.0000 0.0000 0.0000 4.9608 0.0000
# 6 0.0000 0.0000 0.0000 0.0000 0.0000 22.8331
#
#
#
# Elastic Compliance Matrix: (Units=1/GPa)
#
#
# Indices 1 2 3 4 5 6 
#
# 1 0.020892 -0.002421 -0.007029 0.000000 0.000000 0.000000
# 2 -0.002421 0.009296 -0.002873 0.000000 0.000000 0.000000
# 3 -0.007029 -0.002873 0.012673 0.000000 0.000000 0.000000
# 4 0.000000 0.000000 0.000000 0.030922 0.000000 0.000000
# 5 0.000000 0.000000 0.000000 0.000000 0.201580 0.000000
# 6 0.000000 0.000000 0.000000 0.000000 0.000000 0.043796
#
#
# Mechanical properties :
#
#
# Convention : Reuss Voigt Hill
#
# Bulk Modulus (GPa) = 54.89722 61.24833 58.07277
# Shear Modulus (GPa) = 14.29080 24.61853 19.45467
#
# Velocity S-wave (km/s) = 2.67019 3.50465 3.11548
# Velocity P-wave (km/s) = 6.07418 6.85088 6.47418
#
# Compressibility (1/GPa) = 0.01821586
#
# Stress axis : x y z
#
# Youngs Moduli (GPa) = 47.86516 107.57114 78.91089
#
# Poissons Ratio (x) = 0.26039 0.55466
# Poissons Ratio (y) = 0.11586 0.22670
# Poissons Ratio (z) = 0.33644 0.30904
#
# Static dielectric constant tensor:
#      x y z
#    x 1.735330 0.000000 0.000000 
#    y 0.000000 1.760220 0.000000 
#    z 0.000000 0.000000 1.662050 
# 
# From -- ./inp_files/13604.got.cif
#   From: 2010.05.17/outbox.cif.g08.bks.cpg/sg35_7_cif.got.tgz:13604.got - 2010.06.03 17:29:28.
