data_PCOD9349550
_publ_section_title
;
Structure prediction by ZEFSAII (Michael W. Deem and Ramdas Pophale) SiO2 
 PCOD9349550
Probable space group: C M M 2
;
_chemical_formula_sum "Si O2"
_cell_formula_units_Z 38
_cell_length_a 18.575283
_cell_length_b 14.125241
_cell_length_c 7.605312
_cell_angle_alpha 90.000000
_cell_angle_beta 90.000000
_cell_angle_gamma 90.000000
_cell_volume 1995.484417
_symmetry_space_group_name_H-M "C M M 2"
_symmetry_group_IT_number 35
_symmetry_cell_setting 'orthorhombic'
loop_
_space_group_symop_operation_xyz
x,y,z
-x,-y,z
-x,y,z
x,-y,z
1/2+x,1/2+y,z
1/2-x,1/2-y,z
1/2-x,1/2+y,z
1/2+x,1/2-y,z
loop_
_atom_site_type_symbol
_atom_site_label
_atom_site_fract_x
_atom_site_fract_y
_atom_site_fract_z
Si Si1 0.862184 0.000000 0.060900
Si Si2 0.416141 0.291728 0.031013
Si Si3 0.249677 0.000000 0.358351
Si Si4 0.327678 0.799614 0.720592
Si Si5 0.630256 0.846019 0.332480
Si Si6 0.000000 0.500000 0.313000
Si Si7 0.265125 0.000000 0.773435
O O1 0.822377 0.000000 0.248283
O O2 0.906527 0.903951 0.044587
O O3 0.799760 0.000000 0.911127
O O4 0.500000 0.266078 0.028705
O O5 0.376820 0.256365 0.855776
O O6 0.378417 0.237363 0.192671
O O7 0.297370 0.091727 0.308146
O O8 0.239562 0.000000 0.569174
O O9 0.250000 0.750000 0.704001
O O10 0.364214 0.807250 0.530610
O O11 0.312803 0.905677 0.791977
O O12 0.563413 0.917510 0.315765
#
# Coordination Sequence:
#
# PCOD9349550 Si02
#       7
#     4   8   4   8   8   2   4
#     4  12  24  41  65  87 133 170 223 267 307 378
#     4  12  27  43  63  95 132 178 216 260 325 392
#     4   9  22  38  68  98 122 165 206 279 325 371
#     4  11  24  43  70  97 129 168 218 273 323 383
#     4  10  23  42  68  98 132 164 214 265 333 389
#     4  10  20  48  66  98 140 160 206 276 328 406
#     4  10  21  42  62 104 121 160 219 270 326 371
#
# _framework density 19.042994
#
# number of rings (size 3 to 8) (size 9 to 14) (size 15 to 20)
#    0.000    1.263    3.158    2.211    7.368    0.842 
#    0.000    0.000    0.000    3.789    0.000    0.000 
#    0.000    0.000    0.000    0.000    0.000    0.000 
#
# Total GULP energy -105962.911041 kJ/mol
# GULP energy per Si atom -5576.995318 kJ/mol
# Density = 1.899965 g / cm^3
# Si number density = 19.042994 Si / 1000 Ang^3
#
#
#
# Elastic Constant Matrix: (Units=GPa)
#
#
# Indices 1 2 3 4 5 6 
#
# 1 23.6300 6.4965 13.1063 0.0000 0.0000 0.0000
# 2 6.4965 131.5512 42.6441 0.0000 0.0000 0.0000
# 3 13.1063 42.6441 62.3614 0.0000 0.0000 0.0000
# 4 0.0000 0.0000 0.0000 -46.2612 0.0000 0.0000
# 5 0.0000 0.0000 0.0000 0.0000 5.2913 0.0000
# 6 0.0000 0.0000 0.0000 0.0000 0.0000 11.9537
#
#
#
# Elastic Compliance Matrix: (Units=1/GPa)
#
#
# Indices 1 2 3 4 5 6 
#
# 1 0.048040 0.001157 -0.010888 0.000000 0.000000 0.000000
# 2 0.001157 0.009794 -0.006941 0.000000 0.000000 0.000000
# 3 -0.010888 -0.006941 0.023070 0.000000 0.000000 0.000000
# 4 0.000000 0.000000 0.000000 -0.021616 0.000000 0.000000
# 5 0.000000 0.000000 0.000000 0.000000 0.188990 0.000000
# 6 0.000000 0.000000 0.000000 0.000000 0.000000 0.083656
#
#
# Mechanical properties :
#
#
# Convention : Reuss Voigt Hill
#
# Bulk Modulus (GPa) = 21.02542 38.00404 29.51473
# Shear Modulus (GPa) = 13.11885 4.54979 8.83432
#
# Velocity S-wave (km/s) = 2.62755 1.54739 2.15620
# Velocity P-wave (km/s) = 4.50226 4.81589 4.66172
#
# Compressibility (1/GPa) = 0.04756148
#
# Stress axis : x y z
#
# Youngs Moduli (GPa) = 20.81608 102.09902 43.34628
#
# Poissons Ratio (x) = -0.11812 0.47193
# Poissons Ratio (y) = -0.02408 0.30086
# Poissons Ratio (z) = 0.22664 0.70865
#
# Static dielectric constant tensor:
#      x y z
#    x 1.630590 0.000000 0.000000 
#    y 0.000000 1.669790 0.000000 
#    z 0.000000 0.000000 1.646940 
# 
# From -- ./inp_files/8201.got.cif
#   From: 2010.05.17/outbox.cif.g08.bks.cpg/sg35_5_cif.got.tgz:8201.got - 2010.06.03 17:29:28.
