data_PCOD9349000
_publ_section_title
;
Structure prediction by ZEFSAII (Michael W. Deem and Ramdas Pophale) SiO2 
 PCOD9349000
Probable space group: C M M 2
;
_chemical_formula_sum "Si O2"
_cell_formula_units_Z 48
_cell_length_a 31.930817
_cell_length_b 8.259078
_cell_length_c 9.632861
_cell_angle_alpha 90.000000
_cell_angle_beta 90.000000
_cell_angle_gamma 90.000000
_cell_volume 2540.369512
_symmetry_space_group_name_H-M "C M M 2"
_symmetry_group_IT_number 35
_symmetry_cell_setting 'orthorhombic'
loop_
_space_group_symop_operation_xyz
x,y,z
-x,-y,z
-x,y,z
x,-y,z
1/2+x,1/2+y,z
1/2-x,1/2-y,z
1/2-x,1/2+y,z
1/2+x,1/2-y,z
loop_
_atom_site_type_symbol
_atom_site_label
_atom_site_fract_x
_atom_site_fract_y
_atom_site_fract_z
Si Si1 0.585825 0.182599 0.543470
Si Si2 0.500000 0.808025 0.131022
Si Si3 0.702627 0.694620 0.579247
Si Si4 0.864144 0.686984 0.807393
Si Si5 0.853219 0.816444 0.337492
Si Si6 0.000000 0.190185 0.442419
Si Si7 0.592990 0.308947 0.078041
O O1 0.596233 0.194634 0.704204
O O2 0.612358 0.312703 0.458934
O O3 0.539180 0.219317 0.505931
O O4 0.598312 0.000000 0.499397
O O5 0.500000 0.714411 0.277307
O O6 0.454105 0.765184 0.065197
O O7 0.500000 0.000000 0.155168
O O8 0.700165 0.500000 0.575997
O O9 0.750000 0.750000 0.598984
O O10 0.673747 0.754312 0.707756
O O11 0.685224 0.755867 0.428074
O O12 0.856260 0.500000 0.845268
O O13 0.878114 0.782689 0.943155
O O14 0.878679 0.742935 0.207263
O O15 0.841631 0.000000 0.296848
O O16 0.000000 0.000000 0.474876
O O17 0.586517 0.500000 0.103551
#
# Coordination Sequence:
#
# PCOD9349000 Si02
#       7
#     8   4   8   8   8   4   8
#     4  10  20  34  54  78 106 143 190 238 286 335
#     4  12  24  37  56  83 116 156 200 246 290 339
#     4  10  20  38  63  90 116 148 189 239 295 355
#     4  10  22  39  58  84 117 154 193 239 292 350
#     4   9  19  35  57  82 112 146 186 234 286 344
#     4  12  22  33  52  79 110 146 192 242 290 341
#     4  11  22  38  59  85 118 159 199 240 291 347
#
# _framework density 18.89489
#
# number of rings (size 3 to 8) (size 9 to 14) (size 15 to 20)
#    0.000    1.667    1.667    3.500    0.000    4.000 
#    0.000    1.667    0.000    2.000    0.000    0.000 
#    0.000    0.000    0.000    0.000    0.000    0.000 
#
# Total GULP energy -133624.853715 kJ/mol
# GULP energy per Si atom -5567.702238 kJ/mol
# Density = 1.885188 g / cm^3
# Si number density = 18.894890 Si / 1000 Ang^3
#
#
#
# Elastic Constant Matrix: (Units=GPa)
#
#
# Indices 1 2 3 4 5 6 
#
# 1 102.1456 -2.9118 37.4000 0.0000 0.0000 0.0000
# 2 -2.9118 52.3996 11.2612 0.0000 0.0000 0.0000
# 3 37.4000 11.2612 84.6830 0.0000 0.0000 0.0000
# 4 0.0000 0.0000 0.0000 19.1188 0.0000 0.0000
# 5 0.0000 0.0000 0.0000 0.0000 14.7677 0.0000
# 6 0.0000 0.0000 0.0000 0.0000 0.0000 10.2383
#
#
#
# Elastic Compliance Matrix: (Units=1/GPa)
#
#
# Indices 1 2 3 4 5 6 
#
# 1 0.011847 0.001835 -0.005476 0.000000 0.000000 0.000000
# 2 0.001835 0.019930 -0.003461 0.000000 0.000000 0.000000
# 3 -0.005476 -0.003461 0.014688 0.000000 0.000000 0.000000
# 4 0.000000 0.000000 0.000000 0.052304 0.000000 0.000000
# 5 0.000000 0.000000 0.000000 0.000000 0.067715 0.000000
# 6 0.000000 0.000000 0.000000 0.000000 0.000000 0.097672
#
#
# Mechanical properties :
#
#
# Convention : Reuss Voigt Hill
#
# Bulk Modulus (GPa) = 30.99722 36.74743 33.87233
# Shear Modulus (GPa) = 17.29416 21.72354 19.50885
#
# Velocity S-wave (km/s) = 3.02865 3.39441 3.21673
# Velocity P-wave (km/s) = 5.35453 5.90366 5.63579
#
# Compressibility (1/GPa) = 0.03226095
#
# Stress axis : x y z
#
# Youngs Moduli (GPa) = 84.40648 50.17591 68.08449
#
# Poissons Ratio (x) = -0.09209 0.37286
# Poissons Ratio (y) = -0.15491 0.23563
# Poissons Ratio (z) = 0.46225 0.17365
#
# Static dielectric constant tensor:
#      x y z
#    x 1.690140 0.000000 0.000000 
#    y 0.000000 1.683910 0.000000 
#    z 0.000000 0.000000 1.655530 
# 
# From -- ./inp_files/5430.got.cif
#   From: 2010.05.17/outbox.cif.g08.bks.cpg/sg35_3_cif.got.tgz:5430.got - 2010.06.03 17:29:28.
