data_PCOD9349837
_publ_section_title
;
Structure prediction by ZEFSAII (Michael W. Deem and Ramdas Pophale) SiO2 
 PCOD9349837
Probable space group: C M M 2
;
_chemical_formula_sum "Si O2"
_cell_formula_units_Z 64
_cell_length_a 15.635300
_cell_length_b 17.249286
_cell_length_c 12.119620
_cell_angle_alpha 90.000000
_cell_angle_beta 90.000000
_cell_angle_gamma 90.000000
_cell_volume 3268.634383
_symmetry_space_group_name_H-M "C M M 2"
_symmetry_group_IT_number 35
_symmetry_cell_setting 'orthorhombic'
loop_
_space_group_symop_operation_xyz
x,y,z
-x,-y,z
-x,y,z
x,-y,z
1/2+x,1/2+y,z
1/2-x,1/2-y,z
1/2-x,1/2+y,z
1/2+x,1/2-y,z
loop_
_atom_site_type_symbol
_atom_site_label
_atom_site_fract_x
_atom_site_fract_y
_atom_site_fract_z
Si Si1 0.191734 0.673327 0.284720
Si Si2 0.764755 0.409628 0.660867
Si Si3 0.094527 0.905373 0.057103
Si Si4 0.862508 0.909373 0.303393
Si Si5 0.254206 0.906107 0.910779
Si Si6 0.906960 0.138956 0.544107
Si Si7 0.100522 0.407675 0.083967
Si Si8 0.598144 0.182045 0.517575
O O1 0.250000 0.750000 0.265772
O O2 0.261311 0.605978 0.306041
O O3 0.134718 0.645860 0.182746
O O4 0.134958 0.684313 0.393408
O O5 0.786732 0.500000 0.667136
O O6 0.757252 0.377923 0.785458
O O7 0.673553 0.400772 0.600665
O O8 0.837183 0.367404 0.590658
O O9 0.106004 0.879952 0.184304
O O10 0.000000 0.883108 0.017544
O O11 0.098350 0.000000 0.059184
O O12 0.172483 0.877805 0.981246
O O13 0.900948 0.871398 0.412015
O O14 0.882241 0.000000 0.309201
O O15 0.245827 0.000000 0.905981
O O16 0.340353 0.889929 0.978557
O O17 0.900816 0.230576 0.563461
O O18 0.000000 0.109939 0.581496
O O19 0.113455 0.500000 0.110316
O O20 0.000000 0.396206 0.064575
O O21 0.500000 0.154129 0.518076
#
# Coordination Sequence:
#
# PCOD9349837 Si02
#       8
#     8   8   8   8   8   8   8   8
#     4  12  21  37  61  89 123 159 192 235 300 357
#     4  11  23  39  62  90 117 151 201 257 303 351
#     4   9  17  31  54  85 120 154 188 233 292 354
#     4  11  20  34  60  90 120 153 192 237 288 350
#     4   9  19  36  58  85 116 152 197 251 304 347
#     4  11  23  40  61  86 120 160 197 242 301 362
#     4  10  21  39  64  91 120 157 201 248 296 350
#     4  11  24  42  61  83 118 162 201 240 294 358
#
# _framework density 19.580043
#
# number of rings (size 3 to 8) (size 9 to 14) (size 15 to 20)
#    0.000    1.500    3.750    1.875    0.000    3.250 
#    0.000    3.750    0.000    0.000    0.000    0.000 
#    0.000    0.000    0.000    0.000    0.000    0.000 
#
# Total GULP energy -178706.270383 kJ/mol
# GULP energy per Si atom -5584.570949 kJ/mol
# Density = 1.953548 g / cm^3
# Si number density = 19.580043 Si / 1000 Ang^3
#
#
#
# Elastic Constant Matrix: (Units=GPa)
#
#
# Indices 1 2 3 4 5 6 
#
# 1 157.1616 36.0006 63.3672 0.0000 0.0000 0.0000
# 2 36.0006 40.1427 37.6052 0.0000 0.0000 0.0000
# 3 63.3672 37.6052 122.9430 0.0000 0.0000 0.0000
# 4 0.0000 0.0000 0.0000 -15.4159 0.0000 0.0000
# 5 0.0000 0.0000 0.0000 0.0000 -16.7513 0.0000
# 6 0.0000 0.0000 0.0000 0.0000 0.0000 -25.2437
#
#
#
# Elastic Compliance Matrix: (Units=1/GPa)
#
#
# Indices 1 2 3 4 5 6 
#
# 1 0.008706 -0.005052 -0.002942 0.000000 0.000000 0.000000
# 2 -0.005052 0.037847 -0.008973 0.000000 0.000000 0.000000
# 3 -0.002942 -0.008973 0.012395 0.000000 0.000000 0.000000
# 4 0.000000 0.000000 0.000000 -0.064868 0.000000 0.000000
# 5 0.000000 0.000000 0.000000 0.000000 -0.059697 0.000000
# 6 0.000000 0.000000 0.000000 0.000000 0.000000 -0.039614
#
#
# Mechanical properties :
#
#
# Convention : Reuss Voigt Hill
#
# Bulk Modulus (GPa) = 39.97610 66.02146 52.99878
# Shear Modulus (GPa) = -79.41706 0.73612 -39.34047
#
# Velocity S-wave (km/s) = -6.37560 0.61382 -4.48729
# Velocity P-wave (km/s) = 5.80832 5.85613 0.52807
#
# Compressibility (1/GPa) = 0.02501495
#
# Stress axis : x y z
#
# Youngs Moduli (GPa) = 114.85850 26.42211 80.67865
#
# Poissons Ratio (x) = 0.13348 0.23737
# Poissons Ratio (y) = 0.58024 0.72391
# Poissons Ratio (z) = 0.33794 0.23708
#
# Static dielectric constant tensor:
#      x y z
#    x 1.690580 0.000000 0.000000 
#    y 0.000000 1.693350 0.000000 
#    z 0.000000 0.000000 1.671810 
# 
# From -- ./inp_files/13220.got.cif
#   From: 2010.05.17/outbox.cif.g08.bks.cpg/sg35_7_cif.got.tgz:13220.got - 2010.06.03 17:29:28.
