data_PCOD9349935
_publ_section_title
;
Structure prediction by ZEFSAII (Michael W. Deem and Ramdas Pophale) SiO2 
 PCOD9349935
Probable space group: C M M 2
;
_chemical_formula_sum "Si O2"
_cell_formula_units_Z 56
_cell_length_a 17.983612
_cell_length_b 13.721672
_cell_length_c 9.803551
_cell_angle_alpha 90.000000
_cell_angle_beta 90.000000
_cell_angle_gamma 90.000000
_cell_volume 2419.175471
_symmetry_space_group_name_H-M "C M M 2"
_symmetry_group_IT_number 35
_symmetry_cell_setting 'orthorhombic'
loop_
_space_group_symop_operation_xyz
x,y,z
-x,-y,z
-x,y,z
x,-y,z
1/2+x,1/2+y,z
1/2-x,1/2-y,z
1/2-x,1/2+y,z
1/2+x,1/2-y,z
loop_
_atom_site_type_symbol
_atom_site_label
_atom_site_fract_x
_atom_site_fract_y
_atom_site_fract_z
Si Si1 0.415899 0.885333 0.043750
Si Si2 0.873107 0.758616 0.227993
Si Si3 0.786907 0.888025 0.434481
Si Si4 0.583909 0.615747 0.970438
Si Si5 0.392902 0.113453 0.450022
Si Si6 0.798473 0.881080 0.738211
Si Si7 0.127249 0.618042 0.748413
O O1 0.500000 0.864774 0.092900
O O2 0.352162 0.830691 0.127715
O O3 0.403918 0.000000 0.053880
O O4 0.413221 0.855385 0.886646
O O5 0.815439 0.821705 0.312866
O O6 0.909312 0.829570 0.115424
O O7 0.916370 0.695788 0.343275
O O8 0.697565 0.887275 0.443741
O O9 0.817189 0.852852 0.581998
O O10 0.810337 0.000000 0.413540
O O11 0.500000 0.630118 0.917967
O O12 0.594654 0.500000 0.993194
O O13 0.644626 0.646985 0.857237
O O14 0.409764 0.143371 0.605063
O O15 0.415658 0.000000 0.422842
O O16 0.713093 0.849792 0.760118
O O17 0.797923 0.000000 0.736508
O O18 0.129240 0.500000 0.743972
#
# Coordination Sequence:
#
# PCOD9349935 Si02
#       7
#     8   8   8   8   8   8   8
#     4  10  22  40  59  82 116 155 195 241 290 342
#     4  12  22  34  54  82 115 158 197 228 279 346
#     4   9  19  36  57  85 120 152 188 240 295 344
#     4  10  22  40  59  82 116 155 195 241 290 342
#     4   9  19  36  57  85 120 152 188 240 295 344
#     4   8  16  35  62  87 112 146 190 240 291 343
#     4   8  16  35  62  87 112 146 190 240 291 343
#
# _framework density 23.148382000000002
#
# number of rings (size 3 to 8) (size 9 to 14) (size 15 to 20)
#    0.000    2.571    0.000    3.429    0.000    3.429 
#    0.000    7.143    0.000    6.857    0.000    0.000 
#    0.000    0.000    0.000    0.000    0.000    0.000 
#
# Total GULP energy -156318.818620 kJ/mol
# GULP energy per Si atom -5582.814951 kJ/mol
# Density = 2.309569 g / cm^3
# Si number density = 23.148382 Si / 1000 Ang^3
#
#
#
# Elastic Constant Matrix: (Units=GPa)
#
#
# Indices 1 2 3 4 5 6 
#
# 1 88.2341 38.8240 65.9618 0.0000 0.0000 0.0000
# 2 38.8240 119.6422 52.6676 0.0000 0.0000 0.0000
# 3 65.9618 52.6676 183.5174 0.0000 0.0000 0.0000
# 4 0.0000 0.0000 0.0000 -12.7349 0.0000 0.0000
# 5 0.0000 0.0000 0.0000 0.0000 454.9385 0.0000
# 6 0.0000 0.0000 0.0000 0.0000 0.0000 1.5448
#
#
#
# Elastic Compliance Matrix: (Units=1/GPa)
#
#
# Indices 1 2 3 4 5 6 
#
# 1 0.016464 -0.003133 -0.005018 0.000000 0.000000 0.000000
# 2 -0.003133 0.010163 -0.001791 0.000000 0.000000 0.000000
# 3 -0.005018 -0.001791 0.007767 0.000000 0.000000 0.000000
# 4 0.000000 0.000000 0.000000 -0.078525 0.000000 0.000000
# 5 0.000000 0.000000 0.000000 0.000000 0.002198 0.000000
# 6 0.000000 0.000000 0.000000 0.000000 0.000000 0.647313
#
#
# Mechanical properties :
#
#
# Convention : Reuss Voigt Hill
#
# Bulk Modulus (GPa) = 68.92167 78.47786 73.69976
# Shear Modulus (GPa) = 7.93524 104.34571 56.14048
#
# Velocity S-wave (km/s) = 1.85349 6.72122 4.93002
# Velocity P-wave (km/s) = 5.86678 9.70612 8.01959
#
# Compressibility (1/GPa) = 0.01450923
#
# Stress axis : x y z
#
# Youngs Moduli (GPa) = 60.73923 98.39378 128.75506
#
# Poissons Ratio (x) = 0.30831 0.64614
# Poissons Ratio (y) = 0.19032 0.23054
# Poissons Ratio (z) = 0.30481 0.17617
#
# Static dielectric constant tensor:
#      x y z
#    x 1.807570 0.000000 0.000000 
#    y 0.000000 1.938940 0.000000 
#    z 0.000000 0.000000 1.880310 
# 
# From -- ./inp_files/7639.got.cif
#   From: 2010.05.17/outbox.cif.g08.bks.cpg/sg35_4_cif.got.tgz:7639.got - 2010.06.03 17:29:28.
