data_PCOD9349378
_publ_section_title
;
Structure prediction by ZEFSAII (Michael W. Deem and Ramdas Pophale) SiO2 
 PCOD9349378
Probable space group: C M M 2
;
_chemical_formula_sum "Si O2"
_cell_formula_units_Z 32
_cell_length_a 7.858200
_cell_length_b 17.955814
_cell_length_c 12.301794
_cell_angle_alpha 90.000000
_cell_angle_beta 90.000000
_cell_angle_gamma 90.000000
_cell_volume 1735.787778
_symmetry_space_group_name_H-M "C M M 2"
_symmetry_group_IT_number 35
_symmetry_cell_setting 'orthorhombic'
loop_
_space_group_symop_operation_xyz
x,y,z
-x,-y,z
-x,y,z
x,-y,z
1/2+x,1/2+y,z
1/2-x,1/2-y,z
1/2-x,1/2+y,z
1/2+x,1/2-y,z
loop_
_atom_site_type_symbol
_atom_site_label
_atom_site_fract_x
_atom_site_fract_y
_atom_site_fract_z
Si Si1 0.500000 0.410756 0.028350
Si Si2 0.803332 0.662906 0.161354
Si Si3 0.500000 0.409170 0.777689
Si Si4 0.703104 0.663411 0.402314
Si Si5 0.190342 0.589770 0.626414
O O1 0.500000 0.500000 0.031362
O O2 0.332148 0.380733 0.088717
O O3 0.500000 0.385598 0.902680
O O4 0.750000 0.750000 0.158063
O O5 0.782879 0.639248 0.287501
O O6 0.000000 0.654591 0.128187
O O7 0.500000 0.500000 0.777595
O O8 0.666265 0.384514 0.710961
O O9 0.500000 0.656465 0.393352
O O10 0.750000 0.750000 0.418175
O O11 0.767475 0.618719 0.506267
O O12 0.194838 0.500000 0.624772
O O13 0.000000 0.613656 0.657263
#
# Coordination Sequence:
#
# PCOD9349378 Si02
#       5
#     4   8   4   8   8
#     4  11  24  41  63  93 122 157 213 262 293 350
#     4  11  21  40  65  88 121 166 201 242 311 372
#     4   9  20  39  59  81 117 159 197 244 300 342
#     4  11  20  35  59  87 119 153 190 238 297 358
#     4  10  20  36  59  85 116 154 193 237 294 356
#
# _framework density 18.435434000000001
#
# number of rings (size 3 to 8) (size 9 to 14) (size 15 to 20)
#    0.000    1.500    3.750    3.750    0.000    2.500 
#    0.000    3.750    0.000    0.000    0.000    0.000 
#    0.000    0.000    0.000    0.000    0.000    0.000 
#
# Total GULP energy -89357.648340 kJ/mol
# GULP energy per Si atom -5584.853021 kJ/mol
# Density = 1.839347 g / cm^3
# Si number density = 18.435434 Si / 1000 Ang^3
#
#
#
# Elastic Constant Matrix: (Units=GPa)
#
#
# Indices 1 2 3 4 5 6 
#
# 1 206.7645 34.3055 87.3310 0.0000 0.0000 0.0000
# 2 34.3055 23.8579 38.4006 0.0000 0.0000 0.0000
# 3 87.3310 38.4006 159.1858 0.0000 0.0000 0.0000
# 4 0.0000 0.0000 0.0000 46.8476 0.0000 0.0000
# 5 0.0000 0.0000 0.0000 0.0000 2.8304 0.0000
# 6 0.0000 0.0000 0.0000 0.0000 0.0000 20.9230
#
#
#
# Elastic Compliance Matrix: (Units=1/GPa)
#
#
# Indices 1 2 3 4 5 6 
#
# 1 0.006810 -0.006177 -0.002246 0.000000 0.000000 0.000000
# 2 -0.006177 0.074122 -0.014492 0.000000 0.000000 0.000000
# 3 -0.002246 -0.014492 0.011010 0.000000 0.000000 0.000000
# 4 0.000000 0.000000 0.000000 0.021346 0.000000 0.000000
# 5 0.000000 0.000000 0.000000 0.000000 0.353301 0.000000
# 6 0.000000 0.000000 0.000000 0.000000 0.000000 0.047794
#
#
# Mechanical properties :
#
#
# Convention : Reuss Voigt Hill
#
# Bulk Modulus (GPa) = 21.68605 78.87581 50.28093
# Shear Modulus (GPa) = 8.68684 29.43829 19.06256
#
# Velocity S-wave (km/s) = 2.17308 4.00037 3.21910
# Velocity P-wave (km/s) = 4.25266 8.01343 6.41484
#
# Compressibility (1/GPa) = 0.04611260
#
# Stress axis : x y z
#
# Youngs Moduli (GPa) = 146.84519 13.49121 90.82718
#
# Poissons Ratio (x) = 0.08334 0.20398
# Poissons Ratio (y) = 0.90709 1.31624
# Poissons Ratio (z) = 0.32979 0.19551
#
# Static dielectric constant tensor:
#      x y z
#    x 1.642380 0.000000 0.000000 
#    y 0.000000 1.621880 0.000000 
#    z 0.000000 0.000000 1.612740 
# 
# From -- ./inp_files/10811.got.cif
#   From: 2010.05.17/outbox.cif.g08.bks.cpg/sg35_6_cif.got.tgz:10811.got - 2010.06.03 17:29:28.
