data_PCOD9349329
_publ_section_title
;
Structure prediction by ZEFSAII (Michael W. Deem and Ramdas Pophale) SiO2 
 PCOD9349329
Probable space group: C M M 2
;
_chemical_formula_sum "Si O2"
_cell_formula_units_Z 48
_cell_length_a 8.303832
_cell_length_b 31.910021
_cell_length_c 9.678987
_cell_angle_alpha 90.000000
_cell_angle_beta 90.000000
_cell_angle_gamma 90.000000
_cell_volume 2564.693970
_symmetry_space_group_name_H-M "C M M 2"
_symmetry_group_IT_number 35
_symmetry_cell_setting 'orthorhombic'
loop_
_space_group_symop_operation_xyz
x,y,z
-x,-y,z
-x,y,z
x,-y,z
1/2+x,1/2+y,z
1/2-x,1/2-y,z
1/2-x,1/2+y,z
1/2+x,1/2-y,z
loop_
_atom_site_type_symbol
_atom_site_label
_atom_site_fract_x
_atom_site_fract_y
_atom_site_fract_z
Si Si1 0.308804 0.096271 0.982750
Si Si2 0.191599 0.868493 0.262409
Si Si3 0.194208 0.202833 0.480421
Si Si4 0.183600 0.144650 0.714332
Si Si5 0.696078 0.000000 0.925384
Si Si6 0.191790 0.000000 0.610629
Si Si7 0.183044 0.414821 0.499542
O O1 0.500000 0.095792 0.999714
O O2 0.268911 0.120037 0.838706
O O3 0.256953 0.046560 0.985099
O O4 0.233699 0.124936 0.103156
O O5 0.243244 0.827171 0.350932
O O6 0.282636 0.905881 0.340910
O O7 0.000000 0.872023 0.277712
O O8 0.250000 0.250000 0.458988
O O9 0.252086 0.185006 0.630709
O O10 0.000000 0.201467 0.485982
O O11 0.191393 0.112422 0.586847
O O12 0.000000 0.152989 0.757338
O O13 0.771130 0.000000 0.772893
O O14 0.500000 0.000000 0.917683
O O15 0.278806 0.961017 0.542761
O O16 0.000000 0.000000 0.587625
O O17 0.000000 0.402926 0.535396
#
# Coordination Sequence:
#
# PCOD9349329 Si02
#       7
#     8   8   8   8   4   4   8
#     4  11  22  37  58  85 118 158 198 240 288 340
#     4  10  22  40  58  82 117 154 192 237 291 351
#     4   9  20  38  62  88 114 145 187 241 294 350
#     4  10  20  36  57  84 115 148 187 234 286 343
#     4  10  22  37  54  81 118 152 196 246 288 331
#     4  12  22  33  54  81 110 150 198 242 290 339
#     4  11  21  35  55  80 110 146 192 241 285 334
#
# _framework density 18.715684
#
# number of rings (size 3 to 8) (size 9 to 14) (size 15 to 20)
#    0.000    1.667    1.667    4.750    0.000    5.333 
#    0.000    3.333    0.000    0.000    0.000    0.000 
#    0.000    0.000    0.000    0.000    0.000    0.000 
#
# Total GULP energy -133643.670994 kJ/mol
# GULP energy per Si atom -5568.486291 kJ/mol
# Density = 1.867309 g / cm^3
# Si number density = 18.715684 Si / 1000 Ang^3
#
#
#
# Elastic Constant Matrix: (Units=GPa)
#
#
# Indices 1 2 3 4 5 6 
#
# 1 51.6886 16.4882 14.7215 0.0000 0.0000 0.0000
# 2 16.4882 109.4011 38.4532 0.0000 0.0000 0.0000
# 3 14.7215 38.4532 90.1954 0.0000 0.0000 0.0000
# 4 0.0000 0.0000 0.0000 6.3673 0.0000 0.0000
# 5 0.0000 0.0000 0.0000 0.0000 -21.6471 0.0000
# 6 0.0000 0.0000 0.0000 0.0000 0.0000 21.6284
#
#
#
# Elastic Compliance Matrix: (Units=1/GPa)
#
#
# Indices 1 2 3 4 5 6 
#
# 1 0.020762 -0.002280 -0.002417 0.000000 0.000000 0.000000
# 2 -0.002280 0.011002 -0.004318 0.000000 0.000000 0.000000
# 3 -0.002417 -0.004318 0.013323 0.000000 0.000000 0.000000
# 4 0.000000 0.000000 0.000000 0.157053 0.000000 0.000000
# 5 0.000000 0.000000 0.000000 0.000000 -0.046196 0.000000
# 6 0.000000 0.000000 0.000000 0.000000 0.000000 0.046235
#
#
# Mechanical properties :
#
#
# Convention : Reuss Voigt Hill
#
# Bulk Modulus (GPa) = 36.95908 43.40120 40.18014
# Shear Modulus (GPa) = 21.81222 13.37786 17.59504
#
# Velocity S-wave (km/s) = 3.41757 2.67646 3.06947
# Velocity P-wave (km/s) = 5.94673 5.72638 5.83759
#
# Compressibility (1/GPa) = 0.02705695
#
# Stress axis : x y z
#
# Youngs Moduli (GPa) = 48.16455 90.89134 75.06026
#
# Poissons Ratio (x) = 0.20720 0.18141
# Poissons Ratio (y) = 0.10980 0.32415
# Poissons Ratio (z) = 0.11641 0.39251
#
# Static dielectric constant tensor:
#      x y z
#    x 1.652930 0.000000 0.000000 
#    y 0.000000 1.722830 0.000000 
#    z 0.000000 0.000000 1.642290 
# 
# From -- ./inp_files/5366.got.cif
#   From: 2010.05.17/outbox.cif.g08.bks.cpg/sg35_3_cif.got.tgz:5366.got - 2010.06.03 17:29:28.
