data_PCOD9349983
_publ_section_title
;
Structure prediction by ZEFSAII (Michael W. Deem and Ramdas Pophale) SiO2 
 PCOD9349983
Probable space group: C M M 2
;
_chemical_formula_sum "Si O2"
_cell_formula_units_Z 40
_cell_length_a 14.038801
_cell_length_b 14.335185
_cell_length_c 9.276565
_cell_angle_alpha 90.000000
_cell_angle_beta 90.000000
_cell_angle_gamma 90.000000
_cell_volume 1866.897663
_symmetry_space_group_name_H-M "C M M 2"
_symmetry_group_IT_number 35
_symmetry_cell_setting 'orthorhombic'
loop_
_space_group_symop_operation_xyz
x,y,z
-x,-y,z
-x,y,z
x,-y,z
1/2+x,1/2+y,z
1/2-x,1/2-y,z
1/2-x,1/2+y,z
1/2+x,1/2-y,z
loop_
_atom_site_type_symbol
_atom_site_label
_atom_site_fract_x
_atom_site_fract_y
_atom_site_fract_z
Si Si1 0.791662 0.146358 0.750000
Si Si2 0.789629 0.603589 0.051770
Si Si3 0.500000 0.887319 0.172069
Si Si4 0.000000 0.704129 0.493150
Si Si5 0.250000 0.250000 0.246246
Si Si6 0.180368 0.394696 0.482549
Si Si7 0.500000 0.611303 0.668267
O O1 0.750000 0.250000 0.744360
O O2 0.765566 0.103616 0.595071
O O3 0.904912 0.135009 0.758820
O O4 0.736173 0.103076 0.884458
O O5 0.777668 0.500000 0.110423
O O6 0.715650 0.673145 0.130489
O O7 0.900194 0.631960 0.086850
O O8 0.500000 0.828577 0.323071
O O9 0.500000 0.000000 0.198794
O O10 0.090722 0.652469 0.559865
O O11 0.000000 0.813486 0.534122
O O12 0.200455 0.321579 0.355707
O O13 0.159037 0.500000 0.435508
O O14 0.500000 0.500000 0.631937
#
# Coordination Sequence:
#
# PCOD9349983 Si02
#       7
#     8   8   4   4   4   8   4
#     4  12  25  48  71 103 144 193 247 307 357 433
#     4  11  24  44  70 101 142 192 242 296 369 434
#     4  10  22  42  71 105 140 182 233 304 368 426
#     4  12  22  41  72 105 149 178 239 300 375 430
#     4  12  22  38  62  96 144 182 238 296 360 434
#     4  12  24  42  69 104 142 188 242 302 367 431
#     4  12  26  47  75 106 151 196 244 304 375 446
#
# _framework density 21.425920999999999
#
# number of rings (size 3 to 8) (size 9 to 14) (size 15 to 20)
#    0.000    0.400    6.000    3.300    0.000    1.600 
#    0.000    4.000    0.000    0.000    0.000    4.200 
#    0.000    0.000    0.000    0.000    0.000    0.000 
#
# Total GULP energy -111359.662113 kJ/mol
# GULP energy per Si atom -5567.983106 kJ/mol
# Density = 2.137715 g / cm^3
# Si number density = 21.425921 Si / 1000 Ang^3
#
#
#
# Elastic Constant Matrix: (Units=GPa)
#
#
# Indices 1 2 3 4 5 6 
#
# 1 121.5810 41.9625 44.8891 0.0000 0.0000 0.0000
# 2 41.9625 202.5849 25.9622 0.0000 0.0000 0.0000
# 3 44.8891 25.9622 86.5155 0.0000 0.0000 0.0000
# 4 0.0000 0.0000 0.0000 61.1544 0.0000 0.0000
# 5 0.0000 0.0000 0.0000 0.0000 30.3044 0.0000
# 6 0.0000 0.0000 0.0000 0.0000 0.0000 27.7176
#
#
#
# Elastic Compliance Matrix: (Units=1/GPa)
#
#
# Indices 1 2 3 4 5 6 
#
# 1 0.010624 -0.001554 -0.005046 0.000000 0.000000 0.000000
# 2 -0.001554 0.005361 -0.000802 0.000000 0.000000 0.000000
# 3 -0.005046 -0.000802 0.014418 0.000000 0.000000 0.000000
# 4 0.000000 0.000000 0.000000 0.016352 0.000000 0.000000
# 5 0.000000 0.000000 0.000000 0.000000 0.032999 0.000000
# 6 0.000000 0.000000 0.000000 0.000000 0.000000 0.036078
#
#
# Mechanical properties :
#
#
# Convention : Reuss Voigt Hill
#
# Bulk Modulus (GPa) = 64.11190 70.70100 67.40645
# Shear Modulus (GPa) = 36.80899 43.69311 40.25105
#
# Velocity S-wave (km/s) = 4.14933 4.52072 4.33900
# Velocity P-wave (km/s) = 7.27623 7.76651 7.52536
#
# Compressibility (1/GPa) = 0.01559773
#
# Stress axis : x y z
#
# Youngs Moduli (GPa) = 94.12267 186.53490 69.35933
#
# Poissons Ratio (x) = 0.28988 0.35000
# Poissons Ratio (y) = 0.14627 0.05566
# Poissons Ratio (z) = 0.47496 0.14968
#
# Static dielectric constant tensor:
#      x y z
#    x 1.833900 0.000000 0.000000 
#    y 0.000000 1.823660 0.000000 
#    z 0.000000 0.000000 1.825460 
# 
# From -- ./inp_files/7045.got.cif
#   From: 2010.05.17/outbox.cif.g08.bks.cpg/sg35_4_cif.got.tgz:7045.got - 2010.06.03 17:29:28.
