data_PCOD9349806
_publ_section_title
;
Structure prediction by ZEFSAII (Michael W. Deem and Ramdas Pophale) SiO2 
 PCOD9349806
Probable space group: C M M 2
;
_chemical_formula_sum "Si O2"
_cell_formula_units_Z 34
_cell_length_a 17.024805
_cell_length_b 16.287576
_cell_length_c 7.154600
_cell_angle_alpha 90.000000
_cell_angle_beta 90.000000
_cell_angle_gamma 90.000000
_cell_volume 1983.919105
_symmetry_space_group_name_H-M "C M M 2"
_symmetry_group_IT_number 35
_symmetry_cell_setting 'orthorhombic'
loop_
_space_group_symop_operation_xyz
x,y,z
-x,-y,z
-x,y,z
x,-y,z
1/2+x,1/2+y,z
1/2-x,1/2-y,z
1/2-x,1/2+y,z
1/2+x,1/2-y,z
loop_
_atom_site_type_symbol
_atom_site_label
_atom_site_fract_x
_atom_site_fract_y
_atom_site_fract_z
Si Si1 0.591744 0.704667 0.997360
Si Si2 0.000000 0.500000 0.274541
Si Si3 0.659160 0.726380 0.589095
Si Si4 0.627864 0.853054 0.272349
Si Si5 0.310160 0.403248 0.274742
O O1 0.500000 0.685881 0.018290
O O2 0.614846 0.713121 0.781710
O O3 0.609522 0.790092 0.104435
O O4 0.644118 0.636333 0.100387
O O5 0.068408 0.427956 0.273929
O O6 0.750000 0.750000 0.627593
O O7 0.623230 0.799220 0.462407
O O8 0.660427 0.646049 0.457588
O O9 0.717735 0.882996 0.255286
O O10 0.322168 0.500000 0.289124
#
# Coordination Sequence:
#
# PCOD9349806 Si02
#       5
#     8   2   8   8   8
#     4  11  22  37  59  85 116 154 194 235 280 337
#     4  12  20  36  66  96 116 138 184 240 294 344
#     4   9  20  38  59  82 114 156 191 227 287 349
#     4  10  21  39  61  86 119 150 182 234 296 347
#     4  10  21  39  61  83 114 155 192 235 286 337
#
# _framework density 17.137796000000002
#
# number of rings (size 3 to 8) (size 9 to 14) (size 15 to 20)
#    0.000    1.882    2.353    3.529    1.647    2.353 
#    0.000    2.353    0.000    0.000    0.000    0.000 
#    0.000    0.000    0.000    0.000    0.000    0.000 
#
# Total GULP energy -94641.423108 kJ/mol
# GULP energy per Si atom -5567.142536 kJ/mol
# Density = 1.709879 g / cm^3
# Si number density = 17.137796 Si / 1000 Ang^3
#
#
#
# Elastic Constant Matrix: (Units=GPa)
#
#
# Indices 1 2 3 4 5 6 
#
# 1 102.6563 85.6316 67.1891 0.0000 0.0000 0.0000
# 2 85.6316 168.2955 62.2741 0.0000 0.0000 0.0000
# 3 67.1891 62.2741 115.2576 0.0000 0.0000 0.0000
# 4 0.0000 0.0000 0.0000 1.3835 0.0000 0.0000
# 5 0.0000 0.0000 0.0000 0.0000 -20.6316 0.0000
# 6 0.0000 0.0000 0.0000 0.0000 0.0000 40.5811
#
#
#
# Elastic Compliance Matrix: (Units=1/GPa)
#
#
# Indices 1 2 3 4 5 6 
#
# 1 0.022018 -0.008067 -0.008477 0.000000 0.000000 0.000000
# 2 -0.008067 0.010382 -0.000907 0.000000 0.000000 0.000000
# 3 -0.008477 -0.000907 0.014108 0.000000 0.000000 0.000000
# 4 0.000000 0.000000 0.000000 0.722798 0.000000 0.000000
# 5 0.000000 0.000000 0.000000 0.000000 -0.048469 0.000000
# 6 0.000000 0.000000 0.000000 0.000000 0.000000 0.024642
#
#
# Mechanical properties :
#
#
# Convention : Reuss Voigt Hill
#
# Bulk Modulus (GPa) = 86.15591 90.71101 88.43346
# Shear Modulus (GPa) = 6.37552 15.67426 11.02489
#
# Velocity S-wave (km/s) = 1.93086 3.02752 2.53910
# Velocity P-wave (km/s) = 7.43993 8.07877 7.76592
#
# Compressibility (1/GPa) = 0.01160686
#
# Stress axis : x y z
#
# Youngs Moduli (GPa) = 45.41666 96.32114 70.88159
#
# Poissons Ratio (x) = 0.77698 0.60088
# Poissons Ratio (y) = 0.36635 0.06429
# Poissons Ratio (z) = 0.38501 0.08737
#
# Static dielectric constant tensor:
#      x y z
#    x 1.578070 0.000000 0.000000 
#    y 0.000000 1.551820 0.000000 
#    z 0.000000 0.000000 1.559720 
# 
# From -- ./inp_files/1630.got.cif
#   From: 2010.05.17/outbox.cif.g08.bks.cpg/sg35_1_cif.got.tgz:1630.got - 2010.06.03 17:29:28.
