data_PCOD9349741
_publ_section_title
;
Structure prediction by ZEFSAII (Michael W. Deem and Ramdas Pophale) SiO2 
 PCOD9349741
Probable space group: C M M 2
;
_chemical_formula_sum "Si O2"
_cell_formula_units_Z 56
_cell_length_a 8.442385
_cell_length_b 22.919620
_cell_length_c 15.401125
_cell_angle_alpha 90.000000
_cell_angle_beta 90.000000
_cell_angle_gamma 90.000000
_cell_volume 2980.060027
_symmetry_space_group_name_H-M "C M M 2"
_symmetry_group_IT_number 35
_symmetry_cell_setting 'orthorhombic'
loop_
_space_group_symop_operation_xyz
x,y,z
-x,-y,z
-x,y,z
x,-y,z
1/2+x,1/2+y,z
1/2-x,1/2-y,z
1/2-x,1/2+y,z
1/2+x,1/2-y,z
loop_
_atom_site_type_symbol
_atom_site_label
_atom_site_fract_x
_atom_site_fract_y
_atom_site_fract_z
Si Si1 0.808562 0.817755 0.122390
Si Si2 0.683266 0.500000 0.522410
Si Si3 0.186497 0.389744 0.426643
Si Si4 0.307695 0.930272 0.234841
Si Si5 0.310088 0.314503 0.924839
Si Si6 0.179792 0.500000 0.704505
Si Si7 0.811540 0.185399 0.577090
Si Si8 0.307675 0.617376 0.752302
O O1 0.750000 0.750000 0.143827
O O2 0.749965 0.875329 0.175489
O O3 0.000000 0.815738 0.128709
O O4 0.757640 0.830324 0.022461
O O5 0.500000 0.500000 0.495775
O O6 0.772695 0.555667 0.486752
O O7 0.697914 0.500000 0.625046
O O8 0.244142 0.409228 0.331455
O O9 0.257874 0.337077 0.482457
O O10 0.000000 0.379931 0.419461
O O11 0.500000 0.931113 0.231806
O O12 0.259738 0.000000 0.220134
O O13 0.500000 0.316195 0.927158
O O14 0.250000 0.250000 0.910721
O O15 0.261486 0.349073 0.839429
O O16 0.218954 0.556755 0.757779
O O17 0.000000 0.500000 0.671686
O O18 0.750000 0.250000 0.591227
O O19 0.759360 0.147049 0.660527
O O20 0.000000 0.184009 0.577974
O O21 0.500000 0.611227 0.750652
#
# Coordination Sequence:
#
# PCOD9349741 Si02
#       8
#     8   4   8   8   8   4   8   8
#     4  10  21  39  64  92 120 156 201 249 304 363
#     4  12  22  36  58  83 112 149 190 233 282 338
#     4  11  22  39  61  84 113 151 195 240 287 345
#     4  10  22  41  63  89 121 158 198 249 309 360
#     4   9  19  37  61  87 115 151 193 238 291 349
#     4  12  24  36  56  83 114 155 200 239 282 338
#     4  11  23  37  56  84 117 155 196 239 290 343
#     4  10  21  38  58  82 116 154 192 239 292 342
#
# _framework density 18.791568000000002
#
# number of rings (size 3 to 8) (size 9 to 14) (size 15 to 20)
#    0.000    1.571    2.143    3.000    0.000    3.714 
#    1.286    0.000    0.000    0.000    0.000    0.000 
#    0.000    0.000    0.000    0.000    0.000    0.000 
#
# Total GULP energy -155958.925262 kJ/mol
# GULP energy per Si atom -5569.961616 kJ/mol
# Density = 1.874880 g / cm^3
# Si number density = 18.791568 Si / 1000 Ang^3
#
#
#
# Elastic Constant Matrix: (Units=GPa)
#
#
# Indices 1 2 3 4 5 6 
#
# 1 20.8685 31.9323 27.5989 0.0000 0.0000 0.0000
# 2 31.9323 140.8396 85.4988 0.0000 0.0000 0.0000
# 3 27.5989 85.4988 121.9797 0.0000 0.0000 0.0000
# 4 0.0000 0.0000 0.0000 64.1415 0.0000 0.0000
# 5 0.0000 0.0000 0.0000 0.0000 18.0440 0.0000
# 6 0.0000 0.0000 0.0000 0.0000 0.0000 102.7034
#
#
#
# Elastic Compliance Matrix: (Units=1/GPa)
#
#
# Indices 1 2 3 4 5 6 
#
# 1 0.078953 -0.012283 -0.009254 0.000000 0.000000 0.000000
# 2 -0.012283 0.014270 -0.007223 0.000000 0.000000 0.000000
# 3 -0.009254 -0.007223 0.015355 0.000000 0.000000 0.000000
# 4 0.000000 0.000000 0.000000 0.015591 0.000000 0.000000
# 5 0.000000 0.000000 0.000000 0.000000 0.055420 0.000000
# 6 0.000000 0.000000 0.000000 0.000000 0.000000 0.009737
#
#
# Mechanical properties :
#
#
# Convention : Reuss Voigt Hill
#
# Bulk Modulus (GPa) = 19.58586 63.74975 41.66781
# Shear Modulus (GPa) = 18.94903 46.22164 32.58533
#
# Velocity S-wave (km/s) = 3.17894 4.96492 4.16870
# Velocity P-wave (km/s) = 4.89076 8.17713 6.73740
#
# Compressibility (1/GPa) = 0.05105724
#
# Stress axis : x y z
#
# Youngs Moduli (GPa) = 12.66572 70.07665 65.12583
#
# Poissons Ratio (x) = 0.86074 0.60270
# Poissons Ratio (y) = 0.15557 0.47042
# Poissons Ratio (z) = 0.11721 0.50618
#
# Static dielectric constant tensor:
#      x y z
#    x 1.643350 0.000000 0.000000 
#    y 0.000000 1.679230 0.000000 
#    z 0.000000 0.000000 1.670850 
# 
# From -- ./inp_files/15701.got.cif
#   From: 2010.05.17/outbox.cif.g08.bks.cpg/sg35_8_cif.got.tgz:15701.got - 2010.06.03 17:29:28.
