data_PCOD9349309
_publ_section_title
;
Structure prediction by ZEFSAII (Michael W. Deem and Ramdas Pophale) SiO2 
 PCOD9349309
Probable space group: C M M 2
;
_chemical_formula_sum "Si O2"
_cell_formula_units_Z 48
_cell_length_a 8.117760
_cell_length_b 14.866267
_cell_length_c 17.723959
_cell_angle_alpha 90.000000
_cell_angle_beta 90.000000
_cell_angle_gamma 90.000000
_cell_volume 2138.941332
_symmetry_space_group_name_H-M "C M M 2"
_symmetry_group_IT_number 35
_symmetry_cell_setting 'orthorhombic'
loop_
_space_group_symop_operation_xyz
x,y,z
-x,-y,z
-x,y,z
x,-y,z
1/2+x,1/2+y,z
1/2-x,1/2-y,z
1/2-x,1/2+y,z
1/2+x,1/2-y,z
loop_
_atom_site_type_symbol
_atom_site_label
_atom_site_fract_x
_atom_site_fract_y
_atom_site_fract_z
Si Si1 0.309529 0.148747 0.000000
Si Si2 0.812792 0.892012 0.836139
Si Si3 0.500000 0.110922 0.233966
Si Si4 0.809725 0.110494 0.508530
Si Si5 0.200608 0.103613 0.675424
Si Si6 0.175906 0.897163 0.153146
Si Si7 0.000000 0.609745 0.408531
O O1 0.500000 0.135873 0.018510
O O2 0.250000 0.250000 0.008587
O O3 0.204916 0.098714 0.063326
O O4 0.282572 0.125207 0.912800
O O5 0.742701 0.857638 0.755979
O O6 0.000000 0.857415 0.846668
O O7 0.822425 0.000000 0.827750
O O8 0.664105 0.143579 0.191952
O O9 0.500000 0.136374 0.321383
O O10 0.500000 0.000000 0.229288
O O11 0.760775 0.141738 0.593251
O O12 0.667185 0.138772 0.451103
O O13 0.000000 0.137280 0.492330
O O14 0.811822 0.000000 0.509961
O O15 0.000000 0.102420 0.679824
O O16 0.258575 0.000000 0.672966
O O17 0.000000 0.853242 0.169005
O O18 0.167692 0.000000 0.180740
O O19 0.000000 0.500000 0.410714
#
# Coordination Sequence:
#
# PCOD9349309 Si02
#       7
#     8   8   4   8   8   8   4
#     4  12  24  37  52  73 102 134 170 219 260 309
#     4   9  17  31  51  74 101 136 175 211 254 304
#     4   9  18  32  48  71 101 133 170 209 252 305
#     4   8  13  22  36  57  90 131 167 197 239 292
#     4   7  11  22  40  61  90 130 170 204 237 285
#     4  10  20  36  57  77 101 136 174 211 256 311
#     4   9  16  24  38  63  95 129 163 203 248 293
#
# _framework density 22.441008
#
# number of rings (size 3 to 8) (size 9 to 14) (size 15 to 20)
#    0.000    2.833    0.833    4.000    0.000    3.000 
#    1.500    3.333    0.000    0.000    0.000    0.000 
#    0.000    1.333    2.333    0.000    0.000    0.000 
#
# Total GULP energy -133860.813248 kJ/mol
# GULP energy per Si atom -5577.533885 kJ/mol
# Density = 2.238993 g / cm^3
# Si number density = 22.441008 Si / 1000 Ang^3
#
#
#
# Elastic Constant Matrix: (Units=GPa)
#
#
# Indices 1 2 3 4 5 6 
#
# 1 155.6336 6.8576 88.8525 0.0000 0.0000 0.0000
# 2 6.8576 44.3888 1.5229 0.0000 0.0000 0.0000
# 3 88.8525 1.5229 160.2097 0.0000 0.0000 0.0000
# 4 0.0000 0.0000 0.0000 -43.7033 0.0000 0.0000
# 5 0.0000 0.0000 0.0000 0.0000 36.3799 0.0000
# 6 0.0000 0.0000 0.0000 0.0000 0.0000 7.5141
#
#
#
# Elastic Compliance Matrix: (Units=1/GPa)
#
#
# Indices 1 2 3 4 5 6 
#
# 1 0.009475 -0.001284 -0.005243 0.000000 0.000000 0.000000
# 2 -0.001284 0.022710 0.000496 0.000000 0.000000 0.000000
# 3 -0.005243 0.000496 0.009145 0.000000 0.000000 0.000000
# 4 0.000000 0.000000 0.000000 -0.022882 0.000000 0.000000
# 5 0.000000 0.000000 0.000000 0.000000 0.027488 0.000000
# 6 0.000000 0.000000 0.000000 0.000000 0.000000 0.133082
#
#
# Mechanical properties :
#
#
# Convention : Reuss Voigt Hill
#
# Bulk Modulus (GPa) = 34.16643 61.63312 47.89977
# Shear Modulus (GPa) = 24.89610 17.57142 21.23376
#
# Velocity S-wave (km/s) = 3.33438 2.80126 3.07938
# Velocity P-wave (km/s) = 5.48472 6.16335 5.83391
#
# Compressibility (1/GPa) = 0.02926850
#
# Stress axis : x y z
#
# Youngs Moduli (GPa) = 105.54108 44.03432 109.35323
#
# Poissons Ratio (x) = 0.05654 0.57330
# Poissons Ratio (y) = 0.13551 -0.05426
# Poissons Ratio (z) = 0.55331 -0.02185
#
# Static dielectric constant tensor:
#      x y z
#    x 1.813000 0.000000 0.000000 
#    y 0.000000 1.848700 0.000000 
#    z 0.000000 0.000000 1.841850 
# 
# From -- ./inp_files/17853.got.cif
#   From: 2010.05.17/outbox.cif.g08.bks.cpg/sg35_9_cif.got.tgz:17853.got - 2010.06.03 17:29:28.
