data_PCOD9349334
_publ_section_title
;
Structure prediction by ZEFSAII (Michael W. Deem and Ramdas Pophale) SiO2 
 PCOD9349334
Probable space group: C M M 2
;
_chemical_formula_sum "Si O2"
_cell_formula_units_Z 64
_cell_length_a 19.395048
_cell_length_b 20.012853
_cell_length_c 8.537084
_cell_angle_alpha 90.000000
_cell_angle_beta 90.000000
_cell_angle_gamma 90.000000
_cell_volume 3313.671242
_symmetry_space_group_name_H-M "C M M 2"
_symmetry_group_IT_number 35
_symmetry_cell_setting 'orthorhombic'
loop_
_space_group_symop_operation_xyz
x,y,z
-x,-y,z
-x,y,z
x,-y,z
1/2+x,1/2+y,z
1/2-x,1/2-y,z
1/2-x,1/2+y,z
1/2+x,1/2-y,z
loop_
_atom_site_type_symbol
_atom_site_label
_atom_site_fract_x
_atom_site_fract_y
_atom_site_fract_z
Si Si1 0.920449 0.314736 0.223570
Si Si2 0.686984 0.422906 0.232561
Si Si3 0.318240 0.794434 0.932750
Si Si4 0.632615 0.574181 0.881166
Si Si5 0.076889 0.828130 0.392277
Si Si6 0.075972 0.796670 0.757278
Si Si7 0.830952 0.578385 0.386652
Si Si8 0.224419 0.423590 0.739136
O O1 0.918278 0.244431 0.313817
O O2 0.892234 0.373144 0.336097
O O3 0.000000 0.326987 0.176247
O O4 0.868125 0.306979 0.079245
O O5 0.676656 0.500000 0.281288
O O6 0.635037 0.375442 0.323505
O O7 0.765391 0.406039 0.275592
O O8 0.670748 0.418737 0.048301
O O9 0.250000 0.750000 0.970689
O O10 0.363112 0.751330 0.810364
O O11 0.300129 0.864979 0.853209
O O12 0.601418 0.500000 0.874726
O O13 0.582351 0.635651 0.857780
O O14 0.692440 0.578664 0.749688
O O15 0.083215 0.817425 0.577285
O O16 0.000000 0.855468 0.358887
O O17 0.000000 0.766273 0.780374
O O18 0.848464 0.500000 0.367577
O O19 0.804861 0.587765 0.565117
O O20 0.205481 0.500000 0.787487
#
# Coordination Sequence:
#
# PCOD9349334 Si02
#       8
#     8   8   8   8   8   8   8   8
#     4  11  25  43  63  90 126 163 202 256 313 370
#     4  10  21  36  59  89 123 160 206 254 302 363
#     4  12  24  39  63  97 122 164 210 252 310 374
#     4  10  20  36  57  87 124 162 202 250 307 368
#     4  10  23  40  59  86 122 164 206 251 308 363
#     4  11  23  40  60  86 124 163 205 258 306 362
#     4  10  22  40  65  93 120 160 207 256 307 362
#     4  10  21  40  64  93 126 156 201 258 307 359
#
# _framework density 19.313927
#
# number of rings (size 3 to 8) (size 9 to 14) (size 15 to 20)
#    0.000    1.500    1.250    3.375    1.750    5.250 
#    0.000    3.125    0.000    2.625    0.000    0.000 
#    0.000    0.000    0.000    0.000    0.000    0.000 
#
# Total GULP energy -178780.429696 kJ/mol
# GULP energy per Si atom -5586.888428 kJ/mol
# Density = 1.926997 g / cm^3
# Si number density = 19.313927 Si / 1000 Ang^3
#
#
#
# Elastic Constant Matrix: (Units=GPa)
#
#
# Indices 1 2 3 4 5 6 
#
# 1 110.8495 53.5733 31.5844 0.0000 0.0000 0.0000
# 2 53.5733 86.6684 26.4310 0.0000 0.0000 0.0000
# 3 31.5844 26.4310 56.5772 0.0000 0.0000 0.0000
# 4 0.0000 0.0000 0.0000 28.2022 0.0000 0.0000
# 5 0.0000 0.0000 0.0000 0.0000 19.3830 0.0000
# 6 0.0000 0.0000 0.0000 0.0000 0.0000 22.4294
#
#
#
# Elastic Compliance Matrix: (Units=1/GPa)
#
#
# Indices 1 2 3 4 5 6 
#
# 1 0.013709 -0.007160 -0.004308 0.000000 0.000000 0.000000
# 2 -0.007160 0.017195 -0.004036 0.000000 0.000000 0.000000
# 3 -0.004308 -0.004036 0.021965 0.000000 0.000000 0.000000
# 4 0.000000 0.000000 0.000000 0.035458 0.000000 0.000000
# 5 0.000000 0.000000 0.000000 0.000000 0.051592 0.000000
# 6 0.000000 0.000000 0.000000 0.000000 0.000000 0.044584
#
#
# Mechanical properties :
#
#
# Convention : Reuss Voigt Hill
#
# Bulk Modulus (GPa) = 45.74299 53.03028 49.38664
# Shear Modulus (GPa) = 22.44167 23.50334 22.97250
#
# Velocity S-wave (km/s) = 3.41243 3.49221 3.45255
# Velocity P-wave (km/s) = 6.26590 6.61644 6.44356
#
# Compressibility (1/GPa) = 0.02186127
#
# Stress axis : x y z
#
# Youngs Moduli (GPa) = 72.94253 58.15587 45.52626
#
# Poissons Ratio (x) = 0.41642 0.19614
# Poissons Ratio (y) = 0.52230 0.18373
# Poissons Ratio (z) = 0.31425 0.23470
#
# Static dielectric constant tensor:
#      x y z
#    x 1.671600 0.000000 0.000000 
#    y 0.000000 1.667260 0.000000 
#    z 0.000000 0.000000 1.673420 
# 
# From -- ./inp_files/8783.got.cif
#   From: 2010.05.17/outbox.cif.g08.bks.cpg/sg35_5_cif.got.tgz:8783.got - 2010.06.03 17:29:28.
