data_PCOD9349289
_publ_section_title
;
Structure prediction by ZEFSAII (Michael W. Deem and Ramdas Pophale) SiO2 
 PCOD9349289
Probable space group: C M M 2
;
_chemical_formula_sum "Si O2"
_cell_formula_units_Z 48
_cell_length_a 32.805183
_cell_length_b 8.723301
_cell_length_c 9.490634
_cell_angle_alpha 90.000000
_cell_angle_beta 90.000000
_cell_angle_gamma 90.000000
_cell_volume 2715.929850
_symmetry_space_group_name_H-M "C M M 2"
_symmetry_group_IT_number 35
_symmetry_cell_setting 'orthorhombic'
loop_
_space_group_symop_operation_xyz
x,y,z
-x,-y,z
-x,y,z
x,-y,z
1/2+x,1/2+y,z
1/2-x,1/2-y,z
1/2-x,1/2+y,z
1/2+x,1/2-y,z
loop_
_atom_site_type_symbol
_atom_site_label
_atom_site_fract_x
_atom_site_fract_y
_atom_site_fract_z
Si Si1 0.044240 0.183250 0.412390
Si Si2 0.043928 0.315153 0.729668
Si Si3 0.366916 0.815644 0.740613
Si Si4 0.207298 0.182439 0.914578
Si Si5 0.207052 0.684484 0.228761
Si Si6 0.371341 0.183733 0.408214
O O1 0.043775 0.243660 0.573490
O O2 0.086221 0.248192 0.351265
O O3 0.000000 0.229947 0.350202
O O4 0.046093 0.000000 0.412546
O O5 0.044937 0.500000 0.714218
O O6 0.087566 0.272750 0.795309
O O7 0.000000 0.274250 0.796583
O O8 0.330814 0.732514 0.820889
O O9 0.366260 0.777869 0.573792
O O10 0.361932 0.000000 0.754890
O O11 0.250000 0.250000 0.857813
O O12 0.210451 0.000000 0.924183
O O13 0.202107 0.252777 0.070578
O O14 0.209082 0.500000 0.225495
O O15 0.250000 0.750000 0.283589
O O16 0.168406 0.732106 0.321979
O O17 0.374561 0.000000 0.400379
#
# Coordination Sequence:
#
# PCOD9349289 Si02
#       6
#     8   8   8   8   8   8
#     4   9  16  25  41  68 100 131 162 197 237 281
#     4   8  14  26  45  68  96 130 163 195 235 284
#     4   9  17  31  50  75 104 129 159 201 242 281
#     4  11  22  36  53  72  95 128 166 200 241 292
#     4  10  20  36  55  74  96 125 162 201 243 292
#     4   9  19  33  51  75 101 129 162 200 242 288
#
# _framework density 17.673504999999999
#
# number of rings (size 3 to 8) (size 9 to 14) (size 15 to 20)
#    0.000    2.667    0.000    4.500    0.000    5.667 
#    0.000    1.667    0.000    1.000    0.000    2.333 
#    0.000    0.000    0.000    0.000    0.000    0.000 
#
# Total GULP energy -133668.712484 kJ/mol
# GULP energy per Si atom -5569.529687 kJ/mol
# Density = 1.763328 g / cm^3
# Si number density = 17.673505 Si / 1000 Ang^3
#
#
#
# Elastic Constant Matrix: (Units=GPa)
#
#
# Indices 1 2 3 4 5 6 
#
# 1 226.4532 57.1030 54.2249 0.0000 0.0000 0.0000
# 2 57.1030 42.6620 17.9861 0.0000 0.0000 0.0000
# 3 54.2249 17.9861 23.8315 0.0000 0.0000 0.0000
# 4 0.0000 0.0000 0.0000 16.6462 0.0000 0.0000
# 5 0.0000 0.0000 0.0000 0.0000 -22.7172 0.0000
# 6 0.0000 0.0000 0.0000 0.0000 0.0000 32.6635
#
#
#
# Elastic Compliance Matrix: (Units=1/GPa)
#
#
# Indices 1 2 3 4 5 6 
#
# 1 0.010630 -0.005912 -0.019724 0.000000 0.000000 0.000000
# 2 -0.005912 0.037667 -0.014976 0.000000 0.000000 0.000000
# 3 -0.019724 -0.014976 0.098143 0.000000 0.000000 0.000000
# 4 0.000000 0.000000 0.000000 0.060074 0.000000 0.000000
# 5 0.000000 0.000000 0.000000 0.000000 -0.044020 0.000000
# 6 0.000000 0.000000 0.000000 0.000000 0.000000 0.030615
#
#
# Mechanical properties :
#
#
# Convention : Reuss Voigt Hill
#
# Bulk Modulus (GPa) = 15.33370 61.28609 38.30990
# Shear Modulus (GPa) = 16.88771 16.22737 16.55754
#
# Velocity S-wave (km/s) = 3.09453 3.03343 3.06413
# Velocity P-wave (km/s) = 4.63283 6.85719 5.85167
#
# Compressibility (1/GPa) = 0.06521582
#
# Stress axis : x y z
#
# Youngs Moduli (GPa) = 94.07456 26.54822 10.18917
#
# Poissons Ratio (x) = 0.15696 0.20098
# Poissons Ratio (y) = 0.55620 0.15259
# Poissons Ratio (z) = 1.85557 0.39758
#
# Static dielectric constant tensor:
#      x y z
#    x 1.663760 0.000000 0.000000 
#    y 0.000000 1.592370 0.000000 
#    z 0.000000 0.000000 1.572740 
# 
# From -- ./inp_files/11477.got.cif
#   From: 2010.05.17/outbox.cif.g08.bks.cpg/sg35_6_cif.got.tgz:11477.got - 2010.06.03 17:29:28.
