data_PCOD9349728
_publ_section_title
;
Structure prediction by ZEFSAII (Michael W. Deem and Ramdas Pophale) SiO2 
 PCOD9349728
Probable space group: C M M 2
;
_chemical_formula_sum "Si O2"
_cell_formula_units_Z 56
_cell_length_a 16.706717
_cell_length_b 23.622313
_cell_length_c 6.849850
_cell_angle_alpha 90.000000
_cell_angle_beta 90.000000
_cell_angle_gamma 90.000000
_cell_volume 2703.302195
_symmetry_space_group_name_H-M "C M M 2"
_symmetry_group_IT_number 35
_symmetry_cell_setting 'orthorhombic'
loop_
_space_group_symop_operation_xyz
x,y,z
-x,-y,z
-x,y,z
x,-y,z
1/2+x,1/2+y,z
1/2-x,1/2-y,z
1/2-x,1/2+y,z
1/2+x,1/2-y,z
loop_
_atom_site_type_symbol
_atom_site_label
_atom_site_fract_x
_atom_site_fract_y
_atom_site_fract_z
Si Si1 0.879019 0.342169 0.622420
Si Si2 0.323939 0.565638 0.314544
Si Si3 0.810946 0.157831 0.621841
Si Si4 0.592147 0.650464 0.019470
Si Si5 0.368738 0.747951 0.319715
Si Si6 0.412554 0.164146 0.063366
Si Si7 0.369772 0.935375 0.317167
O O1 0.783378 0.344872 0.657830
O O2 0.904123 0.290093 0.484247
O O3 0.897427 0.399600 0.505577
O O4 0.912994 0.333943 0.834090
O O5 0.349000 0.500000 0.322207
O O6 0.341911 0.601305 0.511318
O O7 0.227078 0.566752 0.302476
O O8 0.363420 0.599255 0.133674
O O9 0.860046 0.166265 0.821461
O O10 0.818122 0.207125 0.459647
O O11 0.500000 0.636393 0.973337
O O12 0.591823 0.702548 0.173524
O O13 0.344061 0.796882 0.163440
O O14 0.500000 0.184975 0.132487
O O15 0.401236 0.100529 0.135598
O O16 0.395134 0.000000 0.322157
#
# Coordination Sequence:
#
# PCOD9349728 Si02
#       7
#     8   8   8   8   8   8   8
#     4  10  21  37  60  87 113 147 192 238 284 336
#     4   9  20  40  62  83 111 149 194 241 284 331
#     4  10  21  37  60  87 113 147 192 238 284 336
#     4  11  23  37  57  86 119 153 187 230 289 349
#     4  10  22  38  56  80 114 152 190 230 276 334
#     4  11  23  37  57  86 119 153 187 230 289 349
#     4   9  20  40  62  83 111 149 194 241 284 331
#
# _framework density 20.715406000000002
#
# number of rings (size 3 to 8) (size 9 to 14) (size 15 to 20)
#    0.000    2.000    0.000    2.571    0.000   10.857 
#    0.000    2.857    0.000    0.000    0.000    0.000 
#    0.000    0.000    0.000    0.000    0.000    0.000 
#
# Total GULP energy -156038.587453 kJ/mol
# GULP energy per Si atom -5572.806695 kJ/mol
# Density = 2.066826 g / cm^3
# Si number density = 20.715406 Si / 1000 Ang^3
#
#
#
# Elastic Constant Matrix: (Units=GPa)
#
#
# Indices 1 2 3 4 5 6 
#
# 1 70.7877 24.3839 44.2041 0.0000 0.0000 0.0000
# 2 24.3839 160.3674 50.8788 0.0000 0.0000 0.0000
# 3 44.2041 50.8788 158.1311 0.0000 0.0000 0.0000
# 4 0.0000 0.0000 0.0000 3.4821 0.0000 0.0000
# 5 0.0000 0.0000 0.0000 0.0000 14.7598 0.0000
# 6 0.0000 0.0000 0.0000 0.0000 0.0000 6.3762
#
#
#
# Elastic Compliance Matrix: (Units=1/GPa)
#
#
# Indices 1 2 3 4 5 6 
#
# 1 0.017327 -0.001223 -0.004450 0.000000 0.000000 0.000000
# 2 -0.001223 0.007031 -0.001920 0.000000 0.000000 0.000000
# 3 -0.004450 -0.001920 0.008186 0.000000 0.000000 0.000000
# 4 0.000000 0.000000 0.000000 0.287184 0.000000 0.000000
# 5 0.000000 0.000000 0.000000 0.000000 0.067752 0.000000
# 6 0.000000 0.000000 0.000000 0.000000 0.000000 0.156834
#
#
# Mechanical properties :
#
#
# Convention : Reuss Voigt Hill
#
# Bulk Modulus (GPa) = 57.61361 69.80220 63.70790
# Shear Modulus (GPa) = 8.84509 22.91157 15.87833
#
# Velocity S-wave (km/s) = 2.06859 3.32929 2.77157
# Velocity P-wave (km/s) = 5.79463 6.96763 6.40803
#
# Compressibility (1/GPa) = 0.01735701
#
# Stress axis : x y z
#
# Youngs Moduli (GPa) = 57.71377 142.23004 122.16334
#
# Poissons Ratio (x) = 0.17390 0.54365
# Poissons Ratio (y) = 0.07057 0.23460
# Poissons Ratio (z) = 0.25684 0.27314
#
# Static dielectric constant tensor:
#      x y z
#    x 1.798340 0.000000 0.000000 
#    y 0.000000 1.736580 0.000000 
#    z 0.000000 0.000000 1.713120 
# 
# From -- ./inp_files/3093.got.cif
#   From: 2010.05.17/outbox.cif.g08.bks.cpg/sg35_2_cif.got.tgz:3093.got - 2010.06.03 17:29:28.
