data_PCOD9349002
_publ_section_title
;
Structure prediction by ZEFSAII (Michael W. Deem and Ramdas Pophale) SiO2 
 PCOD9349002
Probable space group: C M M 2
;
_chemical_formula_sum "Si O2"
_cell_formula_units_Z 56
_cell_length_a 19.712278
_cell_length_b 8.817294
_cell_length_c 18.139348
_cell_angle_alpha 90.000000
_cell_angle_beta 90.000000
_cell_angle_gamma 90.000000
_cell_volume 3152.781039
_symmetry_space_group_name_H-M "C M M 2"
_symmetry_group_IT_number 35
_symmetry_cell_setting 'orthorhombic'
loop_
_space_group_symop_operation_xyz
x,y,z
-x,-y,z
-x,y,z
x,-y,z
1/2+x,1/2+y,z
1/2-x,1/2-y,z
1/2-x,1/2+y,z
1/2+x,1/2-y,z
loop_
_atom_site_type_symbol
_atom_site_label
_atom_site_fract_x
_atom_site_fract_y
_atom_site_fract_z
Si Si1 0.078872 0.182189 0.986010
Si Si2 0.175791 0.682309 0.279799
Si Si3 0.578684 0.817179 0.415515
Si Si4 0.176240 0.818582 0.537012
Si Si5 0.920343 0.680872 0.829988
Si Si6 0.324029 0.682549 0.120898
Si Si7 0.823405 0.181244 0.708167
O O1 0.102201 0.257920 0.909886
O O2 0.000000 0.223860 0.998001
O O3 0.082273 0.000000 0.977385
O O4 0.124077 0.223953 0.056153
O O5 0.181297 0.500000 0.274979
O O6 0.250000 0.750000 0.298506
O O7 0.120892 0.721988 0.341900
O O8 0.156215 0.749601 0.200271
O O9 0.500000 0.769982 0.411920
O O10 0.618717 0.745718 0.483854
O O11 0.580386 0.000000 0.422471
O O12 0.250000 0.750000 0.517652
O O13 0.162071 0.779060 0.622628
O O14 0.179847 0.000000 0.530654
O O15 0.913511 0.500000 0.827928
O O16 0.878094 0.753928 0.764306
O O17 0.000000 0.720048 0.822558
O O18 0.320207 0.500000 0.126253
O O19 0.250000 0.750000 0.103876
O O20 0.750000 0.250000 0.726256
O O21 0.820754 0.000000 0.713688
#
# Coordination Sequence:
#
# PCOD9349002 Si02
#       7
#     8   8   8   8   8   8   8
#     4   9  19  36  55  75 103 140 179 218 263 314
#     4  10  20  35  55  77 104 139 177 216 262 316
#     4  10  22  38  55  79 111 144 178 219 267 316
#     4  10  21  37  58  82 107 140 180 220 266 319
#     4  10  21  36  55  80 109 143 182 220 263 318
#     4  10  20  34  54  79 105 135 173 217 265 315
#     4  10  21  37  57  81 109 140 177 222 269 317
#
# _framework density 17.762094999999999
#
# number of rings (size 3 to 8) (size 9 to 14) (size 15 to 20)
#    0.000    2.143    0.000    3.429    0.000    8.000 
#    0.000    4.286    0.000    0.000    0.000    0.000 
#    0.000    0.000    0.000    0.000    0.000    0.000 
#
# Total GULP energy -156344.584331 kJ/mol
# GULP energy per Si atom -5583.735155 kJ/mol
# Density = 1.772167 g / cm^3
# Si number density = 17.762095 Si / 1000 Ang^3
#
#
#
# Elastic Constant Matrix: (Units=GPa)
#
#
# Indices 1 2 3 4 5 6 
#
# 1 125.1483 51.5523 114.9638 0.0000 0.0000 0.0000
# 2 51.5523 45.1134 56.8499 0.0000 0.0000 0.0000
# 3 114.9638 56.8499 143.1385 0.0000 0.0000 0.0000
# 4 0.0000 0.0000 0.0000 22.0369 0.0000 0.0000
# 5 0.0000 0.0000 0.0000 0.0000 76.1878 0.0000
# 6 0.0000 0.0000 0.0000 0.0000 0.0000 27.8265
#
#
#
# Elastic Compliance Matrix: (Units=1/GPa)
#
#
# Indices 1 2 3 4 5 6 
#
# 1 0.031977 -0.008361 -0.022362 0.000000 0.000000 0.000000
# 2 -0.008361 0.046563 -0.011778 0.000000 0.000000 0.000000
# 3 -0.022362 -0.011778 0.029624 0.000000 0.000000 0.000000
# 4 0.000000 0.000000 0.000000 0.045378 0.000000 0.000000
# 5 0.000000 0.000000 0.000000 0.000000 0.013125 0.000000
# 6 0.000000 0.000000 0.000000 0.000000 0.000000 0.035937
#
#
# Mechanical properties :
#
#
# Convention : Reuss Voigt Hill
#
# Bulk Modulus (GPa) = 43.17400 84.45913 63.81657
# Shear Modulus (GPa) = 16.93041 31.21252 24.07146
#
# Velocity S-wave (km/s) = 3.09070 4.19651 3.68532
# Velocity P-wave (km/s) = 6.09066 8.43412 7.35631
#
# Compressibility (1/GPa) = 0.02316209
#
# Stress axis : x y z
#
# Youngs Moduli (GPa) = 31.27272 21.47638 33.75640
#
# Poissons Ratio (x) = 0.17957 0.75485
# Poissons Ratio (y) = 0.26149 0.39757
# Poissons Ratio (z) = 0.69931 0.25294
#
# Static dielectric constant tensor:
#      x y z
#    x 1.582460 0.000000 0.000000 
#    y 0.000000 1.595590 0.000000 
#    z 0.000000 0.000000 1.590410 
# 
# From -- ./inp_files/15642.got.cif
#   From: 2010.05.17/outbox.cif.g08.bks.cpg/sg35_8_cif.got.tgz:15642.got - 2010.06.03 17:29:28.
