data_PCOD9349359
_publ_section_title
;
Structure prediction by ZEFSAII (Michael W. Deem and Ramdas Pophale) SiO2 
 PCOD9349359
Probable space group: C M M 2
;
_chemical_formula_sum "Si O2"
_cell_formula_units_Z 44
_cell_length_a 14.923489
_cell_length_b 9.161093
_cell_length_c 16.337366
_cell_angle_alpha 90.000000
_cell_angle_beta 90.000000
_cell_angle_gamma 90.000000
_cell_volume 2233.570681
_symmetry_space_group_name_H-M "C M M 2"
_symmetry_group_IT_number 35
_symmetry_cell_setting 'orthorhombic'
loop_
_space_group_symop_operation_xyz
x,y,z
-x,-y,z
-x,y,z
x,-y,z
1/2+x,1/2+y,z
1/2-x,1/2-y,z
1/2-x,1/2+y,z
1/2+x,1/2-y,z
loop_
_atom_site_type_symbol
_atom_site_label
_atom_site_fract_x
_atom_site_fract_y
_atom_site_fract_z
Si Si1 0.653745 0.674654 0.559310
Si Si2 0.250000 0.250000 0.845745
Si Si3 0.897600 0.338342 0.718564
Si Si4 0.341594 0.325770 0.152771
Si Si5 0.901161 0.171734 0.974774
Si Si6 0.000000 0.172438 0.280234
Si Si7 0.500000 0.175363 0.452992
O O1 0.656780 0.500000 0.548761
O O2 0.750000 0.750000 0.549335
O O3 0.620900 0.716134 0.650854
O O4 0.585113 0.751545 0.497581
O O5 0.181856 0.333868 0.784976
O O6 0.176553 0.184060 0.907734
O O7 0.894207 0.500000 0.679098
O O8 0.000000 0.320437 0.750568
O O9 0.328539 0.500000 0.146025
O O10 0.250000 0.250000 0.175744
O O11 0.415424 0.301107 0.221671
O O12 0.372400 0.267633 0.063382
O O13 0.000000 0.230132 0.950738
O O14 0.911588 0.000000 0.987932
O O15 0.000000 0.273786 0.359105
O O16 0.000000 0.000000 0.304290
O O17 0.500000 0.000000 0.461375
#
# Coordination Sequence:
#
# PCOD9349359 Si02
#       7
#     8   4   8   8   8   4   4
#     4  12  25  44  72 101 132 174 224 271 334 402
#     4  12  22  36  62  92 130 170 228 278 328 382
#     4  11  24  41  61  90 133 176 219 273 337 395
#     4  10  20  38  64  92 125 168 215 268 328 389
#     4  10  20  36  58  87 124 171 223 271 325 388
#     4  10  22  42  68  95 130 171 216 263 322 399
#     4  12  26  46  72 103 140 171 214 275 332 399
#
# _framework density 19.699399
#
# number of rings (size 3 to 8) (size 9 to 14) (size 15 to 20)
#    0.000    1.091    3.636    3.545    0.000    2.182 
#    0.000    1.818    0.000    1.091    0.000    0.000 
#    0.000    0.000    0.000    0.000    0.000    0.000 
#
# Total GULP energy -122726.661275 kJ/mol
# GULP energy per Si atom -5578.484603 kJ/mol
# Density = 1.965456 g / cm^3
# Si number density = 19.699399 Si / 1000 Ang^3
#
#
#
# Elastic Constant Matrix: (Units=GPa)
#
#
# Indices 1 2 3 4 5 6 
#
# 1 197.9922 69.0950 57.6178 0.0000 0.0000 0.0000
# 2 69.0950 116.1495 59.3426 0.0000 0.0000 0.0000
# 3 57.6178 59.3426 102.4974 0.0000 0.0000 0.0000
# 4 0.0000 0.0000 0.0000 12.1068 0.0000 0.0000
# 5 0.0000 0.0000 0.0000 0.0000 -143.8048 0.0000
# 6 0.0000 0.0000 0.0000 0.0000 0.0000 18.7784
#
#
#
# Elastic Compliance Matrix: (Units=1/GPa)
#
#
# Indices 1 2 3 4 5 6 
#
# 1 0.006667 -0.002913 -0.002061 0.000000 0.000000 0.000000
# 2 -0.002913 0.013499 -0.006178 0.000000 0.000000 0.000000
# 3 -0.002061 -0.006178 0.014492 0.000000 0.000000 0.000000
# 4 0.000000 0.000000 0.000000 0.082598 0.000000 0.000000
# 5 0.000000 0.000000 0.000000 0.000000 -0.006954 0.000000
# 6 0.000000 0.000000 0.000000 0.000000 0.000000 0.053253
#
#
# Mechanical properties :
#
#
# Convention : Reuss Voigt Hill
#
# Bulk Modulus (GPa) = 80.94890 87.63888 84.29389
# Shear Modulus (GPa) = 26.31894 -7.21168 9.55363
#
# Velocity S-wave (km/s) = 3.65914 -1.91541 2.20459
# Velocity P-wave (km/s) = 7.68334 6.30023 7.02590
#
# Compressibility (1/GPa) = 0.01235347
#
# Stress axis : x y z
#
# Youngs Moduli (GPa) = 149.98927 74.08044 69.00408
#
# Poissons Ratio (x) = 0.21579 0.14224
# Poissons Ratio (y) = 0.43691 0.42630
# Poissons Ratio (z) = 0.30918 0.45766
#
# Static dielectric constant tensor:
#      x y z
#    x 1.737630 0.000000 0.000000 
#    y 0.000000 1.687520 0.000000 
#    z 0.000000 0.000000 1.694620 
# 
# From -- ./inp_files/18715.got.cif
#   From: 2010.05.17/outbox.cif.g08.bks.cpg/sg35_10_cif.got.tgz:18715.got - 2010.06.03 17:29:28.
