data_PCOD9349281
_publ_section_title
;
Structure prediction by ZEFSAII (Michael W. Deem and Ramdas Pophale) SiO2 
 PCOD9349281
Probable space group: C M M 2
;
_chemical_formula_sum "Si O2"
_cell_formula_units_Z 64
_cell_length_a 31.004329
_cell_length_b 17.841382
_cell_length_c 5.396376
_cell_angle_alpha 90.000000
_cell_angle_beta 90.000000
_cell_angle_gamma 90.000000
_cell_volume 2985.059766
_symmetry_space_group_name_H-M "C M M 2"
_symmetry_group_IT_number 35
_symmetry_cell_setting 'orthorhombic'
loop_
_space_group_symop_operation_xyz
x,y,z
-x,-y,z
-x,y,z
x,-y,z
1/2+x,1/2+y,z
1/2-x,1/2-y,z
1/2-x,1/2+y,z
1/2+x,1/2-y,z
loop_
_atom_site_type_symbol
_atom_site_label
_atom_site_fract_x
_atom_site_fract_y
_atom_site_fract_z
Si Si1 0.400796 0.374189 0.046700
Si Si2 0.712908 0.342148 0.704571
Si Si3 0.308311 0.186186 0.539687
Si Si4 0.309263 0.417185 0.208227
Si Si5 0.381145 0.088973 0.757644
Si Si6 0.372647 0.211165 0.142126
Si Si7 0.950640 0.310479 0.519352
Si Si8 0.950874 0.864660 0.567236
O O1 0.357616 0.418643 0.102614
O O2 0.384307 0.288353 0.006474
O O3 0.429404 0.375433 0.297468
O O4 0.425204 0.398430 0.798819
O O5 0.693669 0.258155 0.721163
O O6 0.759760 0.341271 0.568721
O O7 0.686840 0.385401 0.488921
O O8 0.715314 0.374682 0.981975
O O9 0.342725 0.120124 0.583265
O O10 0.328495 0.222851 0.293765
O O11 0.290261 0.500000 0.227984
O O12 0.427027 0.127250 0.687445
O O13 0.383306 0.000000 0.768511
O O14 0.367484 0.133318 0.001805
O O15 0.416052 0.197804 0.301144
O O16 0.952203 0.225518 0.621707
O O17 0.000000 0.330672 0.454843
O O18 0.000000 0.891369 0.559786
#
# Coordination Sequence:
#
# PCOD9349281 Si02
#       8
#     8   8   8   8   8   8   8   8
#     4  11  20  38  65  90 129 167 211 266 317 388
#     4  11  25  44  70  97 129 169 220 276 320 392
#     4  10  24  42  67  91 122 167 222 269 325 381
#     4  12  26  43  66 100 136 171 211 263 336 398
#     4  11  23  38  58  87 125 168 212 263 327 388
#     4  10  20  37  61  89 117 164 216 270 316 385
#     4   9  20  36  55  83 119 160 210 267 316 373
#     4  10  20  35  63  98 124 161 218 272 317 371
#
# _framework density 21.440106
#
# number of rings (size 3 to 8) (size 9 to 14) (size 15 to 20)
#    0.000    1.500    2.500    2.250    3.500    5.250 
#    0.000    0.000    0.000    2.250    0.000    0.000 
#    0.000    0.000    0.000    0.000    0.000    0.000 
#
# Total GULP energy -178243.175646 kJ/mol
# GULP energy per Si atom -5570.099239 kJ/mol
# Density = 2.139131 g / cm^3
# Si number density = 21.440106 Si / 1000 Ang^3
#
#
#
# Elastic Constant Matrix: (Units=GPa)
#
#
# Indices 1 2 3 4 5 6 
#
# 1 97.5222 -23.5164 9.2723 0.0000 0.0000 0.0000
# 2 -23.5164 64.9136 -10.8689 0.0000 0.0000 0.0000
# 3 9.2723 -10.8689 58.6529 0.0000 0.0000 0.0000
# 4 0.0000 0.0000 0.0000 17.3672 0.0000 0.0000
# 5 0.0000 0.0000 0.0000 0.0000 0.1517 0.0000
# 6 0.0000 0.0000 0.0000 0.0000 0.0000 -20.9114
#
#
#
# Elastic Compliance Matrix: (Units=1/GPa)
#
#
# Indices 1 2 3 4 5 6 
#
# 1 0.011299 0.003916 -0.001061 0.000000 0.000000 0.000000
# 2 0.003916 0.017255 0.002579 0.000000 0.000000 0.000000
# 3 -0.001061 0.002579 0.017695 0.000000 0.000000 0.000000
# 4 0.000000 0.000000 0.000000 0.057580 0.000000 0.000000
# 5 0.000000 0.000000 0.000000 0.000000 6.593637 0.000000
# 6 0.000000 0.000000 0.000000 0.000000 0.000000 -0.047821
#
#
# Mechanical properties :
#
#
# Convention : Reuss Voigt Hill
#
# Bulk Modulus (GPa) = 17.50795 18.98475 18.24635
# Shear Modulus (GPa) = 0.75100 15.73493 8.24297
#
# Velocity S-wave (km/s) = 0.59248 2.71200 1.96290
# Velocity P-wave (km/s) = 2.94139 4.32211 3.69678
#
# Compressibility (1/GPa) = 0.05711692
#
# Stress axis : x y z
#
# Youngs Moduli (GPa) = 88.50206 57.95286 56.51331
#
# Poissons Ratio (x) = -0.22693 0.05994
# Poissons Ratio (y) = -0.34655 -0.14572
# Poissons Ratio (z) = 0.09387 -0.14943
#
# Static dielectric constant tensor:
#      x y z
#    x 1.812760 0.000000 0.000000 
#    y 0.000000 1.705320 0.000000 
#    z 0.000000 0.000000 1.885780 
# 
# From -- ./inp_files/4085.got.cif
#   From: 2010.05.17/outbox.cif.g08.bks.cpg/sg35_3_cif.got.tgz:4085.got - 2010.06.03 17:29:28.
