data_PCOD9349695
_publ_section_title
;
Structure prediction by ZEFSAII (Michael W. Deem and Ramdas Pophale) SiO2 
 PCOD9349695
Probable space group: C M M 2
;
_chemical_formula_sum "Si O2"
_cell_formula_units_Z 40
_cell_length_a 8.848721
_cell_length_b 14.784259
_cell_length_c 16.964284
_cell_angle_alpha 90.000000
_cell_angle_beta 90.000000
_cell_angle_gamma 90.000000
_cell_volume 2219.297882
_symmetry_space_group_name_H-M "C M M 2"
_symmetry_group_IT_number 35
_symmetry_cell_setting 'orthorhombic'
loop_
_space_group_symop_operation_xyz
x,y,z
-x,-y,z
-x,y,z
x,-y,z
1/2+x,1/2+y,z
1/2-x,1/2-y,z
1/2-x,1/2+y,z
1/2+x,1/2-y,z
loop_
_atom_site_type_symbol
_atom_site_label
_atom_site_fract_x
_atom_site_fract_y
_atom_site_fract_z
Si Si1 0.181561 0.350603 0.969480
Si Si2 0.319401 0.500000 0.267347
Si Si3 0.820303 0.000000 0.666882
Si Si4 0.818402 0.000000 0.082457
Si Si5 0.319245 0.849601 0.556458
Si Si6 0.680184 0.000000 0.838755
Si Si7 0.180509 0.349432 0.377095
O O1 0.250000 0.250000 0.966297
O O2 0.214782 0.411317 0.891685
O O3 0.000000 0.345621 0.977625
O O4 0.249950 0.411395 0.039965
O O5 0.500000 0.500000 0.274673
O O6 0.281596 0.500000 0.174943
O O7 0.251743 0.414178 0.312496
O O8 0.753269 0.914259 0.620740
O O9 0.767298 0.000000 0.757058
O O10 0.000000 0.000000 0.662093
O O11 0.000000 0.000000 0.072894
O O12 0.500000 0.846893 0.565795
O O13 0.250000 0.750000 0.563568
O O14 0.287083 0.881753 0.466749
O O15 0.500000 0.000000 0.823809
O O16 0.250000 0.250000 0.369901
O O17 0.000000 0.346149 0.368365
#
# Coordination Sequence:
#
# PCOD9349695 Si02
#       7
#     8   4   4   4   8   4   8
#     4  10  21  39  64  88 112 146 183 224 277 333
#     4  11  23  37  56  83 115 150 187 231 280 329
#     4  12  24  36  56  85 116 151 186 227 280 331
#     4  10  22  39  58  84 116 148 186 230 275 328
#     4  10  21  38  58  81 111 148 191 236 281 330
#     4   9  21  40  58  82 115 147 185 230 273 326
#     4  10  21  37  58  82 110 148 191 235 282 331
#
# _framework density 18.023717999999999
#
# number of rings (size 3 to 8) (size 9 to 14) (size 15 to 20)
#    0.000    1.800    0.000    4.500    0.000   10.400 
#    0.000    2.000    0.000    0.000    0.000    0.000 
#    0.000    0.000    0.000    0.000    0.000    0.000 
#
# Total GULP energy -111737.413729 kJ/mol
# GULP energy per Si atom -5586.870686 kJ/mol
# Density = 1.798270 g / cm^3
# Si number density = 18.023718 Si / 1000 Ang^3
#
#
#
# Elastic Constant Matrix: (Units=GPa)
#
#
# Indices 1 2 3 4 5 6 
#
# 1 104.7703 72.0599 102.6801 0.0000 0.0000 0.0000
# 2 72.0599 152.0987 99.2020 0.0000 0.0000 0.0000
# 3 102.6801 99.2020 176.6302 0.0000 0.0000 0.0000
# 4 0.0000 0.0000 0.0000 24.6296 0.0000 0.0000
# 5 0.0000 0.0000 0.0000 0.0000 31.8818 0.0000
# 6 0.0000 0.0000 0.0000 0.0000 0.0000 37.4970
#
#
#
# Elastic Compliance Matrix: (Units=1/GPa)
#
#
# Indices 1 2 3 4 5 6 
#
# 1 0.023293 -0.003478 -0.011588 0.000000 0.000000 0.000000
# 2 -0.003478 0.010895 -0.004097 0.000000 0.000000 0.000000
# 3 -0.011588 -0.004097 0.014699 0.000000 0.000000 0.000000
# 4 0.000000 0.000000 0.000000 0.040602 0.000000 0.000000
# 5 0.000000 0.000000 0.000000 0.000000 0.031366 0.000000
# 6 0.000000 0.000000 0.000000 0.000000 0.000000 0.026669
#
#
# Mechanical properties :
#
#
# Convention : Reuss Voigt Hill
#
# Bulk Modulus (GPa) = 94.68396 109.04260 101.86328
# Shear Modulus (GPa) = 26.40354 29.43884 27.92119
#
# Velocity S-wave (km/s) = 3.83160 4.04584 3.94018
# Velocity P-wave (km/s) = 8.49835 9.08053 8.79425
#
# Compressibility (1/GPa) = 0.01056145
#
# Stress axis : x y z
#
# Youngs Moduli (GPa) = 42.93078 91.78910 68.03269
#
# Poissons Ratio (x) = 0.31924 0.78834
# Poissons Ratio (y) = 0.14931 0.27873
# Poissons Ratio (z) = 0.49747 0.37606
#
# Static dielectric constant tensor:
#      x y z
#    x 1.594650 0.000000 0.000000 
#    y 0.000000 1.586030 0.000000 
#    z 0.000000 0.000000 1.598570 
# 
# From -- ./inp_files/14835.got.cif
#   From: 2010.05.17/outbox.cif.g08.bks.cpg/sg35_8_cif.got.tgz:14835.got - 2010.06.03 17:29:28.
