data_PCOD9349269
_publ_section_title
;
Structure prediction by ZEFSAII (Michael W. Deem and Ramdas Pophale) SiO2 
 PCOD9349269
Probable space group: C M M 2
;
_chemical_formula_sum "Si O2"
_cell_formula_units_Z 56
_cell_length_a 14.936339
_cell_length_b 19.168648
_cell_length_c 10.126938
_cell_angle_alpha 90.000000
_cell_angle_beta 90.000000
_cell_angle_gamma 90.000000
_cell_volume 2899.437793
_symmetry_space_group_name_H-M "C M M 2"
_symmetry_group_IT_number 35
_symmetry_cell_setting 'orthorhombic'
loop_
_space_group_symop_operation_xyz
x,y,z
-x,-y,z
-x,y,z
x,-y,z
1/2+x,1/2+y,z
1/2-x,1/2-y,z
1/2-x,1/2+y,z
1/2+x,1/2-y,z
loop_
_atom_site_type_symbol
_atom_site_label
_atom_site_fract_x
_atom_site_fract_y
_atom_site_fract_z
Si Si1 0.245476 0.921433 0.937760
Si Si2 0.398246 0.332053 0.350937
Si Si3 0.239247 0.581729 0.250824
Si Si4 0.654225 0.282374 0.622392
Si Si5 0.895305 0.298494 0.180669
Si Si6 0.396801 0.185250 0.868891
Si Si7 0.104150 0.920354 0.734594
O O1 0.316572 0.871014 0.866275
O O2 0.146493 0.914351 0.878960
O O3 0.276713 0.000000 0.909528
O O4 0.238515 0.914365 0.094371
O O5 0.500000 0.358290 0.331516
O O6 0.322747 0.391521 0.338326
O O7 0.398065 0.286137 0.485062
O O8 0.371675 0.276143 0.240013
O O9 0.216925 0.500000 0.279541
O O10 0.159874 0.639393 0.251161
O O11 0.750000 0.250000 0.595529
O O12 0.616650 0.241965 0.751928
O O13 0.658892 0.364153 0.654249
O O14 0.000000 0.311666 0.205486
O O15 0.885497 0.291140 0.021750
O O16 0.500000 0.159227 0.857536
O O17 0.000000 0.901702 0.729878
O O18 0.113804 0.000000 0.689517
#
# Coordination Sequence:
#
# PCOD9349269 Si02
#       7
#     8   8   8   8   8   8   8
#     4   9  19  36  57  87 120 153 194 242 298 356
#     4  11  24  40  58  84 120 157 196 243 294 353
#     4  10  21  37  60  87 117 153 197 246 295 353
#     4  12  23  38  60  87 115 155 197 251 297 347
#     4   9  20  38  61  87 118 155 193 241 298 355
#     4  10  20  35  59  89 117 152 197 244 295 352
#     4  10  21  37  56  80 115 154 191 236 291 350
#
# _framework density 19.31409
#
# number of rings (size 3 to 8) (size 9 to 14) (size 15 to 20)
#    0.000    1.857    1.429    2.571    2.000    2.000 
#    0.000    4.286    0.000    0.000    0.000    2.000 
#    0.000    0.000    0.000    0.000    0.000    0.000 
#
# Total GULP energy -155901.066818 kJ/mol
# GULP energy per Si atom -5567.895243 kJ/mol
# Density = 1.927013 g / cm^3
# Si number density = 19.314090 Si / 1000 Ang^3
#
#
#
# Elastic Constant Matrix: (Units=GPa)
#
#
# Indices 1 2 3 4 5 6 
#
# 1 52.0194 19.8848 11.7535 0.0000 0.0000 0.0000
# 2 19.8848 42.6118 17.9870 0.0000 0.0000 0.0000
# 3 11.7535 17.9870 39.6269 0.0000 0.0000 0.0000
# 4 0.0000 0.0000 0.0000 16.6970 0.0000 0.0000
# 5 0.0000 0.0000 0.0000 0.0000 16.0858 0.0000
# 6 0.0000 0.0000 0.0000 0.0000 0.0000 25.5211
#
#
#
# Elastic Compliance Matrix: (Units=1/GPa)
#
#
# Indices 1 2 3 4 5 6 
#
# 1 0.023592 -0.009965 -0.002474 0.000000 0.000000 0.000000
# 2 -0.009965 0.033239 -0.012132 0.000000 0.000000 0.000000
# 3 -0.002474 -0.012132 0.031476 0.000000 0.000000 0.000000
# 4 0.000000 0.000000 0.000000 0.059891 0.000000 0.000000
# 5 0.000000 0.000000 0.000000 0.000000 0.062166 0.000000
# 6 0.000000 0.000000 0.000000 0.000000 0.000000 0.039183
#
#
# Mechanical properties :
#
#
# Convention : Reuss Voigt Hill
#
# Bulk Modulus (GPa) = 25.53312 25.94543 25.73927
# Shear Modulus (GPa) = 16.03882 17.30297 16.67089
#
# Velocity S-wave (km/s) = 2.88483 2.99636 2.94112
# Velocity P-wave (km/s) = 4.93406 5.04316 4.98891
#
# Compressibility (1/GPa) = 0.03916482
#
# Stress axis : x y z
#
# Youngs Moduli (GPa) = 42.38774 30.08544 31.77023
#
# Poissons Ratio (x) = 0.29979 0.07861
# Poissons Ratio (y) = 0.42238 0.38543
# Poissons Ratio (z) = 0.10488 0.36499
#
# Static dielectric constant tensor:
#      x y z
#    x 1.682130 0.000000 0.000000 
#    y 0.000000 1.718120 0.000000 
#    z 0.000000 0.000000 1.737240 
# 
# From -- ./inp_files/7636.got.cif
#   From: 2010.05.17/outbox.cif.g08.bks.cpg/sg35_4_cif.got.tgz:7636.got - 2010.06.03 17:29:28.
