data_PCOD9349768
_publ_section_title
;
Structure prediction by ZEFSAII (Michael W. Deem and Ramdas Pophale) SiO2 
 PCOD9349768
Probable space group: C M M 2
;
_chemical_formula_sum "Si O2"
_cell_formula_units_Z 48
_cell_length_a 8.909310
_cell_length_b 19.159087
_cell_length_c 15.494121
_cell_angle_alpha 90.000000
_cell_angle_beta 90.000000
_cell_angle_gamma 90.000000
_cell_volume 2644.757292
_symmetry_space_group_name_H-M "C M M 2"
_symmetry_group_IT_number 35
_symmetry_cell_setting 'orthorhombic'
loop_
_space_group_symop_operation_xyz
x,y,z
-x,-y,z
-x,y,z
x,-y,z
1/2+x,1/2+y,z
1/2-x,1/2-y,z
1/2-x,1/2+y,z
1/2+x,1/2-y,z
loop_
_atom_site_type_symbol
_atom_site_label
_atom_site_fract_x
_atom_site_fract_y
_atom_site_fract_z
Si Si1 0.179738 0.826438 0.592220
Si Si2 0.679994 0.080978 0.443700
Si Si3 0.179556 0.081321 0.757540
Si Si4 0.179526 0.418217 0.242399
Si Si5 0.821259 0.173310 0.093692
Si Si6 0.321187 0.917754 0.942365
O O1 0.250000 0.750000 0.594509
O O2 0.237688 0.868332 0.509119
O O3 0.222860 0.869901 0.677887
O O4 0.000000 0.821863 0.589816
O O5 0.500000 0.087560 0.453951
O O6 0.713937 0.095281 0.343076
O O7 0.719703 0.000000 0.461114
O O8 0.264398 0.098609 0.845974
O O9 0.000000 0.087695 0.771544
O O10 0.210634 0.000000 0.736523
O O11 0.212084 0.500000 0.224809
O O12 0.267572 0.368440 0.178356
O O13 0.000000 0.408837 0.230274
O O14 0.750000 0.250000 0.093336
O O15 0.000000 0.178189 0.091106
O O16 0.760975 0.129689 0.012064
O O17 0.500000 0.908140 0.948715
O O18 0.288532 0.000000 0.958113
#
# Coordination Sequence:
#
# PCOD9349768 Si02
#       6
#     8   8   8   8   8   8
#     4  11  23  37  55  81 115 153 189 230 279 330
#     4   9  19  37  61  86 112 145 185 230 279 331
#     4   9  19  37  59  82 109 144 188 235 280 327
#     4   9  19  38  62  86 113 145 183 229 279 331
#     4  12  25  39  57  82 114 151 188 229 278 331
#     4  10  21  38  61  87 114 146 184 227 276 331
#
# _framework density 18.149114000000001
#
# number of rings (size 3 to 8) (size 9 to 14) (size 15 to 20)
#    0.000    2.000    0.000    4.500    0.000    7.667 
#    0.000    5.000    0.000    0.000    0.000    0.000 
#    0.000    0.000    0.000    0.000    0.000    0.000 
#
# Total GULP energy -134101.890518 kJ/mol
# GULP energy per Si atom -5587.578772 kJ/mol
# Density = 1.810781 g / cm^3
# Si number density = 18.149114 Si / 1000 Ang^3
#
#
#
# Elastic Constant Matrix: (Units=GPa)
#
#
# Indices 1 2 3 4 5 6 
#
# 1 89.6887 89.8646 87.7618 0.0000 0.0000 0.0000
# 2 89.8646 145.4504 125.0599 0.0000 0.0000 0.0000
# 3 87.7618 125.0599 145.7602 0.0000 0.0000 0.0000
# 4 0.0000 0.0000 0.0000 -23.2945 0.0000 0.0000
# 5 0.0000 0.0000 0.0000 0.0000 35.8365 0.0000
# 6 0.0000 0.0000 0.0000 0.0000 0.0000 22.5613
#
#
#
# Elastic Compliance Matrix: (Units=1/GPa)
#
#
# Indices 1 2 3 4 5 6 
#
# 1 0.031963 -0.012204 -0.008774 0.000000 0.000000 0.000000
# 2 -0.012204 0.030871 -0.019139 0.000000 0.000000 0.000000
# 3 -0.008774 -0.019139 0.028564 0.000000 0.000000 0.000000
# 4 0.000000 0.000000 0.000000 -0.042929 0.000000 0.000000
# 5 0.000000 0.000000 0.000000 0.000000 0.027904 0.000000
# 6 0.000000 0.000000 0.000000 0.000000 0.000000 0.044324
#
#
# Mechanical properties :
#
#
# Convention : Reuss Voigt Hill
#
# Bulk Modulus (GPa) = 89.56888 109.58575 99.57731
# Shear Modulus (GPa) = 24.43153 12.23490 18.33321
#
# Velocity S-wave (km/s) = 3.67298 2.59922 3.18172
# Velocity P-wave (km/s) = 8.21258 8.33785 8.27545
#
# Compressibility (1/GPa) = 0.01116459
#
# Stress axis : x y z
#
# Youngs Moduli (GPa) = 31.28605 32.39281 35.00856
#
# Poissons Ratio (x) = 0.39532 0.30717
# Poissons Ratio (y) = 0.38181 0.67003
# Poissons Ratio (z) = 0.27451 0.61997
#
# Static dielectric constant tensor:
#      x y z
#    x 1.603150 0.000000 0.000000 
#    y 0.000000 1.595600 0.000000 
#    z 0.000000 0.000000 1.599260 
# 
# From -- ./inp_files/15090.got.cif
#   From: 2010.05.17/outbox.cif.g08.bks.cpg/sg35_8_cif.got.tgz:15090.got - 2010.06.03 17:29:28.
