data_PCOD9349819
_publ_section_title
;
Structure prediction by ZEFSAII (Michael W. Deem and Ramdas Pophale) SiO2 
 PCOD9349819
Probable space group: C M M 2
;
_chemical_formula_sum "Si O2"
_cell_formula_units_Z 56
_cell_length_a 22.667576
_cell_length_b 8.636129
_cell_length_c 15.351532
_cell_angle_alpha 90.000000
_cell_angle_beta 90.000000
_cell_angle_gamma 90.000000
_cell_volume 3005.217600
_symmetry_space_group_name_H-M "C M M 2"
_symmetry_group_IT_number 35
_symmetry_cell_setting 'orthorhombic'
loop_
_space_group_symop_operation_xyz
x,y,z
-x,-y,z
-x,y,z
x,-y,z
1/2+x,1/2+y,z
1/2-x,1/2-y,z
1/2-x,1/2+y,z
1/2+x,1/2-y,z
loop_
_atom_site_type_symbol
_atom_site_label
_atom_site_fract_x
_atom_site_fract_y
_atom_site_fract_z
Si Si1 0.000000 0.184040 0.729290
Si Si2 0.685275 0.684244 0.346779
Si Si3 0.372804 0.814497 0.518511
Si Si4 0.929312 0.312813 0.035016
Si Si5 0.891829 0.314522 0.837564
Si Si6 0.685450 0.315316 0.692795
Si Si7 0.500000 0.185590 0.536851
Si Si8 0.181118 0.813802 0.150546
O O1 0.056022 0.246338 0.779875
O O2 0.000000 0.255977 0.634642
O O3 0.000000 0.000000 0.724818
O O4 0.683824 0.500000 0.358155
O O5 0.750000 0.750000 0.338085
O O6 0.662347 0.761561 0.434502
O O7 0.660643 0.720095 0.250389
O O8 0.353641 0.742663 0.610929
O O9 0.439214 0.762859 0.496432
O O10 0.369332 0.000000 0.528262
O O11 0.929455 0.500000 0.043403
O O12 0.908278 0.273103 0.936507
O O13 0.000000 0.265494 0.047983
O O14 0.874360 0.248263 0.093016
O O15 0.890029 0.500000 0.832164
O O16 0.835290 0.247847 0.786994
O O17 0.684419 0.500000 0.694125
O O18 0.750000 0.250000 0.674588
O O19 0.500000 0.000000 0.536970
O O20 0.250000 0.750000 0.136019
O O21 0.185612 0.000000 0.140092
#
# Coordination Sequence:
#
# PCOD9349819 Si02
#       8
#     4   8   8   8   8   8   4   8
#     4  12  22  34  58  87 114 153 198 241 286 342
#     4  10  21  39  62  88 117 153 197 245 298 357
#     4  11  22  38  60  86 118 158 199 244 295 352
#     4  10  22  41  65  93 124 163 205 251 308 371
#     4  11  22  40  62  85 118 158 199 244 295 352
#     4  12  25  40  58  86 120 158 202 248 300 353
#     4  10  22  38  58  81 116 159 200 241 292 350
#     4  10  22  41  66  93 123 160 202 255 312 370
#
# _framework density 18.634257000000002
#
# number of rings (size 3 to 8) (size 9 to 14) (size 15 to 20)
#    0.000    1.286    2.143    4.071    0.000    4.286 
#    1.286    0.000    0.000    0.000    0.000    0.000 
#    0.000    0.000    0.000    0.000    0.000    0.000 
#
# Total GULP energy -155981.301859 kJ/mol
# GULP energy per Si atom -5570.760781 kJ/mol
# Density = 1.859184 g / cm^3
# Si number density = 18.634257 Si / 1000 Ang^3
#
#
#
# Elastic Constant Matrix: (Units=GPa)
#
#
# Indices 1 2 3 4 5 6 
#
# 1 80.0844 28.3077 32.5531 0.0000 0.0000 0.0000
# 2 28.3077 73.9370 43.6878 0.0000 0.0000 0.0000
# 3 32.5531 43.6878 102.0952 0.0000 0.0000 0.0000
# 4 0.0000 0.0000 0.0000 28.0520 0.0000 0.0000
# 5 0.0000 0.0000 0.0000 0.0000 78.9400 0.0000
# 6 0.0000 0.0000 0.0000 0.0000 0.0000 23.7755
#
#
#
# Elastic Compliance Matrix: (Units=1/GPa)
#
#
# Indices 1 2 3 4 5 6 
#
# 1 0.015160 -0.003946 -0.003145 0.000000 0.000000 0.000000
# 2 -0.003946 0.019129 -0.006927 0.000000 0.000000 0.000000
# 3 -0.003145 -0.006927 0.013762 0.000000 0.000000 0.000000
# 4 0.000000 0.000000 0.000000 0.035648 0.000000 0.000000
# 5 0.000000 0.000000 0.000000 0.000000 0.012668 0.000000
# 6 0.000000 0.000000 0.000000 0.000000 0.000000 0.042060
#
#
# Mechanical properties :
#
#
# Convention : Reuss Voigt Hill
#
# Bulk Modulus (GPa) = 49.96492 51.69042 50.82767
# Shear Modulus (GPa) = 28.87913 36.25803 32.56858
#
# Velocity S-wave (km/s) = 3.94100 4.41588 4.18518
# Velocity P-wave (km/s) = 6.89785 7.33482 7.11969
#
# Compressibility (1/GPa) = 0.02001404
#
# Stress axis : x y z
#
# Youngs Moduli (GPa) = 65.96274 52.27675 72.66376
#
# Poissons Ratio (x) = 0.20627 0.22856
# Poissons Ratio (y) = 0.26027 0.50337
# Poissons Ratio (z) = 0.20748 0.36214
#
# Static dielectric constant tensor:
#      x y z
#    x 1.616000 0.000000 0.000000 
#    y 0.000000 1.632840 0.000000 
#    z 0.000000 0.000000 1.619130 
# 
# From -- ./inp_files/17440.got.cif
#   From: 2010.05.17/outbox.cif.g08.bks.cpg/sg35_9_cif.got.tgz:17440.got - 2010.06.03 17:29:28.
