data_PCOD9349176
_publ_section_title
;
Structure prediction by ZEFSAII (Michael W. Deem and Ramdas Pophale) SiO2 
 PCOD9349176
Probable space group: C M M 2
;
_chemical_formula_sum "Si O2"
_cell_formula_units_Z 56
_cell_length_a 8.696001
_cell_length_b 19.742879
_cell_length_c 18.199692
_cell_angle_alpha 90.000000
_cell_angle_beta 90.000000
_cell_angle_gamma 90.000000
_cell_volume 3124.597660
_symmetry_space_group_name_H-M "C M M 2"
_symmetry_group_IT_number 35
_symmetry_cell_setting 'orthorhombic'
loop_
_space_group_symop_operation_xyz
x,y,z
-x,-y,z
-x,y,z
x,-y,z
1/2+x,1/2+y,z
1/2-x,1/2-y,z
1/2-x,1/2+y,z
1/2+x,1/2-y,z
loop_
_atom_site_type_symbol
_atom_site_label
_atom_site_fract_x
_atom_site_fract_y
_atom_site_fract_z
Si Si1 0.816694 0.920071 0.873550
Si Si2 0.685722 0.421595 0.292202
Si Si3 0.815168 0.824318 0.158388
Si Si4 0.185339 0.676059 0.584733
Si Si5 0.683263 0.175866 0.997786
Si Si6 0.815468 0.675344 0.416285
Si Si7 0.685345 0.078950 0.715967
O O1 0.736057 0.877087 0.936665
O O2 0.759952 0.898674 0.792644
O O3 0.000000 0.912059 0.878924
O O4 0.779765 0.000000 0.881249
O O5 0.500000 0.420510 0.296853
O O6 0.735225 0.500000 0.290044
O O7 0.728669 0.379861 0.218949
O O8 0.752878 0.380670 0.360903
O O9 0.750000 0.750000 0.178279
O O10 0.000000 0.820102 0.154671
O O11 0.750331 0.841845 0.078047
O O12 0.250000 0.750000 0.602159
O O13 0.230742 0.659655 0.500742
O O14 0.235603 0.622811 0.646187
O O15 0.000000 0.678426 0.585899
O O16 0.500000 0.179597 0.002036
O O17 0.750000 0.250000 0.979250
O O18 0.750000 0.750000 0.398075
O O19 0.000000 0.677987 0.412239
O O20 0.500000 0.084025 0.722727
O O21 0.723950 0.000000 0.704665
#
# Coordination Sequence:
#
# PCOD9349176 Si02
#       7
#     8   8   8   8   8   8   8
#     4  10  21  37  56  79 109 144 181 220 265 318
#     4  10  22  38  55  79 111 144 178 219 267 316
#     4  10  20  36  57  79 106 141 179 219 266 318
#     4   9  19  34  53  78 106 137 174 219 268 316
#     4  11  22  37  58  83 110 140 178 221 266 316
#     4  10  20  35  56  80 107 142 182 222 267 319
#     4   9  18  34  54  75 103 140 180 220 264 315
#
# _framework density 17.922307
#
# number of rings (size 3 to 8) (size 9 to 14) (size 15 to 20)
#    0.000    2.143    0.000    3.857    0.000    6.286 
#    0.000    4.286    0.000    1.714    0.000    0.000 
#    0.000    0.000    0.000    0.000    0.000    0.000 
#
# Total GULP energy -156335.227976 kJ/mol
# GULP energy per Si atom -5583.400999 kJ/mol
# Density = 1.788152 g / cm^3
# Si number density = 17.922307 Si / 1000 Ang^3
#
#
#
# Elastic Constant Matrix: (Units=GPa)
#
#
# Indices 1 2 3 4 5 6 
#
# 1 49.0485 47.4458 51.4396 0.0000 0.0000 0.0000
# 2 47.4458 127.3085 118.2308 0.0000 0.0000 0.0000
# 3 51.4396 118.2308 145.6706 0.0000 0.0000 0.0000
# 4 0.0000 0.0000 0.0000 82.8666 0.0000 0.0000
# 5 0.0000 0.0000 0.0000 0.0000 19.4383 0.0000
# 6 0.0000 0.0000 0.0000 0.0000 0.0000 28.8613
#
#
#
# Elastic Compliance Matrix: (Units=1/GPa)
#
#
# Indices 1 2 3 4 5 6 
#
# 1 0.033502 -0.006087 -0.006890 0.000000 0.000000 0.000000
# 2 -0.006087 0.033005 -0.024639 0.000000 0.000000 0.000000
# 3 -0.006890 -0.024639 0.029295 0.000000 0.000000 0.000000
# 4 0.000000 0.000000 0.000000 0.012068 0.000000 0.000000
# 5 0.000000 0.000000 0.000000 0.000000 0.051445 0.000000
# 6 0.000000 0.000000 0.000000 0.000000 0.000000 0.034649
#
#
# Mechanical properties :
#
#
# Convention : Reuss Voigt Hill
#
# Bulk Modulus (GPa) = 48.61129 84.02888 66.32008
# Shear Modulus (GPa) = 18.11259 33.22732 25.66996
#
# Velocity S-wave (km/s) = 3.18247 4.31044 3.78867
# Velocity P-wave (km/s) = 6.37859 8.47113 7.49821
#
# Compressibility (1/GPa) = 0.02057135
#
# Stress axis : x y z
#
# Youngs Moduli (GPa) = 29.84909 30.29832 34.13531
#
# Poissons Ratio (x) = 0.18443 0.23519
# Poissons Ratio (y) = 0.18169 0.84104
# Poissons Ratio (z) = 0.20566 0.74651
#
# Static dielectric constant tensor:
#      x y z
#    x 1.604150 0.000000 0.000000 
#    y 0.000000 1.587000 0.000000 
#    z 0.000000 0.000000 1.600970 
# 
# From -- ./inp_files/15618.got.cif
#   From: 2010.05.17/outbox.cif.g08.bks.cpg/sg35_8_cif.got.tgz:15618.got - 2010.06.03 17:29:28.
