data_PCOD9349501
_publ_section_title
;
Structure prediction by ZEFSAII (Michael W. Deem and Ramdas Pophale) SiO2 
 PCOD9349501
Probable space group: C M M 2
;
_chemical_formula_sum "Si O2"
_cell_formula_units_Z 64
_cell_length_a 21.337031
_cell_length_b 15.357637
_cell_length_c 8.275332
_cell_angle_alpha 90.000000
_cell_angle_beta 90.000000
_cell_angle_gamma 90.000000
_cell_volume 2711.713560
_symmetry_space_group_name_H-M "C M M 2"
_symmetry_group_IT_number 35
_symmetry_cell_setting 'orthorhombic'
loop_
_space_group_symop_operation_xyz
x,y,z
-x,-y,z
-x,y,z
x,-y,z
1/2+x,1/2+y,z
1/2-x,1/2-y,z
1/2-x,1/2+y,z
1/2+x,1/2-y,z
loop_
_atom_site_type_symbol
_atom_site_label
_atom_site_fract_x
_atom_site_fract_y
_atom_site_fract_z
Si Si1 0.428205 0.165707 0.147190
Si Si2 0.807744 0.101714 0.473925
Si Si3 0.757439 0.854417 0.008928
Si Si4 0.375045 0.399232 0.816913
Si Si5 0.688135 0.098383 0.333614
Si Si6 0.431365 0.335592 0.318235
Si Si7 0.639183 0.899574 0.820215
Si Si8 0.433216 0.241552 0.664020
O O1 0.500000 0.135897 0.171289
O O2 0.377996 0.138221 0.283275
O O3 0.428902 0.269914 0.168165
O O4 0.400485 0.130026 0.979449
O O5 0.834874 0.113739 0.652062
O O6 0.739404 0.144031 0.448656
O O7 0.864060 0.120525 0.347405
O O8 0.795116 0.000000 0.456556
O O9 0.750000 0.750000 0.026265
O O10 0.827415 0.880679 0.962108
O O11 0.711244 0.886486 0.867563
O O12 0.729209 0.898712 0.167857
O O13 0.397366 0.500000 0.821635
O O14 0.424491 0.322375 0.787646
O O15 0.673800 0.000000 0.384223
O O16 0.500000 0.382938 0.310472
O O17 0.435030 0.280074 0.484720
O O18 0.619453 0.830576 0.686043
O O19 0.626869 0.000000 0.782799
O O20 0.500000 0.198423 0.698530
#
# Coordination Sequence:
#
# PCOD9349501 Si02
#       8
#     8   8   8   8   8   8   8   8
#     4  10  21  37  57  80 108 148 191 232 285 341
#     4   9  20  36  57  85 116 150 188 233 289 346
#     4  11  21  36  57  85 114 148 190 239 294 347
#     4  10  20  38  60  85 119 153 187 235 289 345
#     4  10  22  37  55  84 114 146 191 240 288 347
#     4   9  20  37  57  82 115 150 191 240 285 340
#     4  11  23  39  59  84 114 152 196 241 289 346
#     4  10  21  38  58  86 117 151 196 237 283 343
#
# _framework density 23.601313000000001
#
# number of rings (size 3 to 8) (size 9 to 14) (size 15 to 20)
#    0.000    2.000    1.250    2.625    3.500    3.250 
#    0.000    5.000    0.000    4.500    0.000    3.500 
#    0.000    0.000    0.000    0.000    0.000    0.000 
#
# Total GULP energy -178618.079441 kJ/mol
# GULP energy per Si atom -5581.814983 kJ/mol
# Density = 2.354760 g / cm^3
# Si number density = 23.601313 Si / 1000 Ang^3
#
#
#
# Elastic Constant Matrix: (Units=GPa)
#
#
# Indices 1 2 3 4 5 6 
#
# 1 130.0122 -4.2167 19.3505 0.0000 0.0000 0.0000
# 2 -4.2167 66.4368 14.9865 0.0000 0.0000 0.0000
# 3 19.3505 14.9865 51.3197 0.0000 0.0000 0.0000
# 4 0.0000 0.0000 0.0000 17.7060 0.0000 0.0000
# 5 0.0000 0.0000 0.0000 0.0000 16.5773 0.0000
# 6 0.0000 0.0000 0.0000 0.0000 0.0000 29.3454
#
#
#
# Elastic Compliance Matrix: (Units=1/GPa)
#
#
# Indices 1 2 3 4 5 6 
#
# 1 0.008254 0.001312 -0.003496 0.000000 0.000000 0.000000
# 2 0.001312 0.016322 -0.005261 0.000000 0.000000 0.000000
# 3 -0.003496 -0.005261 0.022340 0.000000 0.000000 0.000000
# 4 0.000000 0.000000 0.000000 0.056478 0.000000 0.000000
# 5 0.000000 0.000000 0.000000 0.000000 0.060323 0.000000
# 6 0.000000 0.000000 0.000000 0.000000 0.000000 0.034077
#
#
# Mechanical properties :
#
#
# Convention : Reuss Voigt Hill
#
# Bulk Modulus (GPa) = 31.22302 34.22325 32.72314
# Shear Modulus (GPa) = 22.38540 27.23562 24.81051
#
# Velocity S-wave (km/s) = 3.08308 3.40072 3.24579
# Velocity P-wave (km/s) = 5.09234 5.47284 5.28601
#
# Compressibility (1/GPa) = 0.03202765
#
# Stress axis : x y z
#
# Youngs Moduli (GPa) = 121.14695 61.26699 44.76244
#
# Poissons Ratio (x) = -0.08041 0.15647
# Poissons Ratio (y) = -0.15900 0.23551
# Poissons Ratio (z) = 0.42349 0.32234
#
# Static dielectric constant tensor:
#      x y z
#    x 1.975250 0.000000 0.000000 
#    y 0.000000 1.873990 0.000000 
#    z 0.000000 0.000000 1.971490 
# 
# From -- ./inp_files/9420.got.cif
#   From: 2010.05.17/outbox.cif.g08.bks.cpg/sg35_5_cif.got.tgz:9420.got - 2010.06.03 17:29:28.
