data_PCOD9349515
_publ_section_title
;
Structure prediction by ZEFSAII (Michael W. Deem and Ramdas Pophale) SiO2 
 PCOD9349515
Probable space group: C M M 2
;
_chemical_formula_sum "Si O2"
_cell_formula_units_Z 48
_cell_length_a 16.127044
_cell_length_b 8.857050
_cell_length_c 17.197966
_cell_angle_alpha 90.000000
_cell_angle_beta 90.000000
_cell_angle_gamma 90.000000
_cell_volume 2456.523670
_symmetry_space_group_name_H-M "C M M 2"
_symmetry_group_IT_number 35
_symmetry_cell_setting 'orthorhombic'
loop_
_space_group_symop_operation_xyz
x,y,z
-x,-y,z
-x,y,z
x,-y,z
1/2+x,1/2+y,z
1/2-x,1/2-y,z
1/2-x,1/2+y,z
1/2+x,1/2-y,z
loop_
_atom_site_type_symbol
_atom_site_label
_atom_site_fract_x
_atom_site_fract_y
_atom_site_fract_z
Si Si1 0.663081 0.817792 0.283050
Si Si2 0.336283 0.319213 0.647739
Si Si3 0.902573 0.323729 0.802283
Si Si4 0.000000 0.817795 0.550620
Si Si5 0.500000 0.817403 0.379204
Si Si6 0.341360 0.320542 0.959878
Si Si7 0.902396 0.676237 0.116632
O O1 0.750000 0.750000 0.310314
O O2 0.583319 0.770523 0.333422
O O3 0.646645 0.773398 0.193248
O O4 0.666846 0.000000 0.284980
O O5 0.330993 0.500000 0.648216
O O6 0.250000 0.250000 0.618369
O O7 0.352260 0.259425 0.734843
O O8 0.416596 0.273646 0.597092
O O9 0.878935 0.500000 0.805357
O O10 0.887648 0.248842 0.885651
O O11 0.000000 0.313447 0.783242
O O12 0.000000 0.747387 0.465501
O O13 0.000000 0.000000 0.545426
O O14 0.500000 0.000000 0.381463
O O15 0.337862 0.500000 0.953264
O O16 0.250000 0.250000 0.960113
O O17 0.383503 0.271923 0.040497
O O18 0.881621 0.500000 0.100466
O O19 0.000000 0.682056 0.135314
#
# Coordination Sequence:
#
# PCOD9349515 Si02
#       7
#     8   8   8   4   4   8   8
#     4  10  21  39  63  92 124 164 206 253 308 367
#     4  11  23  42  66  94 128 165 207 255 310 368
#     4  11  23  40  63  90 121 161 208 254 308 367
#     4  10  24  44  66  93 128 163 200 253 312 369
#     4  10  22  42  66  91 124 163 204 249 308 375
#     4  12  25  39  56  83 121 162 209 259 308 361
#     4  10  20  38  62  86 120 162 205 253 309 368
#
# _framework density 19.539808000000001
#
# number of rings (size 3 to 8) (size 9 to 14) (size 15 to 20)
#    0.000    1.333    1.667    4.000    0.000    8.000 
#    0.000    3.333    0.000    0.000    0.000    0.000 
#    0.000    0.000    0.000    0.000    0.000    0.000 
#
# Total GULP energy -134203.919136 kJ/mol
# GULP energy per Si atom -5591.829964 kJ/mol
# Density = 1.949533 g / cm^3
# Si number density = 19.539808 Si / 1000 Ang^3
#
#
#
# Elastic Constant Matrix: (Units=GPa)
#
#
# Indices 1 2 3 4 5 6 
#
# 1 144.1373 46.4676 64.0023 0.0000 0.0000 0.0000
# 2 46.4676 68.3685 38.8286 0.0000 0.0000 0.0000
# 3 64.0023 38.8286 125.3984 0.0000 0.0000 0.0000
# 4 0.0000 0.0000 0.0000 28.7356 0.0000 0.0000
# 5 0.0000 0.0000 0.0000 0.0000 577.7579 0.0000
# 6 0.0000 0.0000 0.0000 0.0000 0.0000 33.7668
#
#
#
# Elastic Compliance Matrix: (Units=1/GPa)
#
#
# Indices 1 2 3 4 5 6 
#
# 1 0.010115 -0.004784 -0.003681 0.000000 0.000000 0.000000
# 2 -0.004784 0.020010 -0.003754 0.000000 0.000000 0.000000
# 3 -0.003681 -0.003754 0.011016 0.000000 0.000000 0.000000
# 4 0.000000 0.000000 0.000000 0.034800 0.000000 0.000000
# 5 0.000000 0.000000 0.000000 0.000000 0.001731 0.000000
# 6 0.000000 0.000000 0.000000 0.000000 0.000000 0.029615
#
#
# Mechanical properties :
#
#
# Convention : Reuss Voigt Hill
#
# Bulk Modulus (GPa) = 59.87295 70.72237 65.29766
# Shear Modulus (GPa) = 36.41851 140.62578 88.52214
#
# Velocity S-wave (km/s) = 4.32187 8.49265 6.73809
# Velocity P-wave (km/s) = 7.45740 11.50823 9.69670
#
# Compressibility (1/GPa) = 0.01670203
#
# Stress axis : x y z
#
# Youngs Moduli (GPa) = 98.86640 49.97428 90.77787
#
# Poissons Ratio (x) = 0.23907 0.33417
# Poissons Ratio (y) = 0.47297 0.34081
# Poissons Ratio (z) = 0.36394 0.18762
#
# Static dielectric constant tensor:
#      x y z
#    x 0.918050 0.000000 0.000000 
#    y 0.000000 1.657120 0.000000 
#    z 0.000000 0.000000 1.663270 
# 
# From -- ./inp_files/15196.got.cif
#   From: 2010.05.17/outbox.cif.g08.bks.cpg/sg35_8_cif.got.tgz:15196.got - 2010.06.03 17:29:28.
