data_PCOD9349585
_publ_section_title
;
Structure prediction by ZEFSAII (Michael W. Deem and Ramdas Pophale) SiO2 
 PCOD9349585
Probable space group: C M M 2
;
_chemical_formula_sum "Si O2"
_cell_formula_units_Z 58
_cell_length_a 30.887743
_cell_length_b 7.916852
_cell_length_c 12.899761
_cell_angle_alpha 90.000000
_cell_angle_beta 90.000000
_cell_angle_gamma 90.000000
_cell_volume 3154.426157
_symmetry_space_group_name_H-M "C M M 2"
_symmetry_group_IT_number 35
_symmetry_cell_setting 'orthorhombic'
loop_
_space_group_symop_operation_xyz
x,y,z
-x,-y,z
-x,y,z
x,-y,z
1/2+x,1/2+y,z
1/2-x,1/2-y,z
1/2-x,1/2+y,z
1/2+x,1/2-y,z
loop_
_atom_site_type_symbol
_atom_site_label
_atom_site_fract_x
_atom_site_fract_y
_atom_site_fract_z
Si Si1 0.701472 0.806143 0.543850
Si Si2 0.864795 0.195347 0.377907
Si Si3 0.200161 0.204267 0.202801
Si Si4 0.164151 0.200737 0.754850
Si Si5 0.936329 0.192734 0.703998
Si Si6 0.548109 0.197015 0.474116
Si Si7 0.700268 0.296890 0.969889
Si Si8 0.000000 0.500000 0.757524
O O1 0.750000 0.750000 0.517865
O O2 0.664932 0.706505 0.480661
O O3 0.692994 0.784417 0.665906
O O4 0.695939 0.000000 0.514431
O O5 0.834580 0.267165 0.286349
O O6 0.911193 0.277562 0.399423
O O7 0.873514 0.000000 0.354923
O O8 0.250000 0.250000 0.227387
O O9 0.198436 0.000000 0.204214
O O10 0.189866 0.265260 0.085994
O O11 0.114216 0.221535 0.725565
O O12 0.173480 0.263964 0.870892
O O13 0.174021 0.000000 0.751829
O O14 0.944414 0.202133 0.580234
O O15 0.963006 0.347480 0.751793
O O16 0.947022 0.000000 0.738687
O O17 0.500000 0.238309 0.432331
O O18 0.547260 0.000000 0.505206
O O19 0.696134 0.500000 0.973732
O O20 0.750000 0.250000 0.950609
#
# Coordination Sequence:
#
# PCOD9349585 Si02
#       8
#     8   8   8   8   8   8   8   2
#     4  12  24  35  50  72 109 150 181 217 267 330
#     4  11  22  35  53  80 110 142 183 227 279 335
#     4   9  19  35  56  79 108 141 183 231 277 332
#     4  10  21  35  53  79 110 143 183 225 278 336
#     4  11  21  35  55  81 114 150 187 235 284 341
#     4  11  21  36  54  79 108 145 186 231 283 336
#     4   9  18  35  55  79 107 141 183 231 277 328
#     4  12  22  36  56  82 112 150 198 232 288 334
#
# _framework density 18.386863000000002
#
# number of rings (size 3 to 8) (size 9 to 14) (size 15 to 20)
#    0.000    1.517    2.759    3.103    0.966    4.690 
#    0.000    0.000    0.000    0.000    1.793    0.000 
#    0.000    0.000    0.000    0.000    0.000    0.000 
#
# Total GULP energy -161584.508966 kJ/mol
# GULP energy per Si atom -5571.879620 kJ/mol
# Density = 1.834501 g / cm^3
# Si number density = 18.386863 Si / 1000 Ang^3
#
#
#
# Elastic Constant Matrix: (Units=GPa)
#
#
# Indices 1 2 3 4 5 6 
#
# 1 125.3897 17.5447 55.8851 0.0000 0.0000 0.0000
# 2 17.5447 66.9443 2.5922 0.0000 0.0000 0.0000
# 3 55.8851 2.5922 84.4974 0.0000 0.0000 0.0000
# 4 0.0000 0.0000 0.0000 7.1455 0.0000 0.0000
# 5 0.0000 0.0000 0.0000 0.0000 20.7900 0.0000
# 6 0.0000 0.0000 0.0000 0.0000 0.0000 28.1769
#
#
#
# Elastic Compliance Matrix: (Units=1/GPa)
#
#
# Indices 1 2 3 4 5 6 
#
# 1 0.011809 -0.002796 -0.007725 0.000000 0.000000 0.000000
# 2 -0.002796 0.015617 0.001370 0.000000 0.000000 0.000000
# 3 -0.007725 0.001370 0.016902 0.000000 0.000000 0.000000
# 4 0.000000 0.000000 0.000000 0.139947 0.000000 0.000000
# 5 0.000000 0.000000 0.000000 0.000000 0.048100 0.000000
# 6 0.000000 0.000000 0.000000 0.000000 0.000000 0.035490
#
#
# Mechanical properties :
#
#
# Convention : Reuss Voigt Hill
#
# Bulk Modulus (GPa) = 38.42114 47.65283 43.03699
# Shear Modulus (GPa) = 16.95823 24.60978 20.78401
#
# Velocity S-wave (km/s) = 3.04024 3.66244 3.36575
# Velocity P-wave (km/s) = 5.76762 6.62251 6.20979
#
# Compressibility (1/GPa) = 0.02602734
#
# Stress axis : x y z
#
# Youngs Moduli (GPa) = 84.68043 64.03092 59.16617
#
# Poissons Ratio (x) = 0.17902 0.45703
# Poissons Ratio (y) = 0.23675 -0.08106
# Poissons Ratio (z) = 0.65412 -0.08772
#
# Static dielectric constant tensor:
#      x y z
#    x 1.647340 0.000000 0.000000 
#    y 0.000000 1.653520 0.000000 
#    z 0.000000 0.000000 1.651860 
# 
# From -- ./inp_files/14491.got.cif
#   From: 2010.05.17/outbox.cif.g08.bks.cpg/sg35_8_cif.got.tgz:14491.got - 2010.06.03 17:29:28.
