data_PCOD9349415
_publ_section_title
;
Structure prediction by ZEFSAII (Michael W. Deem and Ramdas Pophale) SiO2 
 PCOD9349415
Probable space group: C M M 2
;
_chemical_formula_sum "Si O2"
_cell_formula_units_Z 64
_cell_length_a 31.283967
_cell_length_b 8.818278
_cell_length_c 12.059862
_cell_angle_alpha 90.000000
_cell_angle_beta 90.000000
_cell_angle_gamma 90.000000
_cell_volume 3326.962788
_symmetry_space_group_name_H-M "C M M 2"
_symmetry_group_IT_number 35
_symmetry_cell_setting 'orthorhombic'
loop_
_space_group_symop_operation_xyz
x,y,z
-x,-y,z
-x,y,z
x,-y,z
1/2+x,1/2+y,z
1/2-x,1/2-y,z
1/2-x,1/2+y,z
1/2+x,1/2-y,z
loop_
_atom_site_type_symbol
_atom_site_label
_atom_site_fract_x
_atom_site_fract_y
_atom_site_fract_z
Si Si1 0.126636 0.680148 0.903580
Si Si2 0.451060 0.320134 0.037574
Si Si3 0.205202 0.819356 0.039640
Si Si4 0.205426 0.181245 0.505765
Si Si5 0.950923 0.682146 0.514789
Si Si6 0.124161 0.180777 0.660432
Si Si7 0.075730 0.678378 0.265837
Si Si8 0.821485 0.321213 0.271464
O O1 0.131028 0.500000 0.911612
O O2 0.125891 0.734666 0.777182
O O3 0.083186 0.732027 0.963816
O O4 0.166000 0.757779 0.967285
O O5 0.500000 0.284196 0.007711
O O6 0.444363 0.500000 0.024588
O O7 0.443059 0.273726 0.165063
O O8 0.250000 0.750000 0.000158
O O9 0.197461 0.763241 0.165309
O O10 0.206574 0.000000 0.035852
O O11 0.250000 0.250000 0.547030
O O12 0.166070 0.216463 0.587133
O O13 0.195540 0.252518 0.385733
O O14 0.208845 0.000000 0.495578
O O15 0.944451 0.500000 0.524411
O O16 0.917134 0.766282 0.591665
O O17 0.942330 0.721520 0.386050
O O18 0.000000 0.716239 0.543313
O O19 0.122867 0.000000 0.678488
O O20 0.065957 0.500000 0.247232
O O21 0.127059 0.694777 0.268339
O O22 0.811223 0.500000 0.265321
#
# Coordination Sequence:
#
# PCOD9349415 Si02
#       8
#     8   8   8   8   8   8   8   8
#     4  12  26  45  68  92 122 164 213 263 316 371
#     4  11  24  41  64  95 130 167 208 258 315 374
#     4  12  25  43  67  95 130 166 208 257 312 374
#     4  11  24  41  64  93 126 165 207 255 311 370
#     4  10  21  39  64  94 127 165 208 254 307 369
#     4  11  25  44  65  90 123 163 209 261 315 369
#     4  10  20  36  63  94 129 168 207 254 310 373
#     4  11  21  37  64  96 130 167 207 252 311 372
#
# _framework density 19.236763
#
# number of rings (size 3 to 8) (size 9 to 14) (size 15 to 20)
#    0.000    1.000    2.500    4.500    0.000    5.250 
#    0.000    1.250    0.000    0.000    0.000    0.000 
#    0.000    0.000    0.000    0.000    0.000    0.000 
#
# Total GULP energy -179084.671801 kJ/mol
# GULP energy per Si atom -5596.395994 kJ/mol
# Density = 1.919298 g / cm^3
# Si number density = 19.236763 Si / 1000 Ang^3
#
#
#
# Elastic Constant Matrix: (Units=GPa)
#
#
# Indices 1 2 3 4 5 6 
#
# 1 141.7755 83.7014 61.1458 0.0000 0.0000 0.0000
# 2 83.7014 123.2230 64.5035 0.0000 0.0000 0.0000
# 3 61.1458 64.5035 109.9947 0.0000 0.0000 0.0000
# 4 0.0000 0.0000 0.0000 35.8606 0.0000 0.0000
# 5 0.0000 0.0000 0.0000 0.0000 -9.4514 0.0000
# 6 0.0000 0.0000 0.0000 0.0000 0.0000 28.4569
#
#
#
# Elastic Compliance Matrix: (Units=1/GPa)
#
#
# Indices 1 2 3 4 5 6 
#
# 1 0.012349 -0.006918 -0.002807 0.000000 0.000000 0.000000
# 2 -0.006918 0.015586 -0.005294 0.000000 0.000000 0.000000
# 3 -0.002807 -0.005294 0.013757 0.000000 0.000000 0.000000
# 4 0.000000 0.000000 0.000000 0.027886 0.000000 0.000000
# 5 0.000000 0.000000 0.000000 0.000000 -0.105804 0.000000
# 6 0.000000 0.000000 0.000000 0.000000 0.000000 0.035141
#
#
# Mechanical properties :
#
#
# Convention : Reuss Voigt Hill
#
# Bulk Modulus (GPa) = 85.82689 88.18831 87.00760
# Shear Modulus (GPa) = 152.26134 22.01604 87.13869
#
# Velocity S-wave (km/s) = 8.90635 3.38668 6.73768
# Velocity P-wave (km/s) = 12.26691 7.82534 10.28866
#
# Compressibility (1/GPa) = 0.01165136
#
# Stress axis : x y z
#
# Youngs Moduli (GPa) = 80.97972 64.15927 72.69217
#
# Poissons Ratio (x) = 0.44389 0.20408
# Poissons Ratio (y) = 0.56026 0.38484
# Poissons Ratio (z) = 0.22735 0.33967
#
# Static dielectric constant tensor:
#      x y z
#    x 1.665830 0.000000 0.000000 
#    y 0.000000 1.644210 0.000000 
#    z 0.000000 0.000000 1.632270 
# 
# From -- ./inp_files/14591.got.cif
#   From: 2010.05.17/outbox.cif.g08.bks.cpg/sg35_8_cif.got.tgz:14591.got - 2010.06.03 17:29:28.
