data_PCOD9349034
_publ_section_title
;
Structure prediction by ZEFSAII (Michael W. Deem and Ramdas Pophale) SiO2 
 PCOD9349034
Probable space group: C M M 2
;
_chemical_formula_sum "Si O2"
_cell_formula_units_Z 48
_cell_length_a 15.606750
_cell_length_b 8.864893
_cell_length_c 17.680838
_cell_angle_alpha 90.000000
_cell_angle_beta 90.000000
_cell_angle_gamma 90.000000
_cell_volume 2446.182284
_symmetry_space_group_name_H-M "C M M 2"
_symmetry_group_IT_number 35
_symmetry_cell_setting 'orthorhombic'
loop_
_space_group_symop_operation_xyz
x,y,z
-x,-y,z
-x,y,z
x,-y,z
1/2+x,1/2+y,z
1/2-x,1/2-y,z
1/2-x,1/2+y,z
1/2+x,1/2-y,z
loop_
_atom_site_type_symbol
_atom_site_label
_atom_site_fract_x
_atom_site_fract_y
_atom_site_fract_z
Si Si1 0.895652 0.826170 0.862030
Si Si2 0.340952 0.179338 0.707960
Si Si3 0.344513 0.680321 0.167203
Si Si4 0.500000 0.316505 0.441759
Si Si5 0.000000 0.818254 0.617865
Si Si6 0.155133 0.818306 0.336607
Si Si7 0.898830 0.331325 0.014278
O O1 0.859641 0.724650 0.794850
O O2 0.000000 0.821374 0.858525
O O3 0.869929 0.000000 0.850728
O O4 0.866021 0.766189 0.943764
O O5 0.250000 0.250000 0.685830
O O6 0.416732 0.252051 0.658928
O O7 0.340295 0.000000 0.699659
O O8 0.342882 0.500000 0.159399
O O9 0.250000 0.750000 0.166256
O O10 0.378252 0.716282 0.251442
O O11 0.389186 0.751989 0.094878
O O12 0.500000 0.500000 0.438026
O O13 0.500000 0.275507 0.529533
O O14 0.585448 0.266217 0.397620
O O15 0.000000 0.000000 0.624679
O O16 0.250000 0.750000 0.346377
O O17 0.163112 0.000000 0.341154
O O18 0.860915 0.500000 0.015879
O O19 0.000000 0.345248 0.000480
#
# Coordination Sequence:
#
# PCOD9349034 Si02
#       7
#     8   8   8   4   4   8   8
#     4  10  20  37  61  87 120 158 202 251 304 361
#     4  12  25  42  66  94 126 164 207 252 306 367
#     4  10  20  34  55  79 112 153 198 246 298 352
#     4   9  20  39  65  92 119 158 197 239 300 367
#     4  11  23  43  67  94 129 162 199 251 308 371
#     4   9  19  37  60  87 120 157 199 248 299 356
#     4  10  21  35  53  81 118 156 199 247 297 348
#
# _framework density 19.622413000000002
#
# number of rings (size 3 to 8) (size 9 to 14) (size 15 to 20)
#    0.000    1.833    0.833    3.250    1.167    3.667 
#    0.000    7.083    0.000    0.000    0.000    0.000 
#    0.000    0.000    0.000    0.000    0.000    0.000 
#
# Total GULP energy -134045.858564 kJ/mol
# GULP energy per Si atom -5585.244107 kJ/mol
# Density = 1.957775 g / cm^3
# Si number density = 19.622413 Si / 1000 Ang^3
#
#
#
# Elastic Constant Matrix: (Units=GPa)
#
#
# Indices 1 2 3 4 5 6 
#
# 1 92.8842 41.2372 65.4274 0.0000 0.0000 0.0000
# 2 41.2372 110.8040 56.1646 0.0000 0.0000 0.0000
# 3 65.4274 56.1646 151.7192 0.0000 0.0000 0.0000
# 4 0.0000 0.0000 0.0000 17.5529 0.0000 0.0000
# 5 0.0000 0.0000 0.0000 0.0000 -55.8875 0.0000
# 6 0.0000 0.0000 0.0000 0.0000 0.0000 27.4524
#
#
#
# Elastic Compliance Matrix: (Units=1/GPa)
#
#
# Indices 1 2 3 4 5 6 
#
# 1 0.016273 -0.003076 -0.005879 0.000000 0.000000 0.000000
# 2 -0.003076 0.011691 -0.003001 0.000000 0.000000 0.000000
# 3 -0.005879 -0.003001 0.010237 0.000000 0.000000 0.000000
# 4 0.000000 0.000000 0.000000 0.056971 0.000000 0.000000
# 5 0.000000 0.000000 0.000000 0.000000 -0.017893 0.000000
# 6 0.000000 0.000000 0.000000 0.000000 0.000000 0.036427
#
#
# Mechanical properties :
#
#
# Convention : Reuss Voigt Hill
#
# Bulk Modulus (GPa) = 69.98564 75.67399 72.82981
# Shear Modulus (GPa) = 35.11702 10.66208 22.88955
#
# Velocity S-wave (km/s) = 4.23500 2.33354 3.41911
# Velocity P-wave (km/s) = 7.72381 6.77564 7.26521
#
# Compressibility (1/GPa) = 0.01428865
#
# Stress axis : x y z
#
# Youngs Moduli (GPa) = 61.45228 85.53486 97.68226
#
# Poissons Ratio (x) = 0.26314 0.57424
# Poissons Ratio (y) = 0.18905 0.29317
# Poissons Ratio (z) = 0.36126 0.25671
#
# Static dielectric constant tensor:
#      x y z
#    x 1.679470 0.000000 0.000000 
#    y 0.000000 1.671480 0.000000 
#    z 0.000000 0.000000 1.686910 
# 
# From -- ./inp_files/17833.got.cif
#   From: 2010.05.17/outbox.cif.g08.bks.cpg/sg35_9_cif.got.tgz:17833.got - 2010.06.03 17:29:28.
