data_PCOD9349226
_publ_section_title
;
Structure prediction by ZEFSAII (Michael W. Deem and Ramdas Pophale) SiO2 
 PCOD9349226
Probable space group: C M M 2
;
_chemical_formula_sum "Si O2"
_cell_formula_units_Z 40
_cell_length_a 8.626845
_cell_length_b 26.390058
_cell_length_c 9.358261
_cell_angle_alpha 90.000000
_cell_angle_beta 90.000000
_cell_angle_gamma 90.000000
_cell_volume 2130.529212
_symmetry_space_group_name_H-M "C M M 2"
_symmetry_group_IT_number 35
_symmetry_cell_setting 'orthorhombic'
loop_
_space_group_symop_operation_xyz
x,y,z
-x,-y,z
-x,y,z
x,-y,z
1/2+x,1/2+y,z
1/2-x,1/2-y,z
1/2-x,1/2+y,z
1/2+x,1/2-y,z
loop_
_atom_site_type_symbol
_atom_site_label
_atom_site_fract_x
_atom_site_fract_y
_atom_site_fract_z
Si Si1 0.185977 0.695375 0.398690
Si Si2 0.685807 0.903529 0.221098
Si Si3 0.686341 0.500000 0.390786
Si Si4 0.686103 0.304567 0.717760
Si Si5 0.812485 0.901995 0.901433
Si Si6 0.688708 0.500000 0.720208
O O1 0.250000 0.750000 0.351252
O O2 0.232240 0.649373 0.295941
O O3 0.250135 0.686045 0.558229
O O4 0.000000 0.697930 0.405305
O O5 0.500000 0.906675 0.223439
O O6 0.753908 0.950279 0.310050
O O7 0.744579 0.905419 0.059235
O O8 0.500000 0.500000 0.388735
O O9 0.739748 0.500000 0.555823
O O10 0.500000 0.302504 0.710692
O O11 0.750000 0.250000 0.764916
O O12 0.732275 0.350028 0.822269
O O13 0.000000 0.903196 0.910777
O O14 0.762615 0.949809 0.805297
O O15 0.500000 0.500000 0.718164
#
# Coordination Sequence:
#
# PCOD9349226 Si02
#       6
#     8   8   4   8   8   4
#     4  10  21  37  58  83 113 150 192 237 283 334
#     4  11  24  39  56  84 119 150 185 232 285 336
#     4  11  22  39  64  86 110 147 188 231 278 336
#     4  10  20  35  57  84 113 147 190 235 279 333
#     4  10  21  37  58  83 111 146 187 229 277 335
#     4   9  19  37  60  84 106 135 182 231 272 322
#
# _framework density 18.774678999999999
#
# number of rings (size 3 to 8) (size 9 to 14) (size 15 to 20)
#    0.000    1.800    0.000    5.100    0.000    8.000 
#    0.000    6.000    0.000    0.000    0.000    0.000 
#    0.000    0.000    0.000    0.000    0.000    0.000 
#
# Total GULP energy -111773.806990 kJ/mol
# GULP energy per Si atom -5588.690349 kJ/mol
# Density = 1.873195 g / cm^3
# Si number density = 18.774679 Si / 1000 Ang^3
#
#
#
# Elastic Constant Matrix: (Units=GPa)
#
#
# Indices 1 2 3 4 5 6 
#
# 1 41.2785 51.7037 42.9832 0.0000 0.0000 0.0000
# 2 51.7037 204.2974 143.8155 0.0000 0.0000 0.0000
# 3 42.9832 143.8155 175.4241 0.0000 0.0000 0.0000
# 4 0.0000 0.0000 0.0000 -169.4389 0.0000 0.0000
# 5 0.0000 0.0000 0.0000 0.0000 27.0728 0.0000
# 6 0.0000 0.0000 0.0000 0.0000 0.0000 26.9816
#
#
#
# Elastic Compliance Matrix: (Units=1/GPa)
#
#
# Indices 1 2 3 4 5 6 
#
# 1 0.036221 -0.006903 -0.003216 0.000000 0.000000 0.000000
# 2 -0.006903 0.012890 -0.008876 0.000000 0.000000 0.000000
# 3 -0.003216 -0.008876 0.013765 0.000000 0.000000 0.000000
# 4 0.000000 0.000000 0.000000 -0.005902 0.000000 0.000000
# 5 0.000000 0.000000 0.000000 0.000000 0.036937 0.000000
# 6 0.000000 0.000000 0.000000 0.000000 0.000000 0.037062
#
#
# Mechanical properties :
#
#
# Convention : Reuss Voigt Hill
#
# Bulk Modulus (GPa) = 40.18292 99.77832 69.98062
# Shear Modulus (GPa) = 28.20722 -10.91039 8.64841
#
# Velocity S-wave (km/s) = 3.88030 -2.41326 2.14859
# Velocity P-wave (km/s) = 6.44397 6.74503 6.59622
#
# Compressibility (1/GPa) = 0.02488620
#
# Stress axis : x y z
#
# Youngs Moduli (GPa) = 27.60858 77.57764 72.64626
#
# Poissons Ratio (x) = 0.53552 0.23361
# Poissons Ratio (y) = 0.19058 0.64483
# Poissons Ratio (z) = 0.08878 0.68860
#
# Static dielectric constant tensor:
#      x y z
#    x 1.638000 0.000000 0.000000 
#    y 0.000000 1.638360 0.000000 
#    z 0.000000 0.000000 1.609590 
# 
# From -- ./inp_files/5029.got.cif
#   From: 2010.05.17/outbox.cif.g08.bks.cpg/sg35_3_cif.got.tgz:5029.got - 2010.06.03 17:29:28.
