data_PCOD9349897
_publ_section_title
;
Structure prediction by ZEFSAII (Michael W. Deem and Ramdas Pophale) SiO2 
 PCOD9349897
Probable space group: C M M 2
;
_chemical_formula_sum "Si O2"
_cell_formula_units_Z 56
_cell_length_a 21.814829
_cell_length_b 8.465364
_cell_length_c 14.711846
_cell_angle_alpha 90.000000
_cell_angle_beta 90.000000
_cell_angle_gamma 90.000000
_cell_volume 2716.843487
_symmetry_space_group_name_H-M "C M M 2"
_symmetry_group_IT_number 35
_symmetry_cell_setting 'orthorhombic'
loop_
_space_group_symop_operation_xyz
x,y,z
-x,-y,z
-x,y,z
x,-y,z
1/2+x,1/2+y,z
1/2-x,1/2-y,z
1/2-x,1/2+y,z
1/2+x,1/2-y,z
loop_
_atom_site_type_symbol
_atom_site_label
_atom_site_fract_x
_atom_site_fract_y
_atom_site_fract_z
Si Si1 0.567980 0.189064 0.081420
Si Si2 0.367987 0.310253 0.371443
Si Si3 0.631937 0.310449 0.576540
Si Si4 0.314655 0.690750 0.760188
Si Si5 0.185670 0.188510 0.188528
Si Si6 0.000000 0.679292 0.584300
Si Si7 0.567576 0.308785 0.874806
Si Si8 0.500000 0.821204 0.363824
O O1 0.500000 0.239993 0.115497
O O2 0.625710 0.258381 0.134161
O O3 0.570478 0.000000 0.086761
O O4 0.571782 0.242383 0.976556
O O5 0.364496 0.500000 0.375389
O O6 0.356997 0.248769 0.474070
O O7 0.323332 0.252149 0.292464
O O8 0.436812 0.264490 0.341206
O O9 0.635980 0.500000 0.572551
O O10 0.676225 0.252942 0.656084
O O11 0.562829 0.267355 0.606792
O O12 0.314471 0.500000 0.760516
O O13 0.250000 0.750000 0.796988
O O14 0.374155 0.743947 0.816503
O O15 0.250000 0.250000 0.150812
O O16 0.187410 0.000000 0.189217
O O17 0.000000 0.500000 0.618563
O O18 0.000000 0.672885 0.473961
O O19 0.500000 0.263896 0.837544
O O20 0.569294 0.500000 0.878894
O O21 0.500000 0.000000 0.327979
#
# Coordination Sequence:
#
# PCOD9349897 Si02
#       8
#     8   8   8   8   8   4   8   4
#     4  10  22  41  65  92 119 149 189 237 294 352
#     4   9  19  35  54  79 112 153 198 239 282 337
#     4   9  18  34  55  78 111 155 198 236 279 337
#     4  10  22  37  57  85 117 155 195 236 286 340
#     4  11  24  40  59  85 119 157 199 242 291 346
#     4   9  17  29  47  77 108 139 184 239 291 330
#     4   9  19  38  63  88 114 148 193 238 286 345
#     4   9  17  29  49  77 108 141 184 237 289 334
#
# _framework density 20.612155999999999
#
# number of rings (size 3 to 8) (size 9 to 14) (size 15 to 20)
#    0.000    2.429    0.000    1.286    2.000    6.000 
#    0.000    1.429    0.000    0.000    0.000    0.000 
#    0.000    0.000    0.000    0.000    0.000    0.000 
#
# Total GULP energy -156267.551910 kJ/mol
# GULP energy per Si atom -5580.983997 kJ/mol
# Density = 2.056524 g / cm^3
# Si number density = 20.612156 Si / 1000 Ang^3
#
#
#
# Elastic Constant Matrix: (Units=GPa)
#
#
# Indices 1 2 3 4 5 6 
#
# 1 169.8556 20.7567 69.9636 0.0000 0.0000 0.0000
# 2 20.7567 13.1580 15.1739 0.0000 0.0000 0.0000
# 3 69.9636 15.1739 75.0288 0.0000 0.0000 0.0000
# 4 0.0000 0.0000 0.0000 8.9670 0.0000 0.0000
# 5 0.0000 0.0000 0.0000 0.0000 16.8587 0.0000
# 6 0.0000 0.0000 0.0000 0.0000 0.0000 21.0557
#
#
#
# Elastic Compliance Matrix: (Units=1/GPa)
#
#
# Indices 1 2 3 4 5 6 
#
# 1 0.009971 -0.006530 -0.007977 0.000000 0.000000 0.000000
# 2 -0.006530 0.103392 -0.014821 0.000000 0.000000 0.000000
# 3 -0.007977 -0.014821 0.023765 0.000000 0.000000 0.000000
# 4 0.000000 0.000000 0.000000 0.111520 0.000000 0.000000
# 5 0.000000 0.000000 0.000000 0.000000 0.059317 0.000000
# 6 0.000000 0.000000 0.000000 0.000000 0.000000 0.047493
#
#
# Mechanical properties :
#
#
# Convention : Reuss Voigt Hill
#
# Bulk Modulus (GPa) = 12.74355 52.20342 32.47349
# Shear Modulus (GPa) = 11.35662 19.51949 15.43806
#
# Velocity S-wave (km/s) = 2.34982 3.08066 2.73972
# Velocity P-wave (km/s) = 3.68214 6.16729 5.07905
#
# Compressibility (1/GPa) = 0.07847106
#
# Stress axis : x y z
#
# Youngs Moduli (GPa) = 100.28838 9.67191 42.07942
#
# Poissons Ratio (x) = 0.06316 0.33569
# Poissons Ratio (y) = 0.65487 0.62366
# Poissons Ratio (z) = 0.80005 0.14335
#
# Static dielectric constant tensor:
#      x y z
#    x 1.728130 0.000000 0.000000 
#    y 0.000000 1.704740 0.000000 
#    z 0.000000 0.000000 1.768710 
# 
# From -- ./inp_files/17430.got.cif
#   From: 2010.05.17/outbox.cif.g08.bks.cpg/sg35_9_cif.got.tgz:17430.got - 2010.06.03 17:29:28.
