data_PCOD9349826
_publ_section_title
;
Structure prediction by ZEFSAII (Michael W. Deem and Ramdas Pophale) SiO2 
 PCOD9349826
Probable space group: C M M 2
;
_chemical_formula_sum "Si O2"
_cell_formula_units_Z 56
_cell_length_a 22.307755
_cell_length_b 14.178783
_cell_length_c 9.677459
_cell_angle_alpha 90.000000
_cell_angle_beta 90.000000
_cell_angle_gamma 90.000000
_cell_volume 3060.949482
_symmetry_space_group_name_H-M "C M M 2"
_symmetry_group_IT_number 35
_symmetry_cell_setting 'orthorhombic'
loop_
_space_group_symop_operation_xyz
x,y,z
-x,-y,z
-x,y,z
x,-y,z
1/2+x,1/2+y,z
1/2-x,1/2-y,z
1/2-x,1/2+y,z
1/2+x,1/2-y,z
loop_
_atom_site_type_symbol
_atom_site_label
_atom_site_fract_x
_atom_site_fract_y
_atom_site_fract_z
Si Si1 0.250441 0.387385 0.372870
Si Si2 0.428908 0.245058 0.729019
Si Si3 0.892661 0.887415 0.957383
Si Si4 0.259402 0.613145 0.048624
Si Si5 0.430918 0.241504 0.179348
Si Si6 0.370527 0.886909 0.954653
Si Si7 0.147862 0.247473 0.452047
O O1 0.248126 0.500000 0.382840
O O2 0.255719 0.359320 0.210116
O O3 0.191915 0.337302 0.435062
O O4 0.308015 0.342666 0.447667
O O5 0.500000 0.233441 0.708767
O O6 0.416694 0.339647 0.818298
O O7 0.402432 0.161362 0.824587
O O8 0.392370 0.248381 0.587562
O O9 0.899542 0.000000 0.960223
O O10 0.822438 0.861557 0.979851
O O11 0.925219 0.834487 0.083614
O O12 0.258353 0.500000 0.050355
O O13 0.199469 0.642160 0.968453
O O14 0.500000 0.221954 0.208117
O O15 0.393893 0.255531 0.317862
O O16 0.402612 0.156877 0.089222
O O17 0.374662 0.000000 0.951390
#
# Coordination Sequence:
#
# PCOD9349826 Si02
#       7
#     8   8   8   8   8   8   8
#     4  10  21  39  63  94 121 148 190 248 308 358
#     4  11  26  42  56  83 125 167 203 237 286 354
#     4  10  21  39  63  88 117 155 198 249 300 348
#     4   9  17  33  62  93 117 139 185 250 305 349
#     4  11  22  35  58  88 116 155 208 248 284 345
#     4  10  21  39  63  88 117 155 198 249 300 348
#     4  11  23  39  62  87 122 161 191 243 302 350
#
# _framework density 18.294976999999999
#
# number of rings (size 3 to 8) (size 9 to 14) (size 15 to 20)
#    0.000    1.714    2.857    2.143    0.000    8.000 
#    0.000    1.429    0.000    5.143    0.000    0.000 
#    0.000    0.000    0.000    0.000    0.000    0.000 
#
# Total GULP energy -156366.724671 kJ/mol
# GULP energy per Si atom -5584.525881 kJ/mol
# Density = 1.825334 g / cm^3
# Si number density = 18.294977 Si / 1000 Ang^3
#
#
#
# Elastic Constant Matrix: (Units=GPa)
#
#
# Indices 1 2 3 4 5 6 
#
# 1 134.0516 0.3967 46.3458 0.0000 0.0000 0.0000
# 2 0.3967 88.6112 13.2882 0.0000 0.0000 0.0000
# 3 46.3458 13.2882 119.6071 0.0000 0.0000 0.0000
# 4 0.0000 0.0000 0.0000 8.3405 0.0000 0.0000
# 5 0.0000 0.0000 0.0000 0.0000 -253.5789 0.0000
# 6 0.0000 0.0000 0.0000 0.0000 0.0000 20.0249
#
#
#
# Elastic Compliance Matrix: (Units=1/GPa)
#
#
# Indices 1 2 3 4 5 6 
#
# 1 0.008633 0.000471 -0.003397 0.000000 0.000000 0.000000
# 2 0.000471 0.011502 -0.001460 0.000000 0.000000 0.000000
# 3 -0.003397 -0.001460 0.009839 0.000000 0.000000 0.000000
# 4 0.000000 0.000000 0.000000 0.119898 0.000000 0.000000
# 5 0.000000 0.000000 0.000000 0.000000 -0.003944 0.000000
# 6 0.000000 0.000000 0.000000 0.000000 0.000000 0.049938
#
#
# Mechanical properties :
#
#
# Convention : Reuss Voigt Hill
#
# Bulk Modulus (GPa) = 47.16826 51.37012 49.26919
# Shear Modulus (GPa) = 23.61752 -26.22676 -1.30462
#
# Velocity S-wave (km/s) = 3.59685 -3.79033 -0.84537
# Velocity P-wave (km/s) = 6.56413 2.99738 5.10255
#
# Compressibility (1/GPa) = 0.02120070
#
# Stress axis : x y z
#
# Youngs Moduli (GPa) = 115.83418 86.94041 101.63212
#
# Poissons Ratio (x) = -0.04094 0.34529
# Poissons Ratio (y) = -0.05454 0.14841
# Poissons Ratio (z) = 0.39354 0.12696
#
# Static dielectric constant tensor:
#      x y z
#    x 1.638880 0.000000 0.000000 
#    y 0.000000 1.633750 0.000000 
#    z 0.000000 0.000000 1.602980 
# 
# From -- ./inp_files/7605.got.cif
#   From: 2010.05.17/outbox.cif.g08.bks.cpg/sg35_4_cif.got.tgz:7605.got - 2010.06.03 17:29:28.
