data_PCOD9349231
_publ_section_title
;
Structure prediction by ZEFSAII (Michael W. Deem and Ramdas Pophale) SiO2 
 PCOD9349231
Probable space group: C M M 2
;
_chemical_formula_sum "Si O2"
_cell_formula_units_Z 48
_cell_length_a 9.037248
_cell_length_b 18.233423
_cell_length_c 15.802582
_cell_angle_alpha 90.000000
_cell_angle_beta 90.000000
_cell_angle_gamma 90.000000
_cell_volume 2603.948917
_symmetry_space_group_name_H-M "C M M 2"
_symmetry_group_IT_number 35
_symmetry_cell_setting 'orthorhombic'
loop_
_space_group_symop_operation_xyz
x,y,z
-x,-y,z
-x,y,z
x,-y,z
1/2+x,1/2+y,z
1/2-x,1/2-y,z
1/2-x,1/2+y,z
1/2+x,1/2-y,z
loop_
_atom_site_type_symbol
_atom_site_label
_atom_site_fract_x
_atom_site_fract_y
_atom_site_fract_z
Si Si1 0.329552 0.910851 0.530270
Si Si2 0.324302 0.413359 0.011479
Si Si3 0.678358 0.913474 0.340870
Si Si4 0.676159 0.170215 0.856847
Si Si5 0.676536 0.670894 0.185658
Si Si6 0.673021 0.588342 0.702057
O O1 0.500000 0.887753 0.543878
O O2 0.280685 0.888349 0.436125
O O3 0.229063 0.888738 0.608972
O O4 0.330278 0.000000 0.528272
O O5 0.500000 0.403104 0.993955
O O6 0.294649 0.500000 0.012865
O O7 0.292698 0.377897 0.102595
O O8 0.231821 0.374004 0.938789
O O9 0.500000 0.906928 0.334227
O O10 0.757124 0.868059 0.268178
O O11 0.714560 0.000000 0.332333
O O12 0.500000 0.176501 0.856767
O O13 0.750000 0.250000 0.858220
O O14 0.732401 0.127282 0.774090
O O15 0.500000 0.678201 0.193938
O O16 0.750000 0.750000 0.174785
O O17 0.500000 0.605379 0.713086
O O18 0.690398 0.500000 0.708804
#
# Coordination Sequence:
#
# PCOD9349231 Si02
#       6
#     8   8   8   8   8   8
#     4   8  15  30  53  81 112 146 186 232 279 326
#     4  10  22  41  63  87 114 143 180 228 278 329
#     4   9  18  34  57  84 114 148 187 233 281 329
#     4  12  25  40  59  83 113 149 187 228 277 332
#     4  11  23  38  57  82 114 151 188 229 278 331
#     4  10  20  35  57  85 116 149 186 230 278 329
#
# _framework density 18.433540000000001
#
# number of rings (size 3 to 8) (size 9 to 14) (size 15 to 20)
#    0.000    2.000    0.000    5.000    0.000    7.667 
#    0.000    2.500    0.000    4.000    0.000    0.000 
#    0.000    0.000    0.000    0.000    0.000    0.000 
#
# Total GULP energy -134062.843617 kJ/mol
# GULP energy per Si atom -5585.951817 kJ/mol
# Density = 1.839158 g / cm^3
# Si number density = 18.433540 Si / 1000 Ang^3
#
#
#
# Elastic Constant Matrix: (Units=GPa)
#
#
# Indices 1 2 3 4 5 6 
#
# 1 109.3994 71.0143 98.6122 0.0000 0.0000 0.0000
# 2 71.0143 82.3782 68.4504 0.0000 0.0000 0.0000
# 3 98.6122 68.4504 165.7378 0.0000 0.0000 0.0000
# 4 0.0000 0.0000 0.0000 -35.6560 0.0000 0.0000
# 5 0.0000 0.0000 0.0000 0.0000 44.4546 0.0000
# 6 0.0000 0.0000 0.0000 0.0000 0.0000 24.1521
#
#
#
# Elastic Compliance Matrix: (Units=1/GPa)
#
#
# Indices 1 2 3 4 5 6 
#
# 1 0.029609 -0.016574 -0.010772 0.000000 0.000000 0.000000
# 2 -0.016574 0.027759 -0.001603 0.000000 0.000000 0.000000
# 3 -0.010772 -0.001603 0.013105 0.000000 0.000000 0.000000
# 4 0.000000 0.000000 0.000000 -0.028046 0.000000 0.000000
# 5 0.000000 0.000000 0.000000 0.000000 0.022495 0.000000
# 6 0.000000 0.000000 0.000000 0.000000 0.000000 0.041404
#
#
# Mechanical properties :
#
#
# Convention : Reuss Voigt Hill
#
# Bulk Modulus (GPa) = 79.52464 92.62992 86.07728
# Shear Modulus (GPa) = 29.68816 14.55271 22.12043
#
# Velocity S-wave (km/s) = 4.01752 2.81280 3.46787
# Velocity P-wave (km/s) = 8.04708 7.80442 7.92668
#
# Compressibility (1/GPa) = 0.01257472
#
# Stress axis : x y z
#
# Youngs Moduli (GPa) = 33.77296 36.02440 76.30633
#
# Poissons Ratio (x) = 0.59707 0.82198
# Poissons Ratio (y) = 0.55975 0.12233
# Poissons Ratio (z) = 0.36381 0.05775
#
# Static dielectric constant tensor:
#      x y z
#    x 1.613700 0.000000 0.000000 
#    y 0.000000 1.614350 0.000000 
#    z 0.000000 0.000000 1.620380 
# 
# From -- ./inp_files/15088.got.cif
#   From: 2010.05.17/outbox.cif.g08.bks.cpg/sg35_8_cif.got.tgz:15088.got - 2010.06.03 17:29:28.
