data_PCOD9349979
_publ_section_title
;
Structure prediction by ZEFSAII (Michael W. Deem and Ramdas Pophale) SiO2 
 PCOD9349979
Probable space group: C M M 2
;
_chemical_formula_sum "Si O2"
_cell_formula_units_Z 48
_cell_length_a 13.972625
_cell_length_b 14.445657
_cell_length_c 10.808244
_cell_angle_alpha 90.000000
_cell_angle_beta 90.000000
_cell_angle_gamma 90.000000
_cell_volume 2181.576480
_symmetry_space_group_name_H-M "C M M 2"
_symmetry_group_IT_number 35
_symmetry_cell_setting 'orthorhombic'
loop_
_space_group_symop_operation_xyz
x,y,z
-x,-y,z
-x,y,z
x,-y,z
1/2+x,1/2+y,z
1/2-x,1/2-y,z
1/2-x,1/2+y,z
1/2+x,1/2-y,z
loop_
_atom_site_type_symbol
_atom_site_label
_atom_site_fract_x
_atom_site_fract_y
_atom_site_fract_z
Si Si1 0.347594 0.803143 0.888320
Si Si2 0.394118 0.740463 0.625088
Si Si3 0.110169 0.500000 0.197548
Si Si4 0.610742 0.000000 0.899486
Si Si5 0.883350 0.103950 0.289805
Si Si6 0.250147 0.106368 0.533509
Si Si7 0.890358 0.298609 0.174792
O O1 0.250000 0.750000 0.898020
O O2 0.401361 0.767466 0.768429
O O3 0.334519 0.910277 0.858465
O O4 0.391594 0.799299 0.025221
O O5 0.500000 0.725555 0.573533
O O6 0.338371 0.821177 0.547575
O O7 0.327257 0.650206 0.626637
O O8 0.152319 0.602787 0.224473
O O9 0.000000 0.500000 0.243731
O O10 0.106377 0.500000 0.048387
O O11 0.500000 0.000000 0.856094
O O12 0.815807 0.108663 0.410189
O O13 0.855542 0.197024 0.214689
O O14 0.000000 0.107887 0.312953
O O15 0.867824 0.000000 0.233724
O O16 0.279683 0.000000 0.553102
O O17 0.000000 0.302609 0.217244
#
# Coordination Sequence:
#
# PCOD9349979 Si02
#       7
#     8   8   4   4   8   8   8
#     4  11  21  37  56  92 128 165 208 263 317 381
#     4  11  23  40  64  93 127 164 209 267 326 378
#     4   7  12  26  52  85 115 153 198 245 298 367
#     4   9  18  34  60  83 114 167 212 241 303 391
#     4   9  18  36  64  92 122 168 217 265 323 383
#     4  10  22  42  66  93 124 165 220 264 311 383
#     4   9  17  33  59  89 124 163 211 258 313 388
#
# _framework density 22.002438000000001
#
# number of rings (size 3 to 8) (size 9 to 14) (size 15 to 20)
#    0.000    2.333    1.667    3.000    1.167    1.333 
#    4.500    0.000    7.333    2.000    0.000    0.000 
#    0.000    0.000    0.000    0.000    0.000    0.000 
#
# Total GULP energy -133676.237452 kJ/mol
# GULP energy per Si atom -5569.843227 kJ/mol
# Density = 2.195236 g / cm^3
# Si number density = 22.002438 Si / 1000 Ang^3
#
#
#
# Elastic Constant Matrix: (Units=GPa)
#
#
# Indices 1 2 3 4 5 6 
#
# 1 96.5835 27.8346 -12.0233 0.0000 0.0000 0.0000
# 2 27.8346 168.0636 34.3373 0.0000 0.0000 0.0000
# 3 -12.0233 34.3373 49.8141 0.0000 0.0000 0.0000
# 4 0.0000 0.0000 0.0000 43.2671 0.0000 0.0000
# 5 0.0000 0.0000 0.0000 0.0000 19.1132 0.0000
# 6 0.0000 0.0000 0.0000 0.0000 0.0000 -12.7286
#
#
#
# Elastic Compliance Matrix: (Units=1/GPa)
#
#
# Indices 1 2 3 4 5 6 
#
# 1 0.011814 -0.002955 0.004889 0.000000 0.000000 0.000000
# 2 -0.002955 0.007665 -0.005997 0.000000 0.000000 0.000000
# 3 0.004889 -0.005997 0.025388 0.000000 0.000000 0.000000
# 4 0.000000 0.000000 0.000000 0.023112 0.000000 0.000000
# 5 0.000000 0.000000 0.000000 0.000000 0.052320 0.000000
# 6 0.000000 0.000000 0.000000 0.000000 0.000000 -0.078563
#
#
# Mechanical properties :
#
#
# Convention : Reuss Voigt Hill
#
# Bulk Modulus (GPa) = 27.21825 46.08427 36.65126
# Shear Modulus (GPa) = 80.50260 27.55118 54.02689
#
# Velocity S-wave (km/s) = 6.05537 3.54246 4.96067
# Velocity P-wave (km/s) = 7.82862 6.14187 7.03598
#
# Compressibility (1/GPa) = 0.03674006
#
# Stress axis : x y z
#
# Youngs Moduli (GPa) = 84.64497 130.46626 39.38832
#
# Poissons Ratio (x) = 0.38559 -0.19256
# Poissons Ratio (y) = 0.25016 0.23620
# Poissons Ratio (z) = -0.41380 0.78238
#
# Static dielectric constant tensor:
#      x y z
#    x 1.829700 0.000000 0.000000 
#    y 0.000000 1.835930 0.000000 
#    z 0.000000 0.000000 1.833610 
# 
# From -- ./inp_files/12929.got.cif
#   From: 2010.05.17/outbox.cif.g08.bks.cpg/sg35_7_cif.got.tgz:12929.got - 2010.06.03 17:29:28.
