data_PCOD9349545
_publ_section_title
;
Structure prediction by ZEFSAII (Michael W. Deem and Ramdas Pophale) SiO2 
 PCOD9349545
Probable space group: C M M 2
;
_chemical_formula_sum "Si O2"
_cell_formula_units_Z 26
_cell_length_a 17.848714
_cell_length_b 12.707606
_cell_length_c 5.142835
_cell_angle_alpha 90.000000
_cell_angle_beta 90.000000
_cell_angle_gamma 90.000000
_cell_volume 1166.469164
_symmetry_space_group_name_H-M "C M M 2"
_symmetry_group_IT_number 35
_symmetry_cell_setting 'orthorhombic'
loop_
_space_group_symop_operation_xyz
x,y,z
-x,-y,z
-x,y,z
x,-y,z
1/2+x,1/2+y,z
1/2-x,1/2-y,z
1/2-x,1/2+y,z
1/2+x,1/2-y,z
loop_
_atom_site_type_symbol
_atom_site_label
_atom_site_fract_x
_atom_site_fract_y
_atom_site_fract_z
Si Si1 0.695647 0.120181 0.221330
Si Si2 0.582063 0.711058 0.050947
Si Si3 0.801012 0.119223 0.712721
Si Si4 0.000000 0.000000 0.196247
O O1 0.753071 0.137587 0.456653
O O2 0.667228 0.000000 0.242913
O O3 0.630718 0.206309 0.211447
O O4 0.744134 0.127201 0.956768
O O5 0.500000 0.755275 0.993235
O O6 0.628557 0.689664 0.788268
O O7 0.564455 0.595835 0.177334
O O8 0.829553 0.000000 0.698719
#
# Coordination Sequence:
#
# PCOD9349545 Si02
#       4
#     8   8   8   2
#     4  10  23  39  68  97 131 178 228 285 341 402
#     4  10  20  40  70 100 142 180 232 285 351 417
#     4  10  20  42  64  95 131 175 230 279 336 409
#     4   8  20  40  70 102 140 186 222 292 356 414
#
# _framework density 22.289490000000001
#
# number of rings (size 3 to 8) (size 9 to 14) (size 15 to 20)
#    0.923    1.231    1.538    0.923    0.000    5.538 
#    0.000    6.154    3.385   18.462    0.000    0.000 
#    0.000    0.000    0.000    0.000    0.000    0.000 
#
# Total GULP energy -72382.051061 kJ/mol
# GULP energy per Si atom -5567.850082 kJ/mol
# Density = 2.223876 g / cm^3
# Si number density = 22.289490 Si / 1000 Ang^3
#
#
#
# Elastic Constant Matrix: (Units=GPa)
#
#
# Indices 1 2 3 4 5 6 
#
# 1 159.2129 67.9893 55.6323 0.0000 0.0000 0.0000
# 2 67.9893 151.2310 38.8042 0.0000 0.0000 0.0000
# 3 55.6323 38.8042 120.2406 0.0000 0.0000 0.0000
# 4 0.0000 0.0000 0.0000 39.1511 0.0000 0.0000
# 5 0.0000 0.0000 0.0000 0.0000 -238.9031 0.0000
# 6 0.0000 0.0000 0.0000 0.0000 0.0000 62.8580
#
#
#
# Elastic Compliance Matrix: (Units=1/GPa)
#
#
# Indices 1 2 3 4 5 6 
#
# 1 0.008664 -0.003125 -0.003000 0.000000 0.000000 0.000000
# 2 -0.003125 0.008337 -0.001244 0.000000 0.000000 0.000000
# 3 -0.003000 -0.001244 0.010106 0.000000 0.000000 0.000000
# 4 0.000000 0.000000 0.000000 0.025542 0.000000 0.000000
# 5 0.000000 0.000000 0.000000 0.000000 -0.004186 0.000000
# 6 0.000000 0.000000 0.000000 0.000000 0.000000 0.015909
#
#
# Mechanical properties :
#
#
# Convention : Reuss Voigt Hill
#
# Bulk Modulus (GPa) = 80.85719 83.94848 82.40283
# Shear Modulus (GPa) = 60.07193 -9.49490 25.28852
#
# Velocity S-wave (km/s) = 5.19705 -2.06617 3.37196
# Velocity P-wave (km/s) = 8.50688 5.66149 7.22563
#
# Compressibility (1/GPa) = 0.01236748
#
# Stress axis : x y z
#
# Youngs Moduli (GPa) = 115.42411 119.95102 98.94859
#
# Poissons Ratio (x) = 0.37487 0.29684
# Poissons Ratio (y) = 0.36073 0.12314
# Poissons Ratio (z) = 0.34626 0.14928
#
# Static dielectric constant tensor:
#      x y z
#    x 1.833710 0.000000 0.000000 
#    y 0.000000 1.888240 0.000000 
#    z 0.000000 0.000000 1.859000 
# 
# From -- ./inp_files/1507.got.cif
#   From: 2010.05.17/outbox.cif.g08.bks.cpg/sg35_1_cif.got.tgz:1507.got - 2010.06.03 17:29:28.
