data_PCOD9349381
_publ_section_title
;
Structure prediction by ZEFSAII (Michael W. Deem and Ramdas Pophale) SiO2 
 PCOD9349381
Probable space group: C M M 2
;
_chemical_formula_sum "Si O2"
_cell_formula_units_Z 48
_cell_length_a 18.232374
_cell_length_b 7.908227
_cell_length_c 17.671584
_cell_angle_alpha 90.000000
_cell_angle_beta 90.000000
_cell_angle_gamma 90.000000
_cell_volume 2547.990634
_symmetry_space_group_name_H-M "C M M 2"
_symmetry_group_IT_number 35
_symmetry_cell_setting 'orthorhombic'
loop_
_space_group_symop_operation_xyz
x,y,z
-x,-y,z
-x,y,z
x,-y,z
1/2+x,1/2+y,z
1/2-x,1/2-y,z
1/2-x,1/2+y,z
1/2+x,1/2-y,z
loop_
_atom_site_type_symbol
_atom_site_label
_atom_site_fract_x
_atom_site_fract_y
_atom_site_fract_z
Si Si1 0.164997 0.297025 0.849630
Si Si2 0.834505 0.198285 0.543926
Si Si3 0.587570 0.188445 0.393801
Si Si4 0.915405 0.705145 0.698029
Si Si5 0.589380 0.500000 0.289332
Si Si6 0.588406 0.198082 0.005777
Si Si7 0.910809 0.000000 0.116273
O O1 0.159167 0.500000 0.847728
O O2 0.250000 0.250000 0.850352
O O3 0.125595 0.233214 0.773630
O O4 0.124851 0.245315 0.926890
O O5 0.750000 0.250000 0.550477
O O6 0.872607 0.291690 0.473906
O O7 0.875045 0.236584 0.622409
O O8 0.839743 0.000000 0.527919
O O9 0.500000 0.208232 0.406205
O O10 0.611773 0.333941 0.336060
O O11 0.600362 0.000000 0.363342
O O12 0.914187 0.500000 0.698334
O O13 0.000000 0.759272 0.698192
O O14 0.500000 0.500000 0.287436
O O15 0.615071 0.500000 0.202819
O O16 0.500000 0.204735 0.997888
O O17 0.610655 0.330627 0.070671
O O18 0.607458 0.000000 0.020833
O O19 0.000000 0.000000 0.117914
#
# Coordination Sequence:
#
# PCOD9349381 Si02
#       7
#     8   8   8   8   4   8   4
#     4  10  21  35  54  80 110 151 190 236 281 335
#     4  12  24  38  56  82 114 152 194 241 282 341
#     4  10  20  36  59  86 116 151 191 236 288 342
#     4  10  21  38  58  81 114 151 191 237 287 336
#     4   9  18  34  56  87 119 145 183 235 289 345
#     4   9  18  34  55  81 112 147 190 236 286 340
#     4   9  18  32  56  87 115 145 183 235 289 337
#
# _framework density 18.838374000000002
#
# number of rings (size 3 to 8) (size 9 to 14) (size 15 to 20)
#    0.000    2.000    0.833    3.000    1.167    7.000 
#    0.000    3.333    0.000    1.000    0.000    0.000 
#    0.000    0.000    0.000    0.000    0.000    0.000 
#
# Total GULP energy -134012.720023 kJ/mol
# GULP energy per Si atom -5583.863334 kJ/mol
# Density = 1.879550 g / cm^3
# Si number density = 18.838374 Si / 1000 Ang^3
#
#
#
# Elastic Constant Matrix: (Units=GPa)
#
#
# Indices 1 2 3 4 5 6 
#
# 1 65.1296 36.7133 55.2693 0.0000 0.0000 0.0000
# 2 36.7133 95.9465 66.9619 0.0000 0.0000 0.0000
# 3 55.2693 66.9619 176.8181 0.0000 0.0000 0.0000
# 4 0.0000 0.0000 0.0000 2.5739 0.0000 0.0000
# 5 0.0000 0.0000 0.0000 0.0000 -12.1084 0.0000
# 6 0.0000 0.0000 0.0000 0.0000 0.0000 21.9397
#
#
#
# Elastic Compliance Matrix: (Units=1/GPa)
#
#
# Indices 1 2 3 4 5 6 
#
# 1 0.022561 -0.005044 -0.005142 0.000000 0.000000 0.000000
# 2 -0.005044 0.015295 -0.004215 0.000000 0.000000 0.000000
# 3 -0.005142 -0.004215 0.008859 0.000000 0.000000 0.000000
# 4 0.000000 0.000000 0.000000 0.388520 0.000000 0.000000
# 5 0.000000 0.000000 0.000000 0.000000 -0.082587 0.000000
# 6 0.000000 0.000000 0.000000 0.000000 0.000000 0.045580
#
#
# Mechanical properties :
#
#
# Convention : Reuss Voigt Hill
#
# Bulk Modulus (GPa) = 55.82953 72.86480 64.34717
# Shear Modulus (GPa) = 11.54735 14.41100 12.97918
#
# Velocity S-wave (km/s) = 2.47851 2.76883 2.62768
# Velocity P-wave (km/s) = 6.15557 6.99891 6.59075
#
# Compressibility (1/GPa) = 0.01791167
#
# Stress axis : x y z
#
# Youngs Moduli (GPa) = 44.32494 65.38253 112.87830
#
# Poissons Ratio (x) = 0.32981 0.58038
# Poissons Ratio (y) = 0.22359 0.47583
# Poissons Ratio (z) = 0.22790 0.27562
#
# Static dielectric constant tensor:
#      x y z
#    x 1.617660 0.000000 0.000000 
#    y 0.000000 1.674440 0.000000 
#    z 0.000000 0.000000 1.621830 
# 
# From -- ./inp_files/15184.got.cif
#   From: 2010.05.17/outbox.cif.g08.bks.cpg/sg35_8_cif.got.tgz:15184.got - 2010.06.03 17:29:28.
