data_PCOD9349809
_publ_section_title
;
Structure prediction by ZEFSAII (Michael W. Deem and Ramdas Pophale) SiO2 
 PCOD9349809
Probable space group: C M M 2
;
_chemical_formula_sum "Si O2"
_cell_formula_units_Z 64
_cell_length_a 8.155527
_cell_length_b 32.013782
_cell_length_c 12.259977
_cell_angle_alpha 90.000000
_cell_angle_beta 90.000000
_cell_angle_gamma 90.000000
_cell_volume 3200.948365
_symmetry_space_group_name_H-M "C M M 2"
_symmetry_group_IT_number 35
_symmetry_cell_setting 'orthorhombic'
loop_
_space_group_symop_operation_xyz
x,y,z
-x,-y,z
-x,y,z
x,-y,z
1/2+x,1/2+y,z
1/2-x,1/2-y,z
1/2-x,1/2+y,z
1/2+x,1/2-y,z
loop_
_atom_site_type_symbol
_atom_site_label
_atom_site_fract_x
_atom_site_fract_y
_atom_site_fract_z
Si Si1 0.700074 0.046787 0.934780
Si Si2 0.306769 0.204189 0.927021
Si Si3 0.693436 0.320930 0.164719
Si Si4 0.198325 0.624845 0.791655
Si Si5 0.197877 0.204646 0.402054
Si Si6 0.698475 0.453128 0.396886
Si Si7 0.698249 0.375101 0.541640
Si Si8 0.303786 0.916269 0.167716
O O1 0.500000 0.046382 0.932219
O O2 0.756064 0.082760 0.852232
O O3 0.756724 0.000000 0.908880
O O4 0.746754 0.059928 0.057537
O O5 0.500000 0.203062 0.913325
O O6 0.250000 0.250000 0.893035
O O7 0.237978 0.165538 0.856792
O O8 0.269450 0.196730 0.054340
O O9 0.500000 0.312819 0.159068
O O10 0.758517 0.301647 0.277702
O O11 0.724110 0.370529 0.170322
O O12 0.247116 0.625800 0.666113
O O13 0.000000 0.624869 0.798514
O O14 0.250000 0.250000 0.443125
O O15 0.255179 0.165979 0.475869
O O16 0.000000 0.202823 0.399182
O O17 0.500000 0.452548 0.396656
O O18 0.752495 0.500000 0.425984
O O19 0.755058 0.416912 0.479198
O O20 0.756674 0.441251 0.275887
O O21 0.500000 0.375076 0.538648
O O22 0.500000 0.910687 0.163791
#
# Coordination Sequence:
#
# PCOD9349809 Si02
#       8
#     8   8   8   8   8   8   8   8
#     4   9  18  35  58  84 117 152 184 230 291 343
#     4  11  23  40  60  88 121 154 195 241 294 349
#     4  11  21  37  61  88 120 156 192 235 293 355
#     4  10  22  40  59  83 114 151 197 245 289 340
#     4  10  22  39  59  84 116 149 186 234 286 343
#     4  10  21  39  61  85 119 158 194 239 294 351
#     4  10  22  41  59  81 114 153 196 242 292 342
#     4  11  20  34  59  90 122 154 191 238 291 352
#
# _framework density 19.994076
#
# number of rings (size 3 to 8) (size 9 to 14) (size 15 to 20)
#    0.000    1.750    2.500    1.875    0.000    5.750 
#    0.000    2.500    0.000    1.500    0.000    0.000 
#    0.000    0.000    0.000    0.000    0.000    0.000 
#
# Total GULP energy -178799.266838 kJ/mol
# GULP energy per Si atom -5587.477089 kJ/mol
# Density = 1.994857 g / cm^3
# Si number density = 19.994076 Si / 1000 Ang^3
#
#
#
# Elastic Constant Matrix: (Units=GPa)
#
#
# Indices 1 2 3 4 5 6 
#
# 1 6.7226 4.4014 3.1703 0.0000 0.0000 0.0000
# 2 4.4014 180.6799 87.0297 0.0000 0.0000 0.0000
# 3 3.1703 87.0297 153.0244 0.0000 0.0000 0.0000
# 4 0.0000 0.0000 0.0000 1.5297 0.0000 0.0000
# 5 0.0000 0.0000 0.0000 0.0000 30.5524 0.0000
# 6 0.0000 0.0000 0.0000 0.0000 0.0000 21.7979
#
#
#
# Elastic Compliance Matrix: (Units=1/GPa)
#
#
# Indices 1 2 3 4 5 6 
#
# 1 0.151389 -0.002999 -0.001431 0.000000 0.000000 0.000000
# 2 -0.002999 0.007682 -0.004307 0.000000 0.000000 0.000000
# 3 -0.001431 -0.004307 0.009014 0.000000 0.000000 0.000000
# 4 0.000000 0.000000 0.000000 0.653709 0.000000 0.000000
# 5 0.000000 0.000000 0.000000 0.000000 0.032731 0.000000
# 6 0.000000 0.000000 0.000000 0.000000 0.000000 0.045876
#
#
# Mechanical properties :
#
#
# Convention : Reuss Voigt Hill
#
# Bulk Modulus (GPa) = 6.63956 58.84776 32.74366
# Shear Modulus (GPa) = 5.16487 27.16438 16.16462
#
# Velocity S-wave (km/s) = 1.60898 3.68995 2.84645
# Velocity P-wave (km/s) = 2.60379 6.90295 5.21682
#
# Compressibility (1/GPa) = 0.15061244
#
# Stress axis : x y z
#
# Youngs Moduli (GPa) = 6.60548 130.16921 110.93723
#
# Poissons Ratio (x) = 0.39032 0.15876
# Poissons Ratio (y) = 0.01981 0.47781
# Poissons Ratio (z) = 0.00945 0.56064
#
# Static dielectric constant tensor:
#      x y z
#    x 1.705360 0.000000 0.000000 
#    y 0.000000 1.710220 0.000000 
#    z 0.000000 0.000000 1.668620 
# 
# From -- ./inp_files/11825.got.cif
#   From: 2010.05.17/outbox.cif.g08.bks.cpg/sg35_6_cif.got.tgz:11825.got - 2010.06.03 17:29:28.
