data_PCOD9349242
_publ_section_title
;
Structure prediction by ZEFSAII (Michael W. Deem and Ramdas Pophale) SiO2 
 PCOD9349242
Probable space group: C M M 2
;
_chemical_formula_sum "Si O2"
_cell_formula_units_Z 56
_cell_length_a 9.548752
_cell_length_b 22.569328
_cell_length_c 14.621232
_cell_angle_alpha 90.000000
_cell_angle_beta 90.000000
_cell_angle_gamma 90.000000
_cell_volume 3151.005857
_symmetry_space_group_name_H-M "C M M 2"
_symmetry_group_IT_number 35
_symmetry_cell_setting 'orthorhombic'
loop_
_space_group_symop_operation_xyz
x,y,z
-x,-y,z
-x,y,z
x,-y,z
1/2+x,1/2+y,z
1/2-x,1/2-y,z
1/2-x,1/2+y,z
1/2+x,1/2-y,z
loop_
_atom_site_type_symbol
_atom_site_label
_atom_site_fract_x
_atom_site_fract_y
_atom_site_fract_z
Si Si1 0.839056 0.096672 0.465480
Si Si2 0.163522 0.808904 0.612453
Si Si3 0.837379 0.308428 0.947442
Si Si4 0.664031 0.000000 0.566274
Si Si5 0.158425 0.871988 0.803487
Si Si6 0.650672 0.500000 0.737885
Si Si7 0.665514 0.571798 0.249444
Si Si8 0.668620 0.813638 0.165690
O O1 0.815327 0.159556 0.514463
O O2 0.826169 0.087496 0.357452
O O3 0.000000 0.080076 0.489331
O O4 0.728586 0.055350 0.514209
O O5 0.250000 0.750000 0.619559
O O6 0.196338 0.849542 0.701060
O O7 0.000000 0.795375 0.619315
O O8 0.750000 0.250000 0.926588
O O9 0.767572 0.355229 0.880618
O O10 0.000000 0.300680 0.926880
O O11 0.823163 0.319887 0.055581
O O12 0.724086 0.000000 0.667562
O O13 0.500000 0.000000 0.564430
O O14 0.000000 0.849767 0.823991
O O15 0.153498 0.942025 0.797440
O O16 0.500000 0.500000 0.686235
O O17 0.500000 0.577165 0.222640
O O18 0.702343 0.500000 0.237061
O O19 0.757472 0.625640 0.204220
O O20 0.500000 0.810068 0.189600
O O21 0.750000 0.750000 0.188491
#
# Coordination Sequence:
#
# PCOD9349242 Si02
#       8
#     8   8   8   4   8   4   8   8
#     4  10  20  39  60  78 111 156 192 227 279 342
#     4  10  21  35  54  79 112 150 187 230 280 330
#     4  10  21  38  60  84 112 149 189 234 286 342
#     4  12  22  32  54  85 110 143 190 237 274 318
#     4  10  20  35  58  83 109 149 192 234 281 334
#     4  10  20  38  58  77 110 153 194 229 278 340
#     4  10  21  38  64  92 117 153 200 247 298 357
#     4  10  22  41  64  88 119 156 195 245 301 358
#
# _framework density 17.772103000000001
#
# number of rings (size 3 to 8) (size 9 to 14) (size 15 to 20)
#    0.000    1.857    2.143    1.929    0.000    6.000 
#    1.286    1.429    0.000    0.000    0.000    0.000 
#    0.000    0.000    0.000    0.000    0.000    0.000 
#
# Total GULP energy -155889.696995 kJ/mol
# GULP energy per Si atom -5567.489178 kJ/mol
# Density = 1.773165 g / cm^3
# Si number density = 17.772103 Si / 1000 Ang^3
#
#
#
# Elastic Constant Matrix: (Units=GPa)
#
#
# Indices 1 2 3 4 5 6 
#
# 1 111.4815 76.5236 48.8221 0.0000 0.0000 0.0000
# 2 76.5236 145.3951 46.9178 0.0000 0.0000 0.0000
# 3 48.8221 46.9178 46.2994 0.0000 0.0000 0.0000
# 4 0.0000 0.0000 0.0000 33.1832 0.0000 0.0000
# 5 0.0000 0.0000 0.0000 0.0000 27.3516 0.0000
# 6 0.0000 0.0000 0.0000 0.0000 0.0000 56.5505
#
#
#
# Elastic Compliance Matrix: (Units=1/GPa)
#
#
# Indices 1 2 3 4 5 6 
#
# 1 0.019040 -0.005263 -0.014744 0.000000 0.000000 0.000000
# 2 -0.005263 0.011675 -0.006281 0.000000 0.000000 0.000000
# 3 -0.014744 -0.006281 0.043510 0.000000 0.000000 0.000000
# 4 0.000000 0.000000 0.000000 0.030136 0.000000 0.000000
# 5 0.000000 0.000000 0.000000 0.000000 0.036561 0.000000
# 6 0.000000 0.000000 0.000000 0.000000 0.000000 0.017683
#
#
# Mechanical properties :
#
#
# Convention : Reuss Voigt Hill
#
# Bulk Modulus (GPa) = 46.19045 71.96702 59.07873
# Shear Modulus (GPa) = 22.89428 32.14456 27.51942
#
# Velocity S-wave (km/s) = 3.59306 4.25751 3.93932
# Velocity P-wave (km/s) = 6.57726 8.04679 7.34885
#
# Compressibility (1/GPa) = 0.02164950
#
# Stress axis : x y z
#
# Youngs Moduli (GPa) = 52.52186 85.65596 22.98332
#
# Poissons Ratio (x) = 0.45083 0.33886
# Poissons Ratio (y) = 0.27644 0.14435
# Poissons Ratio (z) = 0.77436 0.53796
#
# Static dielectric constant tensor:
#      x y z
#    x 1.652650 0.000000 0.000000 
#    y 0.000000 1.568590 0.000000 
#    z 0.000000 0.000000 1.604370 
# 
# From -- ./inp_files/15661.got.cif
#   From: 2010.05.17/outbox.cif.g08.bks.cpg/sg35_8_cif.got.tgz:15661.got - 2010.06.03 17:29:28.
