data_PCOD9349193
_publ_section_title
;
Structure prediction by ZEFSAII (Michael W. Deem and Ramdas Pophale) SiO2 
 PCOD9349193
Probable space group: C M M 2
;
_chemical_formula_sum "Si O2"
_cell_formula_units_Z 64
_cell_length_a 8.648054
_cell_length_b 30.028307
_cell_length_c 12.769761
_cell_angle_alpha 90.000000
_cell_angle_beta 90.000000
_cell_angle_gamma 90.000000
_cell_volume 3316.133524
_symmetry_space_group_name_H-M "C M M 2"
_symmetry_group_IT_number 35
_symmetry_cell_setting 'orthorhombic'
loop_
_space_group_symop_operation_xyz
x,y,z
-x,-y,z
-x,y,z
x,-y,z
1/2+x,1/2+y,z
1/2-x,1/2-y,z
1/2-x,1/2+y,z
1/2+x,1/2-y,z
loop_
_atom_site_type_symbol
_atom_site_label
_atom_site_fract_x
_atom_site_fract_y
_atom_site_fract_z
Si Si1 0.313656 0.550308 0.817370
Si Si2 0.685380 0.295407 0.729016
Si Si3 0.178661 0.068980 0.579383
Si Si4 0.185443 0.451762 0.357688
Si Si5 0.684887 0.861180 0.896173
Si Si6 0.687303 0.800184 0.093160
Si Si7 0.185541 0.353995 0.297785
Si Si8 0.678285 0.671836 0.513899
O O1 0.500000 0.555022 0.817881
O O2 0.273865 0.500000 0.848578
O O3 0.264377 0.557376 0.695620
O O4 0.242838 0.588263 0.890345
O O5 0.500000 0.295551 0.728305
O O6 0.750000 0.250000 0.776877
O O7 0.745513 0.336536 0.795525
O O8 0.742149 0.299265 0.609252
O O9 0.272599 0.050652 0.480799
O O10 0.178543 0.121998 0.561820
O O11 0.000000 0.053764 0.571469
O O12 0.242199 0.500000 0.317195
O O13 0.244060 0.405458 0.306190
O O14 0.000000 0.451292 0.347293
O O15 0.500000 0.860657 0.891310
O O16 0.733330 0.831841 0.996223
O O17 0.500000 0.797760 0.094006
O O18 0.750000 0.750000 0.085193
O O19 0.740047 0.825384 0.198934
O O20 0.231136 0.330076 0.405883
O O21 0.000000 0.356357 0.291233
O O22 0.500000 0.684110 0.492445
#
# Coordination Sequence:
#
# PCOD9349193 Si02
#       8
#     8   8   8   8   8   8   8   8
#     4  10  20  35  56  82 115 155 192 229 281 337
#     4  11  22  37  56  82 115 149 186 229 285 349
#     4   9  16  30  50  74 107 149 187 220 262 318
#     4   9  17  29  48  77 110 144 181 220 266 322
#     4  11  23  39  59  83 113 147 190 240 286 336
#     4  10  23  42  62  84 107 140 187 239 291 341
#     4   9  19  36  56  79 110 142 181 230 280 333
#     4   9  18  33  53  78 112 148 183 222 273 334
#
# _framework density 19.299583999999999
#
# number of rings (size 3 to 8) (size 9 to 14) (size 15 to 20)
#    0.000    2.250    1.250    1.500    0.000    5.500 
#    0.000    3.125    0.000    2.250    0.000    0.000 
#    0.000    0.000    0.000    0.000    0.000    0.000 
#
# Total GULP energy -178490.827605 kJ/mol
# GULP energy per Si atom -5577.838363 kJ/mol
# Density = 1.925566 g / cm^3
# Si number density = 19.299584 Si / 1000 Ang^3
#
#
#
# Elastic Constant Matrix: (Units=GPa)
#
#
# Indices 1 2 3 4 5 6 
#
# 1 15.1116 26.5863 23.7653 0.0000 0.0000 0.0000
# 2 26.5863 138.9898 72.0487 0.0000 0.0000 0.0000
# 3 23.7653 72.0487 112.8625 0.0000 0.0000 0.0000
# 4 0.0000 0.0000 0.0000 18.3430 0.0000 0.0000
# 5 0.0000 0.0000 0.0000 0.0000 5.3150 0.0000
# 6 0.0000 0.0000 0.0000 0.0000 0.0000 23.8781
#
#
#
# Elastic Compliance Matrix: (Units=1/GPa)
#
#
# Indices 1 2 3 4 5 6 
#
# 1 0.114860 -0.014099 -0.015186 0.000000 0.000000 0.000000
# 2 -0.014099 0.012484 -0.005001 0.000000 0.000000 0.000000
# 3 -0.015186 -0.005001 0.015250 0.000000 0.000000 0.000000
# 4 0.000000 0.000000 0.000000 0.054517 0.000000 0.000000
# 5 0.000000 0.000000 0.000000 0.000000 0.188145 0.000000
# 6 0.000000 0.000000 0.000000 0.000000 0.000000 0.041879
#
#
# Mechanical properties :
#
#
# Convention : Reuss Voigt Hill
#
# Bulk Modulus (GPa) = 13.50910 56.86271 35.18590
# Shear Modulus (GPa) = 9.60836 19.14481 14.37659
#
# Velocity S-wave (km/s) = 2.23368 3.15299 2.73228
# Velocity P-wave (km/s) = 3.69694 6.54082 5.31270
#
# Compressibility (1/GPa) = 0.07402419
#
# Stress axis : x y z
#
# Youngs Moduli (GPa) = 8.70623 80.10376 65.57300
#
# Poissons Ratio (x) = 1.12938 0.99576
# Poissons Ratio (y) = 0.12275 0.32790
# Poissons Ratio (z) = 0.13221 0.40056
#
# Static dielectric constant tensor:
#      x y z
#    x 1.664730 0.000000 0.000000 
#    y 0.000000 1.855880 0.000000 
#    z 0.000000 0.000000 1.660830 
# 
# From -- ./inp_files/11986.got.cif
#   From: 2010.05.17/outbox.cif.g08.bks.cpg/sg35_6_cif.got.tgz:11986.got - 2010.06.03 17:29:28.
