data_PCOD9349113
_publ_section_title
;
Structure prediction by ZEFSAII (Michael W. Deem and Ramdas Pophale) SiO2 
 PCOD9349113
Probable space group: C M M 2
;
_chemical_formula_sum "Si O2"
_cell_formula_units_Z 64
_cell_length_a 8.565064
_cell_length_b 20.433942
_cell_length_c 20.757292
_cell_angle_alpha 90.000000
_cell_angle_beta 90.000000
_cell_angle_gamma 90.000000
_cell_volume 3632.900167
_symmetry_space_group_name_H-M "C M M 2"
_symmetry_group_IT_number 35
_symmetry_cell_setting 'orthorhombic'
loop_
_space_group_symop_operation_xyz
x,y,z
-x,-y,z
-x,y,z
x,-y,z
1/2+x,1/2+y,z
1/2-x,1/2-y,z
1/2-x,1/2+y,z
1/2+x,1/2-y,z
loop_
_atom_site_type_symbol
_atom_site_label
_atom_site_fract_x
_atom_site_fract_y
_atom_site_fract_z
Si Si1 0.188467 0.075229 0.043870
Si Si2 0.188631 0.575192 0.902987
Si Si3 0.688748 0.822353 0.795381
Si Si4 0.813098 0.924074 0.398282
Si Si5 0.187768 0.822360 0.152596
Si Si6 0.311326 0.075470 0.540046
Si Si7 0.188595 0.322305 0.648302
Si Si8 0.314116 0.177752 0.294876
O O1 0.239067 0.124687 0.099728
O O2 0.000000 0.076138 0.041966
O O3 0.237948 0.000000 0.056322
O O4 0.251021 0.094379 0.973587
O O5 0.238221 0.500000 0.890992
O O6 0.242140 0.624277 0.847213
O O7 0.000000 0.576130 0.903969
O O8 0.500000 0.821108 0.796434
O O9 0.750000 0.750000 0.811018
O O10 0.737517 0.837912 0.721821
O O11 0.758399 0.907193 0.470536
O O12 0.739691 0.875370 0.346663
O O13 0.000000 0.920080 0.394533
O O14 0.766816 0.000000 0.386620
O O15 0.250000 0.750000 0.136507
O O16 0.248572 0.838783 0.223966
O O17 0.000000 0.820675 0.154241
O O18 0.500000 0.078611 0.535665
O O19 0.259418 0.124371 0.596240
O O20 0.268802 0.000000 0.554278
O O21 0.250000 0.250000 0.632600
O O22 0.000000 0.320983 0.647463
O O23 0.500000 0.180888 0.291847
O O24 0.250000 0.250000 0.311597
#
# Coordination Sequence:
#
# PCOD9349113 Si02
#       8
#     8   8   8   8   8   8   8   8
#     4   9  19  35  53  73  99 132 168 205 247 297
#     4   9  18  32  50  72  98 128 164 207 250 293
#     4   9  18  32  49  71  99 130 165 204 249 299
#     4  10  21  37  56  78 106 139 173 211 256 305
#     4  10  20  35  54  76 103 134 168 207 252 301
#     4   9  18  33  52  74 100 131 169 211 253 299
#     4   9  18  32  50  72  99 131 165 205 251 299
#     4  11  22  37  57  80 107 137 172 213 256 304
#
# _framework density 17.616778
#
# number of rings (size 3 to 8) (size 9 to 14) (size 15 to 20)
#    0.000    2.500    0.000    2.625    0.000    4.750 
#    0.000    7.500    0.000    0.000    0.000    7.000 
#    0.000    0.000    0.000    0.000    0.000    0.000 
#
# Total GULP energy -178529.072304 kJ/mol
# GULP energy per Si atom -5579.033509 kJ/mol
# Density = 1.757668 g / cm^3
# Si number density = 17.616778 Si / 1000 Ang^3
#
#
#
# Elastic Constant Matrix: (Units=GPa)
#
#
# Indices 1 2 3 4 5 6 
#
# 1 34.4264 34.2388 38.2873 0.0000 0.0000 0.0000
# 2 34.2388 128.7276 134.1388 0.0000 0.0000 0.0000
# 3 38.2873 134.1388 162.9255 0.0000 0.0000 0.0000
# 4 0.0000 0.0000 0.0000 45.0311 0.0000 0.0000
# 5 0.0000 0.0000 0.0000 0.0000 27.3489 0.0000
# 6 0.0000 0.0000 0.0000 0.0000 0.0000 26.8349
#
#
#
# Elastic Compliance Matrix: (Units=1/GPa)
#
#
# Indices 1 2 3 4 5 6 
#
# 1 0.039959 -0.005935 -0.004504 0.000000 0.000000 0.000000
# 2 -0.005935 0.055558 -0.044347 0.000000 0.000000 0.000000
# 3 -0.004504 -0.044347 0.043708 0.000000 0.000000 0.000000
# 4 0.000000 0.000000 0.000000 0.022207 0.000000 0.000000
# 5 0.000000 0.000000 0.000000 0.000000 0.036565 0.000000
# 6 0.000000 0.000000 0.000000 0.000000 0.000000 0.037265
#
#
# Mechanical properties :
#
#
# Convention : Reuss Voigt Hill
#
# Bulk Modulus (GPa) = 33.72333 82.15659 57.93996
# Shear Modulus (GPa) = 14.09571 27.80396 20.94983
#
# Velocity S-wave (km/s) = 2.83173 3.97705 3.45222
# Velocity P-wave (km/s) = 5.46588 8.23565 6.98934
#
# Compressibility (1/GPa) = 0.02965306
#
# Stress axis : x y z
#
# Youngs Moduli (GPa) = 25.02551 17.99920 22.87920
#
# Poissons Ratio (x) = 0.10682 0.10305
# Poissons Ratio (y) = 0.14852 1.01463
# Poissons Ratio (z) = 0.11272 0.79821
#
# Static dielectric constant tensor:
#      x y z
#    x 1.601620 0.000000 0.000000 
#    y 0.000000 1.585230 0.000000 
#    z 0.000000 0.000000 1.578830 
# 
# From -- ./inp_files/18332.got.cif
#   From: 2010.05.17/outbox.cif.g08.bks.cpg/sg35_10_cif.got.tgz:18332.got - 2010.06.03 17:29:28.
