data_PCOD9349465
_publ_section_title
;
Structure prediction by ZEFSAII (Michael W. Deem and Ramdas Pophale) SiO2 
 PCOD9349465
Probable space group: C M M 2
;
_chemical_formula_sum "Si O2"
_cell_formula_units_Z 64
_cell_length_a 8.734726
_cell_length_b 29.759328
_cell_length_c 12.717362
_cell_angle_alpha 90.000000
_cell_angle_beta 90.000000
_cell_angle_gamma 90.000000
_cell_volume 3305.745686
_symmetry_space_group_name_H-M "C M M 2"
_symmetry_group_IT_number 35
_symmetry_cell_setting 'orthorhombic'
loop_
_space_group_symop_operation_xyz
x,y,z
-x,-y,z
-x,y,z
x,-y,z
1/2+x,1/2+y,z
1/2-x,1/2-y,z
1/2-x,1/2+y,z
1/2+x,1/2-y,z
loop_
_atom_site_type_symbol
_atom_site_label
_atom_site_fract_x
_atom_site_fract_y
_atom_site_fract_z
Si Si1 0.324057 0.945334 0.817250
Si Si2 0.820776 0.946412 0.036619
Si Si3 0.684431 0.300489 0.808693
Si Si4 0.184918 0.552747 0.584374
Si Si5 0.318915 0.875048 0.189450
Si Si6 0.815833 0.199584 0.039035
Si Si7 0.815098 0.800098 0.579097
Si Si8 0.316439 0.377401 0.421906
O O1 0.500000 0.930282 0.831069
O O2 0.266309 0.931835 0.701807
O O3 0.327305 0.000000 0.814296
O O4 0.225551 0.932687 0.918139
O O5 0.725895 0.918545 0.120897
O O6 0.000000 0.937398 0.052951
O O7 0.794458 0.000000 0.046236
O O8 0.500000 0.299132 0.808899
O O9 0.750000 0.250000 0.808661
O O10 0.732215 0.319062 0.694709
O O11 0.730534 0.319216 0.922707
O O12 0.221630 0.500000 0.573210
O O13 0.260753 0.581389 0.493335
O O14 0.000000 0.556919 0.580768
O O15 0.500000 0.870107 0.193763
O O16 0.246999 0.832699 0.128579
O O17 0.252618 0.878843 0.306222
O O18 0.750000 0.250000 0.048637
O O19 0.000000 0.201321 0.043899
O O20 0.750000 0.750000 0.567833
O O21 0.766403 0.832875 0.485912
O O22 0.000000 0.797617 0.577903
O O23 0.500000 0.377531 0.415189
#
# Coordination Sequence:
#
# PCOD9349465 Si02
#       8
#     8   8   8   8   8   8   8   8
#     4   8  15  31  56  86 119 151 184 224 274 338
#     4  10  21  38  61  88 117 148 185 234 290 345
#     4   8  15  30  54  84 115 144 175 217 271 331
#     4   9  19  37  60  86 117 152 189 230 278 335
#     4  12  26  42  59  80 110 151 199 244 289 344
#     4  10  20  37  61  88 119 151 186 231 283 340
#     4   9  19  36  58  84 113 145 180 222 274 330
#     4  11  24  40  57  81 113 148 193 243 287 338
#
# _framework density 19.360230999999999
#
# number of rings (size 3 to 8) (size 9 to 14) (size 15 to 20)
#    0.000    2.375    0.000    3.000    0.000    5.000 
#    0.000    3.750    0.000    0.000    0.000    0.000 
#    0.000    0.000    0.000    0.000    0.000    0.000 
#
# Total GULP energy -178594.082176 kJ/mol
# GULP energy per Si atom -5581.065068 kJ/mol
# Density = 1.931617 g / cm^3
# Si number density = 19.360231 Si / 1000 Ang^3
#
#
#
# Elastic Constant Matrix: (Units=GPa)
#
#
# Indices 1 2 3 4 5 6 
#
# 1 56.7898 35.9018 57.9205 0.0000 0.0000 0.0000
# 2 35.9018 71.1146 57.7430 0.0000 0.0000 0.0000
# 3 57.9205 57.7430 189.3257 0.0000 0.0000 0.0000
# 4 0.0000 0.0000 0.0000 32.3496 0.0000 0.0000
# 5 0.0000 0.0000 0.0000 0.0000 31.7901 0.0000
# 6 0.0000 0.0000 0.0000 0.0000 0.0000 26.5972
#
#
#
# Elastic Compliance Matrix: (Units=1/GPa)
#
#
# Indices 1 2 3 4 5 6 
#
# 1 0.030437 -0.010375 -0.006148 0.000000 0.000000 0.000000
# 2 -0.010375 0.022227 -0.003605 0.000000 0.000000 0.000000
# 3 -0.006148 -0.003605 0.008262 0.000000 0.000000 0.000000
# 4 0.000000 0.000000 0.000000 0.030912 0.000000 0.000000
# 5 0.000000 0.000000 0.000000 0.000000 0.031456 0.000000
# 6 0.000000 0.000000 0.000000 0.000000 0.000000 0.037598
#
#
# Mechanical properties :
#
#
# Convention : Reuss Voigt Hill
#
# Bulk Modulus (GPa) = 48.37505 68.92898 58.65202
# Shear Modulus (GPa) = 24.03411 29.19169 26.61290
#
# Velocity S-wave (km/s) = 3.52720 3.88727 3.71160
# Velocity P-wave (km/s) = 6.45207 7.47185 6.98061
#
# Compressibility (1/GPa) = 0.02067181
#
# Stress axis : x y z
#
# Youngs Moduli (GPa) = 32.85426 44.99126 121.03370
#
# Poissons Ratio (x) = 0.46676 0.74407
# Poissons Ratio (y) = 0.34085 0.43633
# Poissons Ratio (z) = 0.20197 0.16220
#
# Static dielectric constant tensor:
#      x y z
#    x 1.656000 0.000000 0.000000 
#    y 0.000000 1.670490 0.000000 
#    z 0.000000 0.000000 1.680660 
# 
# From -- ./inp_files/11844.got.cif
#   From: 2010.05.17/outbox.cif.g08.bks.cpg/sg35_6_cif.got.tgz:11844.got - 2010.06.03 17:29:28.
