data_PCOD9349040
_publ_section_title
;
Structure prediction by ZEFSAII (Michael W. Deem and Ramdas Pophale) SiO2 
 PCOD9349040
Probable space group: C M M 2
;
_chemical_formula_sum "Si O2"
_cell_formula_units_Z 56
_cell_length_a 14.335336
_cell_length_b 15.480449
_cell_length_c 11.898147
_cell_angle_alpha 90.000000
_cell_angle_beta 90.000000
_cell_angle_gamma 90.000000
_cell_volume 2640.406297
_symmetry_space_group_name_H-M "C M M 2"
_symmetry_group_IT_number 35
_symmetry_cell_setting 'orthorhombic'
loop_
_space_group_symop_operation_xyz
x,y,z
-x,-y,z
-x,y,z
x,-y,z
1/2+x,1/2+y,z
1/2-x,1/2-y,z
1/2-x,1/2+y,z
1/2+x,1/2-y,z
loop_
_atom_site_type_symbol
_atom_site_label
_atom_site_fract_x
_atom_site_fract_y
_atom_site_fract_z
Si Si1 0.098721 0.857849 0.746550
Si Si2 0.354034 0.786934 0.584464
Si Si3 0.895038 0.098454 0.349896
Si Si4 0.195673 0.594946 0.783749
Si Si5 0.893347 0.718646 0.945644
Si Si6 0.314814 0.102109 0.382664
Si Si7 0.107810 0.272450 0.205096
O O1 0.095845 0.795537 0.637478
O O2 0.196256 0.906428 0.747616
O O3 0.105760 0.797983 0.858296
O O4 0.000000 0.904670 0.751616
O O5 0.250000 0.750000 0.573064
O O6 0.357077 0.856765 0.683729
O O7 0.373137 0.839433 0.471082
O O8 0.796082 0.104447 0.415385
O O9 0.888320 0.179128 0.265371
O O10 0.000000 0.105546 0.402787
O O11 0.892448 0.000000 0.301510
O O12 0.159483 0.500000 0.800451
O O13 0.178677 0.650914 0.894259
O O14 0.000000 0.683806 0.943069
O O15 0.870486 0.739372 0.073932
O O16 0.330093 0.155015 0.267043
O O17 0.340320 0.000000 0.378214
O O18 0.000000 0.301902 0.214232
#
# Coordination Sequence:
#
# PCOD9349040 Si02
#       7
#     8   8   8   8   8   8   8
#     4   9  19  36  57  80 106 140 181 224 275 332
#     4   9  18  35  56  76 103 142 185 227 270 323
#     4   9  19  36  57  82 112 149 195 240 285 343
#     4  10  20  34  55  82 110 141 179 226 278 333
#     4   9  19  37  58  78 104 143 189 230 272 330
#     4  11  22  35  55  84 118 152 187 233 287 343
#     4  10  21  37  57  81 113 151 189 236 291 343
#
# _framework density 21.208856000000001
#
# number of rings (size 3 to 8) (size 9 to 14) (size 15 to 20)
#    0.000    2.429    0.000    3.000    0.000    4.286 
#    0.000    7.857    0.000    9.429    0.000    0.000 
#    0.000    0.000    0.000    0.000    0.000    0.000 
#
# Total GULP energy -155951.541467 kJ/mol
# GULP energy per Si atom -5569.697910 kJ/mol
# Density = 2.116058 g / cm^3
# Si number density = 21.208856 Si / 1000 Ang^3
#
#
#
# Elastic Constant Matrix: (Units=GPa)
#
#
# Indices 1 2 3 4 5 6 
#
# 1 77.6725 16.0314 3.2327 0.0000 0.0000 0.0000
# 2 16.0314 113.3245 41.9245 0.0000 0.0000 0.0000
# 3 3.2327 41.9245 86.3940 0.0000 0.0000 0.0000
# 4 0.0000 0.0000 0.0000 3.4325 0.0000 0.0000
# 5 0.0000 0.0000 0.0000 0.0000 45.9581 0.0000
# 6 0.0000 0.0000 0.0000 0.0000 0.0000 2.6461
#
#
#
# Elastic Compliance Matrix: (Units=1/GPa)
#
#
# Indices 1 2 3 4 5 6 
#
# 1 0.013280 -0.002066 0.000505 0.000000 0.000000 0.000000
# 2 -0.002066 0.011076 -0.005298 0.000000 0.000000 0.000000
# 3 0.000505 -0.005298 0.014127 0.000000 0.000000 0.000000
# 4 0.000000 0.000000 0.000000 0.291332 0.000000 0.000000
# 5 0.000000 0.000000 0.000000 0.000000 0.021759 0.000000
# 6 0.000000 0.000000 0.000000 0.000000 0.000000 0.377910
#
#
# Mechanical properties :
#
#
# Convention : Reuss Voigt Hill
#
# Bulk Modulus (GPa) = 40.37592 44.41870 42.39731
# Shear Modulus (GPa) = 6.65376 24.82085 15.73731
#
# Velocity S-wave (km/s) = 1.77315 3.42469 2.72695
# Velocity P-wave (km/s) = 4.82397 6.05202 5.47255
#
# Compressibility (1/GPa) = 0.02476723
#
# Stress axis : x y z
#
# Youngs Moduli (GPa) = 75.30191 90.28265 70.78749
#
# Poissons Ratio (x) = 0.18649 -0.03578
# Poissons Ratio (y) = 0.15555 0.37501
# Poissons Ratio (z) = -0.03806 0.47829
#
# Static dielectric constant tensor:
#      x y z
#    x 1.849740 0.000000 0.000000 
#    y 0.000000 1.735660 0.000000 
#    z 0.000000 0.000000 1.766560 
# 
# From -- ./inp_files/12996.got.cif
#   From: 2010.05.17/outbox.cif.g08.bks.cpg/sg35_7_cif.got.tgz:12996.got - 2010.06.03 17:29:28.
