data_PCOD9349674
_publ_section_title
;
Structure prediction by ZEFSAII (Michael W. Deem and Ramdas Pophale) SiO2 
 PCOD9349674
Probable space group: C M M 2
;
_chemical_formula_sum "Si O2"
_cell_formula_units_Z 58
_cell_length_a 7.322963
_cell_length_b 30.097728
_cell_length_c 12.475664
_cell_angle_alpha 90.000000
_cell_angle_beta 90.000000
_cell_angle_gamma 90.000000
_cell_volume 2749.693092
_symmetry_space_group_name_H-M "C M M 2"
_symmetry_group_IT_number 35
_symmetry_cell_setting 'orthorhombic'
loop_
_space_group_symop_operation_xyz
x,y,z
-x,-y,z
-x,y,z
x,-y,z
1/2+x,1/2+y,z
1/2-x,1/2-y,z
1/2-x,1/2+y,z
1/2+x,1/2-y,z
loop_
_atom_site_type_symbol
_atom_site_label
_atom_site_fract_x
_atom_site_fract_y
_atom_site_fract_z
Si Si1 0.500000 0.000000 0.198570
Si Si2 0.775181 0.083208 0.172424
Si Si3 0.720998 0.050729 0.524147
Si Si4 0.218422 0.802150 0.796169
Si Si5 0.706340 0.366896 0.377852
Si Si6 0.218129 0.802234 0.556919
Si Si7 0.220570 0.550785 0.769441
Si Si8 0.792301 0.877040 0.946893
O O1 0.660927 0.038988 0.196110
O O2 0.722164 0.119700 0.262013
O O3 0.000000 0.076539 0.176384
O O4 0.719959 0.101503 0.055425
O O5 0.500000 0.052137 0.518624
O O6 0.794635 0.087019 0.443874
O O7 0.774889 0.060684 0.646928
O O8 0.774544 0.000000 0.499168
O O9 0.250000 0.750000 0.814227
O O10 0.288262 0.813708 0.676409
O O11 0.291795 0.834063 0.888974
O O12 0.000000 0.808892 0.792758
O O13 0.500000 0.351223 0.358649
O O14 0.792719 0.331559 0.459497
O O15 0.250000 0.750000 0.540580
O O16 0.000000 0.809770 0.560448
O O17 0.275073 0.500000 0.793684
O O18 0.291203 0.585307 0.855269
O O19 0.000000 0.552207 0.772698
O O20 0.000000 0.864844 0.974787
#
# Coordination Sequence:
#
# PCOD9349674 Si02
#       8
#     2   8   8   8   8   8   8   8
#     4  12  26  44  68  86 118 172 210 264 292 364
#     4  10  25  43  62  91 121 159 211 255 305 351
#     4   9  19  33  50  76 109 143 183 233 288 349
#     4   9  18  34  57  85 115 151 193 240 302 366
#     4  10  21  37  56  79 114 151 192 247 296 357
#     4   9  18  34  57  85 115 151 193 240 302 366
#     4   9  19  33  50  76 109 143 183 233 288 349
#     4  10  21  37  56  79 114 151 192 247 296 357
#
# _framework density 21.093263
#
# number of rings (size 3 to 8) (size 9 to 14) (size 15 to 20)
#    0.000    2.483    0.000    1.862    3.862    3.310 
#    0.000    4.828    0.000    0.000    0.000    0.000 
#    0.000    0.000    0.000    0.000    0.000    0.000 
#
# Total GULP energy -161587.035114 kJ/mol
# GULP energy per Si atom -5571.966728 kJ/mol
# Density = 2.104525 g / cm^3
# Si number density = 21.093263 Si / 1000 Ang^3
#
#
#
# Elastic Constant Matrix: (Units=GPa)
#
#
# Indices 1 2 3 4 5 6 
#
# 1 102.5802 -0.2142 1.0870 0.0000 0.0000 0.0000
# 2 -0.2142 43.0634 13.8152 0.0000 0.0000 0.0000
# 3 1.0870 13.8152 34.0394 0.0000 0.0000 0.0000
# 4 0.0000 0.0000 0.0000 11.4073 0.0000 0.0000
# 5 0.0000 0.0000 0.0000 0.0000 -4.8266 0.0000
# 6 0.0000 0.0000 0.0000 0.0000 0.0000 21.0718
#
#
#
# Elastic Compliance Matrix: (Units=1/GPa)
#
#
# Indices 1 2 3 4 5 6 
#
# 1 0.009753 0.000171 -0.000381 0.000000 0.000000 0.000000
# 2 0.000171 0.026701 -0.010842 0.000000 0.000000 0.000000
# 3 -0.000381 -0.010842 0.033790 0.000000 0.000000 0.000000
# 4 0.000000 0.000000 0.000000 0.087663 0.000000 0.000000
# 5 0.000000 0.000000 0.000000 0.000000 -0.207187 0.000000
# 6 0.000000 0.000000 0.000000 0.000000 0.000000 0.047457
#
#
# Mechanical properties :
#
#
# Convention : Reuss Voigt Hill
#
# Bulk Modulus (GPa) = 20.77301 23.22878 22.00089
# Shear Modulus (GPa) = 137.63683 16.53018 77.08351
#
# Velocity S-wave (km/s) = 8.08661 2.80245 6.05173
# Velocity P-wave (km/s) = 9.85193 4.63767 7.69963
#
# Compressibility (1/GPa) = 0.04813939
#
# Stress axis : x y z
#
# Youngs Moduli (GPa) = 102.53404 37.45223 29.59436
#
# Poissons Ratio (x) = -0.00639 0.01127
# Poissons Ratio (y) = -0.01750 0.32087
# Poissons Ratio (z) = 0.03903 0.40606
#
# Static dielectric constant tensor:
#      x y z
#    x 1.808770 0.000000 0.000000 
#    y 0.000000 1.722450 0.000000 
#    z 0.000000 0.000000 1.769160 
# 
# From -- ./inp_files/11792.got.cif
#   From: 2010.05.17/outbox.cif.g08.bks.cpg/sg35_6_cif.got.tgz:11792.got - 2010.06.03 17:29:28.
