data_PCOD9349587
_publ_section_title
;
Structure prediction by ZEFSAII (Michael W. Deem and Ramdas Pophale) SiO2 
 PCOD9349587
Probable space group: C M M 2
;
_chemical_formula_sum "Si O2"
_cell_formula_units_Z 64
_cell_length_a 19.709778
_cell_length_b 13.863083
_cell_length_c 10.602641
_cell_angle_alpha 90.000000
_cell_angle_beta 90.000000
_cell_angle_gamma 90.000000
_cell_volume 2897.047479
_symmetry_space_group_name_H-M "C M M 2"
_symmetry_group_IT_number 35
_symmetry_cell_setting 'orthorhombic'
loop_
_space_group_symop_operation_xyz
x,y,z
-x,-y,z
-x,y,z
x,-y,z
1/2+x,1/2+y,z
1/2-x,1/2-y,z
1/2-x,1/2+y,z
1/2+x,1/2-y,z
loop_
_atom_site_type_symbol
_atom_site_label
_atom_site_fract_x
_atom_site_fract_y
_atom_site_fract_z
Si Si1 0.578032 0.392885 0.051550
Si Si2 0.073415 0.613924 0.419626
Si Si3 0.924419 0.239202 0.652197
Si Si4 0.778882 0.615471 0.435556
Si Si5 0.288139 0.616800 0.693495
Si Si6 0.076214 0.302881 0.920778
Si Si7 0.303829 0.616465 0.209445
Si Si8 0.279658 0.115016 0.962041
O O1 0.500000 0.399278 0.083755
O O2 0.601686 0.500000 0.009933
O O3 0.619555 0.361161 0.173416
O O4 0.584714 0.311314 0.947401
O O5 0.074282 0.500000 0.460027
O O6 0.074965 0.691478 0.531733
O O7 0.148757 0.630699 0.366105
O O8 0.000000 0.626333 0.352335
O O9 0.860213 0.167753 0.662562
O O10 0.920875 0.311401 0.770982
O O11 0.000000 0.191377 0.659349
O O12 0.772266 0.500000 0.442199
O O13 0.764640 0.644116 0.580404
O O14 0.721192 0.653929 0.342577
O O15 0.296806 0.500000 0.693608
O O16 0.256744 0.644273 0.830239
O O17 0.142451 0.353024 0.974174
O O18 0.000000 0.330753 0.965161
O O19 0.298368 0.500000 0.215974
O O20 0.261578 0.646038 0.085939
O O21 0.279080 0.000000 0.959913
#
# Coordination Sequence:
#
# PCOD9349587 Si02
#       8
#     8   8   8   8   8   8   8   8
#     4   9  18  34  55  78 107 144 183 223 270 327
#     4   9  18  34  55  78 107 144 183 223 270 327
#     4  10  21  35  53  80 111 143 181 225 273 325
#     4   9  18  34  56  82 110 141 181 225 269 321
#     4  10  21  37  57  81 110 145 183 224 271 323
#     4  10  21  35  53  80 111 143 181 225 273 325
#     4   9  18  34  56  82 110 141 181 225 269 321
#     4  10  21  37  57  81 110 145 183 224 271 323
#
# _framework density 22.091455
#
# number of rings (size 3 to 8) (size 9 to 14) (size 15 to 20)
#    0.000    2.500    0.000    1.500    0.000    7.000 
#    0.000    6.250    0.000    8.250    0.000    0.000 
#    0.000    0.000    0.000    0.000    0.000    0.000 
#
# Total GULP energy -178367.082070 kJ/mol
# GULP energy per Si atom -5573.971315 kJ/mol
# Density = 2.204117 g / cm^3
# Si number density = 22.091455 Si / 1000 Ang^3
#
#
#
# Elastic Constant Matrix: (Units=GPa)
#
#
# Indices 1 2 3 4 5 6 
#
# 1 99.6834 16.5542 0.1920 0.0000 0.0000 0.0000
# 2 16.5542 72.7848 -19.4673 0.0000 0.0000 0.0000
# 3 0.1920 -19.4673 52.3852 0.0000 0.0000 0.0000
# 4 0.0000 0.0000 0.0000 -8.9713 0.0000 0.0000
# 5 0.0000 0.0000 0.0000 0.0000 35.3411 0.0000
# 6 0.0000 0.0000 0.0000 0.0000 0.0000 37.3707
#
#
#
# Elastic Compliance Matrix: (Units=1/GPa)
#
#
# Indices 1 2 3 4 5 6 
#
# 1 0.010475 -0.002657 -0.001026 0.000000 0.000000 0.000000
# 2 -0.002657 0.015929 0.005929 0.000000 0.000000 0.000000
# 3 -0.001026 0.005929 0.021297 0.000000 0.000000 0.000000
# 4 0.000000 0.000000 0.000000 -0.111467 0.000000 0.000000
# 5 0.000000 0.000000 0.000000 0.000000 0.028296 0.000000
# 6 0.000000 0.000000 0.000000 0.000000 0.000000 0.026759
#
#
# Mechanical properties :
#
#
# Convention : Reuss Voigt Hill
#
# Bulk Modulus (GPa) = 19.15907 24.37902 21.76904
# Shear Modulus (GPa) = 1192.40472 27.91973 610.16223
#
# Velocity S-wave (km/s) = 23.25790 3.55889 16.63724
# Velocity P-wave (km/s) = 27.01725 5.28650 19.46636
#
# Compressibility (1/GPa) = 0.05219461
#
# Stress axis : x y z
#
# Youngs Moduli (GPa) = 95.46600 62.77747 46.95588
#
# Poissons Ratio (x) = 0.16678 0.04816
# Poissons Ratio (y) = 0.25363 -0.27842
# Poissons Ratio (z) = 0.09792 -0.37223
#
# Static dielectric constant tensor:
#      x y z
#    x 1.878650 0.000000 0.000000 
#    y 0.000000 1.826150 0.000000 
#    z 0.000000 0.000000 1.814680 
# 
# From -- ./inp_files/13586.got.cif
#   From: 2010.05.17/outbox.cif.g08.bks.cpg/sg35_7_cif.got.tgz:13586.got - 2010.06.03 17:29:28.
