data_PCOD9349181
_publ_section_title
;
Structure prediction by ZEFSAII (Michael W. Deem and Ramdas Pophale) SiO2 
 PCOD9349181
Probable space group: C M M 2
;
_chemical_formula_sum "Si O2"
_cell_formula_units_Z 48
_cell_length_a 15.640684
_cell_length_b 9.006346
_cell_length_c 17.630651
_cell_angle_alpha 90.000000
_cell_angle_beta 90.000000
_cell_angle_gamma 90.000000
_cell_volume 2483.548913
_symmetry_space_group_name_H-M "C M M 2"
_symmetry_group_IT_number 35
_symmetry_cell_setting 'orthorhombic'
loop_
_space_group_symop_operation_xyz
x,y,z
-x,-y,z
-x,y,z
x,-y,z
1/2+x,1/2+y,z
1/2-x,1/2-y,z
1/2-x,1/2+y,z
1/2+x,1/2-y,z
loop_
_atom_site_type_symbol
_atom_site_label
_atom_site_fract_x
_atom_site_fract_y
_atom_site_fract_z
Si Si1 0.000000 0.820065 0.861260
Si Si2 0.656393 0.321810 0.751548
Si Si3 0.102536 0.174795 0.282597
Si Si4 0.157063 0.176982 0.582336
Si Si5 0.339745 0.679141 0.113692
Si Si6 0.000000 0.321379 0.026653
Si Si7 0.101260 0.335531 0.432838
O O1 0.084788 0.781635 0.812864
O O2 0.000000 0.735141 0.940343
O O3 0.000000 0.000000 0.872751
O O4 0.667322 0.500000 0.753972
O O5 0.750000 0.250000 0.762817
O O6 0.622864 0.284801 0.666437
O O7 0.145366 0.213463 0.202849
O O8 0.135552 0.262660 0.355799
O O9 0.000000 0.199020 0.273599
O O10 0.114475 0.000000 0.296645
O O11 0.250000 0.250000 0.580673
O O12 0.111774 0.240289 0.508444
O O13 0.161167 0.000000 0.577018
O O14 0.340718 0.500000 0.104791
O O15 0.250000 0.750000 0.089587
O O16 0.417067 0.752613 0.067781
O O17 0.000000 0.500000 0.031511
O O18 0.137945 0.500000 0.444565
O O19 0.000000 0.347481 0.420403
#
# Coordination Sequence:
#
# PCOD9349181 Si02
#       7
#     4   8   8   8   8   4   8
#     4  10  22  42  66  91 120 159 198 243 304 369
#     4   9  20  38  62  89 120 156 199 248 302 358
#     4   9  18  36  59  82 115 160 204 250 303 355
#     4  10  20  35  56  80 112 153 197 246 298 352
#     4  11  23  42  67  96 126 163 206 253 308 368
#     4  12  26  44  66  95 128 163 202 249 306 369
#     4  10  21  34  51  81 118 157 200 246 295 345
#
# _framework density 19.327182000000001
#
# number of rings (size 3 to 8) (size 9 to 14) (size 15 to 20)
#    0.000    2.000    0.833    2.250    1.167    5.000 
#    0.000    3.333    0.000    0.000    0.000    0.000 
#    0.000    0.000    0.000    0.000    0.000    0.000 
#
# Total GULP energy -133972.199963 kJ/mol
# GULP energy per Si atom -5582.174998 kJ/mol
# Density = 1.928319 g / cm^3
# Si number density = 19.327182 Si / 1000 Ang^3
#
#
#
# Elastic Constant Matrix: (Units=GPa)
#
#
# Indices 1 2 3 4 5 6 
#
# 1 100.8401 54.8570 75.7064 0.0000 0.0000 0.0000
# 2 54.8570 88.4595 82.6752 0.0000 0.0000 0.0000
# 3 75.7064 82.6752 161.0045 0.0000 0.0000 0.0000
# 4 0.0000 0.0000 0.0000 -4.8535 0.0000 0.0000
# 5 0.0000 0.0000 0.0000 0.0000 -40.3265 0.0000
# 6 0.0000 0.0000 0.0000 0.0000 0.0000 26.5096
#
#
#
# Elastic Compliance Matrix: (Units=1/GPa)
#
#
# Indices 1 2 3 4 5 6 
#
# 1 0.016753 -0.005820 -0.004889 0.000000 0.000000 0.000000
# 2 -0.005820 0.023758 -0.009463 0.000000 0.000000 0.000000
# 3 -0.004889 -0.009463 0.013369 0.000000 0.000000 0.000000
# 4 0.000000 0.000000 0.000000 -0.206038 0.000000 0.000000
# 5 0.000000 0.000000 0.000000 0.000000 -0.024798 0.000000
# 6 0.000000 0.000000 0.000000 0.000000 0.000000 0.037722
#
#
# Mechanical properties :
#
#
# Convention : Reuss Voigt Hill
#
# Bulk Modulus (GPa) = 73.87533 86.30902 80.09218
# Shear Modulus (GPa) = -52.97899 5.40362 -23.78768
#
# Velocity S-wave (km/s) = -5.24129 1.67390 -3.51207
# Velocity P-wave (km/s) = 1.29550 6.96345 5.00839
#
# Compressibility (1/GPa) = 0.01353632
#
# Stress axis : x y z
#
# Youngs Moduli (GPa) = 59.68996 42.09104 74.79897
#
# Poissons Ratio (x) = 0.24497 0.36570
# Poissons Ratio (y) = 0.34739 0.70783
# Poissons Ratio (z) = 0.29183 0.39831
#
# Static dielectric constant tensor:
#      x y z
#    x 1.668600 0.000000 0.000000 
#    y 0.000000 1.664050 0.000000 
#    z 0.000000 0.000000 1.679770 
# 
# From -- ./inp_files/17135.got.cif
#   From: 2010.05.17/outbox.cif.g08.bks.cpg/sg35_9_cif.got.tgz:17135.got - 2010.06.03 17:29:28.
