data_PCOD9349093
_publ_section_title
;
Structure prediction by ZEFSAII (Michael W. Deem and Ramdas Pophale) SiO2 
 PCOD9349093
Probable space group: C M M 2
;
_chemical_formula_sum "Si O2"
_cell_formula_units_Z 48
_cell_length_a 8.761049
_cell_length_b 28.662732
_cell_length_c 10.482625
_cell_angle_alpha 90.000000
_cell_angle_beta 90.000000
_cell_angle_gamma 90.000000
_cell_volume 2632.350661
_symmetry_space_group_name_H-M "C M M 2"
_symmetry_group_IT_number 35
_symmetry_cell_setting 'orthorhombic'
loop_
_space_group_symop_operation_xyz
x,y,z
-x,-y,z
-x,y,z
x,-y,z
1/2+x,1/2+y,z
1/2-x,1/2-y,z
1/2-x,1/2+y,z
1/2+x,1/2-y,z
loop_
_atom_site_type_symbol
_atom_site_label
_atom_site_fract_x
_atom_site_fract_y
_atom_site_fract_z
Si Si1 0.816694 0.801821 0.945760
Si Si2 0.181420 0.446544 0.086793
Si Si3 0.818104 0.054009 0.804942
Si Si4 0.682925 0.641930 0.203417
Si Si5 0.181959 0.355271 0.701861
Si Si6 0.183652 0.802128 0.458377
O O1 0.750000 0.750000 0.947913
O O2 0.745135 0.829483 0.827670
O O3 0.000000 0.800626 0.932171
O O4 0.779105 0.827839 0.077895
O O5 0.214956 0.500000 0.125124
O O6 0.238974 0.408066 0.185460
O O7 0.000000 0.442167 0.068047
O O8 0.262728 0.438270 0.950519
O O9 0.735968 0.091304 0.715608
O O10 0.000000 0.061079 0.799665
O O11 0.784291 0.000000 0.773411
O O12 0.500000 0.635508 0.205434
O O13 0.727043 0.670047 0.329848
O O14 0.252723 0.329883 0.579678
O O15 0.000000 0.352345 0.698349
O O16 0.250000 0.750000 0.456113
O O17 0.000000 0.799719 0.465107
#
# Coordination Sequence:
#
# PCOD9349093 Si02
#       6
#     8   8   8   8   8   8
#     4  11  22  37  58  86 117 150 194 247 298 352
#     4  10  20  34  57  90 124 157 195 241 294 352
#     4  10  20  36  60  89 121 156 195 243 298 355
#     4  10  22  39  61  87 117 156 200 244 297 354
#     4  12  24  39  60  88 119 157 199 246 299 353
#     4  11  24  43  63  86 118 160 204 247 299 359
#
# _framework density 18.234653999999999
#
# number of rings (size 3 to 8) (size 9 to 14) (size 15 to 20)
#    0.000    1.333    1.667    4.500    0.000    4.000 
#    0.000    0.833    0.000    1.000    0.000    0.000 
#    0.000    0.000    0.000    0.000    0.000    0.000 
#
# Total GULP energy -134176.845262 kJ/mol
# GULP energy per Si atom -5590.701886 kJ/mol
# Density = 1.819315 g / cm^3
# Si number density = 18.234654 Si / 1000 Ang^3
#
#
#
# Elastic Constant Matrix: (Units=GPa)
#
#
# Indices 1 2 3 4 5 6 
#
# 1 82.1005 69.6837 65.2009 0.0000 0.0000 0.0000
# 2 69.6837 160.7702 85.8449 0.0000 0.0000 0.0000
# 3 65.2009 85.8449 143.8657 0.0000 0.0000 0.0000
# 4 0.0000 0.0000 0.0000 31.9683 0.0000 0.0000
# 5 0.0000 0.0000 0.0000 0.0000 7.8838 0.0000
# 6 0.0000 0.0000 0.0000 0.0000 0.0000 37.6397
#
#
#
# Elastic Compliance Matrix: (Units=1/GPa)
#
#
# Indices 1 2 3 4 5 6 
#
# 1 0.022777 -0.006400 -0.006504 0.000000 0.000000 0.000000
# 2 -0.006400 0.010927 -0.003620 0.000000 0.000000 0.000000
# 3 -0.006504 -0.003620 0.012058 0.000000 0.000000 0.000000
# 4 0.000000 0.000000 0.000000 0.031281 0.000000 0.000000
# 5 0.000000 0.000000 0.000000 0.000000 0.126843 0.000000
# 6 0.000000 0.000000 0.000000 0.000000 0.000000 0.026568
#
#
# Mechanical properties :
#
#
# Convention : Reuss Voigt Hill
#
# Bulk Modulus (GPa) = 78.64307 92.02171 85.33239
# Shear Modulus (GPa) = 18.67489 26.56547 22.62018
#
# Velocity S-wave (km/s) = 3.20369 3.82103 3.52590
# Velocity P-wave (km/s) = 7.54366 8.36910 7.96708
#
# Compressibility (1/GPa) = 0.01271568
#
# Stress axis : x y z
#
# Youngs Moduli (GPa) = 43.90353 91.52015 82.92916
#
# Poissons Ratio (x) = 0.58568 0.53939
# Poissons Ratio (y) = 0.28096 0.30017
# Poissons Ratio (z) = 0.28556 0.33127
#
# Static dielectric constant tensor:
#      x y z
#    x 1.608460 0.000000 0.000000 
#    y 0.000000 1.630710 0.000000 
#    z 0.000000 0.000000 1.593890 
# 
# From -- ./inp_files/5327.got.cif
#   From: 2010.05.17/outbox.cif.g08.bks.cpg/sg35_3_cif.got.tgz:5327.got - 2010.06.03 17:29:28.
