data_PCOD9349883
_publ_section_title
;
Structure prediction by ZEFSAII (Michael W. Deem and Ramdas Pophale) SiO2 
 PCOD9349883
Probable space group: C M M 2
;
_chemical_formula_sum "Si O2"
_cell_formula_units_Z 48
_cell_length_a 25.648380
_cell_length_b 11.234960
_cell_length_c 7.357754
_cell_angle_alpha 90.000000
_cell_angle_beta 90.000000
_cell_angle_gamma 90.000000
_cell_volume 2120.199528
_symmetry_space_group_name_H-M "C M M 2"
_symmetry_group_IT_number 35
_symmetry_cell_setting 'orthorhombic'
loop_
_space_group_symop_operation_xyz
x,y,z
-x,-y,z
-x,y,z
x,-y,z
1/2+x,1/2+y,z
1/2-x,1/2-y,z
1/2-x,1/2+y,z
1/2+x,1/2-y,z
loop_
_atom_site_type_symbol
_atom_site_label
_atom_site_fract_x
_atom_site_fract_y
_atom_site_fract_z
Si Si1 0.104079 0.862528 0.047480
Si Si2 0.806505 0.712470 0.894759
Si Si3 0.057575 0.135675 0.653920
Si Si4 0.061442 0.370508 0.253321
Si Si5 0.629103 0.827649 0.555242
Si Si6 0.221314 0.626964 0.281693
O O1 0.087079 0.750423 0.172832
O O2 0.102975 0.000000 0.116280
O O3 0.161598 0.826287 0.973570
O O4 0.066395 0.857905 0.871264
O O5 0.750000 0.750000 0.814584
O O6 0.844129 0.649431 0.748915
O O7 0.793987 0.634451 0.070709
O O8 0.109834 0.192279 0.572517
O O9 0.000000 0.185960 0.609740
O O10 0.056329 0.000000 0.597146
O O11 0.078162 0.500000 0.172387
O O12 0.076407 0.377671 0.466877
O O13 0.000000 0.360475 0.226768
O O14 0.670767 0.864779 0.406814
O O15 0.248235 0.500000 0.317799
O O16 0.250000 0.750000 0.321226
#
# Coordination Sequence:
#
# PCOD9349883 Si02
#       6
#     8   8   8   8   8   8
#     4  10  21  41  71 102 135 177 230 289 346 406
#     4  10  23  43  68  99 139 178 225 281 348 408
#     4   9  19  37  63  99 139 178 228 289 346 404
#     4  11  24  42  64  96 141 185 228 279 339 412
#     4  11  22  41  67  96 134 181 225 277 337 407
#     4  11  25  45  69  99 135 177 229 282 339 409
#
# _framework density 22.639379000000002
#
# number of rings (size 3 to 8) (size 9 to 14) (size 15 to 20)
#    0.000    1.667    1.667    2.000    0.000    6.333 
#    0.000    8.333    0.000   10.000    0.000    0.000 
#    0.000    0.000    0.000    0.000    0.000    0.000 
#
# Total GULP energy -133617.779083 kJ/mol
# GULP energy per Si atom -5567.407462 kJ/mol
# Density = 2.258785 g / cm^3
# Si number density = 22.639379 Si / 1000 Ang^3
#
#
#
# Elastic Constant Matrix: (Units=GPa)
#
#
# Indices 1 2 3 4 5 6 
#
# 1 90.1186 54.5729 9.5697 0.0000 0.0000 0.0000
# 2 54.5729 186.4678 33.1658 0.0000 0.0000 0.0000
# 3 9.5697 33.1658 56.7184 0.0000 0.0000 0.0000
# 4 0.0000 0.0000 0.0000 -28.6683 0.0000 0.0000
# 5 0.0000 0.0000 0.0000 0.0000 28.4242 0.0000
# 6 0.0000 0.0000 0.0000 0.0000 0.0000 10.6434
#
#
#
# Elastic Compliance Matrix: (Units=1/GPa)
#
#
# Indices 1 2 3 4 5 6 
#
# 1 0.013487 -0.003954 0.000036 0.000000 0.000000 0.000000
# 2 -0.003954 0.007144 -0.003511 0.000000 0.000000 0.000000
# 3 0.000036 -0.003511 0.019678 0.000000 0.000000 0.000000
# 4 0.000000 0.000000 0.000000 -0.034882 0.000000 0.000000
# 5 0.000000 0.000000 0.000000 0.000000 0.035181 0.000000
# 6 0.000000 0.000000 0.000000 0.000000 0.000000 0.093955
#
#
# Mechanical properties :
#
#
# Convention : Reuss Voigt Hill
#
# Bulk Modulus (GPa) = 39.28800 58.65797 48.97299
# Shear Modulus (GPa) = 31.66501 17.81296 24.73898
#
# Velocity S-wave (km/s) = 3.74394 2.80806 3.30925
# Velocity P-wave (km/s) = 6.00674 6.03983 6.02331
#
# Compressibility (1/GPa) = 0.02545306
#
# Stress axis : x y z
#
# Youngs Moduli (GPa) = 74.14652 139.97096 50.81922
#
# Poissons Ratio (x) = 0.55339 -0.00184
# Poissons Ratio (y) = 0.29315 0.17840
# Poissons Ratio (z) = -0.00269 0.49137
#
# Static dielectric constant tensor:
#      x y z
#    x 1.896920 0.000000 0.000000 
#    y 0.000000 1.909290 0.000000 
#    z 0.000000 0.000000 1.878010 
# 
# From -- ./inp_files/10137.got.cif
#   From: 2010.05.17/outbox.cif.g08.bks.cpg/sg35_6_cif.got.tgz:10137.got - 2010.06.03 17:29:28.
