data_PCOD9349173
_publ_section_title
;
Structure prediction by ZEFSAII (Michael W. Deem and Ramdas Pophale) SiO2 
 PCOD9349173
Probable space group: C M M 2
;
_chemical_formula_sum "Si O2"
_cell_formula_units_Z 48
_cell_length_a 8.375514
_cell_length_b 19.774129
_cell_length_c 15.433899
_cell_angle_alpha 90.000000
_cell_angle_beta 90.000000
_cell_angle_gamma 90.000000
_cell_volume 2556.139113
_symmetry_space_group_name_H-M "C M M 2"
_symmetry_group_IT_number 35
_symmetry_cell_setting 'orthorhombic'
loop_
_space_group_symop_operation_xyz
x,y,z
-x,-y,z
-x,y,z
x,-y,z
1/2+x,1/2+y,z
1/2-x,1/2-y,z
1/2-x,1/2+y,z
1/2+x,1/2-y,z
loop_
_atom_site_type_symbol
_atom_site_label
_atom_site_fract_x
_atom_site_fract_y
_atom_site_fract_z
Si Si1 0.692708 0.675371 0.293610
Si Si2 0.807292 0.324629 0.793610
Si Si3 0.191355 0.175148 0.492409
Si Si4 0.692934 0.077294 0.641555
Si Si5 0.307066 0.422706 0.141555
Si Si6 0.808645 0.675148 0.992409
O O1 0.500000 0.675528 0.293365
O O2 0.750000 0.750000 0.267217
O O3 0.745276 0.663552 0.392882
O O4 0.748440 0.618963 0.226045
O O5 0.750000 0.250000 0.767217
O O6 0.751560 0.381037 0.726045
O O7 0.754724 0.336449 0.892882
O O8 0.000000 0.324472 0.793365
O O9 0.250000 0.250000 0.518287
O O10 0.255078 0.118921 0.557391
O O11 0.000000 0.174685 0.494128
O O12 0.500000 0.076108 0.643928
O O13 0.750114 0.000000 0.640766
O O14 0.500000 0.423892 0.143928
O O15 0.249886 0.500000 0.140766
O O16 0.255078 0.381078 0.057391
O O17 0.750000 0.750000 0.018287
O O18 0.000000 0.674685 0.994128
#
# Coordination Sequence:
#
# PCOD9349173 Si02
#       6
#     8   8   8   8   8   8
#     4   9  19  35  55  77 102 135 173 214 259 307
#     4   9  19  35  55  77 102 135 173 214 259 307
#     4  10  20  35  56  80 105 135 174 217 259 306
#     4  10  21  36  53  76 108 142 173 210 259 310
#     4  10  21  36  53  76 108 142 173 210 259 310
#     4  10  20  35  56  80 105 135 174 217 259 306
#
# _framework density 18.778320000000001
#
# number of rings (size 3 to 8) (size 9 to 14) (size 15 to 20)
#    0.000    2.333    0.000    2.000    0.000    7.333 
#    0.000    3.333    0.000    0.000    0.000    0.000 
#    0.000    0.000    0.000    0.000    0.000    0.000 
#
# Total GULP energy -133990.881723 kJ/mol
# GULP energy per Si atom -5582.953405 kJ/mol
# Density = 1.873558 g / cm^3
# Si number density = 18.778320 Si / 1000 Ang^3
#
#
#
# Elastic Constant Matrix: (Units=GPa)
#
#
# Indices 1 2 3 4 5 6 
#
# 1 8.8927 20.7045 15.6226 0.0000 0.0000 0.0000
# 2 20.7045 210.6668 125.9643 0.0000 0.0000 0.0000
# 3 15.6226 125.9643 121.6396 0.0000 0.0000 0.0000
# 4 0.0000 0.0000 0.0000 -6.8490 0.0000 0.0000
# 5 0.0000 0.0000 0.0000 0.0000 -17.4390 0.0000
# 6 0.0000 0.0000 0.0000 0.0000 0.0000 26.0666
#
#
#
# Elastic Compliance Matrix: (Units=1/GPa)
#
#
# Indices 1 2 3 4 5 6 
#
# 1 0.150811 -0.008509 -0.010558 0.000000 0.000000 0.000000
# 2 -0.008509 0.012945 -0.012313 0.000000 0.000000 0.000000
# 3 -0.010558 -0.012313 0.022327 0.000000 0.000000 0.000000
# 4 0.000000 0.000000 0.000000 -0.146007 0.000000 0.000000
# 5 0.000000 0.000000 0.000000 0.000000 -0.057343 0.000000
# 6 0.000000 0.000000 0.000000 0.000000 0.000000 0.038363
#
#
# Mechanical properties :
#
#
# Convention : Reuss Voigt Hill
#
# Bulk Modulus (GPa) = 8.10868 73.97580 41.04224
# Shear Modulus (GPa) = 40.01161 12.28290 26.14725
#
# Velocity S-wave (km/s) = 4.62100 2.56031 3.73556
# Velocity P-wave (km/s) = 5.72704 6.94407 6.36471
#
# Compressibility (1/GPa) = 0.12332465
#
# Stress axis : x y z
#
# Youngs Moduli (GPa) = 6.63083 77.24868 44.78822
#
# Poissons Ratio (x) = 0.65732 0.47285
# Poissons Ratio (y) = 0.05642 0.55146
# Poissons Ratio (z) = 0.07001 0.95113
#
# Static dielectric constant tensor:
#      x y z
#    x 1.648210 0.000000 0.000000 
#    y 0.000000 1.616660 0.000000 
#    z 0.000000 0.000000 1.656770 
# 
# From -- ./inp_files/15145.got.cif
#   From: 2010.05.17/outbox.cif.g08.bks.cpg/sg35_8_cif.got.tgz:15145.got - 2010.06.03 17:29:28.
