data_PCOD9349220
_publ_section_title
;
Structure prediction by ZEFSAII (Michael W. Deem and Ramdas Pophale) SiO2 
 PCOD9349220
Probable space group: C M M 2
;
_chemical_formula_sum "Si O2"
_cell_formula_units_Z 40
_cell_length_a 18.922471
_cell_length_b 8.478813
_cell_length_c 13.115151
_cell_angle_alpha 90.000000
_cell_angle_beta 90.000000
_cell_angle_gamma 90.000000
_cell_volume 2104.196048
_symmetry_space_group_name_H-M "C M M 2"
_symmetry_group_IT_number 35
_symmetry_cell_setting 'orthorhombic'
loop_
_space_group_symop_operation_xyz
x,y,z
-x,-y,z
-x,y,z
x,-y,z
1/2+x,1/2+y,z
1/2-x,1/2-y,z
1/2-x,1/2+y,z
1/2+x,1/2-y,z
loop_
_atom_site_type_symbol
_atom_site_label
_atom_site_fract_x
_atom_site_fract_y
_atom_site_fract_z
Si Si1 0.419069 0.192637 0.801210
Si Si2 0.170944 0.310555 0.225682
Si Si3 0.081350 0.188993 0.412504
Si Si4 0.828595 0.690328 0.993114
Si Si5 0.329882 0.189064 0.604269
O O1 0.500000 0.245152 0.791527
O O2 0.371555 0.243202 0.705580
O O3 0.419547 0.000000 0.801109
O O4 0.383331 0.243761 0.907145
O O5 0.170985 0.500000 0.230169
O O6 0.250000 0.250000 0.249462
O O7 0.116235 0.244780 0.307188
O O8 0.154448 0.260507 0.109141
O O9 0.127714 0.254282 0.505338
O O10 0.000000 0.242534 0.420893
O O11 0.082693 0.000000 0.416229
O O12 0.827423 0.500000 0.992101
O O13 0.750000 0.750000 0.968590
O O14 0.250000 0.250000 0.603500
O O15 0.328449 0.000000 0.604457
#
# Coordination Sequence:
#
# PCOD9349220 Si02
#       5
#     8   8   8   8   8
#     4   9  18  33  54  81 111 142 178 221 269 320
#     4  10  20  35  57  83 111 145 185 226 268 319
#     4  11  24  40  57  79 110 144 179 225 277 326
#     4   9  18  33  55  81 109 142 179 221 265 314
#     4  11  22  37  59  83 109 143 183 225 269 322
#
# _framework density 19.009634999999999
#
# number of rings (size 3 to 8) (size 9 to 14) (size 15 to 20)
#    0.000    2.000    0.000    3.600    0.000    4.000 
#    0.000    3.000    0.000    3.000    0.000    0.000 
#    0.000    0.000    0.000    0.000    0.000    0.000 
#
# Total GULP energy -111729.493683 kJ/mol
# GULP energy per Si atom -5586.474684 kJ/mol
# Density = 1.896637 g / cm^3
# Si number density = 19.009635 Si / 1000 Ang^3
#
#
#
# Elastic Constant Matrix: (Units=GPa)
#
#
# Indices 1 2 3 4 5 6 
#
# 1 201.4293 33.2758 128.6222 0.0000 0.0000 0.0000
# 2 33.2758 31.3806 26.7616 0.0000 0.0000 0.0000
# 3 128.6222 26.7616 144.4659 0.0000 0.0000 0.0000
# 4 0.0000 0.0000 0.0000 -15.1889 0.0000 0.0000
# 5 0.0000 0.0000 0.0000 0.0000 5.2329 0.0000
# 6 0.0000 0.0000 0.0000 0.0000 0.0000 17.6350
#
#
#
# Elastic Compliance Matrix: (Units=1/GPa)
#
#
# Indices 1 2 3 4 5 6 
#
# 1 0.011971 -0.004281 -0.009865 0.000000 0.000000 0.000000
# 2 -0.004281 0.039377 -0.003483 0.000000 0.000000 0.000000
# 3 -0.009865 -0.003483 0.016351 0.000000 0.000000 0.000000
# 4 0.000000 0.000000 0.000000 -0.065838 0.000000 0.000000
# 5 0.000000 0.000000 0.000000 0.000000 0.191100 0.000000
# 6 0.000000 0.000000 0.000000 0.000000 0.000000 0.056705
#
#
# Mechanical properties :
#
#
# Convention : Reuss Voigt Hill
#
# Bulk Modulus (GPa) = 30.82598 83.84387 57.33492
# Shear Modulus (GPa) = 16.90687 14.11020 15.50854
#
# Velocity S-wave (km/s) = 2.98549 2.72741 2.85936
# Velocity P-wave (km/s) = 5.30428 7.35664 6.41309
#
# Compressibility (1/GPa) = 0.03244017
#
# Stress axis : x y z
#
# Youngs Moduli (GPa) = 83.53399 25.39580 61.16007
#
# Poissons Ratio (x) = 0.10872 0.60336
# Poissons Ratio (y) = 0.35761 0.21301
# Poissons Ratio (z) = 0.82408 0.08845
#
# Static dielectric constant tensor:
#      x y z
#    x 1.621480 0.000000 0.000000 
#    y 0.000000 1.647050 0.000000 
#    z 0.000000 0.000000 1.652570 
# 
# From -- ./inp_files/12762.got.cif
#   From: 2010.05.17/outbox.cif.g08.bks.cpg/sg35_7_cif.got.tgz:12762.got - 2010.06.03 17:29:28.
