data_PCOD9349352
_publ_section_title
;
Structure prediction by ZEFSAII (Michael W. Deem and Ramdas Pophale) SiO2 
 PCOD9349352
Probable space group: C M M 2
;
_chemical_formula_sum "Si O2"
_cell_formula_units_Z 40
_cell_length_a 16.107417
_cell_length_b 8.056166
_cell_length_c 14.954231
_cell_angle_alpha 90.000000
_cell_angle_beta 90.000000
_cell_angle_gamma 90.000000
_cell_volume 1940.521208
_symmetry_space_group_name_H-M "C M M 2"
_symmetry_group_IT_number 35
_symmetry_cell_setting 'orthorhombic'
loop_
_space_group_symop_operation_xyz
x,y,z
-x,-y,z
-x,y,z
x,-y,z
1/2+x,1/2+y,z
1/2-x,1/2-y,z
1/2-x,1/2+y,z
1/2+x,1/2-y,z
loop_
_atom_site_type_symbol
_atom_site_label
_atom_site_fract_x
_atom_site_fract_y
_atom_site_fract_z
Si Si1 0.840285 0.196431 0.432350
Si Si2 0.500000 0.799300 0.745327
Si Si3 0.403371 0.799884 0.243247
Si Si4 0.659445 0.200134 0.857430
Si Si5 0.902077 0.298309 0.046686
Si Si6 0.000000 0.799118 0.539365
O O1 0.750000 0.250000 0.464592
O O2 0.852747 0.242857 0.328668
O O3 0.917706 0.265241 0.488960
O O4 0.844019 0.000000 0.438661
O O5 0.417206 0.741248 0.796819
O O6 0.500000 0.747065 0.642793
O O7 0.500000 0.000000 0.749316
O O8 0.500000 0.747569 0.254126
O O9 0.374298 0.740748 0.145133
O O10 0.402602 0.000000 0.242097
O O11 0.750000 0.250000 0.824265
O O12 0.655454 0.000000 0.859607
O O13 0.645778 0.262223 0.959309
O O14 0.897305 0.500000 0.046954
O O15 0.000000 0.258130 0.037102
O O16 0.000000 0.000000 0.532923
#
# Coordination Sequence:
#
# PCOD9349352 Si02
#       6
#     8   4   8   8   8   4
#     4  11  23  40  60  85 116 151 189 234 286 339
#     4  10  22  40  63  84 108 146 189 230 281 344
#     4   9  17  31  56  87 116 153 194 231 275 331
#     4  10  20  36  58  85 115 149 188 230 276 331
#     4   8  14  29  54  81 113 152 191 226 267 325
#     4  10  24  44  63  82 112 146 181 236 297 340
#
# _framework density 20.613019000000001
#
# number of rings (size 3 to 8) (size 9 to 14) (size 15 to 20)
#    0.000    2.400    2.000    1.800    0.000    4.000 
#    0.000    7.000    0.000    1.200    0.000    0.000 
#    0.000    0.000    0.000    0.000    0.000    0.000 
#
# Total GULP energy -111644.169999 kJ/mol
# GULP energy per Si atom -5582.208500 kJ/mol
# Density = 2.056610 g / cm^3
# Si number density = 20.613019 Si / 1000 Ang^3
#
#
#
# Elastic Constant Matrix: (Units=GPa)
#
#
# Indices 1 2 3 4 5 6 
#
# 1 163.7500 12.5912 92.7653 0.0000 0.0000 0.0000
# 2 12.5912 12.6633 9.9390 0.0000 0.0000 0.0000
# 3 92.7653 9.9390 142.1379 0.0000 0.0000 0.0000
# 4 0.0000 0.0000 0.0000 13.3321 0.0000 0.0000
# 5 0.0000 0.0000 0.0000 0.0000 -5.9547 0.0000
# 6 0.0000 0.0000 0.0000 0.0000 0.0000 19.8982
#
#
#
# Elastic Compliance Matrix: (Units=1/GPa)
#
#
# Indices 1 2 3 4 5 6 
#
# 1 0.009991 -0.005096 -0.006164 0.000000 0.000000 0.000000
# 2 -0.005096 0.086153 -0.002699 0.000000 0.000000 0.000000
# 3 -0.006164 -0.002699 0.011247 0.000000 0.000000 0.000000
# 4 0.000000 0.000000 0.000000 0.075007 0.000000 0.000000
# 5 0.000000 0.000000 0.000000 0.000000 -0.167934 0.000000
# 6 0.000000 0.000000 0.000000 0.000000 0.000000 0.050256
#
#
# Mechanical properties :
#
#
# Convention : Reuss Voigt Hill
#
# Bulk Modulus (GPa) = 12.58272 61.01579 36.79925
# Shear Modulus (GPa) = 41.97183 19.00549 30.48866
#
# Velocity S-wave (km/s) = 4.51730 3.03976 3.85008
# Velocity P-wave (km/s) = 5.77283 6.47959 6.13639
#
# Compressibility (1/GPa) = 0.07947410
#
# Stress axis : x y z
#
# Youngs Moduli (GPa) = 100.09369 11.60724 88.91260
#
# Poissons Ratio (x) = 0.05915 0.54806
# Poissons Ratio (y) = 0.51006 0.23993
# Poissons Ratio (z) = 0.61698 0.03132
#
# Static dielectric constant tensor:
#      x y z
#    x 1.761300 0.000000 0.000000 
#    y 0.000000 1.731940 0.000000 
#    z 0.000000 0.000000 1.727510 
# 
# From -- ./inp_files/14751.got.cif
#   From: 2010.05.17/outbox.cif.g08.bks.cpg/sg35_8_cif.got.tgz:14751.got - 2010.06.03 17:29:28.
