data_PCOD9349711
_publ_section_title
;
Structure prediction by ZEFSAII (Michael W. Deem and Ramdas Pophale) SiO2 
 PCOD9349711
Probable space group: C M M 2
;
_chemical_formula_sum "Si O2"
_cell_formula_units_Z 56
_cell_length_a 8.947891
_cell_length_b 18.802146
_cell_length_c 18.592563
_cell_angle_alpha 90.000000
_cell_angle_beta 90.000000
_cell_angle_gamma 90.000000
_cell_volume 3128.004488
_symmetry_space_group_name_H-M "C M M 2"
_symmetry_group_IT_number 35
_symmetry_cell_setting 'orthorhombic'
loop_
_space_group_symop_operation_xyz
x,y,z
-x,-y,z
-x,y,z
x,-y,z
1/2+x,1/2+y,z
1/2-x,1/2-y,z
1/2-x,1/2+y,z
1/2+x,1/2-y,z
loop_
_atom_site_type_symbol
_atom_site_label
_atom_site_fract_x
_atom_site_fract_y
_atom_site_fract_z
Si Si1 0.680698 0.416080 0.639800
Si Si2 0.179454 0.582208 0.947195
Si Si3 0.827221 0.086422 0.799585
Si Si4 0.320587 0.172127 0.510082
Si Si5 0.179825 0.327971 0.086678
Si Si6 0.678458 0.916716 0.368037
Si Si7 0.322605 0.584480 0.216011
O O1 0.500000 0.409746 0.636110
O O2 0.716343 0.500000 0.631810
O O3 0.727115 0.391772 0.720303
O O4 0.757316 0.371347 0.577698
O O5 0.229766 0.500000 0.957266
O O6 0.238465 0.608787 0.870246
O O7 0.000000 0.581647 0.945280
O O8 0.226558 0.630045 0.014319
O O9 0.000000 0.107715 0.807125
O O10 0.823244 0.000000 0.798103
O O11 0.500000 0.176201 0.514477
O O12 0.250000 0.250000 0.509056
O O13 0.281139 0.130327 0.436744
O O14 0.250000 0.250000 0.087059
O O15 0.237939 0.371658 0.155195
O O16 0.000000 0.323955 0.088245
O O17 0.500000 0.910437 0.355806
O O18 0.763957 0.896154 0.295416
O O19 0.710529 0.000000 0.383042
O O20 0.500000 0.596280 0.210975
O O21 0.293569 0.500000 0.206457
#
# Coordination Sequence:
#
# PCOD9349711 Si02
#       7
#     8   8   8   8   8   8   8
#     4   9  18  34  56  81 109 141 178 221 269 319
#     4   9  18  33  54  79 105 136 176 220 266 316
#     4   8  15  29  51  79 107 135 170 215 266 316
#     4  11  23  37  54  78 109 145 183 221 265 317
#     4  11  23  38  55  77 109 146 182 221 267 317
#     4   9  19  37  59  81 106 138 177 221 268 316
#     4  10  21  37  59  86 111 138 176 218 262 316
#
# _framework density 17.902787
#
# number of rings (size 3 to 8) (size 9 to 14) (size 15 to 20)
#    0.000    2.429    0.000    3.000    0.000    5.714 
#    0.000    6.429    0.000    1.714    0.000    0.000 
#    0.000    0.000    0.000    0.000    0.000    0.000 
#
# Total GULP energy -156243.435384 kJ/mol
# GULP energy per Si atom -5580.122692 kJ/mol
# Density = 1.786204 g / cm^3
# Si number density = 17.902787 Si / 1000 Ang^3
#
#
#
# Elastic Constant Matrix: (Units=GPa)
#
#
# Indices 1 2 3 4 5 6 
#
# 1 45.7631 49.3263 69.8390 0.0000 0.0000 0.0000
# 2 49.3263 85.0772 97.2147 0.0000 0.0000 0.0000
# 3 69.8390 97.2147 199.1487 0.0000 0.0000 0.0000
# 4 0.0000 0.0000 0.0000 -8.4800 0.0000 0.0000
# 5 0.0000 0.0000 0.0000 0.0000 31.6917 0.0000
# 6 0.0000 0.0000 0.0000 0.0000 0.0000 22.6046
#
#
#
# Elastic Compliance Matrix: (Units=1/GPa)
#
#
# Indices 1 2 3 4 5 6 
#
# 1 0.066214 -0.026812 -0.010132 0.000000 0.000000 0.000000
# 2 -0.026812 0.037438 -0.008872 0.000000 0.000000 0.000000
# 3 -0.010132 -0.008872 0.012906 0.000000 0.000000 0.000000
# 4 0.000000 0.000000 0.000000 -0.117924 0.000000 0.000000
# 5 0.000000 0.000000 0.000000 0.000000 0.031554 0.000000
# 6 0.000000 0.000000 0.000000 0.000000 0.000000 0.044239
#
#
# Mechanical properties :
#
#
# Convention : Reuss Voigt Hill
#
# Bulk Modulus (GPa) = 40.12240 84.74990 62.43615
# Shear Modulus (GPa) = 28.67508 16.73720 22.70614
#
# Velocity S-wave (km/s) = 4.00648 3.06092 3.56519
# Velocity P-wave (km/s) = 6.62287 7.74171 7.20404
#
# Compressibility (1/GPa) = 0.02492373
#
# Stress axis : x y z
#
# Youngs Moduli (GPa) = 15.10255 26.71110 77.48557
#
# Poissons Ratio (x) = 0.71619 0.78508
# Poissons Ratio (y) = 0.40493 0.68749
# Poissons Ratio (z) = 0.15302 0.23699
#
# Static dielectric constant tensor:
#      x y z
#    x 1.601630 0.000000 0.000000 
#    y 0.000000 1.591220 0.000000 
#    z 0.000000 0.000000 1.599940 
# 
# From -- ./inp_files/18187.got.cif
#   From: 2010.05.17/outbox.cif.g08.bks.cpg/sg35_10_cif.got.tgz:18187.got - 2010.06.03 17:29:28.
