data_PCOD9349066
_publ_section_title
;
Structure prediction by ZEFSAII (Michael W. Deem and Ramdas Pophale) SiO2 
 PCOD9349066
Probable space group: C M M 2
;
_chemical_formula_sum "Si O2"
_cell_formula_units_Z 56
_cell_length_a 14.469197
_cell_length_b 18.607467
_cell_length_c 9.712640
_cell_angle_alpha 90.000000
_cell_angle_beta 90.000000
_cell_angle_gamma 90.000000
_cell_volume 2614.983657
_symmetry_space_group_name_H-M "C M M 2"
_symmetry_group_IT_number 35
_symmetry_cell_setting 'orthorhombic'
loop_
_space_group_symop_operation_xyz
x,y,z
-x,-y,z
-x,y,z
x,-y,z
1/2+x,1/2+y,z
1/2-x,1/2-y,z
1/2-x,1/2+y,z
1/2+x,1/2-y,z
loop_
_atom_site_type_symbol
_atom_site_label
_atom_site_fract_x
_atom_site_fract_y
_atom_site_fract_z
Si Si1 0.263796 0.579949 0.618530
Si Si2 0.218722 0.420610 0.293620
Si Si3 0.603020 0.707621 0.550982
Si Si4 0.107654 0.339465 0.757045
Si Si5 0.610722 0.582250 0.086985
Si Si6 0.645185 0.770644 0.252554
Si Si7 0.397889 0.722184 0.959827
O O1 0.301723 0.500000 0.649094
O O2 0.235008 0.579315 0.457146
O O3 0.331010 0.648839 0.619820
O O4 0.175970 0.597271 0.714333
O O5 0.185821 0.500000 0.251834
O O6 0.317245 0.409313 0.214115
O O7 0.147468 0.356559 0.265251
O O8 0.500000 0.678482 0.558860
O O9 0.609610 0.782654 0.631389
O O10 0.621485 0.729712 0.393067
O O11 0.145565 0.289594 0.881575
O O12 0.000000 0.360959 0.780939
O O13 0.500000 0.592763 0.120089
O O14 0.619380 0.500000 0.039736
O O15 0.638841 0.641260 0.972785
O O16 0.750000 0.750000 0.222535
O O17 0.593646 0.744721 0.118442
O O18 0.500000 0.716108 0.894488
#
# Coordination Sequence:
#
# PCOD9349066 Si02
#       7
#     8   8   8   8   8   8   8
#     4  11  22  39  62  89 124 163 203 253 311 375
#     4  10  20  34  55  87 124 156 198 252 307 370
#     4  11  22  39  63  89 122 161 205 255 310 371
#     4  10  22  41  63  87 119 163 212 259 303 362
#     4   9  17  32  55  88 130 167 199 247 317 387
#     4  12  19  34  59  89 120 161 202 254 305 368
#     4  10  21  36  58  88 118 156 206 254 303 365
#
# _framework density 21.415047999999999
#
# number of rings (size 3 to 8) (size 9 to 14) (size 15 to 20)
#    0.000    1.571    4.286    0.857    0.000    3.429 
#    0.000    2.857    0.000    5.143    0.000    0.000 
#    0.000    0.000    0.000    0.000    0.000    0.000 
#
# Total GULP energy -156151.442945 kJ/mol
# GULP energy per Si atom -5576.837248 kJ/mol
# Density = 2.136631 g / cm^3
# Si number density = 21.415048 Si / 1000 Ang^3
#
#
#
# Elastic Constant Matrix: (Units=GPa)
#
#
# Indices 1 2 3 4 5 6 
#
# 1 63.4072 19.6862 16.7454 0.0000 0.0000 0.0000
# 2 19.6862 108.1775 4.5617 0.0000 0.0000 0.0000
# 3 16.7454 4.5617 66.7310 0.0000 0.0000 0.0000
# 4 0.0000 0.0000 0.0000 21.8256 0.0000 0.0000
# 5 0.0000 0.0000 0.0000 0.0000 17.6604 0.0000
# 6 0.0000 0.0000 0.0000 0.0000 0.0000 9.6203
#
#
#
# Elastic Compliance Matrix: (Units=1/GPa)
#
#
# Indices 1 2 3 4 5 6 
#
# 1 0.017851 -0.003069 -0.004270 0.000000 0.000000 0.000000
# 2 -0.003069 0.009798 0.000100 0.000000 0.000000 0.000000
# 3 -0.004270 0.000100 0.016050 0.000000 0.000000 0.000000
# 4 0.000000 0.000000 0.000000 0.045818 0.000000 0.000000
# 5 0.000000 0.000000 0.000000 0.000000 0.056624 0.000000
# 6 0.000000 0.000000 0.000000 0.000000 0.000000 0.103946
#
#
# Mechanical properties :
#
#
# Convention : Reuss Voigt Hill
#
# Bulk Modulus (GPa) = 34.21908 35.58913 34.90410
# Shear Modulus (GPa) = 18.22787 22.97610 20.60199
#
# Velocity S-wave (km/s) = 2.92065 3.27906 3.10503
# Velocity P-wave (km/s) = 5.23328 5.56697 5.40270
#
# Compressibility (1/GPa) = 0.02922347
#
# Stress axis : x y z
#
# Youngs Moduli (GPa) = 56.01796 102.05894 62.30471
#
# Poissons Ratio (x) = 0.31317 0.26603
# Poissons Ratio (y) = 0.17189 -0.00624
# Poissons Ratio (z) = 0.23919 -0.01023
#
# Static dielectric constant tensor:
#      x y z
#    x 1.820220 0.000000 0.000000 
#    y 0.000000 1.815910 0.000000 
#    z 0.000000 0.000000 1.831790 
# 
# From -- ./inp_files/7652.got.cif
#   From: 2010.05.17/outbox.cif.g08.bks.cpg/sg35_4_cif.got.tgz:7652.got - 2010.06.03 17:29:28.
