data_PCOD9349031
_publ_section_title
;
Structure prediction by ZEFSAII (Michael W. Deem and Ramdas Pophale) SiO2 
 PCOD9349031
Probable space group: C M M 2
;
_chemical_formula_sum "Si O2"
_cell_formula_units_Z 64
_cell_length_a 17.494399
_cell_length_b 14.332745
_cell_length_c 12.957885
_cell_angle_alpha 90.000000
_cell_angle_beta 90.000000
_cell_angle_gamma 90.000000
_cell_volume 3249.095846
_symmetry_space_group_name_H-M "C M M 2"
_symmetry_group_IT_number 35
_symmetry_cell_setting 'orthorhombic'
loop_
_space_group_symop_operation_xyz
x,y,z
-x,-y,z
-x,y,z
x,-y,z
1/2+x,1/2+y,z
1/2-x,1/2-y,z
1/2-x,1/2+y,z
1/2+x,1/2-y,z
loop_
_atom_site_type_symbol
_atom_site_label
_atom_site_fract_x
_atom_site_fract_y
_atom_site_fract_z
Si Si1 0.407905 0.108198 0.469320
Si Si2 0.909717 0.889841 0.768023
Si Si3 0.326188 0.387924 0.976074
Si Si4 0.842888 0.612306 0.043448
Si Si5 0.838880 0.271571 0.652714
Si Si6 0.091578 0.895534 0.188461
Si Si7 0.586888 0.111738 0.828246
Si Si8 0.592302 0.198973 0.251675
O O1 0.500000 0.114815 0.479692
O O2 0.369720 0.173744 0.553873
O O3 0.387814 0.142606 0.354386
O O4 0.386672 0.000000 0.484226
O O5 0.862069 0.856322 0.868417
O O6 0.884190 0.824319 0.674663
O O7 0.000000 0.880059 0.788861
O O8 0.894797 0.000000 0.750200
O O9 0.322049 0.500000 0.965765
O O10 0.241235 0.357336 0.005983
O O11 0.380593 0.370194 0.073441
O O12 0.842749 0.500000 0.056614
O O13 0.868303 0.657508 0.150141
O O14 0.898161 0.634996 0.947732
O O15 0.750000 0.250000 0.644159
O O16 0.856176 0.336987 0.751526
O O17 0.113805 0.808503 0.259685
O O18 0.000000 0.900348 0.188628
O O19 0.121117 0.000000 0.213598
O O20 0.500000 0.136200 0.798964
O O21 0.596106 0.000000 0.818395
O O22 0.500000 0.192956 0.238181
#
# Coordination Sequence:
#
# PCOD9349031 Si02
#       8
#     8   8   8   8   8   8   8   8
#     4  10  22  44  71  93 117 157 209 260 308 366
#     4  10  21  38  61  88 122 164 208 251 296 358
#     4   9  18  33  53  82 120 165 202 238 294 359
#     4  10  20  34  54  88 128 159 191 246 314 371
#     4  12  25  40  61  90 123 157 203 252 316 369
#     4   9  18  34  55  80 114 159 209 251 289 347
#     4  10  21  38  62  90 122 161 205 255 308 366
#     4  10  21  37  61  89 118 157 207 256 304 360
#
# _framework density 19.697787999999999
#
# number of rings (size 3 to 8) (size 9 to 14) (size 15 to 20)
#    0.000    2.000    0.000    3.375    1.750    6.250 
#    2.250    0.625    0.000    2.250    0.000    0.000 
#    0.000    0.000    0.000    0.000    0.000    0.000 
#
# Total GULP energy -178768.477337 kJ/mol
# GULP energy per Si atom -5586.514917 kJ/mol
# Density = 1.965296 g / cm^3
# Si number density = 19.697788 Si / 1000 Ang^3
#
#
#
# Elastic Constant Matrix: (Units=GPa)
#
#
# Indices 1 2 3 4 5 6 
#
# 1 60.2857 48.1113 52.3656 0.0000 0.0000 0.0000
# 2 48.1113 122.0731 68.8602 0.0000 0.0000 0.0000
# 3 52.3656 68.8602 118.9606 0.0000 0.0000 0.0000
# 4 0.0000 0.0000 0.0000 35.4849 0.0000 0.0000
# 5 0.0000 0.0000 0.0000 0.0000 -60.1881 0.0000
# 6 0.0000 0.0000 0.0000 0.0000 0.0000 22.7047
#
#
#
# Elastic Compliance Matrix: (Units=1/GPa)
#
#
# Indices 1 2 3 4 5 6 
#
# 1 0.029957 -0.006486 -0.009433 0.000000 0.000000 0.000000
# 2 -0.006486 0.013568 -0.004999 0.000000 0.000000 0.000000
# 3 -0.009433 -0.004999 0.015452 0.000000 0.000000 0.000000
# 4 0.000000 0.000000 0.000000 0.028181 0.000000 0.000000
# 5 0.000000 0.000000 0.000000 0.000000 -0.016615 0.000000
# 6 0.000000 0.000000 0.000000 0.000000 0.000000 0.044044
#
#
# Mechanical properties :
#
#
# Convention : Reuss Voigt Hill
#
# Bulk Modulus (GPa) = 58.33469 71.11038 64.72254
# Shear Modulus (GPa) = 30.83854 8.39912 19.61883
#
# Velocity S-wave (km/s) = 3.96104 2.06718 3.15936
# Velocity P-wave (km/s) = 7.11329 6.47122 6.79984
#
# Compressibility (1/GPa) = 0.01714246
#
# Stress axis : x y z
#
# Youngs Moduli (GPa) = 33.38110 73.70475 64.71767
#
# Poissons Ratio (x) = 0.47803 0.61045
# Poissons Ratio (y) = 0.21650 0.32350
# Poissons Ratio (z) = 0.31487 0.36842
#
# Static dielectric constant tensor:
#      x y z
#    x 1.710560 0.000000 0.000000 
#    y 0.000000 1.739850 0.000000 
#    z 0.000000 0.000000 1.648740 
# 
# From -- ./inp_files/13610.got.cif
#   From: 2010.05.17/outbox.cif.g08.bks.cpg/sg35_7_cif.got.tgz:13610.got - 2010.06.03 17:29:28.
