data_PCOD9349786
_publ_section_title
;
Structure prediction by ZEFSAII (Michael W. Deem and Ramdas Pophale) SiO2 
 PCOD9349786
Probable space group: C M M 2
;
_chemical_formula_sum "Si O2"
_cell_formula_units_Z 64
_cell_length_a 16.631202
_cell_length_b 14.486083
_cell_length_c 12.641393
_cell_angle_alpha 90.000000
_cell_angle_beta 90.000000
_cell_angle_gamma 90.000000
_cell_volume 3045.576696
_symmetry_space_group_name_H-M "C M M 2"
_symmetry_group_IT_number 35
_symmetry_cell_setting 'orthorhombic'
loop_
_space_group_symop_operation_xyz
x,y,z
-x,-y,z
-x,y,z
x,-y,z
1/2+x,1/2+y,z
1/2-x,1/2-y,z
1/2-x,1/2+y,z
1/2+x,1/2-y,z
loop_
_atom_site_type_symbol
_atom_site_label
_atom_site_fract_x
_atom_site_fract_y
_atom_site_fract_z
Si Si1 0.096236 0.102220 0.312380
Si Si2 0.659226 0.104121 0.724453
Si Si3 0.403983 0.891375 0.493219
Si Si4 0.404580 0.893547 0.098518
Si Si5 0.652936 0.762812 0.911748
Si Si6 0.089829 0.111664 0.544588
Si Si7 0.149676 0.104456 0.768404
Si Si8 0.839836 0.287152 0.288417
O O1 0.130868 0.123524 0.430656
O O2 0.114055 0.194613 0.249180
O O3 0.000000 0.094908 0.322286
O O4 0.125112 0.000000 0.278441
O O5 0.640323 0.130351 0.603776
O O6 0.628385 0.174269 0.811355
O O7 0.754179 0.101938 0.750861
O O8 0.627022 0.000000 0.738379
O O9 0.500000 0.881132 0.506262
O O10 0.373820 0.828082 0.397742
O O11 0.387938 0.000000 0.469689
O O12 0.500000 0.888159 0.122362
O O13 0.353860 0.866236 0.201844
O O14 0.387609 0.000000 0.065250
O O15 0.381688 0.817515 0.010900
O O16 0.750000 0.750000 0.924244
O O17 0.626040 0.662312 0.871324
O O18 0.122074 0.145786 0.655916
O O19 0.000000 0.149038 0.534678
O O20 0.087082 0.000000 0.553775
O O21 0.120023 0.000000 0.778436
O O22 0.750000 0.250000 0.298689
#
# Coordination Sequence:
#
# PCOD9349786 Si02
#       8
#     8   8   8   8   8   8   8   8
#     4   9  19  36  57  83 118 159 202 246 294 354
#     4   9  19  34  55  86 124 165 205 255 315 368
#     4  10  22  40  62  91 130 172 214 264 316 367
#     4  11  25  47  71  91 117 159 211 265 319 379
#     4  10  21  38  62  90 125 158 206 263 316 372
#     4   8  15  28  47  73 110 157 201 239 282 342
#     4   9  18  32  53  84 126 167 202 247 306 370
#     4  12  26  40  63  92 124 160 206 258 318 382
#
# _framework density 21.014081999999998
#
# number of rings (size 3 to 8) (size 9 to 14) (size 15 to 20)
#    0.000    2.250    0.000    3.000    3.500    4.000 
#    0.000    1.875    0.000    0.750    0.000    0.000 
#    0.000    0.000    0.000    0.000    0.000    0.000 
#
# Total GULP energy -178362.492390 kJ/mol
# GULP energy per Si atom -5573.827887 kJ/mol
# Density = 2.096625 g / cm^3
# Si number density = 21.014082 Si / 1000 Ang^3
#
#
#
# Elastic Constant Matrix: (Units=GPa)
#
#
# Indices 1 2 3 4 5 6 
#
# 1 33.6478 24.3999 10.9569 0.0000 0.0000 0.0000
# 2 24.3999 111.6283 32.8226 0.0000 0.0000 0.0000
# 3 10.9569 32.8226 61.0243 0.0000 0.0000 0.0000
# 4 0.0000 0.0000 0.0000 35.4238 0.0000 0.0000
# 5 0.0000 0.0000 0.0000 0.0000 3.1203 0.0000
# 6 0.0000 0.0000 0.0000 0.0000 0.0000 22.0342
#
#
#
# Elastic Compliance Matrix: (Units=1/GPa)
#
#
# Indices 1 2 3 4 5 6 
#
# 1 0.035669 -0.007024 -0.002626 0.000000 0.000000 0.000000
# 2 -0.007024 0.012025 -0.005206 0.000000 0.000000 0.000000
# 3 -0.002626 -0.005206 0.019659 0.000000 0.000000 0.000000
# 4 0.000000 0.000000 0.000000 0.028230 0.000000 0.000000
# 5 0.000000 0.000000 0.000000 0.000000 0.320480 0.000000
# 6 0.000000 0.000000 0.000000 0.000000 0.000000 0.045384
#
#
# Mechanical properties :
#
#
# Convention : Reuss Voigt Hill
#
# Bulk Modulus (GPa) = 26.56876 38.07323 32.32099
# Shear Modulus (GPa) = 9.92645 21.32374 15.62510
#
# Velocity S-wave (km/s) = 2.17577 3.18895 2.72978
# Velocity P-wave (km/s) = 4.35692 5.63174 5.03484
#
# Compressibility (1/GPa) = 0.03763819
#
# Stress axis : x y z
#
# Youngs Moduli (GPa) = 28.03592 83.16343 50.86802
#
# Poissons Ratio (x) = 0.58416 0.13359
# Poissons Ratio (y) = 0.19693 0.26483
# Poissons Ratio (z) = 0.07363 0.43297
#
# Static dielectric constant tensor:
#      x y z
#    x 1.750620 0.000000 0.000000 
#    y 0.000000 1.817190 0.000000 
#    z 0.000000 0.000000 1.764320 
# 
# From -- ./inp_files/13605.got.cif
#   From: 2010.05.17/outbox.cif.g08.bks.cpg/sg35_7_cif.got.tgz:13605.got - 2010.06.03 17:29:28.
