data_PCOD9349057
_publ_section_title
;
Structure prediction by ZEFSAII (Michael W. Deem and Ramdas Pophale) SiO2 
 PCOD9349057
Probable space group: C M M 2
;
_chemical_formula_sum "Si O2"
_cell_formula_units_Z 48
_cell_length_a 7.745955
_cell_length_b 24.363333
_cell_length_c 10.132101
_cell_angle_alpha 90.000000
_cell_angle_beta 90.000000
_cell_angle_gamma 90.000000
_cell_volume 1912.102552
_symmetry_space_group_name_H-M "C M M 2"
_symmetry_group_IT_number 35
_symmetry_cell_setting 'orthorhombic'
loop_
_space_group_symop_operation_xyz
x,y,z
-x,-y,z
-x,y,z
x,-y,z
1/2+x,1/2+y,z
1/2-x,1/2-y,z
1/2-x,1/2+y,z
1/2+x,1/2-y,z
loop_
_atom_site_type_symbol
_atom_site_label
_atom_site_fract_x
_atom_site_fract_y
_atom_site_fract_z
Si Si1 0.693098 0.187522 0.464860
Si Si2 0.205120 0.440806 0.091121
Si Si3 0.794895 0.807109 0.886599
Si Si4 0.198335 0.561335 0.502437
Si Si5 0.698209 0.673798 0.178041
Si Si6 0.293297 0.419984 0.788226
O O1 0.500000 0.181714 0.516125
O O2 0.750000 0.250000 0.508003
O O3 0.774457 0.124629 0.483481
O O4 0.699509 0.191302 0.305642
O O5 0.253282 0.500000 0.143882
O O6 0.298591 0.391923 0.164551
O O7 0.000000 0.432956 0.103595
O O8 0.249428 0.440045 0.935225
O O9 0.750000 0.750000 0.824846
O O10 0.724097 0.809073 0.036014
O O11 0.000000 0.813779 0.901653
O O12 0.736886 0.856689 0.797980
O O13 0.267076 0.500000 0.457802
O O14 0.203504 0.556620 0.661061
O O15 0.000000 0.563977 0.452426
O O16 0.500000 0.692499 0.190725
O O17 0.500000 0.425601 0.770677
#
# Coordination Sequence:
#
# PCOD9349057 Si02
#       6
#     8   8   8   8   8   8
#     4  11  24  42  64  89 120 159 203 252 304 362
#     4  10  20  34  55  84 118 156 196 239 293 359
#     4   9  19  33  51  79 113 147 184 230 284 344
#     4  10  23  43  64  86 115 155 203 252 303 360
#     4  10  21  37  57  84 117 152 195 246 299 355
#     4  10  21  36  55  83 117 151 192 243 298 356
#
# _framework density 25.103256999999999
#
# number of rings (size 3 to 8) (size 9 to 14) (size 15 to 20)
#    0.000    2.000    0.000    4.000    0.000   11.667 
#    0.000    5.000    0.000    0.000    0.000    0.000 
#    0.000    0.000    0.000    0.000    0.000    0.000 
#
# Total GULP energy -133845.630734 kJ/mol
# GULP energy per Si atom -5576.901281 kJ/mol
# Density = 2.504612 g / cm^3
# Si number density = 25.103257 Si / 1000 Ang^3
#
#
#
# Elastic Constant Matrix: (Units=GPa)
#
#
# Indices 1 2 3 4 5 6 
#
# 1 52.0526 11.5432 5.7997 0.0000 0.0000 0.0000
# 2 11.5432 250.1491 22.3566 0.0000 0.0000 0.0000
# 3 5.7997 22.3566 95.0298 0.0000 0.0000 0.0000
# 4 0.0000 0.0000 0.0000 -16.7560 0.0000 0.0000
# 5 0.0000 0.0000 0.0000 0.0000 10.7032 0.0000
# 6 0.0000 0.0000 0.0000 0.0000 0.0000 16.1004
#
#
#
# Elastic Compliance Matrix: (Units=1/GPa)
#
#
# Indices 1 2 3 4 5 6 
#
# 1 0.019502 -0.000811 -0.001000 0.000000 0.000000 0.000000
# 2 -0.000811 0.004117 -0.000919 0.000000 0.000000 0.000000
# 3 -0.001000 -0.000919 0.010800 0.000000 0.000000 0.000000
# 4 0.000000 0.000000 0.000000 -0.059680 0.000000 0.000000
# 5 0.000000 0.000000 0.000000 0.000000 0.093430 0.000000
# 6 0.000000 0.000000 0.000000 0.000000 0.000000 0.062110
#
#
# Mechanical properties :
#
#
# Convention : Reuss Voigt Hill
#
# Bulk Modulus (GPa) = 34.52881 52.95895 43.74388
# Shear Modulus (GPa) = 34.38968 25.84499 30.11734
#
# Velocity S-wave (km/s) = 3.70527 3.21214 3.46748
# Velocity P-wave (km/s) = 5.66480 5.90757 5.78746
#
# Compressibility (1/GPa) = 0.02896132
#
# Stress axis : x y z
#
# Youngs Moduli (GPa) = 51.27559 242.88547 92.59043
#
# Poissons Ratio (x) = 0.19689 0.09255
# Poissons Ratio (y) = 0.04156 0.08510
# Poissons Ratio (z) = 0.05125 0.22324
#
# Static dielectric constant tensor:
#      x y z
#    x 1.986000 0.000000 0.000000 
#    y 0.000000 2.150390 0.000000 
#    z 0.000000 0.000000 1.932960 
# 
# From -- ./inp_files/11384.got.cif
#   From: 2010.05.17/outbox.cif.g08.bks.cpg/sg35_6_cif.got.tgz:11384.got - 2010.06.03 17:29:28.
