data_PCOD9349994
_publ_section_title
;
Structure prediction by ZEFSAII (Michael W. Deem and Ramdas Pophale) SiO2 
 PCOD9349994
Probable space group: C M M 2
;
_chemical_formula_sum "Si O2"
_cell_formula_units_Z 48
_cell_length_a 15.247853
_cell_length_b 8.769670
_cell_length_c 19.474539
_cell_angle_alpha 90.000000
_cell_angle_beta 90.000000
_cell_angle_gamma 90.000000
_cell_volume 2604.108851
_symmetry_space_group_name_H-M "C M M 2"
_symmetry_group_IT_number 35
_symmetry_cell_setting 'orthorhombic'
loop_
_space_group_symop_operation_xyz
x,y,z
-x,-y,z
-x,y,z
x,-y,z
1/2+x,1/2+y,z
1/2-x,1/2-y,z
1/2-x,1/2+y,z
1/2+x,1/2-y,z
loop_
_atom_site_type_symbol
_atom_site_label
_atom_site_fract_x
_atom_site_fract_y
_atom_site_fract_z
Si Si1 0.151075 0.815429 0.292030
Si Si2 0.842442 0.317158 0.933845
Si Si3 0.842519 0.318525 0.643761
Si Si4 0.500000 0.316479 0.185823
Si Si5 0.605527 0.323514 0.787832
Si Si6 0.500000 0.183360 0.034209
Si Si7 0.500000 0.683578 0.555590
Si Si8 0.500000 0.685102 0.396995
O O1 0.250000 0.750000 0.291682
O O2 0.088420 0.770905 0.227474
O O3 0.088759 0.768518 0.356508
O O4 0.157920 0.000000 0.292480
O O5 0.839843 0.500000 0.929060
O O6 0.750000 0.250000 0.956047
O O7 0.864443 0.249895 0.859055
O O8 0.916201 0.272583 0.988630
O O9 0.843308 0.500000 0.639859
O O10 0.750000 0.250000 0.622046
O O11 0.859785 0.266281 0.722030
O O12 0.916765 0.247791 0.595829
O O13 0.500000 0.500000 0.185114
O O14 0.500000 0.254104 0.109258
O O15 0.500000 0.320323 0.785564
O O16 0.634565 0.500000 0.784161
O O17 0.500000 0.000000 0.040666
O O18 0.500000 0.500000 0.558904
O O19 0.500000 0.732002 0.476053
O O20 0.500000 0.500000 0.394770
#
# Coordination Sequence:
#
# PCOD9349994 Si02
#       8
#     8   8   8   4   8   4   4   4
#     4   9  18  36  60  88 116 150 189 229 277 332
#     4  11  23  40  59  83 114 150 193 241 293 347
#     4  12  25  41  61  85 117 156 198 246 296 351
#     4   9  20  37  58  82 116 153 188 227 278 340
#     4  11  22  38  62  87 113 148 194 245 296 351
#     4  10  23  40  58  81 116 152 189 236 284 338
#     4  11  22  40  62  87 120 156 194 241 294 350
#     4   8  18  37  60  84 118 155 187 228 282 340
#
# _framework density 18.432409
#
# number of rings (size 3 to 8) (size 9 to 14) (size 15 to 20)
#    0.000    1.667    1.667    4.250    0.000    4.000 
#    0.000    7.917    0.000    0.000    0.000    0.000 
#    0.000    0.000    0.000    0.000    0.000    0.000 
#
# Total GULP energy -134065.906132 kJ/mol
# GULP energy per Si atom -5586.079422 kJ/mol
# Density = 1.839046 g / cm^3
# Si number density = 18.432409 Si / 1000 Ang^3
#
#
#
# Elastic Constant Matrix: (Units=GPa)
#
#
# Indices 1 2 3 4 5 6 
#
# 1 195.3127 58.9125 100.3168 0.0000 0.0000 0.0000
# 2 58.9125 86.9017 54.4578 0.0000 0.0000 0.0000
# 3 100.3168 54.4578 172.4318 0.0000 0.0000 0.0000
# 4 0.0000 0.0000 0.0000 2.6713 0.0000 0.0000
# 5 0.0000 0.0000 0.0000 0.0000 -36.6216 0.0000
# 6 0.0000 0.0000 0.0000 0.0000 0.0000 32.7415
#
#
#
# Elastic Compliance Matrix: (Units=1/GPa)
#
#
# Indices 1 2 3 4 5 6 
#
# 1 0.007917 -0.003093 -0.003629 0.000000 0.000000 0.000000
# 2 -0.003093 0.015555 -0.003113 0.000000 0.000000 0.000000
# 3 -0.003629 -0.003113 0.008894 0.000000 0.000000 0.000000
# 4 0.000000 0.000000 0.000000 0.374347 0.000000 0.000000
# 5 0.000000 0.000000 0.000000 0.000000 -0.027306 0.000000
# 6 0.000000 0.000000 0.000000 0.000000 0.000000 0.030542
#
#
# Mechanical properties :
#
#
# Convention : Reuss Voigt Hill
#
# Bulk Modulus (GPa) = 78.76860 98.00228 88.38544
# Shear Modulus (GPa) = 11.52469 15.82217 13.67343
#
# Velocity S-wave (km/s) = 2.50319 2.93301 2.72658
# Velocity P-wave (km/s) = 7.15410 8.04698 7.61364
#
# Compressibility (1/GPa) = 0.01269541
#
# Stress axis : x y z
#
# Youngs Moduli (GPa) = 126.31295 64.28845 112.43624
#
# Poissons Ratio (x) = 0.19883 0.40804
# Poissons Ratio (y) = 0.39066 0.35004
# Poissons Ratio (z) = 0.45840 0.20015
#
# Static dielectric constant tensor:
#      x y z
#    x 1.625850 0.000000 0.000000 
#    y 0.000000 1.622580 0.000000 
#    z 0.000000 0.000000 1.613040 
# 
# From -- ./inp_files/17980.got.cif
#   From: 2010.05.17/outbox.cif.g08.bks.cpg/sg35_9_cif.got.tgz:17980.got - 2010.06.03 17:29:28.
