data_PCOD9349669
_publ_section_title
;
Structure prediction by ZEFSAII (Michael W. Deem and Ramdas Pophale) SiO2 
 PCOD9349669
Probable space group: C M M 2
;
_chemical_formula_sum "Si O2"
_cell_formula_units_Z 48
_cell_length_a 19.151643
_cell_length_b 8.174709
_cell_length_c 16.019578
_cell_angle_alpha 90.000000
_cell_angle_beta 90.000000
_cell_angle_gamma 90.000000
_cell_volume 2508.010849
_symmetry_space_group_name_H-M "C M M 2"
_symmetry_group_IT_number 35
_symmetry_cell_setting 'orthorhombic'
loop_
_space_group_symop_operation_xyz
x,y,z
-x,-y,z
-x,y,z
x,-y,z
1/2+x,1/2+y,z
1/2-x,1/2-y,z
1/2-x,1/2+y,z
1/2+x,1/2-y,z
loop_
_atom_site_type_symbol
_atom_site_label
_atom_site_fract_x
_atom_site_fract_y
_atom_site_fract_z
Si Si1 0.080569 0.700378 0.056420
Si Si2 0.829966 0.302421 0.214516
Si Si3 0.580262 0.304793 0.740111
Si Si4 0.670373 0.197629 0.401314
Si Si5 0.419819 0.802385 0.557265
Si Si6 0.669904 0.805168 0.897468
O O1 0.080509 0.500000 0.056103
O O2 0.118795 0.753961 0.141377
O O3 0.000000 0.752568 0.051546
O O4 0.125721 0.756937 0.977073
O O5 0.831302 0.500000 0.214540
O O6 0.750000 0.250000 0.198890
O O7 0.850398 0.246443 0.307982
O O8 0.500000 0.242500 0.750737
O O9 0.577970 0.500000 0.742905
O O10 0.605615 0.252276 0.648282
O O11 0.630152 0.244792 0.813299
O O12 0.750000 0.250000 0.413803
O O13 0.624079 0.257663 0.478274
O O14 0.666812 0.000000 0.401167
O O15 0.500000 0.746993 0.549835
O O16 0.419151 0.000000 0.556041
O O17 0.750000 0.750000 0.899154
O O18 0.669737 0.000000 0.902285
#
# Coordination Sequence:
#
# PCOD9349669 Si02
#       6
#     8   8   8   8   8   8
#     4   9  18  32  52  78 104 132 168 209 253 301
#     4   9  17  31  51  74 102 134 168 207 250 298
#     4  10  21  37  56  78 104 135 172 214 261 311
#     4   9  18  31  49  74 102 134 169 207 252 299
#     4   9  18  33  52  74 101 134 172 212 254 301
#     4  11  22  36  55  78 105 137 173 213 258 308
#
# _framework density 19.138673000000001
#
# number of rings (size 3 to 8) (size 9 to 14) (size 15 to 20)
#    0.000    2.500    0.000    2.000    0.000    3.667 
#    0.000    5.833    0.000    2.500    0.000    4.667 
#    0.000    0.000    0.000    0.000    0.000    0.000 
#
# Total GULP energy -133921.872595 kJ/mol
# GULP energy per Si atom -5580.078025 kJ/mol
# Density = 1.909511 g / cm^3
# Si number density = 19.138673 Si / 1000 Ang^3
#
#
#
# Elastic Constant Matrix: (Units=GPa)
#
#
# Indices 1 2 3 4 5 6 
#
# 1 133.7000 12.6627 135.2939 0.0000 0.0000 0.0000
# 2 12.6627 14.2291 19.1510 0.0000 0.0000 0.0000
# 3 135.2939 19.1510 224.2336 0.0000 0.0000 0.0000
# 4 0.0000 0.0000 0.0000 3.0516 0.0000 0.0000
# 5 0.0000 0.0000 0.0000 0.0000 42.2426 0.0000
# 6 0.0000 0.0000 0.0000 0.0000 0.0000 20.0254
#
#
#
# Elastic Compliance Matrix: (Units=1/GPa)
#
#
# Indices 1 2 3 4 5 6 
#
# 1 0.019241 -0.001692 -0.011465 0.000000 0.000000 0.000000
# 2 -0.001692 0.079555 -0.005773 0.000000 0.000000 0.000000
# 3 -0.011465 -0.005773 0.011870 0.000000 0.000000 0.000000
# 4 0.000000 0.000000 0.000000 0.327693 0.000000 0.000000
# 5 0.000000 0.000000 0.000000 0.000000 0.023673 0.000000
# 6 0.000000 0.000000 0.000000 0.000000 0.000000 0.049937
#
#
# Mechanical properties :
#
#
# Convention : Reuss Voigt Hill
#
# Bulk Modulus (GPa) = 13.73529 78.48644 46.11087
# Shear Modulus (GPa) = 8.70929 26.73426 17.72178
#
# Velocity S-wave (km/s) = 2.13553 3.74153 3.04627
# Velocity P-wave (km/s) = 3.64321 7.73070 6.04304
#
# Compressibility (1/GPa) = 0.07280516
#
# Stress axis : x y z
#
# Youngs Moduli (GPa) = 51.97137 12.56990 84.24437
#
# Poissons Ratio (x) = 0.02127 0.96586
# Poissons Ratio (y) = 0.08796 0.48637
# Poissons Ratio (z) = 0.59585 0.07257
#
# Static dielectric constant tensor:
#      x y z
#    x 1.642430 0.000000 0.000000 
#    y 0.000000 1.672760 0.000000 
#    z 0.000000 0.000000 1.669650 
# 
# From -- ./inp_files/15114.got.cif
#   From: 2010.05.17/outbox.cif.g08.bks.cpg/sg35_8_cif.got.tgz:15114.got - 2010.06.03 17:29:28.
