data_PCOD9349753
_publ_section_title
;
Structure prediction by ZEFSAII (Michael W. Deem and Ramdas Pophale) SiO2 
 PCOD9349753
Probable space group: C M M 2
;
_chemical_formula_sum "Si O2"
_cell_formula_units_Z 64
_cell_length_a 30.021991
_cell_length_b 8.603092
_cell_length_c 12.734345
_cell_angle_alpha 90.000000
_cell_angle_beta 90.000000
_cell_angle_gamma 90.000000
_cell_volume 3289.051466
_symmetry_space_group_name_H-M "C M M 2"
_symmetry_group_IT_number 35
_symmetry_cell_setting 'orthorhombic'
loop_
_space_group_symop_operation_xyz
x,y,z
-x,-y,z
-x,y,z
x,-y,z
1/2+x,1/2+y,z
1/2-x,1/2-y,z
1/2-x,1/2+y,z
1/2+x,1/2-y,z
loop_
_atom_site_type_symbol
_atom_site_label
_atom_site_fract_x
_atom_site_fract_y
_atom_site_fract_z
Si Si1 0.300618 0.186327 0.214620
Si Si2 0.199724 0.815007 0.996959
Si Si3 0.372945 0.313536 0.603790
Si Si4 0.945741 0.821772 0.214059
Si Si5 0.449321 0.186326 0.992353
Si Si6 0.300302 0.813259 0.446760
Si Si7 0.128189 0.313193 0.838615
Si Si8 0.948825 0.810183 0.443854
O O1 0.250000 0.250000 0.216638
O O2 0.318693 0.228345 0.329884
O O3 0.300213 0.000000 0.204745
O O4 0.320380 0.257974 0.108747
O O5 0.250000 0.750000 0.989431
O O6 0.170333 0.751461 0.902103
O O7 0.201196 0.000000 0.996273
O O8 0.373001 0.500000 0.609973
O O9 0.330653 0.257844 0.536873
O O10 0.372819 0.244634 0.719824
O O11 0.416133 0.262571 0.536531
O O12 0.932732 0.757000 0.328234
O O13 0.000000 0.823490 0.217824
O O14 0.930502 0.000000 0.204529
O O15 0.933470 0.731830 0.108991
O O16 0.500000 0.245692 0.978217
O O17 0.415399 0.241109 0.903434
O O18 0.450855 0.000000 0.987109
O O19 0.250000 0.750000 0.454419
O O20 0.299500 0.000000 0.454059
O O21 0.129547 0.500000 0.840426
O O22 0.000000 0.761360 0.460599
O O23 0.948837 0.000000 0.438974
#
# Coordination Sequence:
#
# PCOD9349753 Si02
#       8
#     8   8   8   8   8   8   8   8
#     4   9  17  32  56  86 117 147 180 220 271 331
#     4  11  22  38  61  87 115 146 183 227 278 332
#     4  11  23  38  57  82 110 144 191 238 279 327
#     4   8  14  28  53  83 112 142 178 220 269 328
#     4   9  19  36  57  81 111 146 181 224 278 329
#     4  10  21  38  60  85 115 149 184 225 275 330
#     4  11  24  41  57  77 110 149 191 235 278 330
#     4   8  16  33  56  82 113 146 179 222 275 327
#
# _framework density 19.458497000000001
#
# number of rings (size 3 to 8) (size 9 to 14) (size 15 to 20)
#    0.000    2.375    0.000    4.125    0.000    4.500 
#    0.000    6.250    0.000    2.625    0.000    0.000 
#    0.000    0.000    0.000    0.000    0.000    0.000 
#
# Total GULP energy -178615.775593 kJ/mol
# GULP energy per Si atom -5581.742987 kJ/mol
# Density = 1.941421 g / cm^3
# Si number density = 19.458497 Si / 1000 Ang^3
#
#
#
# Elastic Constant Matrix: (Units=GPa)
#
#
# Indices 1 2 3 4 5 6 
#
# 1 103.8730 28.1279 85.7784 0.0000 0.0000 0.0000
# 2 28.1279 61.4590 51.2806 0.0000 0.0000 0.0000
# 3 85.7784 51.2806 214.9241 0.0000 0.0000 0.0000
# 4 0.0000 0.0000 0.0000 33.5690 0.0000 0.0000
# 5 0.0000 0.0000 0.0000 0.0000 36.3877 0.0000
# 6 0.0000 0.0000 0.0000 0.0000 0.0000 13.9194
#
#
#
# Elastic Compliance Matrix: (Units=1/GPa)
#
#
# Indices 1 2 3 4 5 6 
#
# 1 0.014610 -0.002274 -0.005288 0.000000 0.000000 0.000000
# 2 -0.002274 0.020669 -0.004024 0.000000 0.000000 0.000000
# 3 -0.005288 -0.004024 0.007724 0.000000 0.000000 0.000000
# 4 0.000000 0.000000 0.000000 0.029789 0.000000 0.000000
# 5 0.000000 0.000000 0.000000 0.000000 0.027482 0.000000
# 6 0.000000 0.000000 0.000000 0.000000 0.000000 0.071842
#
#
# Mechanical properties :
#
#
# Convention : Reuss Voigt Hill
#
# Bulk Modulus (GPa) = 50.42854 78.95887 64.69370
# Shear Modulus (GPa) = 24.76478 31.11317 27.93897
#
# Velocity S-wave (km/s) = 3.57136 4.00303 3.79334
# Velocity P-wave (km/s) = 6.55579 7.87603 7.24604
#
# Compressibility (1/GPa) = 0.01983004
#
# Stress axis : x y z
#
# Youngs Moduli (GPa) = 68.44559 48.38064 129.47251
#
# Poissons Ratio (x) = 0.11002 0.68471
# Poissons Ratio (y) = 0.15564 0.52102
# Poissons Ratio (z) = 0.36197 0.19469
#
# Static dielectric constant tensor:
#      x y z
#    x 1.694400 0.000000 0.000000 
#    y 0.000000 1.663110 0.000000 
#    z 0.000000 0.000000 1.675080 
# 
# From -- ./inp_files/14590.got.cif
#   From: 2010.05.17/outbox.cif.g08.bks.cpg/sg35_8_cif.got.tgz:14590.got - 2010.06.03 17:29:28.
