data_PCOD9349407
_publ_section_title
;
Structure prediction by ZEFSAII (Michael W. Deem and Ramdas Pophale) SiO2 
 PCOD9349407
Probable space group: C M M 2
;
_chemical_formula_sum "Si O2"
_cell_formula_units_Z 58
_cell_length_a 7.444042
_cell_length_b 29.453649
_cell_length_c 12.546294
_cell_angle_alpha 90.000000
_cell_angle_beta 90.000000
_cell_angle_gamma 90.000000
_cell_volume 2750.827657
_symmetry_space_group_name_H-M "C M M 2"
_symmetry_group_IT_number 35
_symmetry_cell_setting 'orthorhombic'
loop_
_space_group_symop_operation_xyz
x,y,z
-x,-y,z
-x,y,z
x,-y,z
1/2+x,1/2+y,z
1/2-x,1/2-y,z
1/2-x,1/2+y,z
1/2+x,1/2-y,z
loop_
_atom_site_type_symbol
_atom_site_label
_atom_site_fract_x
_atom_site_fract_y
_atom_site_fract_z
Si Si1 0.281293 0.552046 0.772460
Si Si2 0.217645 0.947681 0.012559
Si Si3 0.500000 0.500000 0.352552
Si Si4 0.207578 0.883815 0.585863
Si Si5 0.213042 0.696638 0.731151
Si Si6 0.708717 0.916776 0.356163
Si Si7 0.297204 0.864951 0.156507
Si Si8 0.784756 0.696445 0.967772
O O1 0.500000 0.553423 0.773747
O O2 0.229908 0.500000 0.751826
O O3 0.215877 0.584707 0.680313
O O4 0.225393 0.564178 0.892179
O O5 0.297396 0.912761 0.094550
O O6 0.000000 0.944928 0.018999
O O7 0.265286 0.000000 0.033301
O O8 0.341407 0.459801 0.353255
O O9 0.215147 0.833606 0.634976
O O10 0.293255 0.894369 0.473120
O O11 0.000000 0.896947 0.572138
O O12 0.250000 0.750000 0.718764
O O13 0.283479 0.682712 0.849480
O O14 0.000000 0.690247 0.732312
O O15 0.500000 0.928510 0.328962
O O16 0.776634 0.878858 0.271335
O O17 0.500000 0.848203 0.175511
O O18 0.212384 0.830861 0.069744
O O19 0.750000 0.750000 0.978790
O O20 0.000000 0.689142 0.965620
#
# Coordination Sequence:
#
# PCOD9349407 Si02
#       8
#     8   8   2   8   8   8   8   8
#     4   8  16  30  50  79 113 150 191 240 298 363
#     4   9  18  31  51  79 110 147 192 240 294 361
#     4  12  26  48  68  90 122 172 226 272 308 380
#     4  11  21  36  61  87 122 162 208 260 313 378
#     4  10  20  36  61  91 124 161 206 259 320 389
#     4  11  26  44  65  93 126 167 218 267 319 370
#     4  10  22  38  56  81 119 157 197 256 312 369
#     4   9  19  37  60  90 123 159 203 254 318 383
#
# _framework density 21.084561999999998
#
# number of rings (size 3 to 8) (size 9 to 14) (size 15 to 20)
#    0.000    2.207    0.690    2.690    2.897    1.379 
#    0.000    1.379    0.000    3.310    0.000    0.000 
#    0.000    0.000    0.000    0.000    0.000    0.000 
#
# Total GULP energy -161614.107334 kJ/mol
# GULP energy per Si atom -5572.900253 kJ/mol
# Density = 2.103657 g / cm^3
# Si number density = 21.084562 Si / 1000 Ang^3
#
#
#
# Elastic Constant Matrix: (Units=GPa)
#
#
# Indices 1 2 3 4 5 6 
#
# 1 94.7449 1.6489 7.6460 0.0000 0.0000 0.0000
# 2 1.6489 48.1782 34.0684 0.0000 0.0000 0.0000
# 3 7.6460 34.0684 86.2785 0.0000 0.0000 0.0000
# 4 0.0000 0.0000 0.0000 20.0195 0.0000 0.0000
# 5 0.0000 0.0000 0.0000 0.0000 8.7581 0.0000
# 6 0.0000 0.0000 0.0000 0.0000 0.0000 18.5456
#
#
#
# Elastic Compliance Matrix: (Units=1/GPa)
#
#
# Indices 1 2 3 4 5 6 
#
# 1 0.010637 0.000420 -0.001108 0.000000 0.000000 0.000000
# 2 0.000420 0.028814 -0.011415 0.000000 0.000000 0.000000
# 3 -0.001108 -0.011415 0.016196 0.000000 0.000000 0.000000
# 4 0.000000 0.000000 0.000000 0.049951 0.000000 0.000000
# 5 0.000000 0.000000 0.000000 0.000000 0.114180 0.000000
# 6 0.000000 0.000000 0.000000 0.000000 0.000000 0.053921
#
#
# Mechanical properties :
#
#
# Convention : Reuss Voigt Hill
#
# Bulk Modulus (GPa) = 31.80704 35.10314 33.45509
# Shear Modulus (GPa) = 16.21349 21.85386 19.03367
#
# Velocity S-wave (km/s) = 2.77605 3.22294 3.00781
# Velocity P-wave (km/s) = 5.03919 5.52582 5.28811
#
# Compressibility (1/GPa) = 0.03143958
#
# Stress axis : x y z
#
# Youngs Moduli (GPa) = 94.01321 34.70580 61.74415
#
# Poissons Ratio (x) = -0.01457 0.06843
# Poissons Ratio (y) = -0.03946 0.70479
# Poissons Ratio (z) = 0.10420 0.39616
#
# Static dielectric constant tensor:
#      x y z
#    x 1.802130 0.000000 0.000000 
#    y 0.000000 1.725860 0.000000 
#    z 0.000000 0.000000 1.781850 
# 
# From -- ./inp_files/11823.got.cif
#   From: 2010.05.17/outbox.cif.g08.bks.cpg/sg35_6_cif.got.tgz:11823.got - 2010.06.03 17:29:28.
