data_PCOD9349739
_publ_section_title
;
Structure prediction by ZEFSAII (Michael W. Deem and Ramdas Pophale) SiO2 
 PCOD9349739
Probable space group: C M M 2
;
_chemical_formula_sum "Si O2"
_cell_formula_units_Z 40
_cell_length_a 15.671035
_cell_length_b 10.297556
_cell_length_c 13.080588
_cell_angle_alpha 90.000000
_cell_angle_beta 90.000000
_cell_angle_gamma 90.000000
_cell_volume 2110.858443
_symmetry_space_group_name_H-M "C M M 2"
_symmetry_group_IT_number 35
_symmetry_cell_setting 'orthorhombic'
loop_
_space_group_symop_operation_xyz
x,y,z
-x,-y,z
-x,y,z
x,-y,z
1/2+x,1/2+y,z
1/2-x,1/2-y,z
1/2-x,1/2+y,z
1/2+x,1/2-y,z
loop_
_atom_site_type_symbol
_atom_site_label
_atom_site_fract_x
_atom_site_fract_y
_atom_site_fract_z
Si Si1 0.762889 0.000000 0.632870
Si Si2 0.905248 0.345851 0.907373
Si Si3 0.250000 0.750000 0.772362
Si Si4 0.095783 0.000000 0.454136
Si Si5 0.353029 0.236129 0.351309
Si Si6 0.669821 0.846819 0.128355
Si Si7 0.902642 0.500000 0.497874
O O1 0.770975 0.872390 0.701363
O O2 0.832059 0.000000 0.541798
O O3 0.668075 0.000000 0.585455
O O4 0.901004 0.500000 0.885886
O O5 0.830877 0.279481 0.843648
O O6 0.000000 0.298741 0.881412
O O7 0.887912 0.331033 0.028325
O O8 0.108747 0.127048 0.384871
O O9 0.000000 0.000000 0.497531
O O10 0.250000 0.250000 0.358861
O O11 0.372670 0.193072 0.235597
O O12 0.385279 0.125773 0.427977
O O13 0.750000 0.750000 0.116096
O O14 0.695066 0.000000 0.134816
O O15 0.000000 0.500000 0.534850
#
# Coordination Sequence:
#
# PCOD9349739 Si02
#       7
#     4   8   4   4   8   8   4
#     4  12  26  44  66  92 128 166 216 278 322 370
#     4  10  22  43  69  98 130 165 211 260 319 387
#     4  12  24  44  70  92 126 164 220 270 326 370
#     4  12  26  44  65  93 132 171 211 264 327 374
#     4  11  21  41  66  95 133 172 211 253 313 383
#     4  10  21  37  68  99 131 172 208 252 313 383
#     4  12  24  42  67  95 124 167 223 262 309 386
#
# _framework density 18.949635000000001
#
# number of rings (size 3 to 8) (size 9 to 14) (size 15 to 20)
#    0.000    1.000    5.000    1.800    4.200    3.200 
#    0.000    0.000    0.000    0.000    0.000    0.000 
#    0.000    0.000    0.000    0.000    0.000    0.000 
#
# Total GULP energy -111797.804277 kJ/mol
# GULP energy per Si atom -5589.890214 kJ/mol
# Density = 1.890651 g / cm^3
# Si number density = 18.949635 Si / 1000 Ang^3
#
#
#
# Elastic Constant Matrix: (Units=GPa)
#
#
# Indices 1 2 3 4 5 6 
#
# 1 148.7216 41.1634 61.8828 0.0000 0.0000 0.0000
# 2 41.1634 143.9119 56.6041 0.0000 0.0000 0.0000
# 3 61.8828 56.6041 102.1744 0.0000 0.0000 0.0000
# 4 0.0000 0.0000 0.0000 -7.4480 0.0000 0.0000
# 5 0.0000 0.0000 0.0000 0.0000 -6.4761 0.0000
# 6 0.0000 0.0000 0.0000 0.0000 0.0000 131.1066
#
#
#
# Elastic Compliance Matrix: (Units=1/GPa)
#
#
# Indices 1 2 3 4 5 6 
#
# 1 0.009024 -0.000552 -0.005160 0.000000 0.000000 0.000000
# 2 -0.000552 0.008918 -0.004607 0.000000 0.000000 0.000000
# 3 -0.005160 -0.004607 0.015464 0.000000 0.000000 0.000000
# 4 0.000000 0.000000 0.000000 -0.134264 0.000000 0.000000
# 5 0.000000 0.000000 0.000000 0.000000 -0.154414 0.000000
# 6 0.000000 0.000000 0.000000 0.000000 0.000000 0.007627
#
#
# Mechanical properties :
#
#
# Convention : Reuss Voigt Hill
#
# Bulk Modulus (GPa) = 78.30605 79.34540 78.82572
# Shear Modulus (GPa) = -22.44652 39.11366 8.33357
#
# Velocity S-wave (km/s) = -3.44544 4.54815 2.09936
# Velocity P-wave (km/s) = 5.05815 8.33928 6.89668
#
# Compressibility (1/GPa) = 0.01277041
#
# Stress axis : x y z
#
# Youngs Moduli (GPa) = 110.82111 112.12794 64.66549
#
# Poissons Ratio (x) = 0.06185 0.33365
# Poissons Ratio (y) = 0.06113 0.29789
# Poissons Ratio (z) = 0.57179 0.51653
#
# Static dielectric constant tensor:
#      x y z
#    x 1.655620 0.000000 0.000000 
#    y 0.000000 1.633890 0.000000 
#    z 0.000000 0.000000 1.643070 
# 
# From -- ./inp_files/14852.got.cif
#   From: 2010.05.17/outbox.cif.g08.bks.cpg/sg35_8_cif.got.tgz:14852.got - 2010.06.03 17:29:28.
