data_PCOD9349481
_publ_section_title
;
Structure prediction by ZEFSAII (Michael W. Deem and Ramdas Pophale) SiO2 
 PCOD9349481
Probable space group: C M M 2
;
_chemical_formula_sum "Si O2"
_cell_formula_units_Z 40
_cell_length_a 9.081468
_cell_length_b 23.583689
_cell_length_c 10.249844
_cell_angle_alpha 90.000000
_cell_angle_beta 90.000000
_cell_angle_gamma 90.000000
_cell_volume 2195.255388
_symmetry_space_group_name_H-M "C M M 2"
_symmetry_group_IT_number 35
_symmetry_cell_setting 'orthorhombic'
loop_
_space_group_symop_operation_xyz
x,y,z
-x,-y,z
-x,y,z
x,-y,z
1/2+x,1/2+y,z
1/2-x,1/2-y,z
1/2-x,1/2+y,z
1/2+x,1/2-y,z
loop_
_atom_site_type_symbol
_atom_site_label
_atom_site_fract_x
_atom_site_fract_y
_atom_site_fract_z
Si Si1 0.671574 0.190336 0.566720
Si Si2 0.677295 0.500000 0.430311
Si Si3 0.176593 0.187801 0.066140
Si Si4 0.178068 0.500000 0.717717
Si Si5 0.672562 0.120253 0.833987
Si Si6 0.823226 0.123023 0.333159
O O1 0.500000 0.198924 0.537013
O O2 0.750000 0.250000 0.584597
O O3 0.683673 0.154658 0.699092
O O4 0.747172 0.156859 0.449544
O O5 0.500000 0.500000 0.447941
O O6 0.750747 0.500000 0.573682
O O7 0.717421 0.443007 0.351690
O O8 0.250000 0.250000 0.068124
O O9 0.215626 0.152320 0.196364
O O10 0.000000 0.194210 0.060485
O O11 0.233848 0.151866 0.943261
O O12 0.218776 0.556296 0.798105
O O13 0.000000 0.500000 0.701131
O O14 0.500000 0.119677 0.873238
O O15 0.000000 0.127009 0.346758
#
# Coordination Sequence:
#
# PCOD9349481 Si02
#       6
#     8   4   8   4   8   8
#     4  11  22  36  58  86 116 153 198 248 297 352
#     4  10  20  37  62  90 122 156 194 243 296 350
#     4  11  24  41  61  86 121 160 201 247 297 354
#     4  10  20  39  62  90 124 154 194 245 294 350
#     4  10  22  39  61  88 120 156 196 244 296 352
#     4  10  22  39  60  88 120 156 197 244 295 352
#
# _framework density 18.221115000000001
#
# number of rings (size 3 to 8) (size 9 to 14) (size 15 to 20)
#    0.000    1.600    2.000    2.400    0.000    8.000 
#    0.000    1.000    0.000    0.000    0.000    0.000 
#    0.000    0.000    0.000    0.000    0.000    0.000 
#
# Total GULP energy -111734.282348 kJ/mol
# GULP energy per Si atom -5586.714117 kJ/mol
# Density = 1.817964 g / cm^3
# Si number density = 18.221115 Si / 1000 Ang^3
#
#
#
# Elastic Constant Matrix: (Units=GPa)
#
#
# Indices 1 2 3 4 5 6 
#
# 1 39.8839 58.7792 52.6032 0.0000 0.0000 0.0000
# 2 58.7792 190.2985 66.9307 0.0000 0.0000 0.0000
# 3 52.6032 66.9307 109.4864 0.0000 0.0000 0.0000
# 4 0.0000 0.0000 0.0000 15.3858 0.0000 0.0000
# 5 0.0000 0.0000 0.0000 0.0000 117.3235 0.0000
# 6 0.0000 0.0000 0.0000 0.0000 0.0000 156.0765
#
#
#
# Elastic Compliance Matrix: (Units=1/GPa)
#
#
# Indices 1 2 3 4 5 6 
#
# 1 0.101357 -0.018063 -0.037655 0.000000 0.000000 0.000000
# 2 -0.018063 0.009913 0.002618 0.000000 0.000000 0.000000
# 3 -0.037655 0.002618 0.025624 0.000000 0.000000 0.000000
# 4 0.000000 0.000000 0.000000 0.064995 0.000000 0.000000
# 5 0.000000 0.000000 0.000000 0.000000 0.008523 0.000000
# 6 0.000000 0.000000 0.000000 0.000000 0.000000 0.006407
#
#
# Mechanical properties :
#
#
# Convention : Reuss Voigt Hill
#
# Bulk Modulus (GPa) = 32.57864 77.36612 54.97238
# Shear Modulus (GPa) = 15.00366 68.51421 41.75894
#
# Velocity S-wave (km/s) = 2.87265 6.13866 4.79246
# Velocity P-wave (km/s) = 5.37785 9.63307 7.80119
#
# Compressibility (1/GPa) = 0.03069496
#
# Stress axis : x y z
#
# Youngs Moduli (GPa) = 9.86612 100.87429 39.02527
#
# Poissons Ratio (x) = 1.82211 1.46950
# Poissons Ratio (y) = 0.17821 -0.10218
# Poissons Ratio (z) = 0.37151 -0.26413
#
# Static dielectric constant tensor:
#      x y z
#    x 1.612130 0.000000 0.000000 
#    y 0.000000 1.622440 0.000000 
#    z 0.000000 0.000000 1.584060 
# 
# From -- ./inp_files/5034.got.cif
#   From: 2010.05.17/outbox.cif.g08.bks.cpg/sg35_3_cif.got.tgz:5034.got - 2010.06.03 17:29:28.
