data_PCOD9349036
_publ_section_title
;
Structure prediction by ZEFSAII (Michael W. Deem and Ramdas Pophale) SiO2 
 PCOD9349036
Probable space group: C M M 2
;
_chemical_formula_sum "Si O2"
_cell_formula_units_Z 64
_cell_length_a 8.795075
_cell_length_b 18.966674
_cell_length_c 21.295013
_cell_angle_alpha 90.000000
_cell_angle_beta 90.000000
_cell_angle_gamma 90.000000
_cell_volume 3552.291825
_symmetry_space_group_name_H-M "C M M 2"
_symmetry_group_IT_number 35
_symmetry_cell_setting 'orthorhombic'
loop_
_space_group_symop_operation_xyz
x,y,z
-x,-y,z
-x,y,z
x,-y,z
1/2+x,1/2+y,z
1/2-x,1/2-y,z
1/2-x,1/2+y,z
1/2+x,1/2-y,z
loop_
_atom_site_type_symbol
_atom_site_label
_atom_site_fract_x
_atom_site_fract_y
_atom_site_fract_z
Si Si1 0.817724 0.829072 0.804190
Si Si2 0.317092 0.582030 0.418597
Si Si3 0.181788 0.416856 0.181924
Si Si4 0.318862 0.916975 0.551989
Si Si5 0.181453 0.671076 0.932308
Si Si6 0.818198 0.171454 0.665342
Si Si7 0.317074 0.671781 0.296376
Si Si8 0.680067 0.415959 0.046293
O O1 0.750000 0.750000 0.802062
O O2 0.744328 0.861008 0.866709
O O3 0.782077 0.859076 0.735060
O O4 0.000000 0.826344 0.811463
O O5 0.500000 0.584315 0.424478
O O6 0.273377 0.500000 0.407749
O O7 0.244719 0.605925 0.484207
O O8 0.272643 0.629698 0.359628
O O9 0.215031 0.500000 0.192717
O O10 0.254145 0.370708 0.236755
O O11 0.251083 0.397535 0.114247
O O12 0.000000 0.408033 0.180716
O O13 0.500000 0.908727 0.552915
O O14 0.246477 0.874708 0.609145
O O15 0.281975 0.000000 0.558239
O O16 0.250000 0.750000 0.937878
O O17 0.000000 0.675361 0.930018
O O18 0.237684 0.625905 0.991055
O O19 0.750000 0.250000 0.661384
O O20 0.000000 0.176189 0.660854
O O21 0.500000 0.674311 0.293465
O O22 0.250000 0.750000 0.297327
O O23 0.500000 0.401123 0.045326
O O24 0.701422 0.500000 0.037754
#
# Coordination Sequence:
#
# PCOD9349036 Si02
#       8
#     8   8   8   8   8   8   8   8
#     4   9  17  31  51  76 105 139 180 222 268 321
#     4   9  19  37  59  79 103 141 185 224 266 321
#     4  10  21  38  60  84 110 142 180 220 265 321
#     4  10  21  36  55  80 110 143 180 223 269 319
#     4  11  21  34  55  81 110 143 181 224 270 321
#     4  10  20  34  55  80 107 141 180 224 271 322
#     4  11  23  38  57  83 114 145 179 221 269 316
#     4  10  21  38  59  82 110 143 180 223 269 319
#
# _framework density 18.016538000000001
#
# number of rings (size 3 to 8) (size 9 to 14) (size 15 to 20)
#    0.000    2.000    0.000    4.500    0.000    6.250 
#    0.000    5.625    0.000    0.750    0.000    0.000 
#    0.000    0.000    0.000    0.000    0.000    0.000 
#
# Total GULP energy -178652.561792 kJ/mol
# GULP energy per Si atom -5582.892556 kJ/mol
# Density = 1.797553 g / cm^3
# Si number density = 18.016538 Si / 1000 Ang^3
#
#
#
# Elastic Constant Matrix: (Units=GPa)
#
#
# Indices 1 2 3 4 5 6 
#
# 1 91.7156 51.3273 88.6145 0.0000 0.0000 0.0000
# 2 51.3273 62.4587 91.7394 0.0000 0.0000 0.0000
# 3 88.6145 91.7394 221.8886 0.0000 0.0000 0.0000
# 4 0.0000 0.0000 0.0000 33.3663 0.0000 0.0000
# 5 0.0000 0.0000 0.0000 0.0000 32.1976 0.0000
# 6 0.0000 0.0000 0.0000 0.0000 0.0000 23.3161
#
#
#
# Elastic Compliance Matrix: (Units=1/GPa)
#
#
# Indices 1 2 3 4 5 6 
#
# 1 0.021040 -0.012600 -0.003193 0.000000 0.000000 0.000000
# 2 -0.012600 0.048313 -0.014943 0.000000 0.000000 0.000000
# 3 -0.003193 -0.014943 0.011960 0.000000 0.000000 0.000000
# 4 0.000000 0.000000 0.000000 0.029970 0.000000 0.000000
# 5 0.000000 0.000000 0.000000 0.000000 0.031058 0.000000
# 6 0.000000 0.000000 0.000000 0.000000 0.000000 0.042889
#
#
# Mechanical properties :
#
#
# Convention : Reuss Voigt Hill
#
# Bulk Modulus (GPa) = 50.40084 93.26948 71.83516
# Shear Modulus (GPa) = 19.73812 27.40145 23.56978
#
# Velocity S-wave (km/s) = 3.31351 3.90411 3.62087
# Velocity P-wave (km/s) = 6.53258 8.49729 7.57887
#
# Compressibility (1/GPa) = 0.01984094
#
# Stress axis : x y z
#
# Youngs Moduli (GPa) = 47.52881 20.69818 83.61107
#
# Poissons Ratio (x) = 0.26080 0.26698
# Poissons Ratio (y) = 0.59887 1.24940
# Poissons Ratio (z) = 0.15176 0.30929
#
# Static dielectric constant tensor:
#      x y z
#    x 1.599360 0.000000 0.000000 
#    y 0.000000 1.596560 0.000000 
#    z 0.000000 0.000000 1.617250 
# 
# From -- ./inp_files/18452.got.cif
#   From: 2010.05.17/outbox.cif.g08.bks.cpg/sg35_10_cif.got.tgz:18452.got - 2010.06.03 17:29:28.
