data_PCOD9349536
_publ_section_title
;
Structure prediction by ZEFSAII (Michael W. Deem and Ramdas Pophale) SiO2 
 PCOD9349536
Probable space group: C M M 2
;
_chemical_formula_sum "Si O2"
_cell_formula_units_Z 40
_cell_length_a 8.643860
_cell_length_b 14.828319
_cell_length_c 17.089613
_cell_angle_alpha 90.000000
_cell_angle_beta 90.000000
_cell_angle_gamma 90.000000
_cell_volume 2190.442578
_symmetry_space_group_name_H-M "C M M 2"
_symmetry_group_IT_number 35
_symmetry_cell_setting 'orthorhombic'
loop_
_space_group_symop_operation_xyz
x,y,z
-x,-y,z
-x,y,z
x,-y,z
1/2+x,1/2+y,z
1/2-x,1/2-y,z
1/2-x,1/2+y,z
1/2+x,1/2-y,z
loop_
_atom_site_type_symbol
_atom_site_label
_atom_site_fract_x
_atom_site_fract_y
_atom_site_fract_z
Si Si1 0.812268 0.500000 0.586550
Si Si2 0.686342 0.148435 0.711853
Si Si3 0.183806 0.500000 0.001949
Si Si4 0.815023 0.149581 0.294300
Si Si5 0.685767 0.350905 0.116539
Si Si6 0.185341 0.500000 0.407745
Si Si7 0.315315 0.500000 0.827910
O O1 0.766445 0.411000 0.635644
O O2 0.757795 0.500000 0.497372
O O3 0.000000 0.500000 0.585517
O O4 0.500000 0.151044 0.715090
O O5 0.750000 0.250000 0.710989
O O6 0.748138 0.088244 0.783926
O O7 0.238011 0.585488 0.052617
O O8 0.000000 0.500000 0.992240
O O9 0.263611 0.500000 0.917599
O O10 0.750000 0.250000 0.302553
O O11 0.777108 0.118486 0.205546
O O12 0.744364 0.085659 0.359521
O O13 0.000000 0.150231 0.300986
O O14 0.500000 0.351904 0.108212
O O15 0.750000 0.250000 0.108676
O O16 0.000000 0.500000 0.408823
O O17 0.500000 0.500000 0.821308
#
# Coordination Sequence:
#
# PCOD9349536 Si02
#       7
#     4   8   4   8   8   4   4
#     4   8  19  37  56  82 116 148 184 230 275 328
#     4  10  20  39  63  86 113 146 183 225 277 333
#     4  12  24  38  58  85 116 149 184 227 280 331
#     4  10  21  37  56  80 111 149 192 236 281 330
#     4  10  21  38  58  81 111 148 191 236 281 330
#     4  11  21  35  56  83 115 150 187 231 282 331
#     4  11  23  40  60  86 115 145 185 228 273 328
#
# _framework density 18.261150000000001
#
# number of rings (size 3 to 8) (size 9 to 14) (size 15 to 20)
#    0.000    1.800    0.000    5.100    0.000    6.400 
#    0.000   12.000    0.000    0.000    0.000    0.000 
#    0.000    0.000    0.000    0.000    0.000    0.000 
#
# Total GULP energy -111726.590771 kJ/mol
# GULP energy per Si atom -5586.329539 kJ/mol
# Density = 1.821959 g / cm^3
# Si number density = 18.261150 Si / 1000 Ang^3
#
#
#
# Elastic Constant Matrix: (Units=GPa)
#
#
# Indices 1 2 3 4 5 6 
#
# 1 90.0034 49.2056 56.2784 0.0000 0.0000 0.0000
# 2 49.2056 150.6610 97.3309 0.0000 0.0000 0.0000
# 3 56.2784 97.3309 176.2543 0.0000 0.0000 0.0000
# 4 0.0000 0.0000 0.0000 28.5454 0.0000 0.0000
# 5 0.0000 0.0000 0.0000 0.0000 27.2168 0.0000
# 6 0.0000 0.0000 0.0000 0.0000 0.0000 36.6748
#
#
#
# Elastic Compliance Matrix: (Units=1/GPa)
#
#
# Indices 1 2 3 4 5 6 
#
# 1 0.014568 -0.002725 -0.003147 0.000000 0.000000 0.000000
# 2 -0.002725 0.010828 -0.005109 0.000000 0.000000 0.000000
# 3 -0.003147 -0.005109 0.009500 0.000000 0.000000 0.000000
# 4 0.000000 0.000000 0.000000 0.035032 0.000000 0.000000
# 5 0.000000 0.000000 0.000000 0.000000 0.036742 0.000000
# 6 0.000000 0.000000 0.000000 0.000000 0.000000 0.027267
#
#
# Mechanical properties :
#
#
# Convention : Reuss Voigt Hill
#
# Bulk Modulus (GPa) = 77.31709 91.39430 84.35569
# Shear Modulus (GPa) = 31.20888 32.76099 31.98494
#
# Velocity S-wave (km/s) = 4.13853 4.24019 4.18967
# Velocity P-wave (km/s) = 8.07887 8.60984 8.34858
#
# Compressibility (1/GPa) = 0.01293375
#
# Stress axis : x y z
#
# Youngs Moduli (GPa) = 68.64275 92.35115 105.26354
#
# Poissons Ratio (x) = 0.25166 0.33125
# Poissons Ratio (y) = 0.18705 0.53784
# Poissons Ratio (z) = 0.21601 0.47186
#
# Static dielectric constant tensor:
#      x y z
#    x 1.611840 0.000000 0.000000 
#    y 0.000000 1.566150 0.000000 
#    z 0.000000 0.000000 1.615180 
# 
# From -- ./inp_files/14842.got.cif
#   From: 2010.05.17/outbox.cif.g08.bks.cpg/sg35_8_cif.got.tgz:14842.got - 2010.06.03 17:29:28.
