data_PCOD9349375
_publ_section_title
;
Structure prediction by ZEFSAII (Michael W. Deem and Ramdas Pophale) SiO2 
 PCOD9349375
Probable space group: C M M 2
;
_chemical_formula_sum "Si O2"
_cell_formula_units_Z 64
_cell_length_a 29.712254
_cell_length_b 8.834279
_cell_length_c 12.707579
_cell_angle_alpha 90.000000
_cell_angle_beta 90.000000
_cell_angle_gamma 90.000000
_cell_volume 3335.565922
_symmetry_space_group_name_H-M "C M M 2"
_symmetry_group_IT_number 35
_symmetry_cell_setting 'orthorhombic'
loop_
_space_group_symop_operation_xyz
x,y,z
-x,-y,z
-x,y,z
x,-y,z
1/2+x,1/2+y,z
1/2-x,1/2-y,z
1/2-x,1/2+y,z
1/2+x,1/2-y,z
loop_
_atom_site_type_symbol
_atom_site_label
_atom_site_fract_x
_atom_site_fract_y
_atom_site_fract_z
Si Si1 0.800180 0.682282 0.931360
Si Si2 0.125752 0.818504 0.080505
Si Si3 0.053775 0.822267 0.470147
Si Si4 0.299974 0.182750 0.470441
Si Si5 0.377549 0.181015 0.311565
Si Si6 0.699836 0.817996 0.700782
Si Si7 0.054774 0.671597 0.689220
Si Si8 0.447675 0.318452 0.909072
O O1 0.798480 0.500000 0.938509
O O2 0.750000 0.750000 0.938399
O O3 0.819422 0.725656 0.814838
O O4 0.831120 0.749826 0.021824
O O5 0.121355 0.755561 0.197522
O O6 0.128868 0.000000 0.082985
O O7 0.083161 0.775920 0.007413
O O8 0.080184 0.730676 0.381865
O O9 0.067437 0.765567 0.586292
O O10 0.000000 0.799827 0.460463
O O11 0.063192 0.000000 0.459196
O O12 0.250000 0.250000 0.459100
O O13 0.333554 0.230145 0.378277
O O14 0.319162 0.226583 0.586562
O O15 0.296741 0.000000 0.468210
O O16 0.376505 0.000000 0.301235
O O17 0.750000 0.750000 0.700385
O O18 0.702351 0.000000 0.701387
O O19 0.071746 0.500000 0.679934
O O20 0.068036 0.742701 0.800413
O O21 0.000000 0.668358 0.690194
O O22 0.500000 0.277189 0.926605
O O23 0.445635 0.500000 0.895960
#
# Coordination Sequence:
#
# PCOD9349375 Si02
#       8
#     8   8   8   8   8   8   8   8
#     4  10  20  36  59  85 114 147 183 228 283 341
#     4  11  24  40  57  80 111 149 196 242 285 339
#     4  10  21  38  60  85 115 151 189 231 282 338
#     4   9  19  36  58  84 113 145 180 223 276 332
#     4  11  24  40  57  81 113 149 195 243 285 335
#     4   8  15  30  53  81 110 138 171 215 270 331
#     4   9  17  31  55  87 118 146 180 225 279 338
#     4   9  19  37  59  82 111 147 186 231 283 339
#
# _framework density 19.187148000000001
#
# number of rings (size 3 to 8) (size 9 to 14) (size 15 to 20)
#    0.000    2.375    0.000    1.875    0.000    6.750 
#    0.000    3.750    0.000    0.000    0.000    0.000 
#    0.000    0.000    0.000    0.000    0.000    0.000 
#
# Total GULP energy -178603.389112 kJ/mol
# GULP energy per Si atom -5581.355910 kJ/mol
# Density = 1.914348 g / cm^3
# Si number density = 19.187148 Si / 1000 Ang^3
#
#
#
# Elastic Constant Matrix: (Units=GPa)
#
#
# Indices 1 2 3 4 5 6 
#
# 1 69.6607 33.0074 52.3324 0.0000 0.0000 0.0000
# 2 33.0074 46.7119 53.2183 0.0000 0.0000 0.0000
# 3 52.3324 53.2183 181.5808 0.0000 0.0000 0.0000
# 4 0.0000 0.0000 0.0000 35.3461 0.0000 0.0000
# 5 0.0000 0.0000 0.0000 0.0000 32.3724 0.0000
# 6 0.0000 0.0000 0.0000 0.0000 0.0000 22.9776
#
#
#
# Elastic Compliance Matrix: (Units=1/GPa)
#
#
# Indices 1 2 3 4 5 6 
#
# 1 0.022450 -0.012749 -0.002734 0.000000 0.000000 0.000000
# 2 -0.012749 0.039379 -0.007867 0.000000 0.000000 0.000000
# 3 -0.002734 -0.007867 0.008601 0.000000 0.000000 0.000000
# 4 0.000000 0.000000 0.000000 0.028292 0.000000 0.000000
# 5 0.000000 0.000000 0.000000 0.000000 0.030891 0.000000
# 6 0.000000 0.000000 0.000000 0.000000 0.000000 0.043521
#
#
# Mechanical properties :
#
#
# Convention : Reuss Voigt Hill
#
# Bulk Modulus (GPa) = 42.13993 63.89660 53.01826
# Shear Modulus (GPa) = 21.95461 28.76557 25.36009
#
# Velocity S-wave (km/s) = 3.38632 3.87616 3.63949
# Velocity P-wave (km/s) = 6.10736 7.30800 6.73449
#
# Compressibility (1/GPa) = 0.02373046
#
# Stress axis : x y z
#
# Youngs Moduli (GPa) = 44.54382 25.39396 116.26900
#
# Poissons Ratio (x) = 0.32375 0.31783
# Poissons Ratio (y) = 0.56789 0.91470
# Poissons Ratio (z) = 0.12176 0.19978
#
# Static dielectric constant tensor:
#      x y z
#    x 1.670130 0.000000 0.000000 
#    y 0.000000 1.644230 0.000000 
#    z 0.000000 0.000000 1.657500 
# 
# From -- ./inp_files/12020.got.cif
#   From: 2010.05.17/outbox.cif.g08.bks.cpg/sg35_7_cif.got.tgz:12020.got - 2010.06.03 17:29:28.
