data_PCOD9349704
_publ_section_title
;
Structure prediction by ZEFSAII (Michael W. Deem and Ramdas Pophale) SiO2 
 PCOD9349704
Probable space group: C M M 2
;
_chemical_formula_sum "Si O2"
_cell_formula_units_Z 58
_cell_length_a 7.831660
_cell_length_b 19.480120
_cell_length_c 18.191970
_cell_angle_alpha 90.000000
_cell_angle_beta 90.000000
_cell_angle_gamma 90.000000
_cell_volume 2775.397444
_symmetry_space_group_name_H-M "C M M 2"
_symmetry_group_IT_number 35
_symmetry_cell_setting 'orthorhombic'
loop_
_space_group_symop_operation_xyz
x,y,z
-x,-y,z
-x,y,z
x,-y,z
1/2+x,1/2+y,z
1/2-x,1/2-y,z
1/2-x,1/2+y,z
1/2+x,1/2-y,z
loop_
_atom_site_type_symbol
_atom_site_label
_atom_site_fract_x
_atom_site_fract_y
_atom_site_fract_z
Si Si1 0.205643 0.078262 0.733670
Si Si2 0.705877 0.830086 0.034167
Si Si3 0.293478 0.921247 0.171809
Si Si4 0.794904 0.829052 0.597926
Si Si5 0.000000 0.000000 0.427983
Si Si6 0.690095 0.889916 0.443095
Si Si7 0.699397 0.322905 0.301943
Si Si8 0.794889 0.421355 0.898811
O O1 0.265005 0.126665 0.667978
O O2 0.253624 0.100688 0.815801
O O3 0.000000 0.076598 0.730271
O O4 0.268497 0.000000 0.723903
O O5 0.500000 0.834125 0.034389
O O6 0.750000 0.750000 0.036989
O O7 0.767059 0.873659 0.104522
O O8 0.768410 0.868898 0.960642
O O9 0.500000 0.922612 0.169591
O O10 0.240282 0.885140 0.247213
O O11 0.233745 0.000000 0.166417
O O12 0.750000 0.750000 0.608743
O O13 0.714338 0.856641 0.522941
O O14 0.000000 0.836668 0.591721
O O15 0.847717 0.058954 0.430260
O O16 0.500000 0.920615 0.438837
O O17 0.703626 0.834107 0.378168
O O18 0.500000 0.321833 0.316517
O O19 0.750000 0.250000 0.267131
O O20 0.730923 0.500000 0.909113
O O21 0.000000 0.424318 0.905387
#
# Coordination Sequence:
#
# PCOD9349704 Si02
#       8
#     8   8   8   8   2   8   8   8
#     4   9  20  37  60  86 120 161 202 260 322 379
#     4  10  21  37  58  85 119 158 202 255 313 380
#     4  10  22  40  63  91 122 161 209 260 322 388
#     4  11  23  41  64  91 129 169 217 270 326 391
#     4  12  26  48  68 106 136 168 218 284 316 394
#     4  12  26  45  71 100 134 176 219 270 332 387
#     4  12  25  44  66  94 131 171 217 267 323 388
#     4   9  18  35  58  83 114 153 201 255 311 377
#
# _framework density 20.897905999999999
#
# number of rings (size 3 to 8) (size 9 to 14) (size 15 to 20)
#    0.000    1.517    1.379    3.103    1.931    5.793 
#    0.000    2.759    0.000    2.483    0.000    0.000 
#    0.000    0.000    0.000    0.000    0.000    0.000 
#
# Total GULP energy -161821.053942 kJ/mol
# GULP energy per Si atom -5580.036343 kJ/mol
# Density = 2.085034 g / cm^3
# Si number density = 20.897906 Si / 1000 Ang^3
#
#
#
# Elastic Constant Matrix: (Units=GPa)
#
#
# Indices 1 2 3 4 5 6 
#
# 1 92.1280 26.5208 20.3408 0.0000 0.0000 0.0000
# 2 26.5208 130.4402 67.1993 0.0000 0.0000 0.0000
# 3 20.3408 67.1993 132.2404 0.0000 0.0000 0.0000
# 4 0.0000 0.0000 0.0000 18.8019 0.0000 0.0000
# 5 0.0000 0.0000 0.0000 0.0000 26.3573 0.0000
# 6 0.0000 0.0000 0.0000 0.0000 0.0000 -6.1752
#
#
#
# Elastic Compliance Matrix: (Units=1/GPa)
#
#
# Indices 1 2 3 4 5 6 
#
# 1 0.011590 -0.001948 -0.000793 0.000000 0.000000 0.000000
# 2 -0.001948 0.010712 -0.005144 0.000000 0.000000 0.000000
# 3 -0.000793 -0.005144 0.010298 0.000000 0.000000 0.000000
# 4 0.000000 0.000000 0.000000 0.053186 0.000000 0.000000
# 5 0.000000 0.000000 0.000000 0.000000 0.037940 0.000000
# 6 0.000000 0.000000 0.000000 0.000000 0.000000 -0.161937
#
#
# Mechanical properties :
#
#
# Convention : Reuss Voigt Hill
#
# Bulk Modulus (GPa) = 59.41468 64.77002 62.09235
# Shear Modulus (GPa) = -297.08633 23.84666 -136.61984
#
# Velocity S-wave (km/s) = -11.93606 3.38169 -8.09425
# Velocity P-wave (km/s) = 12.70695 6.80504 7.58808
#
# Compressibility (1/GPa) = 0.01683086
#
# Stress axis : x y z
#
# Youngs Moduli (GPa) = 86.27907 93.34911 97.10698
#
# Poissons Ratio (x) = 0.18185 0.07699
# Poissons Ratio (y) = 0.16808 0.49952
# Poissons Ratio (z) = 0.06841 0.48019
#
# Static dielectric constant tensor:
#      x y z
#    x 1.757870 0.000000 0.000000 
#    y 0.000000 1.728170 0.000000 
#    z 0.000000 0.000000 1.729390 
# 
# From -- ./inp_files/18141.got.cif
#   From: 2010.05.17/outbox.cif.g08.bks.cpg/sg35_10_cif.got.tgz:18141.got - 2010.06.03 17:29:28.
