data_PCOD9349717
_publ_section_title
;
Structure prediction by ZEFSAII (Michael W. Deem and Ramdas Pophale) SiO2 
 PCOD9349717
Probable space group: C M M 2
;
_chemical_formula_sum "Si O2"
_cell_formula_units_Z 56
_cell_length_a 18.446298
_cell_length_b 8.858455
_cell_length_c 18.390680
_cell_angle_alpha 90.000000
_cell_angle_beta 90.000000
_cell_angle_gamma 90.000000
_cell_volume 3005.141953
_symmetry_space_group_name_H-M "C M M 2"
_symmetry_group_IT_number 35
_symmetry_cell_setting 'orthorhombic'
loop_
_space_group_symop_operation_xyz
x,y,z
-x,-y,z
-x,y,z
x,-y,z
1/2+x,1/2+y,z
1/2-x,1/2-y,z
1/2-x,1/2+y,z
1/2+x,1/2-y,z
loop_
_atom_site_type_symbol
_atom_site_label
_atom_site_fract_x
_atom_site_fract_y
_atom_site_fract_z
Si Si1 0.415370 0.181680 0.616280
Si Si2 0.329718 0.680924 0.186493
Si Si3 0.830112 0.319004 0.468985
Si Si4 0.584563 0.318173 0.333258
Si Si5 0.585501 0.180034 0.051549
Si Si6 0.084817 0.818964 0.896822
Si Si7 0.670160 0.318828 0.751343
O O1 0.500000 0.222418 0.610747
O O2 0.373045 0.222530 0.542557
O O3 0.378203 0.259319 0.685011
O O4 0.410637 0.000000 0.624640
O O5 0.325064 0.500000 0.182865
O O6 0.250000 0.750000 0.193554
O O7 0.377326 0.722061 0.257172
O O8 0.368323 0.742820 0.114455
O O9 0.825405 0.500000 0.465350
O O10 0.750000 0.250000 0.470192
O O11 0.873688 0.258067 0.399683
O O12 0.500000 0.275329 0.332692
O O13 0.588941 0.500000 0.341093
O O14 0.500000 0.216936 0.061295
O O15 0.593724 0.000000 0.055028
O O16 0.606643 0.239115 0.971663
O O17 0.132730 0.775028 0.827696
O O18 0.000000 0.783064 0.882658
O O19 0.090080 0.000000 0.906367
O O20 0.673959 0.500000 0.748433
O O21 0.750000 0.250000 0.745979
#
# Coordination Sequence:
#
# PCOD9349717 Si02
#       7
#     8   8   8   8   8   8   8
#     4  10  22  40  61  86 116 150 190 236 286 340
#     4  11  23  39  59  84 116 152 190 235 287 340
#     4  11  23  39  60  87 119 154 191 233 284 338
#     4  10  22  40  62  88 116 149 191 236 284 339
#     4  10  21  37  59  87 116 149 191 235 282 339
#     4   9  19  37  59  82 111 149 192 237 286 340
#     4  11  23  38  58  85 116 152 193 236 285 339
#
# _framework density 18.634727000000002
#
# number of rings (size 3 to 8) (size 9 to 14) (size 15 to 20)
#    0.000    1.714    0.000    3.857    0.000    9.429 
#    0.000    2.857    0.000    0.000    0.000    0.000 
#    0.000    0.000    0.000    0.000    0.000    0.000 
#
# Total GULP energy -156538.822086 kJ/mol
# GULP energy per Si atom -5590.672217 kJ/mol
# Density = 1.859231 g / cm^3
# Si number density = 18.634727 Si / 1000 Ang^3
#
#
#
# Elastic Constant Matrix: (Units=GPa)
#
#
# Indices 1 2 3 4 5 6 
#
# 1 181.0365 66.1559 128.8974 0.0000 0.0000 0.0000
# 2 66.1559 43.8313 70.2367 0.0000 0.0000 0.0000
# 3 128.8974 70.2367 195.6340 0.0000 0.0000 0.0000
# 4 0.0000 0.0000 0.0000 3.5659 0.0000 0.0000
# 5 0.0000 0.0000 0.0000 0.0000 199.2372 0.0000
# 6 0.0000 0.0000 0.0000 0.0000 0.0000 23.3575
#
#
#
# Elastic Compliance Matrix: (Units=1/GPa)
#
#
# Indices 1 2 3 4 5 6 
#
# 1 0.013355 -0.014262 -0.003679 0.000000 0.000000 0.000000
# 2 -0.014262 0.068951 -0.015358 0.000000 0.000000 0.000000
# 3 -0.003679 -0.015358 0.013049 0.000000 0.000000 0.000000
# 4 0.000000 0.000000 0.000000 0.280431 0.000000 0.000000
# 5 0.000000 0.000000 0.000000 0.000000 0.005019 0.000000
# 6 0.000000 0.000000 0.000000 0.000000 0.000000 0.042813
#
#
# Mechanical properties :
#
#
# Convention : Reuss Voigt Hill
#
# Bulk Modulus (GPa) = 34.77343 105.67576 70.22459
# Shear Modulus (GPa) = 10.00399 55.57957 32.79178
#
# Velocity S-wave (km/s) = 2.31951 5.46723 4.19944
# Velocity P-wave (km/s) = 5.08670 9.83292 7.82818
#
# Compressibility (1/GPa) = 0.02875759
#
# Stress axis : x y z
#
# Youngs Moduli (GPa) = 74.88072 14.50309 76.63223
#
# Poissons Ratio (x) = 0.20684 0.28191
# Poissons Ratio (y) = 1.06792 1.17694
# Poissons Ratio (z) = 0.27547 0.22274
#
# Static dielectric constant tensor:
#      x y z
#    x 1.612670 0.000000 0.000000 
#    y 0.000000 1.631910 0.000000 
#    z 0.000000 0.000000 1.606960 
# 
# From -- ./inp_files/17397.got.cif
#   From: 2010.05.17/outbox.cif.g08.bks.cpg/sg35_9_cif.got.tgz:17397.got - 2010.06.03 17:29:28.
