data_PCOD9349076
_publ_section_title
;
Structure prediction by ZEFSAII (Michael W. Deem and Ramdas Pophale) SiO2 
 PCOD9349076
Probable space group: C M M 2
;
_chemical_formula_sum "Si O2"
_cell_formula_units_Z 48
_cell_length_a 8.708797
_cell_length_b 18.401176
_cell_length_c 16.037459
_cell_angle_alpha 90.000000
_cell_angle_beta 90.000000
_cell_angle_gamma 90.000000
_cell_volume 2570.036585
_symmetry_space_group_name_H-M "C M M 2"
_symmetry_group_IT_number 35
_symmetry_cell_setting 'orthorhombic'
loop_
_space_group_symop_operation_xyz
x,y,z
-x,-y,z
-x,y,z
x,-y,z
1/2+x,1/2+y,z
1/2-x,1/2-y,z
1/2-x,1/2+y,z
1/2+x,1/2-y,z
loop_
_atom_site_type_symbol
_atom_site_label
_atom_site_fract_x
_atom_site_fract_y
_atom_site_fract_z
Si Si1 0.816399 0.914213 0.495200
Si Si2 0.684108 0.331921 0.164377
Si Si3 0.315218 0.831156 0.655099
Si Si4 0.814812 0.416122 0.822897
Si Si5 0.683719 0.331630 0.979923
Si Si6 0.183285 0.332005 0.336005
O O1 0.748854 0.875158 0.576472
O O2 0.743245 0.878396 0.413326
O O3 0.000000 0.904025 0.492832
O O4 0.783393 0.000000 0.498189
O O5 0.500000 0.330061 0.173461
O O6 0.750000 0.250000 0.161832
O O7 0.757263 0.364287 0.247857
O O8 0.722058 0.362142 0.072558
O O9 0.500000 0.829227 0.650872
O O10 0.250000 0.750000 0.653995
O O11 0.269144 0.871089 0.740858
O O12 0.767170 0.500000 0.815060
O O13 0.747672 0.380032 0.905638
O O14 0.000000 0.413869 0.827757
O O15 0.500000 0.327024 0.974577
O O16 0.750000 0.250000 0.972811
O O17 0.250000 0.250000 0.343560
O O18 0.000000 0.327998 0.335509
#
# Coordination Sequence:
#
# PCOD9349076 Si02
#       6
#     8   8   8   8   8   8
#     4  11  24  41  60  83 113 148 185 228 279 332
#     4   9  17  31  52  80 112 145 186 234 281 326
#     4  11  23  40  62  87 114 144 184 230 276 329
#     4  10  22  39  58  82 114 150 186 229 280 331
#     4  10  20  34  56  84 113 148 189 234 280 329
#     4  11  21  35  58  85 114 148 188 232 278 330
#
# _framework density 18.676777000000001
#
# number of rings (size 3 to 8) (size 9 to 14) (size 15 to 20)
#    0.000    1.667    0.000    6.000    0.000    7.000 
#    0.000    0.833    0.000    1.000    0.000    0.000 
#    0.000    0.000    0.000    0.000    0.000    0.000 
#
# Total GULP energy -134070.076475 kJ/mol
# GULP energy per Si atom -5586.253186 kJ/mol
# Density = 1.863427 g / cm^3
# Si number density = 18.676777 Si / 1000 Ang^3
#
#
#
# Elastic Constant Matrix: (Units=GPa)
#
#
# Indices 1 2 3 4 5 6 
#
# 1 87.1526 61.3434 80.6632 0.0000 0.0000 0.0000
# 2 61.3434 112.4241 98.5005 0.0000 0.0000 0.0000
# 3 80.6632 98.5005 229.3273 0.0000 0.0000 0.0000
# 4 0.0000 0.0000 0.0000 0.2865 0.0000 0.0000
# 5 0.0000 0.0000 0.0000 0.0000 38.3825 0.0000
# 6 0.0000 0.0000 0.0000 0.0000 0.0000 16.9126
#
#
#
# Elastic Compliance Matrix: (Units=1/GPa)
#
#
# Indices 1 2 3 4 5 6 
#
# 1 0.020570 -0.007832 -0.003871 0.000000 0.000000 0.000000
# 2 -0.007832 0.017244 -0.004652 0.000000 0.000000 0.000000
# 3 -0.003871 -0.004652 0.007720 0.000000 0.000000 0.000000
# 4 0.000000 0.000000 0.000000 3.490703 0.000000 0.000000
# 5 0.000000 0.000000 0.000000 0.000000 0.026054 0.000000
# 6 0.000000 0.000000 0.000000 0.000000 0.000000 0.059127
#
#
# Mechanical properties :
#
#
# Convention : Reuss Voigt Hill
#
# Bulk Modulus (GPa) = 77.97852 101.10203 89.54028
# Shear Modulus (GPa) = 1.36672 23.67612 12.52142
#
# Velocity S-wave (km/s) = 0.85637 3.56431 2.59207
# Velocity P-wave (km/s) = 6.54370 8.43736 7.55014
#
# Compressibility (1/GPa) = 0.01282404
#
# Stress axis : x y z
#
# Youngs Moduli (GPa) = 48.61533 57.99092 129.52895
#
# Poissons Ratio (x) = 0.45418 0.50143
# Poissons Ratio (y) = 0.38075 0.60255
# Poissons Ratio (z) = 0.18820 0.26977
#
# Static dielectric constant tensor:
#      x y z
#    x 1.627390 0.000000 0.000000 
#    y 0.000000 1.600200 0.000000 
#    z 0.000000 0.000000 1.655380 
# 
# From -- ./inp_files/15133.got.cif
#   From: 2010.05.17/outbox.cif.g08.bks.cpg/sg35_8_cif.got.tgz:15133.got - 2010.06.03 17:29:28.
