data_PCOD9349767
_publ_section_title
;
Structure prediction by ZEFSAII (Michael W. Deem and Ramdas Pophale) SiO2 
 PCOD9349767
Probable space group: C M M 2
;
_chemical_formula_sum "Si O2"
_cell_formula_units_Z 64
_cell_length_a 29.378225
_cell_length_b 11.814696
_cell_length_c 9.687837
_cell_angle_alpha 90.000000
_cell_angle_beta 90.000000
_cell_angle_gamma 90.000000
_cell_volume 3362.597821
_symmetry_space_group_name_H-M "C M M 2"
_symmetry_group_IT_number 35
_symmetry_cell_setting 'orthorhombic'
loop_
_space_group_symop_operation_xyz
x,y,z
-x,-y,z
-x,y,z
x,-y,z
1/2+x,1/2+y,z
1/2-x,1/2-y,z
1/2-x,1/2+y,z
1/2+x,1/2-y,z
loop_
_atom_site_type_symbol
_atom_site_label
_atom_site_fract_x
_atom_site_fract_y
_atom_site_fract_z
Si Si1 0.226739 0.376025 0.837790
Si Si2 0.648803 0.130707 0.399781
Si Si3 0.050539 0.369837 0.283041
Si Si4 0.702637 0.202212 0.129632
Si Si5 0.449865 0.270103 0.006021
Si Si6 0.550525 0.133839 0.734141
Si Si7 0.148220 0.725410 0.677844
Si Si8 0.144911 0.871674 0.938571
O O1 0.247342 0.500000 0.800239
O O2 0.250000 0.250000 0.810017
O O3 0.178557 0.365852 0.760112
O O4 0.217895 0.376283 0.001884
O O5 0.594633 0.144457 0.376656
O O6 0.673204 0.151368 0.253281
O O7 0.664159 0.217251 0.519615
O O8 0.656925 0.000000 0.442731
O O9 0.052546 0.500000 0.231810
O O10 0.054347 0.284115 0.156314
O O11 0.000000 0.355891 0.346663
O O12 0.750000 0.250000 0.188044
O O13 0.673208 0.295547 0.046015
O O14 0.500000 0.323091 0.992341
O O15 0.447771 0.167715 0.895681
O O16 0.408059 0.350584 0.971728
O O17 0.500000 0.170039 0.685051
O O18 0.595055 0.193215 0.674954
O O19 0.554147 0.000000 0.713738
O O20 0.152585 0.832599 0.779855
O O21 0.157768 0.000000 0.957622
#
# Coordination Sequence:
#
# PCOD9349767 Si02
#       8
#     8   8   8   8   8   8   8   8
#     4  10  21  38  61  86 112 148 195 245 296 351
#     4  11  21  35  55  83 118 150 180 219 280 350
#     4   9  17  29  50  81 116 150 180 219 277 344
#     4  10  22  38  59  83 110 143 188 239 291 342
#     4   9  16  29  51  81 111 140 180 231 279 328
#     4   9  16  27  47  76 110 145 179 218 268 327
#     4  10  22  36  54  81 116 150 187 231 281 339
#     4  10  21  39  60  82 109 146 195 243 285 331
#
# _framework density 19.032903999999998
#
# number of rings (size 3 to 8) (size 9 to 14) (size 15 to 20)
#    0.000    2.250    1.250    1.875    0.000    7.750 
#    0.000    1.875    0.000    0.000    0.000    0.000 
#    0.000    0.000    0.000    0.000    0.000    0.000 
#
# Total GULP energy -178168.401372 kJ/mol
# GULP energy per Si atom -5567.762543 kJ/mol
# Density = 1.898958 g / cm^3
# Si number density = 19.032904 Si / 1000 Ang^3
#
#
#
# Elastic Constant Matrix: (Units=GPa)
#
#
# Indices 1 2 3 4 5 6 
#
# 1 89.5085 15.3875 6.5605 0.0000 0.0000 0.0000
# 2 15.3875 78.1370 6.5977 0.0000 0.0000 0.0000
# 3 6.5605 6.5977 62.7586 0.0000 0.0000 0.0000
# 4 0.0000 0.0000 0.0000 7.5109 0.0000 0.0000
# 5 0.0000 0.0000 0.0000 0.0000 0.4882 0.0000
# 6 0.0000 0.0000 0.0000 0.0000 0.0000 9.3429
#
#
#
# Elastic Compliance Matrix: (Units=1/GPa)
#
#
# Indices 1 2 3 4 5 6 
#
# 1 0.011623 -0.002206 -0.000983 0.000000 0.000000 0.000000
# 2 -0.002206 0.013331 -0.001171 0.000000 0.000000 0.000000
# 3 -0.000983 -0.001171 0.016160 0.000000 0.000000 0.000000
# 4 0.000000 0.000000 0.000000 0.133139 0.000000 0.000000
# 5 0.000000 0.000000 0.000000 0.000000 2.048260 0.000000
# 6 0.000000 0.000000 0.000000 0.000000 0.000000 0.107034
#
#
# Mechanical properties :
#
#
# Convention : Reuss Voigt Hill
#
# Bulk Modulus (GPa) = 30.86932 31.94395 31.40663
# Shear Modulus (GPa) = 2.12851 16.92562 9.52706
#
# Velocity S-wave (km/s) = 1.05866 2.98532 2.23974
# Velocity P-wave (km/s) = 4.21289 5.35750 4.81930
#
# Compressibility (1/GPa) = 0.03239463
#
# Stress axis : x y z
#
# Youngs Moduli (GPa) = 86.03326 75.01124 61.88142
#
# Poissons Ratio (x) = 0.16547 0.06084
# Poissons Ratio (y) = 0.18979 0.07246
# Poissons Ratio (z) = 0.08458 0.08783
#
# Static dielectric constant tensor:
#      x y z
#    x 1.720390 0.000000 0.000000 
#    y 0.000000 1.662520 0.000000 
#    z 0.000000 0.000000 1.653130 
# 
# From -- ./inp_files/6564.got.cif
#   From: 2010.05.17/outbox.cif.g08.bks.cpg/sg35_4_cif.got.tgz:6564.got - 2010.06.03 17:29:28.
