data_PCOD9349740
_publ_section_title
;
Structure prediction by ZEFSAII (Michael W. Deem and Ramdas Pophale) SiO2 
 PCOD9349740
Probable space group: C M M 2
;
_chemical_formula_sum "Si O2"
_cell_formula_units_Z 48
_cell_length_a 8.665325
_cell_length_b 18.392928
_cell_length_c 16.070344
_cell_angle_alpha 90.000000
_cell_angle_beta 90.000000
_cell_angle_gamma 90.000000
_cell_volume 2561.302657
_symmetry_space_group_name_H-M "C M M 2"
_symmetry_group_IT_number 35
_symmetry_cell_setting 'orthorhombic'
loop_
_space_group_symop_operation_xyz
x,y,z
-x,-y,z
-x,y,z
x,-y,z
1/2+x,1/2+y,z
1/2-x,1/2-y,z
1/2-x,1/2+y,z
1/2+x,1/2-y,z
loop_
_atom_site_type_symbol
_atom_site_label
_atom_site_fract_x
_atom_site_fract_y
_atom_site_fract_z
Si Si1 0.185363 0.167682 0.642770
Si Si2 0.313277 0.584837 0.293890
Si Si3 0.684115 0.831333 0.134671
Si Si4 0.315908 0.167786 0.814919
Si Si5 0.815193 0.085628 0.974462
Si Si6 0.185913 0.831700 0.459831
O O1 0.250000 0.250000 0.640398
O O2 0.256957 0.135709 0.726741
O O3 0.227493 0.137511 0.551477
O O4 0.000000 0.168688 0.650741
O O5 0.500000 0.590498 0.287650
O O6 0.272629 0.500000 0.289681
O O7 0.239442 0.628508 0.218126
O O8 0.265372 0.619606 0.382041
O O9 0.500000 0.828976 0.131440
O O10 0.750000 0.750000 0.133751
O O11 0.748202 0.874560 0.055213
O O12 0.500000 0.171488 0.814778
O O13 0.250000 0.250000 0.822358
O O14 0.255254 0.121462 0.892055
O O15 0.000000 0.094534 0.973221
O O16 0.779874 0.000000 0.977909
O O17 0.250000 0.750000 0.451306
O O18 0.000000 0.826940 0.458503
#
# Coordination Sequence:
#
# PCOD9349740 Si02
#       6
#     8   8   8   8   8   8
#     4   9  16  29  50  78 110 144 188 236 282 328
#     4  10  21  38  58  82 115 152 188 228 278 333
#     4  12  25  41  62  87 114 144 184 230 276 329
#     4  11  21  35  57  84 115 149 189 234 279 329
#     4  11  24  42  62  84 113 148 184 225 277 334
#     4   9  18  32  53  80 109 145 189 236 281 328
#
# _framework density 18.740463999999999
#
# number of rings (size 3 to 8) (size 9 to 14) (size 15 to 20)
#    0.000    1.667    0.000    6.500    0.000    6.333 
#    0.000    0.833    0.000    3.000    0.000    0.000 
#    0.000    0.000    0.000    0.000    0.000    0.000 
#
# Total GULP energy -134058.925313 kJ/mol
# GULP energy per Si atom -5585.788555 kJ/mol
# Density = 1.869781 g / cm^3
# Si number density = 18.740464 Si / 1000 Ang^3
#
#
#
# Elastic Constant Matrix: (Units=GPa)
#
#
# Indices 1 2 3 4 5 6 
#
# 1 94.1614 66.8874 80.9226 0.0000 0.0000 0.0000
# 2 66.8874 117.7678 102.6002 0.0000 0.0000 0.0000
# 3 80.9226 102.6002 233.5791 0.0000 0.0000 0.0000
# 4 0.0000 0.0000 0.0000 -15.4711 0.0000 0.0000
# 5 0.0000 0.0000 0.0000 0.0000 20.8203 0.0000
# 6 0.0000 0.0000 0.0000 0.0000 0.0000 22.9013
#
#
#
# Elastic Compliance Matrix: (Units=1/GPa)
#
#
# Indices 1 2 3 4 5 6 
#
# 1 0.019006 -0.008194 -0.002985 0.000000 0.000000 0.000000
# 2 -0.008194 0.017288 -0.004755 0.000000 0.000000 0.000000
# 3 -0.002985 -0.004755 0.007404 0.000000 0.000000 0.000000
# 4 0.000000 0.000000 0.000000 -0.064637 0.000000 0.000000
# 5 0.000000 0.000000 0.000000 0.000000 0.048030 0.000000
# 6 0.000000 0.000000 0.000000 0.000000 0.000000 0.043666
#
#
# Mechanical properties :
#
#
# Convention : Reuss Voigt Hill
#
# Bulk Modulus (GPa) = 84.53416 105.14764 94.84090
# Shear Modulus (GPa) = 46.91821 18.65665 32.78743
#
# Velocity S-wave (km/s) = 5.00901 3.15862 4.18730
# Velocity P-wave (km/s) = 8.86901 8.33856 8.60787
#
# Compressibility (1/GPa) = 0.01182954
#
# Stress axis : x y z
#
# Youngs Moduli (GPa) = 52.61429 57.84525 135.06016
#
# Poissons Ratio (x) = 0.47397 0.40322
# Poissons Ratio (y) = 0.43111 0.64219
# Poissons Ratio (z) = 0.15708 0.27505
#
# Static dielectric constant tensor:
#      x y z
#    x 1.628140 0.000000 0.000000 
#    y 0.000000 1.609230 0.000000 
#    z 0.000000 0.000000 1.665760 
# 
# From -- ./inp_files/15134.got.cif
#   From: 2010.05.17/outbox.cif.g08.bks.cpg/sg35_8_cif.got.tgz:15134.got - 2010.06.03 17:29:28.
