data_PCOD9349872
_publ_section_title
;
Structure prediction by ZEFSAII (Michael W. Deem and Ramdas Pophale) SiO2 
 PCOD9349872
Probable space group: C M M 2
;
_chemical_formula_sum "Si O2"
_cell_formula_units_Z 56
_cell_length_a 14.277952
_cell_length_b 23.130520
_cell_length_c 6.920654
_cell_angle_alpha 90.000000
_cell_angle_beta 90.000000
_cell_angle_gamma 90.000000
_cell_volume 2285.590651
_symmetry_space_group_name_H-M "C M M 2"
_symmetry_group_IT_number 35
_symmetry_cell_setting 'orthorhombic'
loop_
_space_group_symop_operation_xyz
x,y,z
-x,-y,z
-x,y,z
x,-y,z
1/2+x,1/2+y,z
1/2-x,1/2-y,z
1/2-x,1/2+y,z
1/2+x,1/2-y,z
loop_
_atom_site_type_symbol
_atom_site_label
_atom_site_fract_x
_atom_site_fract_y
_atom_site_fract_z
Si Si1 0.391997 0.670566 0.933060
Si Si2 0.395186 0.929722 0.159262
Si Si3 0.749356 0.066861 0.906894
Si Si4 0.111700 0.595132 0.659263
Si Si5 0.387431 0.229636 0.659261
Si Si6 0.749355 0.933139 0.411633
Si Si7 0.391996 0.329436 0.385472
O O1 0.500000 0.659970 0.874480
O O2 0.327119 0.616496 0.886540
O O3 0.358821 0.730258 0.837229
O O4 0.391093 0.679292 0.159266
O O5 0.500000 0.902188 0.159263
O O6 0.274543 0.921943 0.159263
O O7 0.404521 0.000000 0.159262
O O8 0.370712 0.919306 0.910918
O O9 0.718701 0.063684 0.659264
O O10 0.780168 0.000000 0.926160
O O11 0.139230 0.663334 0.659262
O O12 0.129288 0.580693 0.407608
O O13 0.000000 0.582620 0.659263
O O14 0.500000 0.226423 0.659248
O O15 0.358814 0.269746 0.481309
O O16 0.827120 0.883507 0.431988
O O17 0.780167 0.000000 0.392367
O O18 0.500000 0.340031 0.444050
#
# Coordination Sequence:
#
# PCOD9349872 Si02
#       7
#     8   8   8   8   8   8   8
#     4  10  21  40  66  93 127 169 208 258 320 374
#     4   9  18  34  53  76 115 157 194 244 294 347
#     4  11  22  37  59  91 124 159 208 252 305 384
#     4  11  24  42  63  88 122 165 211 266 322 373
#     4   9  21  43  64  89 125 162 214 270 313 371
#     4  11  22  37  59  91 124 159 208 252 305 384
#     4  10  21  40  66  93 127 169 208 258 320 374
#
# _framework density 24.501325000000001
#
# number of rings (size 3 to 8) (size 9 to 14) (size 15 to 20)
#    0.000    1.857    1.429    2.143    0.000    5.143 
#    2.571    2.857    0.000    4.286    0.000    0.000 
#    0.000    0.000    0.000    0.000    0.000    0.000 
#
# Total GULP energy -156151.480757 kJ/mol
# GULP energy per Si atom -5576.838598 kJ/mol
# Density = 2.444556 g / cm^3
# Si number density = 24.501325 Si / 1000 Ang^3
#
#
#
# Elastic Constant Matrix: (Units=GPa)
#
#
# Indices 1 2 3 4 5 6 
#
# 1 118.4945 75.8634 55.4990 0.0000 0.0000 0.0000
# 2 75.8634 200.4507 67.5138 0.0000 0.0000 0.0000
# 3 55.4990 67.5138 231.6775 0.0000 0.0000 0.0000
# 4 0.0000 0.0000 0.0000 -14.3843 0.0000 0.0000
# 5 0.0000 0.0000 0.0000 0.0000 46.8464 0.0000
# 6 0.0000 0.0000 0.0000 0.0000 0.0000 39.9184
#
#
#
# Elastic Compliance Matrix: (Units=1/GPa)
#
#
# Indices 1 2 3 4 5 6 
#
# 1 0.011697 -0.003862 -0.001677 0.000000 0.000000 0.000000
# 2 -0.003862 0.006807 -0.001058 0.000000 0.000000 0.000000
# 3 -0.001677 -0.001058 0.005026 0.000000 0.000000 0.000000
# 4 0.000000 0.000000 0.000000 -0.069520 0.000000 0.000000
# 5 0.000000 0.000000 0.000000 0.000000 0.021346 0.000000
# 6 0.000000 0.000000 0.000000 0.000000 0.000000 0.025051
#
#
# Mechanical properties :
#
#
# Convention : Reuss Voigt Hill
#
# Bulk Modulus (GPa) = 96.74893 105.37500 101.06197
# Shear Modulus (GPa) = 293.29206 37.92585 165.60895
#
# Velocity S-wave (km/s) = 10.95283 3.93862 8.23034
# Velocity P-wave (km/s) = 14.12535 7.98654 11.47411
#
# Compressibility (1/GPa) = 0.01033603
#
# Stress axis : x y z
#
# Youngs Moduli (GPa) = 85.49049 146.90800 198.94905
#
# Poissons Ratio (x) = 0.56740 0.33355
# Poissons Ratio (y) = 0.33019 0.21057
# Poissons Ratio (z) = 0.14333 0.15549
#
# Static dielectric constant tensor:
#      x y z
#    x 1.906410 0.000000 0.000000 
#    y 0.000000 1.741540 0.000000 
#    z 0.000000 0.000000 2.478520 
# 
# From -- ./inp_files/7667.got.cif
#   From: 2010.05.17/outbox.cif.g08.bks.cpg/sg35_4_cif.got.tgz:7667.got - 2010.06.03 17:29:28.
