data_PCOD9349474
_publ_section_title
;
Structure prediction by ZEFSAII (Michael W. Deem and Ramdas Pophale) SiO2 
 PCOD9349474
Probable space group: C M M 2
;
_chemical_formula_sum "Si O2"
_cell_formula_units_Z 64
_cell_length_a 19.970684
_cell_length_b 19.849505
_cell_length_c 7.779405
_cell_angle_alpha 90.000000
_cell_angle_beta 90.000000
_cell_angle_gamma 90.000000
_cell_volume 3083.819870
_symmetry_space_group_name_H-M "C M M 2"
_symmetry_group_IT_number 35
_symmetry_cell_setting 'orthorhombic'
loop_
_space_group_symop_operation_xyz
x,y,z
-x,-y,z
-x,y,z
x,-y,z
1/2+x,1/2+y,z
1/2-x,1/2-y,z
1/2-x,1/2+y,z
1/2+x,1/2-y,z
loop_
_atom_site_type_symbol
_atom_site_label
_atom_site_fract_x
_atom_site_fract_y
_atom_site_fract_z
Si Si1 0.683074 0.793757 0.763730
Si Si2 0.579347 0.575016 0.126157
Si Si3 0.388517 0.333850 0.439455
Si Si4 0.388746 0.812053 0.412082
Si Si5 0.789260 0.421846 0.976147
Si Si6 0.254562 0.322868 0.238869
Si Si7 0.070995 0.424505 0.174456
Si Si8 0.919103 0.814437 0.839996
O O1 0.750000 0.750000 0.722365
O O2 0.632082 0.810708 0.609326
O O3 0.631850 0.747727 0.877312
O O4 0.709889 0.865172 0.830483
O O5 0.500000 0.569020 0.101240
O O6 0.608926 0.500000 0.110364
O O7 0.588669 0.606231 0.316331
O O8 0.599043 0.628232 0.978571
O O9 0.418507 0.262001 0.377227
O O10 0.310705 0.324627 0.385567
O O11 0.402960 0.338618 0.642809
O O12 0.317230 0.822994 0.324227
O O13 0.428953 0.871973 0.329157
O O14 0.774784 0.500000 0.935839
O O15 0.741194 0.388460 0.120099
O O16 0.864732 0.417824 0.053321
O O17 0.250000 0.250000 0.143010
O O18 0.074842 0.500000 0.246062
O O19 0.000000 0.417294 0.078796
O O20 0.000000 0.799786 0.849681
#
# Coordination Sequence:
#
# PCOD9349474 Si02
#       8
#     8   8   8   8   8   8   8   8
#     4  11  23  39  61  88 122 163 202 254 316 366
#     4  10  23  40  58  85 119 157 201 251 312 378
#     4  10  20  37  62  88 117 153 203 253 309 365
#     4   9  19  35  58  85 114 151 197 249 299 366
#     4  10  22  37  56  86 124 161 204 255 303 369
#     4   9  18  35  58  84 113 153 196 245 307 360
#     4   9  19  36  57  83 118 160 201 247 304 360
#     4  10  23  41  62  92 126 163 211 263 311 375
#
# _framework density 20.753481000000001
#
# number of rings (size 3 to 8) (size 9 to 14) (size 15 to 20)
#    0.000    2.250    0.000    2.625    7.000    4.500 
#    0.000    1.250    0.000    6.750    0.000    0.000 
#    0.000    0.000    0.000    0.000    0.000    0.000 
#
# Total GULP energy -178192.865914 kJ/mol
# GULP energy per Si atom -5568.527060 kJ/mol
# Density = 2.070625 g / cm^3
# Si number density = 20.753481 Si / 1000 Ang^3
#
#
#
# Elastic Constant Matrix: (Units=GPa)
#
#
# Indices 1 2 3 4 5 6 
#
# 1 90.0057 4.1438 2.5766 0.0000 0.0000 0.0000
# 2 4.1438 117.6837 28.7660 0.0000 0.0000 0.0000
# 3 2.5766 28.7660 46.4293 0.0000 0.0000 0.0000
# 4 0.0000 0.0000 0.0000 22.9371 0.0000 0.0000
# 5 0.0000 0.0000 0.0000 0.0000 12.5963 0.0000
# 6 0.0000 0.0000 0.0000 0.0000 0.0000-4286.6438
#
#
#
# Elastic Compliance Matrix: (Units=1/GPa)
#
#
# Indices 1 2 3 4 5 6 
#
# 1 0.011136 -0.000284 -0.000442 0.000000 0.000000 0.000000
# 2 -0.000284 0.010021 -0.006193 0.000000 0.000000 0.000000
# 3 -0.000442 -0.006193 0.025400 0.000000 0.000000 0.000000
# 4 0.000000 0.000000 0.000000 0.043598 0.000000 0.000000
# 5 0.000000 0.000000 0.000000 0.000000 0.079388 0.000000
# 6 0.000000 0.000000 0.000000 0.000000 0.000000 -0.000233
#
#
# Mechanical properties :
#
#
# Convention : Reuss Voigt Hill
#
# Bulk Modulus (GPa) = 30.56351 36.12127 33.34239
# Shear Modulus (GPa) = 25.76603 -835.64660 -404.94028
#
# Velocity S-wave (km/s) = 3.52736 -20.08800 -13.98366
# Velocity P-wave (km/s) = 5.59898 22.81654 15.64043
#
# Compressibility (1/GPa) = 0.03271876
#
# Stress axis : x y z
#
# Youngs Moduli (GPa) = 89.79772 99.78915 39.37069
#
# Poissons Ratio (x) = 0.02835 0.01740
# Poissons Ratio (y) = 0.02551 0.24382
# Poissons Ratio (z) = 0.03969 0.61799
#
# Static dielectric constant tensor:
#      x y z
#    x 1.819830 0.000000 0.000000 
#    y 0.000000 1.477070 0.000000 
#    z 0.000000 0.000000 1.768510 
# 
# From -- ./inp_files/9426.got.cif
#   From: 2010.05.17/outbox.cif.g08.bks.cpg/sg35_5_cif.got.tgz:9426.got - 2010.06.03 17:29:28.
