data_PCOD9349124
_publ_section_title
;
Structure prediction by ZEFSAII (Michael W. Deem and Ramdas Pophale) SiO2 
 PCOD9349124
Probable space group: C M M 2
;
_chemical_formula_sum "Si O2"
_cell_formula_units_Z 58
_cell_length_a 28.902783
_cell_length_b 9.573380
_cell_length_c 12.713470
_cell_angle_alpha 90.000000
_cell_angle_beta 90.000000
_cell_angle_gamma 90.000000
_cell_volume 3517.783137
_symmetry_space_group_name_H-M "C M M 2"
_symmetry_group_IT_number 35
_symmetry_cell_setting 'orthorhombic'
loop_
_space_group_symop_operation_xyz
x,y,z
-x,-y,z
-x,y,z
x,-y,z
1/2+x,1/2+y,z
1/2-x,1/2-y,z
1/2-x,1/2+y,z
1/2+x,1/2-y,z
loop_
_atom_site_type_symbol
_atom_site_label
_atom_site_fract_x
_atom_site_fract_y
_atom_site_fract_z
Si Si1 0.500000 0.000000 0.824610
Si Si2 0.948718 0.783400 0.793674
Si Si3 0.054300 0.165605 0.552361
Si Si4 0.796634 0.334532 0.032604
Si Si5 0.204503 0.663678 0.285276
Si Si6 0.895117 0.333778 0.371991
Si Si7 0.885388 0.159987 0.986313
Si Si8 0.444711 0.836867 0.149923
O O1 0.539707 0.876956 0.820427
O O2 0.933631 0.800025 0.673099
O O3 0.000000 0.851009 0.802278
O O4 0.912473 0.839819 0.876423
O O5 0.084352 0.249821 0.469086
O O6 0.000000 0.203898 0.539065
O O7 0.058790 0.000000 0.535801
O O8 0.794004 0.500000 0.007807
O O9 0.750000 0.250000 0.006366
O O10 0.803063 0.322893 0.159457
O O11 0.839937 0.255741 0.981793
O O12 0.212187 0.500000 0.306606
O O13 0.250000 0.750000 0.313994
O O14 0.157331 0.707462 0.342615
O O15 0.895738 0.500000 0.393506
O O16 0.926339 0.311961 0.267774
O O17 0.919161 0.232966 0.071144
O O18 0.874186 0.000000 0.016499
O O19 0.500000 0.820953 0.143425
O O20 0.433822 0.000000 0.123349
#
# Coordination Sequence:
#
# PCOD9349124 Si02
#       8
#     2   8   8   8   8   8   8   8
#     4   8  20  36  58  84 102 140 202 224 272 318
#     4   9  21  36  56  81 108 140 188 230 267 317
#     4  10  21  36  54  77 111 145 179 226 273 316
#     4  10  20  36  57  79 109 140 181 225 273 326
#     4   9  18  34  54  78 105 137 175 224 269 319
#     4  10  20  35  54  79 106 141 183 223 268 321
#     4  12  23  34  54  79 112 147 181 222 275 328
#     4  10  21  35  51  74 109 148 182 222 271 322
#
# _framework density 16.487656999999999
#
# number of rings (size 3 to 8) (size 9 to 14) (size 15 to 20)
#    0.414    1.655    1.379    2.069    2.897    4.138 
#    0.000    0.000    0.000    0.828    0.000    1.931 
#    0.000    0.000    0.000    0.000    0.000    0.000 
#
# Total GULP energy -161476.617966 kJ/mol
# GULP energy per Si atom -5568.159240 kJ/mol
# Density = 1.645013 g / cm^3
# Si number density = 16.487657 Si / 1000 Ang^3
#
#
#
# Elastic Constant Matrix: (Units=GPa)
#
#
# Indices 1 2 3 4 5 6 
#
# 1 100.9363 53.3961 50.4103 0.0000 0.0000 0.0000
# 2 53.3961 100.8807 37.8548 0.0000 0.0000 0.0000
# 3 50.4103 37.8548 65.5285 0.0000 0.0000 0.0000
# 4 0.0000 0.0000 0.0000 -6.2167 0.0000 0.0000
# 5 0.0000 0.0000 0.0000 0.0000 30.3217 0.0000
# 6 0.0000 0.0000 0.0000 0.0000 0.0000 25.2493
#
#
#
# Elastic Compliance Matrix: (Units=1/GPa)
#
#
# Indices 1 2 3 4 5 6 
#
# 1 0.018282 -0.005617 -0.010819 0.000000 0.000000 0.000000
# 2 -0.005617 0.014382 -0.003987 0.000000 0.000000 0.000000
# 3 -0.010819 -0.003987 0.025887 0.000000 0.000000 0.000000
# 4 0.000000 0.000000 0.000000 -0.160858 0.000000 0.000000
# 5 0.000000 0.000000 0.000000 0.000000 0.032980 0.000000
# 6 0.000000 0.000000 0.000000 0.000000 0.000000 0.039605
#
#
# Mechanical properties :
#
#
# Convention : Reuss Voigt Hill
#
# Bulk Modulus (GPa) = 56.48394 61.18531 58.83462
# Shear Modulus (GPa) = 293.66656 18.24982 155.95819
#
# Velocity S-wave (km/s) = 13.36038 3.33059 9.73634
# Velocity P-wave (km/s) = 16.50249 7.20977 12.73407
#
# Compressibility (1/GPa) = 0.01770415
#
# Stress axis : x y z
#
# Youngs Moduli (GPa) = 54.69841 69.53216 38.62912
#
# Poissons Ratio (x) = 0.39054 0.41795
# Poissons Ratio (y) = 0.30723 0.15402
# Poissons Ratio (z) = 0.59181 0.27724
#
# Static dielectric constant tensor:
#      x y z
#    x 1.527940 0.000000 0.000000 
#    y 0.000000 1.557700 0.000000 
#    z 0.000000 0.000000 1.538670 
# 
# From -- ./inp_files/14487.got.cif
#   From: 2010.05.17/outbox.cif.g08.bks.cpg/sg35_8_cif.got.tgz:14487.got - 2010.06.03 17:29:28.
