data_PCOD9349376
_publ_section_title
;
Structure prediction by ZEFSAII (Michael W. Deem and Ramdas Pophale) SiO2 
 PCOD9349376
Probable space group: C M M 2
;
_chemical_formula_sum "Si O2"
_cell_formula_units_Z 46
_cell_length_a 7.840748
_cell_length_b 24.712916
_cell_length_c 13.689468
_cell_angle_alpha 90.000000
_cell_angle_beta 90.000000
_cell_angle_gamma 90.000000
_cell_volume 2652.577368
_symmetry_space_group_name_H-M "C M M 2"
_symmetry_group_IT_number 35
_symmetry_cell_setting 'orthorhombic'
loop_
_space_group_symop_operation_xyz
x,y,z
-x,-y,z
-x,y,z
x,-y,z
1/2+x,1/2+y,z
1/2-x,1/2-y,z
1/2-x,1/2+y,z
1/2+x,1/2-y,z
loop_
_atom_site_type_symbol
_atom_site_label
_atom_site_fract_x
_atom_site_fract_y
_atom_site_fract_z
Si Si1 0.311399 0.000000 0.009341
Si Si2 0.190391 0.434854 0.646678
Si Si3 0.799425 0.311614 0.978339
Si Si4 0.797025 0.313153 0.209024
Si Si5 0.305829 0.410443 0.860890
Si Si6 0.500000 0.565513 0.505649
Si Si7 0.500000 0.500000 0.160751
Si Si8 0.000000 0.110506 0.288114
O O1 0.165237 0.000000 0.090512
O O2 0.500000 0.000000 0.053469
O O3 0.288921 0.949048 0.937545
O O4 0.199997 0.500000 0.657680
O O5 0.224654 0.411665 0.754124
O O6 0.334668 0.419292 0.569601
O O7 0.000000 0.420696 0.613662
O O8 0.750000 0.250000 0.960022
O O9 0.699637 0.351771 0.908793
O O10 0.000000 0.319499 0.961403
O O11 0.766603 0.322479 0.093009
O O12 0.750000 0.250000 0.228468
O O13 0.667295 0.353403 0.263241
O O14 0.000000 0.321284 0.228194
O O15 0.500000 0.430173 0.851628
O O16 0.500000 0.500000 0.493441
O O17 0.500000 0.593201 0.400857
O O18 0.500000 0.554990 0.224627
#
# Coordination Sequence:
#
# PCOD9349376 Si02
#       8
#     4   8   8   8   8   4   2   4
#     4  12  24  38  55  85 128 165 203 238 291 360
#     4  10  20  36  59  85 115 151 199 247 291 355
#     4  10  21  35  54  85 121 159 198 237 286 350
#     4  10  21  39  64  92 118 160 214 257 296 355
#     4  12  21  34  57  88 119 158 200 241 289 355
#     4  10  22  41  60  86 118 155 199 248 311 371
#     4  12  26  40  54  90 132 178 190 244 326 378
#     4  12  24  40  65  90 125 157 208 263 314 370
#
# _framework density 17.341623999999999
#
# number of rings (size 3 to 8) (size 9 to 14) (size 15 to 20)
#    0.000    1.217    3.913    3.130    2.435    2.783 
#    0.000    0.000    0.000    1.043    0.000    0.000 
#    0.000    0.000    0.000    0.000    0.000    0.000 
#
# Total GULP energy -128472.156333 kJ/mol
# GULP energy per Si atom -5585.745928 kJ/mol
# Density = 1.730215 g / cm^3
# Si number density = 17.341624 Si / 1000 Ang^3
#
#
#
# Elastic Constant Matrix: (Units=GPa)
#
#
# Indices 1 2 3 4 5 6 
#
# 1 153.7913 51.1105 77.1246 0.0000 0.0000 0.0000
# 2 51.1105 78.3022 63.7413 0.0000 0.0000 0.0000
# 3 77.1246 63.7413 124.6068 0.0000 0.0000 0.0000
# 4 0.0000 0.0000 0.0000 -25.6379 0.0000 0.0000
# 5 0.0000 0.0000 0.0000 0.0000 12.0533 0.0000
# 6 0.0000 0.0000 0.0000 0.0000 0.0000 19.2380
#
#
#
# Elastic Compliance Matrix: (Units=1/GPa)
#
#
# Indices 1 2 3 4 5 6 
#
# 1 0.009701 -0.002475 -0.004738 0.000000 0.000000 0.000000
# 2 -0.002475 0.022515 -0.009986 0.000000 0.000000 0.000000
# 3 -0.004738 -0.009986 0.016066 0.000000 0.000000 0.000000
# 4 0.000000 0.000000 0.000000 -0.039005 0.000000 0.000000
# 5 0.000000 0.000000 0.000000 0.000000 0.082965 0.000000
# 6 0.000000 0.000000 0.000000 0.000000 0.000000 0.051981
#
#
# Mechanical properties :
#
#
# Convention : Reuss Voigt Hill
#
# Bulk Modulus (GPa) = 72.02269 82.29478 77.15874
# Shear Modulus (GPa) = 27.28530 12.11227 19.69879
#
# Velocity S-wave (km/s) = 3.97091 2.64569 3.37401
# Velocity P-wave (km/s) = 7.91493 7.54261 7.73101
#
# Compressibility (1/GPa) = 0.01388451
#
# Stress axis : x y z
#
# Youngs Moduli (GPa) = 103.08123 44.41453 62.24323
#
# Poissons Ratio (x) = 0.10993 0.29493
# Poissons Ratio (y) = 0.25513 0.62153
# Poissons Ratio (z) = 0.48844 0.44350
#
# Static dielectric constant tensor:
#      x y z
#    x 1.618800 0.000000 0.000000 
#    y 0.000000 1.645130 0.000000 
#    z 0.000000 0.000000 1.545720 
# 
# From -- ./inp_files/11440.got.cif
#   From: 2010.05.17/outbox.cif.g08.bks.cpg/sg35_6_cif.got.tgz:11440.got - 2010.06.03 17:29:28.
