data_PCOD9349853
_publ_section_title
;
Structure prediction by ZEFSAII (Michael W. Deem and Ramdas Pophale) SiO2 
 PCOD9349853
Probable space group: C M M 2
;
_chemical_formula_sum "Si O2"
_cell_formula_units_Z 40
_cell_length_a 8.734630
_cell_length_b 15.879056
_cell_length_c 14.799450
_cell_angle_alpha 90.000000
_cell_angle_beta 90.000000
_cell_angle_gamma 90.000000
_cell_volume 2052.649364
_symmetry_space_group_name_H-M "C M M 2"
_symmetry_group_IT_number 35
_symmetry_cell_setting 'orthorhombic'
loop_
_space_group_symop_operation_xyz
x,y,z
-x,-y,z
-x,y,z
x,-y,z
1/2+x,1/2+y,z
1/2-x,1/2-y,z
1/2-x,1/2+y,z
1/2+x,1/2-y,z
loop_
_atom_site_type_symbol
_atom_site_label
_atom_site_fract_x
_atom_site_fract_y
_atom_site_fract_z
Si Si1 0.184375 0.844199 0.661670
Si Si2 0.823703 0.902160 0.037046
Si Si3 0.182816 0.343595 0.854471
Si Si4 0.315540 0.500000 0.534437
Si Si5 0.316803 0.837392 0.218552
Si Si6 0.184823 0.500000 0.333855
O O1 0.250000 0.750000 0.644209
O O2 0.247181 0.873228 0.759388
O O3 0.000000 0.838499 0.665570
O O4 0.228763 0.915156 0.588871
O O5 0.743697 0.851498 0.117045
O O6 0.000000 0.874546 0.026410
O O7 0.822097 0.000000 0.063753
O O8 0.738142 0.893366 0.942056
O O9 0.250000 0.250000 0.866894
O O10 0.000000 0.341801 0.848669
O O11 0.500000 0.500000 0.529522
O O12 0.247820 0.500000 0.434666
O O13 0.500000 0.834242 0.217195
O O14 0.250000 0.750000 0.254124
O O15 0.267056 0.916648 0.279169
O O16 0.000000 0.500000 0.336470
#
# Coordination Sequence:
#
# PCOD9349853 Si02
#       6
#     8   8   8   4   8   4
#     4  10  21  40  62  90 123 161 203 251 302 359
#     4  11  23  38  59  88 123 164 205 250 300 357
#     4  11  22  37  58  86 121 162 204 249 297 355
#     4  10  24  42  65  90 121 158 199 250 310 368
#     4  11  23  42  65  92 124 161 203 251 304 361
#     4  10  24  44  65  90 123 156 199 254 306 364
#
# _framework density 19.487012
#
# number of rings (size 3 to 8) (size 9 to 14) (size 15 to 20)
#    0.000    1.400    1.000    5.400    1.400    5.200 
#    0.000    4.000    0.000    0.000    0.000    0.000 
#    0.000    0.000    0.000    0.000    0.000    0.000 
#
# Total GULP energy -111798.326002 kJ/mol
# GULP energy per Si atom -5589.916300 kJ/mol
# Density = 1.944266 g / cm^3
# Si number density = 19.487012 Si / 1000 Ang^3
#
#
#
# Elastic Constant Matrix: (Units=GPa)
#
#
# Indices 1 2 3 4 5 6 
#
# 1 98.4655 46.5164 46.0616 0.0000 0.0000 0.0000
# 2 46.5164 128.8564 84.1315 0.0000 0.0000 0.0000
# 3 46.0616 84.1315 142.2286 0.0000 0.0000 0.0000
# 4 0.0000 0.0000 0.0000 3.7717 0.0000 0.0000
# 5 0.0000 0.0000 0.0000 0.0000 37.6684 0.0000
# 6 0.0000 0.0000 0.0000 0.0000 0.0000 28.9724
#
#
#
# Elastic Compliance Matrix: (Units=1/GPa)
#
#
# Indices 1 2 3 4 5 6 
#
# 1 0.012682 -0.003090 -0.002279 0.000000 0.000000 0.000000
# 2 -0.003090 0.013397 -0.006924 0.000000 0.000000 0.000000
# 3 -0.002279 -0.006924 0.011865 0.000000 0.000000 0.000000
# 4 0.000000 0.000000 0.000000 0.265131 0.000000 0.000000
# 5 0.000000 0.000000 0.000000 0.000000 0.026547 0.000000
# 6 0.000000 0.000000 0.000000 0.000000 0.000000 0.034516
#
#
# Mechanical properties :
#
#
# Convention : Reuss Voigt Hill
#
# Bulk Modulus (GPa) = 74.86612 80.32996 77.59804
# Shear Modulus (GPa) = 12.71697 26.93857 19.82777
#
# Velocity S-wave (km/s) = 2.55735 3.72208 3.19327
# Velocity P-wave (km/s) = 6.87182 7.73199 7.31456
#
# Compressibility (1/GPa) = 0.01335718
#
# Stress axis : x y z
#
# Youngs Moduli (GPa) = 78.85323 74.64619 84.28399
#
# Poissons Ratio (x) = 0.23064 0.19211
# Poissons Ratio (y) = 0.24364 0.58356
# Poissons Ratio (z) = 0.17974 0.51683
#
# Static dielectric constant tensor:
#      x y z
#    x 1.660510 0.000000 0.000000 
#    y 0.000000 1.672010 0.000000 
#    z 0.000000 0.000000 1.654000 
# 
# From -- ./inp_files/14721.got.cif
#   From: 2010.05.17/outbox.cif.g08.bks.cpg/sg35_8_cif.got.tgz:14721.got - 2010.06.03 17:29:28.
