data_PCOD9349968
_publ_section_title
;
Structure prediction by ZEFSAII (Michael W. Deem and Ramdas Pophale) SiO2 
 PCOD9349968
Probable space group: C M M 2
;
_chemical_formula_sum "Si O2"
_cell_formula_units_Z 40
_cell_length_a 15.736982
_cell_length_b 25.860603
_cell_length_c 5.093291
_cell_angle_alpha 90.000000
_cell_angle_beta 90.000000
_cell_angle_gamma 90.000000
_cell_volume 2072.805657
_symmetry_space_group_name_H-M "C M M 2"
_symmetry_group_IT_number 35
_symmetry_cell_setting 'orthorhombic'
loop_
_space_group_symop_operation_xyz
x,y,z
-x,-y,z
-x,y,z
x,-y,z
1/2+x,1/2+y,z
1/2-x,1/2-y,z
1/2-x,1/2+y,z
1/2+x,1/2-y,z
loop_
_atom_site_type_symbol
_atom_site_label
_atom_site_fract_x
_atom_site_fract_y
_atom_site_fract_z
Si Si1 0.749223 0.387837 0.422590
Si Si2 0.597482 0.687836 0.531993
Si Si3 0.648164 0.249845 0.042010
Si Si4 0.185547 0.559647 0.904677
Si Si5 0.405298 0.152480 0.706960
O O1 0.663168 0.356080 0.443561
O O2 0.756643 0.431270 0.647689
O O3 0.828141 0.349514 0.497476
O O4 0.766797 0.414025 0.146848
O O5 0.500000 0.671063 0.532151
O O6 0.622867 0.708165 0.819748
O O7 0.609006 0.733785 0.319602
O O8 0.750000 0.250000 0.065750
O O9 0.615208 0.196339 0.919849
O O10 0.166147 0.500000 0.949432
O O11 0.104704 0.596103 0.842816
O O12 0.500000 0.159530 0.601198
#
# Coordination Sequence:
#
# PCOD9349968 Si02
#       5
#     8   8   8   8   8
#     4  10  22  41  61  90 117 165 202 253 310 366
#     4  12  24  40  63  94 128 168 206 251 306 372
#     4  12  23  40  61  92 131 167 207 248 307 371
#     4  10  22  41  63  86 118 159 205 257 318 367
#     4  10  23  39  60  91 124 160 206 252 302 368
#
# _framework density 19.297518
#
# number of rings (size 3 to 8) (size 9 to 14) (size 15 to 20)
#    1.200    0.000    2.000    5.400    2.800    1.200 
#    0.000    0.000    0.000    3.600    0.000    0.000 
#    0.000    0.000    0.000    0.000    0.000    0.000 
#
# Total GULP energy -111672.137126 kJ/mol
# GULP energy per Si atom -5583.606856 kJ/mol
# Density = 1.925360 g / cm^3
# Si number density = 19.297518 Si / 1000 Ang^3
#
#
#
# Elastic Constant Matrix: (Units=GPa)
#
#
# Indices 1 2 3 4 5 6 
#
# 1 152.8266 19.2795 9.1757 0.0000 0.0000 0.0000
# 2 19.2795 60.4925 -22.3295 0.0000 0.0000 0.0000
# 3 9.1757 -22.3295 64.7581 0.0000 0.0000 0.0000
# 4 0.0000 0.0000 0.0000 -3.1788 0.0000 0.0000
# 5 0.0000 0.0000 0.0000 0.0000 9.8862 0.0000
# 6 0.0000 0.0000 0.0000 0.0000 0.0000 2.4069
#
#
#
# Elastic Compliance Matrix: (Units=1/GPa)
#
#
# Indices 1 2 3 4 5 6 
#
# 1 0.007043 -0.002994 -0.002030 0.000000 0.000000 0.000000
# 2 -0.002994 0.020215 0.007395 0.000000 0.000000 0.000000
# 3 -0.002030 0.007395 0.018280 0.000000 0.000000 0.000000
# 4 0.000000 0.000000 0.000000 -0.314585 0.000000 0.000000
# 5 0.000000 0.000000 0.000000 0.000000 0.101151 0.000000
# 6 0.000000 0.000000 0.000000 0.000000 0.000000 0.415470
#
#
# Mechanical properties :
#
#
# Convention : Reuss Voigt Hill
#
# Bulk Modulus (GPa) = 19.88959 32.25874 26.07417
# Shear Modulus (GPa) = 19.26099 19.95297 19.60698
#
# Velocity S-wave (km/s) = 3.16271 3.21902 3.19099
# Velocity P-wave (km/s) = 4.86479 5.52892 5.20745
#
# Compressibility (1/GPa) = 0.05027755
#
# Stress axis : x y z
#
# Youngs Moduli (GPa) = 141.98529 49.46873 54.70595
#
# Poissons Ratio (x) = 0.14812 0.11107
# Poissons Ratio (y) = 0.42512 -0.40453
# Poissons Ratio (z) = 0.28828 -0.36580
#
# Static dielectric constant tensor:
#      x y z
#    x 1.646620 0.000000 0.000000 
#    y 0.000000 1.684000 0.000000 
#    z 0.000000 0.000000 1.687080 
# 
# From -- ./inp_files/1985.got.cif
#   From: 2010.05.17/outbox.cif.g08.bks.cpg/sg35_1_cif.got.tgz:1985.got - 2010.06.03 17:29:28.
