data_PCOD9349568
_publ_section_title
;
Structure prediction by ZEFSAII (Michael W. Deem and Ramdas Pophale) SiO2 
 PCOD9349568
Probable space group: C M M 2
;
_chemical_formula_sum "Si O2"
_cell_formula_units_Z 64
_cell_length_a 7.929175
_cell_length_b 19.642446
_cell_length_c 21.559815
_cell_angle_alpha 90.000000
_cell_angle_beta 90.000000
_cell_angle_gamma 90.000000
_cell_volume 3357.906513
_symmetry_space_group_name_H-M "C M M 2"
_symmetry_group_IT_number 35
_symmetry_cell_setting 'orthorhombic'
loop_
_space_group_symop_operation_xyz
x,y,z
-x,-y,z
-x,y,z
x,-y,z
1/2+x,1/2+y,z
1/2-x,1/2-y,z
1/2-x,1/2+y,z
1/2+x,1/2-y,z
loop_
_atom_site_type_symbol
_atom_site_label
_atom_site_fract_x
_atom_site_fract_y
_atom_site_fract_z
Si Si1 0.702457 0.577147 0.088490
Si Si2 0.200235 0.672858 0.975853
Si Si3 0.798252 0.327952 0.836566
Si Si4 0.205866 0.920784 0.226012
Si Si5 0.702059 0.577463 0.723300
Si Si6 0.204065 0.829563 0.610511
Si Si7 0.297140 0.329687 0.474662
Si Si8 0.296076 0.670576 0.339577
O O1 0.500000 0.574185 0.092053
O O2 0.765304 0.500000 0.079294
O O3 0.745450 0.623608 0.030600
O O4 0.761087 0.601066 0.156789
O O5 0.250000 0.750000 0.990810
O O6 0.000000 0.669300 0.971736
O O7 0.267619 0.657646 0.906438
O O8 0.750000 0.250000 0.820712
O O9 0.735545 0.381371 0.786226
O O10 0.000000 0.331394 0.837195
O O11 0.267089 0.873573 0.281832
O O12 0.000000 0.918524 0.227000
O O13 0.252759 0.000000 0.234316
O O14 0.500000 0.573449 0.715921
O O15 0.767655 0.500000 0.724569
O O16 0.767688 0.622778 0.665846
O O17 0.250000 0.750000 0.619229
O O18 0.263660 0.854079 0.542127
O O19 0.000000 0.832151 0.610494
O O20 0.500000 0.336511 0.474797
O O21 0.250000 0.250000 0.474254
O O22 0.236258 0.355466 0.407537
O O23 0.500000 0.666663 0.339873
O O24 0.250000 0.750000 0.333072
#
# Coordination Sequence:
#
# PCOD9349568 Si02
#       8
#     8   8   8   8   8   8   8   8
#     4   9  18  33  52  72  97 131 166 199 239 288
#     4  10  21  36  54  76 101 126 156 198 243 286
#     4  10  21  37  56  76  98 126 160 198 239 286
#     4   8  15  29  47  67  93 125 160 195 231 276
#     4  10  21  35  50  71 101 133 162 197 241 286
#     4   9  17  30  48  69  93 123 160 198 237 283
#     4   8  14  25  42  65  91 119 153 193 236 280
#     4   9  16  27  45  68  93 121 155 196 239 280
#
# _framework density 19.059493
#
# number of rings (size 3 to 8) (size 9 to 14) (size 15 to 20)
#    0.000    2.875    0.000    1.875    0.000    4.500 
#    0.000    5.000    0.000    4.875    0.000    0.000 
#    0.000   10.000    0.000    0.000    0.000    0.000 
#
# Total GULP energy -178298.016738 kJ/mol
# GULP energy per Si atom -5571.813023 kJ/mol
# Density = 1.901611 g / cm^3
# Si number density = 19.059493 Si / 1000 Ang^3
#
#
#
# Elastic Constant Matrix: (Units=GPa)
#
#
# Indices 1 2 3 4 5 6 
#
# 1 17.5099 4.7269 10.3134 0.0000 0.0000 0.0000
# 2 4.7269 104.4514 121.0265 0.0000 0.0000 0.0000
# 3 10.3134 121.0265 208.9158 0.0000 0.0000 0.0000
# 4 0.0000 0.0000 0.0000 -21.9519 0.0000 0.0000
# 5 0.0000 0.0000 0.0000 0.0000 153.2753 0.0000
# 6 0.0000 0.0000 0.0000 0.0000 0.0000 18.5105
#
#
#
# Elastic Compliance Matrix: (Units=1/GPa)
#
#
# Indices 1 2 3 4 5 6 
#
# 1 0.058978 0.002143 -0.004153 0.000000 0.000000 0.000000
# 2 0.002143 0.029199 -0.017021 0.000000 0.000000 0.000000
# 3 -0.004153 -0.017021 0.014852 0.000000 0.000000 0.000000
# 4 0.000000 0.000000 0.000000 -0.045554 0.000000 0.000000
# 5 0.000000 0.000000 0.000000 0.000000 0.006524 0.000000
# 6 0.000000 0.000000 0.000000 0.000000 0.000000 0.054023
#
#
# Mechanical properties :
#
#
# Convention : Reuss Voigt Hill
#
# Bulk Modulus (GPa) = 15.39241 67.00120 41.19681
# Shear Modulus (GPa) = 28.13110 42.95414 35.54262
#
# Velocity S-wave (km/s) = 3.84599 4.75245 4.32305
# Velocity P-wave (km/s) = 5.27406 8.08359 6.82496
#
# Compressibility (1/GPa) = 0.06496707
#
# Stress axis : x y z
#
# Youngs Moduli (GPa) = 16.95545 34.24820 67.33148
#
# Poissons Ratio (x) = -0.07339 0.27963
# Poissons Ratio (y) = -0.03634 1.14603
# Poissons Ratio (z) = 0.07042 0.58293
#
# Static dielectric constant tensor:
#      x y z
#    x 1.521620 0.000000 0.000000 
#    y 0.000000 1.624980 0.000000 
#    z 0.000000 0.000000 1.715060 
# 
# From -- ./inp_files/18299.got.cif
#   From: 2010.05.17/outbox.cif.g08.bks.cpg/sg35_10_cif.got.tgz:18299.got - 2010.06.03 17:29:28.
