data_PCOD9349487
_publ_section_title
;
Structure prediction by ZEFSAII (Michael W. Deem and Ramdas Pophale) SiO2 
 PCOD9349487
Probable space group: C M M 2
;
_chemical_formula_sum "Si O2"
_cell_formula_units_Z 48
_cell_length_a 16.215748
_cell_length_b 8.653145
_cell_length_c 17.161699
_cell_angle_alpha 90.000000
_cell_angle_beta 90.000000
_cell_angle_gamma 90.000000
_cell_volume 2408.081872
_symmetry_space_group_name_H-M "C M M 2"
_symmetry_group_IT_number 35
_symmetry_cell_setting 'orthorhombic'
loop_
_space_group_symop_operation_xyz
x,y,z
-x,-y,z
-x,y,z
x,-y,z
1/2+x,1/2+y,z
1/2-x,1/2-y,z
1/2-x,1/2+y,z
1/2+x,1/2-y,z
loop_
_atom_site_type_symbol
_atom_site_label
_atom_site_fract_x
_atom_site_fract_y
_atom_site_fract_z
Si Si1 0.500000 0.316179 0.609020
Si Si2 0.405176 0.188088 0.174392
Si Si3 0.841522 0.314039 0.004870
Si Si4 0.162068 0.682903 0.693518
Si Si5 0.500000 0.187275 0.435367
Si Si6 0.837012 0.686210 0.337804
Si Si7 0.095978 0.819924 0.847360
O O1 0.500000 0.500000 0.617102
O O2 0.583184 0.251475 0.648665
O O3 0.500000 0.264341 0.519401
O O4 0.500000 0.235098 0.185154
O O5 0.352658 0.240182 0.248689
O O6 0.403696 0.000000 0.174756
O O7 0.373448 0.237304 0.089841
O O8 0.842704 0.500000 0.002328
O O9 0.750000 0.250000 0.994465
O O10 0.893646 0.248017 0.933389
O O11 0.162411 0.500000 0.684592
O O12 0.250000 0.750000 0.666932
O O13 0.148688 0.728446 0.783947
O O14 0.417301 0.230116 0.387938
O O15 0.500000 0.000000 0.443288
O O16 0.833465 0.500000 0.337678
O O17 0.750000 0.750000 0.366934
O O18 0.000000 0.809472 0.824551
O O19 0.120240 0.000000 0.846605
#
# Coordination Sequence:
#
# PCOD9349487 Si02
#       7
#     4   8   8   8   4   8   8
#     4  12  26  46  70  99 134 167 208 263 320 385
#     4   9  17  33  57  84 115 159 210 259 310 371
#     4  11  22  35  54  82 120 162 213 264 313 371
#     4  12  25  44  71 100 132 170 215 262 318 383
#     4  10  22  42  66  91 124 167 208 251 312 387
#     4  10  20  37  63  91 123 162 209 258 313 375
#     4  11  23  40  62  88 124 165 211 263 318 375
#
# _framework density 19.932879
#
# number of rings (size 3 to 8) (size 9 to 14) (size 15 to 20)
#    0.000    1.333    1.667    4.750    0.000    3.000 
#    0.000    2.500    0.000    2.000    0.000    0.000 
#    0.000    0.000    0.000    0.000    0.000    0.000 
#
# Total GULP energy -134179.230647 kJ/mol
# GULP energy per Si atom -5590.801277 kJ/mol
# Density = 1.988751 g / cm^3
# Si number density = 19.932879 Si / 1000 Ang^3
#
#
#
# Elastic Constant Matrix: (Units=GPa)
#
#
# Indices 1 2 3 4 5 6 
#
# 1 155.9899 55.1655 61.8911 0.0000 0.0000 0.0000
# 2 55.1655 93.0124 45.1229 0.0000 0.0000 0.0000
# 3 61.8911 45.1229 120.4980 0.0000 0.0000 0.0000
# 4 0.0000 0.0000 0.0000 18.0466 0.0000 0.0000
# 5 0.0000 0.0000 0.0000 0.0000 17.1740 0.0000
# 6 0.0000 0.0000 0.0000 0.0000 0.0000 27.8231
#
#
#
# Elastic Compliance Matrix: (Units=1/GPa)
#
#
# Indices 1 2 3 4 5 6 
#
# 1 0.009029 -0.003795 -0.003216 0.000000 0.000000 0.000000
# 2 -0.003795 0.014733 -0.003568 0.000000 0.000000 0.000000
# 3 -0.003216 -0.003568 0.011287 0.000000 0.000000 0.000000
# 4 0.000000 0.000000 0.000000 0.055412 0.000000 0.000000
# 5 0.000000 0.000000 0.000000 0.000000 0.058228 0.000000
# 6 0.000000 0.000000 0.000000 0.000000 0.000000 0.035941
#
#
# Mechanical properties :
#
#
# Convention : Reuss Voigt Hill
#
# Bulk Modulus (GPa) = 71.99140 77.09548 74.54344
# Shear Modulus (GPa) = 23.76223 26.43012 25.09617
#
# Velocity S-wave (km/s) = 3.45644 3.64532 3.55214
# Velocity P-wave (km/s) = 7.21974 7.51527 7.36899
#
# Compressibility (1/GPa) = 0.01389055
#
# Stress axis : x y z
#
# Youngs Moduli (GPa) = 110.75675 67.87608 88.59700
#
# Poissons Ratio (x) = 0.25756 0.28497
# Poissons Ratio (y) = 0.42027 0.31611
# Poissons Ratio (z) = 0.35625 0.24218
#
# Static dielectric constant tensor:
#      x y z
#    x 1.688440 0.000000 0.000000 
#    y 0.000000 1.672530 0.000000 
#    z 0.000000 0.000000 1.704360 
# 
# From -- ./inp_files/18756.got.cif
#   From: 2010.05.17/outbox.cif.g08.bks.cpg/sg35_10_cif.got.tgz:18756.got - 2010.06.03 17:29:28.
