data_PCOD9349628
_publ_section_title
;
Structure prediction by ZEFSAII (Michael W. Deem and Ramdas Pophale) SiO2 
 PCOD9349628
Probable space group: C M M 2
;
_chemical_formula_sum "Si O2"
_cell_formula_units_Z 64
_cell_length_a 8.944101
_cell_length_b 28.315767
_cell_length_c 13.376134
_cell_angle_alpha 90.000000
_cell_angle_beta 90.000000
_cell_angle_gamma 90.000000
_cell_volume 3387.627390
_symmetry_space_group_name_H-M "C M M 2"
_symmetry_group_IT_number 35
_symmetry_cell_setting 'orthorhombic'
loop_
_space_group_symop_operation_xyz
x,y,z
-x,-y,z
-x,y,z
x,-y,z
1/2+x,1/2+y,z
1/2-x,1/2-y,z
1/2-x,1/2+y,z
1/2+x,1/2-y,z
loop_
_atom_site_type_symbol
_atom_site_label
_atom_site_fract_x
_atom_site_fract_y
_atom_site_fract_z
Si Si1 0.822054 0.198590 0.861890
Si Si2 0.673570 0.942805 0.766873
Si Si3 0.177999 0.896059 0.960430
Si Si4 0.820951 0.302372 0.660128
Si Si5 0.819326 0.398720 0.361302
Si Si6 0.326643 0.442888 0.558021
Si Si7 0.680371 0.054941 0.151588
Si Si8 0.321470 0.198741 0.436790
O O1 0.750000 0.250000 0.879414
O O2 0.791352 0.159771 0.946136
O O3 0.753915 0.177198 0.759107
O O4 0.000000 0.204151 0.849831
O O5 0.500000 0.928363 0.768995
O O6 0.756992 0.922371 0.863074
O O7 0.744507 0.928411 0.660588
O O8 0.680334 0.000000 0.771833
O O9 0.000000 0.902531 0.962275
O O10 0.250130 0.916912 0.059726
O O11 0.750000 0.250000 0.657701
O O12 0.786495 0.320479 0.549088
O O13 0.000000 0.300969 0.672299
O O14 0.749456 0.423265 0.458261
O O15 0.774418 0.423777 0.258685
O O16 0.777383 0.343270 0.362967
O O17 0.000000 0.401460 0.370107
O O18 0.500000 0.428476 0.562376
O O19 0.320276 0.500000 0.554013
O O20 0.500000 0.057739 0.145307
O O21 0.723013 0.000000 0.145612
O O22 0.500000 0.205102 0.433135
O O23 0.250000 0.250000 0.421442
#
# Coordination Sequence:
#
# PCOD9349628 Si02
#       8
#     8   8   8   8   8   8   8   8
#     4  10  21  36  54  80 113 150 191 234 284 340
#     4  10  21  37  58  84 115 152 192 233 284 349
#     4  11  24  39  58  86 117 149 190 241 297 351
#     4   9  16  28  48  75 108 147 187 227 273 328
#     4  10  21  38  60  86 115 151 198 243 288 343
#     4  10  21  36  55  84 120 153 187 232 291 352
#     4  10  22  41  64  87 112 149 198 246 291 346
#     4   9  19  34  53  81 115 152 192 235 284 337
#
# _framework density 18.892278000000001
#
# number of rings (size 3 to 8) (size 9 to 14) (size 15 to 20)
#    0.000    2.125    0.000    3.375    1.750    7.250 
#    0.000    0.625    0.000    3.000    0.000    0.000 
#    0.000    0.000    0.000    0.000    0.000    0.000 
#
# Total GULP energy -178659.950689 kJ/mol
# GULP energy per Si atom -5583.123459 kJ/mol
# Density = 1.884928 g / cm^3
# Si number density = 18.892278 Si / 1000 Ang^3
#
#
#
# Elastic Constant Matrix: (Units=GPa)
#
#
# Indices 1 2 3 4 5 6 
#
# 1 59.3209 49.5213 55.2207 0.0000 0.0000 0.0000
# 2 49.5213 100.3933 73.4491 0.0000 0.0000 0.0000
# 3 55.2207 73.4491 143.1157 0.0000 0.0000 0.0000
# 4 0.0000 0.0000 0.0000 36.7550 0.0000 0.0000
# 5 0.0000 0.0000 0.0000 0.0000 -42.5241 0.0000
# 6 0.0000 0.0000 0.0000 0.0000 0.0000 21.2422
#
#
#
# Elastic Compliance Matrix: (Units=1/GPa)
#
#
# Indices 1 2 3 4 5 6 
#
# 1 0.032406 -0.010948 -0.006885 0.000000 0.000000 0.000000
# 2 -0.010948 0.019648 -0.005859 0.000000 0.000000 0.000000
# 3 -0.006885 -0.005859 0.012651 0.000000 0.000000 0.000000
# 4 0.000000 0.000000 0.000000 0.027207 0.000000 0.000000
# 5 0.000000 0.000000 0.000000 0.000000 -0.023516 0.000000
# 6 0.000000 0.000000 0.000000 0.000000 0.000000 0.047076
#
#
# Mechanical properties :
#
#
# Convention : Reuss Voigt Hill
#
# Bulk Modulus (GPa) = 57.73582 73.24581 65.49082
# Shear Modulus (GPa) = 29.65068 11.40388 20.52728
#
# Velocity S-wave (km/s) = 3.96594 2.45955 3.29985
# Velocity P-wave (km/s) = 7.18321 6.84983 7.01850
#
# Compressibility (1/GPa) = 0.01732027
#
# Stress axis : x y z
#
# Youngs Moduli (GPa) = 30.85856 50.89607 79.04412
#
# Poissons Ratio (x) = 0.55719 0.54424
# Poissons Ratio (y) = 0.33783 0.46316
# Poissons Ratio (z) = 0.21247 0.29822
#
# Static dielectric constant tensor:
#      x y z
#    x 1.641730 0.000000 0.000000 
#    y 0.000000 1.650140 0.000000 
#    z 0.000000 0.000000 1.639060 
# 
# From -- ./inp_files/11968.got.cif
#   From: 2010.05.17/outbox.cif.g08.bks.cpg/sg35_6_cif.got.tgz:11968.got - 2010.06.03 17:29:28.
