data_PCOD9349615
_publ_section_title
;
Structure prediction by ZEFSAII (Michael W. Deem and Ramdas Pophale) SiO2 
 PCOD9349615
Probable space group: C M M 2
;
_chemical_formula_sum "Si O2"
_cell_formula_units_Z 64
_cell_length_a 28.962541
_cell_length_b 8.178492
_cell_length_c 13.496156
_cell_angle_alpha 90.000000
_cell_angle_beta 90.000000
_cell_angle_gamma 90.000000
_cell_volume 3196.833255
_symmetry_space_group_name_H-M "C M M 2"
_symmetry_group_IT_number 35
_symmetry_cell_setting 'orthorhombic'
loop_
_space_group_symop_operation_xyz
x,y,z
-x,-y,z
-x,y,z
x,-y,z
1/2+x,1/2+y,z
1/2-x,1/2-y,z
1/2-x,1/2+y,z
1/2+x,1/2-y,z
loop_
_atom_site_type_symbol
_atom_site_label
_atom_site_fract_x
_atom_site_fract_y
_atom_site_fract_z
Si Si1 0.802917 0.306121 0.327150
Si Si2 0.947637 0.195895 0.612442
Si Si3 0.105799 0.200364 0.806670
Si Si4 0.893187 0.692987 0.420853
Si Si5 0.697429 0.696871 0.894375
Si Si6 0.303481 0.304450 0.113154
Si Si7 0.055576 0.194968 0.225278
Si Si8 0.553929 0.699223 0.005992
O O1 0.801979 0.500000 0.334668
O O2 0.750000 0.250000 0.338835
O O3 0.841148 0.241043 0.403437
O O4 0.821236 0.262982 0.216846
O O5 0.920447 0.258367 0.709030
O O6 0.920145 0.230339 0.512218
O O7 0.000000 0.260334 0.607546
O O8 0.950611 0.000000 0.623287
O O9 0.159247 0.251040 0.815797
O O10 0.080566 0.252795 0.908029
O O11 0.104827 0.000000 0.805923
O O12 0.890469 0.500000 0.439121
O O13 0.920658 0.722258 0.318633
O O14 0.697841 0.500000 0.896495
O O15 0.750000 0.750000 0.878116
O O16 0.680282 0.749890 0.004542
O O17 0.307239 0.500000 0.117972
O O18 0.250000 0.250000 0.113033
O O19 0.000000 0.216546 0.229824
O O20 0.064665 0.000000 0.231926
O O21 0.070821 0.252099 0.115203
O O22 0.500000 0.743258 0.997203
O O23 0.556250 0.500000 0.007979
#
# Coordination Sequence:
#
# PCOD9349615 Si02
#       8
#     8   8   8   8   8   8   8   8
#     4  10  21  36  53  76 106 141 183 225 270 321
#     4  10  21  38  61  85 106 135 182 235 277 320
#     4   9  17  31  53  80 108 137 176 222 272 320
#     4  11  24  38  54  78 109 145 182 222 274 332
#     4   9  18  31  49  76 109 145 180 215 261 317
#     4   9  16  27  47  74 105 143 179 214 259 310
#     4   9  18  32  53  82 111 140 178 221 266 323
#     4   8  14  26  48  79 110 135 164 212 269 320
#
# _framework density 20.019812000000002
#
# number of rings (size 3 to 8) (size 9 to 14) (size 15 to 20)
#    0.000    2.625    0.000    3.375    1.750    6.000 
#    0.000    1.250    0.000    3.750    0.000    1.750 
#    0.000    0.000    0.000    0.000    0.000    0.000 
#
# Total GULP energy -178473.100848 kJ/mol
# GULP energy per Si atom -5577.284401 kJ/mol
# Density = 1.997425 g / cm^3
# Si number density = 20.019812 Si / 1000 Ang^3
#
#
#
# Elastic Constant Matrix: (Units=GPa)
#
#
# Indices 1 2 3 4 5 6 
#
# 1 132.3447 13.3961 92.8745 0.0000 0.0000 0.0000
# 2 13.3961 8.9746 6.4837 0.0000 0.0000 0.0000
# 3 92.8745 6.4837 143.0595 0.0000 0.0000 0.0000
# 4 0.0000 0.0000 0.0000 -13.3373 0.0000 0.0000
# 5 0.0000 0.0000 0.0000 0.0000 36.5598 0.0000
# 6 0.0000 0.0000 0.0000 0.0000 0.0000 13.2641
#
#
#
# Elastic Compliance Matrix: (Units=1/GPa)
#
#
# Indices 1 2 3 4 5 6 
#
# 1 0.016044 -0.016980 -0.009646 0.000000 0.000000 0.000000
# 2 -0.016980 0.133168 0.004988 0.000000 0.000000 0.000000
# 3 -0.009646 0.004988 0.013026 0.000000 0.000000 0.000000
# 4 0.000000 0.000000 0.000000 -0.074977 0.000000 0.000000
# 5 0.000000 0.000000 0.000000 0.000000 0.027352 0.000000
# 6 0.000000 0.000000 0.000000 0.000000 0.000000 0.075391
#
#
# Mechanical properties :
#
#
# Convention : Reuss Voigt Hill
#
# Bulk Modulus (GPa) = 8.40604 56.65414 32.53009
# Shear Modulus (GPa) = 18.31938 18.73894 18.52916
#
# Velocity S-wave (km/s) = 3.02828 3.06276 3.04557
# Velocity P-wave (km/s) = 4.05405 6.39280 5.35272
#
# Compressibility (1/GPa) = 0.11896202
#
# Stress axis : x y z
#
# Youngs Moduli (GPa) = 62.32786 7.50933 76.76666
#
# Poissons Ratio (x) = 0.12751 0.74052
# Poissons Ratio (y) = 1.05831 -0.38290
# Poissons Ratio (z) = 0.60124 -0.03746
#
# Static dielectric constant tensor:
#      x y z
#    x 1.741230 0.000000 0.000000 
#    y 0.000000 1.708610 0.000000 
#    z 0.000000 0.000000 1.701800 
# 
# From -- ./inp_files/14522.got.cif
#   From: 2010.05.17/outbox.cif.g08.bks.cpg/sg35_8_cif.got.tgz:14522.got - 2010.06.03 17:29:28.
