data_PCOD9349895
_publ_section_title
;
Structure prediction by ZEFSAII (Michael W. Deem and Ramdas Pophale) SiO2 
 PCOD9349895
Probable space group: C M M 2
;
_chemical_formula_sum "Si O2"
_cell_formula_units_Z 64
_cell_length_a 18.751044
_cell_length_b 32.288712
_cell_length_c 5.626088
_cell_angle_alpha 90.000000
_cell_angle_beta 90.000000
_cell_angle_gamma 90.000000
_cell_volume 3406.298436
_symmetry_space_group_name_H-M "C M M 2"
_symmetry_group_IT_number 35
_symmetry_cell_setting 'orthorhombic'
loop_
_space_group_symop_operation_xyz
x,y,z
-x,-y,z
-x,y,z
x,-y,z
1/2+x,1/2+y,z
1/2-x,1/2-y,z
1/2-x,1/2+y,z
1/2+x,1/2-y,z
loop_
_atom_site_type_symbol
_atom_site_label
_atom_site_fract_x
_atom_site_fract_y
_atom_site_fract_z
Si Si1 0.584515 0.549509 0.790610
Si Si2 0.079168 0.166861 0.521863
Si Si3 0.779284 0.631767 0.241198
Si Si4 0.358600 0.586996 0.291883
Si Si5 0.312101 0.691290 0.915701
Si Si6 0.612395 0.249513 0.255585
Si Si7 0.579376 0.834213 0.009366
Si Si8 0.678094 0.194205 0.617286
O O1 0.500000 0.559386 0.775206
O O2 0.592008 0.500000 0.808790
O O3 0.620689 0.563630 0.539773
O O4 0.614668 0.568682 0.038844
O O5 0.101906 0.131223 0.337970
O O6 0.136868 0.167604 0.732166
O O7 0.078576 0.212230 0.398677
O O8 0.000000 0.158584 0.614586
O O9 0.727847 0.592350 0.272808
O O10 0.798638 0.651571 0.492695
O O11 0.723351 0.662841 0.116077
O O12 0.854896 0.636306 0.098719
O O13 0.241481 0.705581 0.787153
O O14 0.356464 0.728464 0.025284
O O15 0.670962 0.230344 0.428154
O O16 0.575666 0.206752 0.176287
O O17 0.500000 0.852717 0.999714
O O18 0.605734 0.815626 0.758164
#
# Coordination Sequence:
#
# PCOD9349895 Si02
#       8
#     8   8   8   8   8   8   8   8
#     4  11  25  45  71 102 135 172 207 243 299 372
#     4  12  25  36  52  80 115 157 208 263 312 360
#     4  10  22  38  60  84 113 153 205 262 313 374
#     4  12  23  43  67  94 133 167 210 256 308 367
#     4  11  21  38  50  73 109 151 211 268 324 376
#     4  11  23  35  51  74 110 152 217 265 318 368
#     4  10  23  39  56  77 112 158 207 269 325 374
#     4  10  22  37  54  74 105 154 208 266 323 377
#
# _framework density 18.788723000000001
#
# number of rings (size 3 to 8) (size 9 to 14) (size 15 to 20)
#    0.000    1.125    2.500    3.375    1.750   17.500 
#    0.000    0.000    0.000    0.000    0.000    0.000 
#    0.000    3.000    0.000    0.000    0.000    0.000 
#
# Total GULP energy -178396.982273 kJ/mol
# GULP energy per Si atom -5574.905696 kJ/mol
# Density = 1.874596 g / cm^3
# Si number density = 18.788723 Si / 1000 Ang^3
#
#
#
# Elastic Constant Matrix: (Units=GPa)
#
#
# Indices 1 2 3 4 5 6 
#
# 1 127.6923 40.1140 34.0146 0.0000 0.0000 0.0000
# 2 40.1140 59.4615 34.2785 0.0000 0.0000 0.0000
# 3 34.0146 34.2785 91.1625 0.0000 0.0000 0.0000
# 4 0.0000 0.0000 0.0000 31.4626 0.0000 0.0000
# 5 0.0000 0.0000 0.0000 0.0000 14.2390 0.0000
# 6 0.0000 0.0000 0.0000 0.0000 0.0000 16.0738
#
#
#
# Elastic Compliance Matrix: (Units=1/GPa)
#
#
# Indices 1 2 3 4 5 6 
#
# 1 0.010104 -0.005928 -0.001541 0.000000 0.000000 0.000000
# 2 -0.005928 0.024950 -0.007170 0.000000 0.000000 0.000000
# 3 -0.001541 -0.007170 0.014240 0.000000 0.000000 0.000000
# 4 0.000000 0.000000 0.000000 0.031784 0.000000 0.000000
# 5 0.000000 0.000000 0.000000 0.000000 0.070229 0.000000
# 6 0.000000 0.000000 0.000000 0.000000 0.000000 0.062213
#
#
# Mechanical properties :
#
#
# Convention : Reuss Voigt Hill
#
# Bulk Modulus (GPa) = 49.95785 55.01451 52.48618
# Shear Modulus (GPa) = 20.04244 23.68236 21.86240
#
# Velocity S-wave (km/s) = 3.26962 3.55414 3.41485
# Velocity P-wave (km/s) = 6.39538 6.79608 6.59877
#
# Compressibility (1/GPa) = 0.02001687
#
# Stress axis : x y z
#
# Youngs Moduli (GPa) = 98.96969 40.08013 70.22314
#
# Poissons Ratio (x) = 0.23760 0.10821
# Poissons Ratio (y) = 0.58670 0.50348
# Poissons Ratio (z) = 0.15251 0.28736
#
# Static dielectric constant tensor:
#      x y z
#    x 1.688550 0.000000 0.000000 
#    y 0.000000 1.673810 0.000000 
#    z 0.000000 0.000000 1.733160 
# 
# From -- ./inp_files/2739.got.cif
#   From: 2010.05.17/outbox.cif.g08.bks.cpg/sg35_2_cif.got.tgz:2739.got - 2010.06.03 17:29:28.
