data_PCOD9349325
_publ_section_title
;
Structure prediction by ZEFSAII (Michael W. Deem and Ramdas Pophale) SiO2 
 PCOD9349325
Probable space group: C M M 2
;
_chemical_formula_sum "Si O2"
_cell_formula_units_Z 64
_cell_length_a 8.887375
_cell_length_b 28.599690
_cell_length_c 13.220846
_cell_angle_alpha 90.000000
_cell_angle_beta 90.000000
_cell_angle_gamma 90.000000
_cell_volume 3360.423999
_symmetry_space_group_name_H-M "C M M 2"
_symmetry_group_IT_number 35
_symmetry_cell_setting 'orthorhombic'
loop_
_space_group_symop_operation_xyz
x,y,z
-x,-y,z
-x,y,z
x,-y,z
1/2+x,1/2+y,z
1/2-x,1/2-y,z
1/2-x,1/2+y,z
1/2+x,1/2-y,z
loop_
_atom_site_type_symbol
_atom_site_label
_atom_site_fract_x
_atom_site_fract_y
_atom_site_fract_z
Si Si1 0.679595 0.642581 0.829680
Si Si2 0.670864 0.056722 0.136699
Si Si3 0.180306 0.358913 0.439370
Si Si4 0.319514 0.698220 0.624580
Si Si5 0.178521 0.054788 0.347580
Si Si6 0.318269 0.054268 0.908954
Si Si7 0.319538 0.801437 0.240892
Si Si8 0.819168 0.698078 0.016230
O O1 0.500000 0.641586 0.839746
O O2 0.717399 0.671343 0.728733
O O3 0.744286 0.590162 0.831921
O O4 0.752201 0.668299 0.925643
O O5 0.500000 0.074977 0.151057
O O6 0.769274 0.068272 0.233877
O O7 0.661619 0.000000 0.134271
O O8 0.725389 0.068823 0.024148
O O9 0.253758 0.331626 0.532116
O O10 0.238026 0.411612 0.425792
O O11 0.226279 0.332738 0.335407
O O12 0.000000 0.357771 0.447754
O O13 0.500000 0.701580 0.615880
O O14 0.250000 0.750000 0.624671
O O15 0.000000 0.060234 0.356545
O O16 0.216341 0.000000 0.361616
O O17 0.500000 0.057390 0.905342
O O18 0.277054 0.000000 0.893209
O O19 0.500000 0.797091 0.243637
O O20 0.250000 0.750000 0.250653
O O21 0.280460 0.820344 0.129024
O O22 0.750000 0.750000 0.010036
O O23 0.000000 0.699934 0.007544
#
# Coordination Sequence:
#
# PCOD9349325 Si02
#       8
#     8   8   8   8   8   8   8   8
#     4  11  24  39  59  88 119 155 200 246 298 356
#     4   8  15  30  52  78 112 155 198 240 287 341
#     4  11  23  39  62  89 117 153 201 247 299 358
#     4  11  25  45  66  89 118 152 197 251 303 355
#     4  10  21  36  55  84 122 161 201 246 296 349
#     4   9  19  36  58  85 119 159 202 248 297 350
#     4   9  20  36  55  83 116 149 185 232 290 352
#     4  10  20  36  57  83 118 154 190 236 294 356
#
# _framework density 19.045214999999999
#
# number of rings (size 3 to 8) (size 9 to 14) (size 15 to 20)
#    0.000    2.125    0.000    3.375    1.750    7.000 
#    0.000    1.875    0.000    0.750    0.000    0.000 
#    0.000    0.000    0.000    0.000    0.000    0.000 
#
# Total GULP energy -178748.622508 kJ/mol
# GULP energy per Si atom -5585.894453 kJ/mol
# Density = 1.900187 g / cm^3
# Si number density = 19.045215 Si / 1000 Ang^3
#
#
#
# Elastic Constant Matrix: (Units=GPa)
#
#
# Indices 1 2 3 4 5 6 
#
# 1 50.7953 54.9318 62.5317 0.0000 0.0000 0.0000
# 2 54.9318 122.4621 85.9117 0.0000 0.0000 0.0000
# 3 62.5317 85.9117 132.9255 0.0000 0.0000 0.0000
# 4 0.0000 0.0000 0.0000 34.2210 0.0000 0.0000
# 5 0.0000 0.0000 0.0000 0.0000 30.8301 0.0000
# 6 0.0000 0.0000 0.0000 0.0000 0.0000 30.6199
#
#
#
# Elastic Compliance Matrix: (Units=1/GPa)
#
#
# Indices 1 2 3 4 5 6 
#
# 1 0.054853 -0.011896 -0.018116 0.000000 0.000000 0.000000
# 2 -0.011896 0.017520 -0.005727 0.000000 0.000000 0.000000
# 3 -0.018116 -0.005727 0.019747 0.000000 0.000000 0.000000
# 4 0.000000 0.000000 0.000000 0.029222 0.000000 0.000000
# 5 0.000000 0.000000 0.000000 0.000000 0.032436 0.000000
# 6 0.000000 0.000000 0.000000 0.000000 0.000000 0.032659
#
#
# Mechanical properties :
#
#
# Convention : Reuss Voigt Hill
#
# Bulk Modulus (GPa) = 48.44564 79.21482 63.83023
# Shear Modulus (GPa) = 18.88262 25.98804 22.43533
#
# Velocity S-wave (km/s) = 3.15217 3.69798 3.43593
# Velocity P-wave (km/s) = 6.22419 7.74059 7.02344
#
# Compressibility (1/GPa) = 0.02064169
#
# Stress axis : x y z
#
# Youngs Moduli (GPa) = 18.23046 57.07901 50.64176
#
# Poissons Ratio (x) = 0.67902 0.91742
# Poissons Ratio (y) = 0.21687 0.29002
# Poissons Ratio (z) = 0.33026 0.32688
#
# Static dielectric constant tensor:
#      x y z
#    x 1.634900 0.000000 0.000000 
#    y 0.000000 1.684810 0.000000 
#    z 0.000000 0.000000 1.650720 
# 
# From -- ./inp_files/11860.got.cif
#   From: 2010.05.17/outbox.cif.g08.bks.cpg/sg35_6_cif.got.tgz:11860.got - 2010.06.03 17:29:28.
