data_PCOD9349712
_publ_section_title
;
Structure prediction by ZEFSAII (Michael W. Deem and Ramdas Pophale) SiO2 
 PCOD9349712
Probable space group: C M M 2
;
_chemical_formula_sum "Si O2"
_cell_formula_units_Z 48
_cell_length_a 38.396827
_cell_length_b 8.723527
_cell_length_c 7.785527
_cell_angle_alpha 90.000000
_cell_angle_beta 90.000000
_cell_angle_gamma 90.000000
_cell_volume 2607.807090
_symmetry_space_group_name_H-M "C M M 2"
_symmetry_group_IT_number 35
_symmetry_cell_setting 'orthorhombic'
loop_
_space_group_symop_operation_xyz
x,y,z
-x,-y,z
-x,y,z
x,-y,z
1/2+x,1/2+y,z
1/2-x,1/2-y,z
1/2-x,1/2+y,z
1/2+x,1/2-y,z
loop_
_atom_site_type_symbol
_atom_site_label
_atom_site_fract_x
_atom_site_fract_y
_atom_site_fract_z
Si Si1 0.211870 0.816181 0.699420
Si Si2 0.040304 0.315787 0.058347
Si Si3 0.587177 0.183786 0.383149
Si Si4 0.459386 0.683090 0.685401
Si Si5 0.288445 0.183137 0.072089
Si Si6 0.164443 0.183418 0.372879
O O1 0.250000 0.750000 0.655564
O O2 0.184956 0.778783 0.548675
O O3 0.214325 0.000000 0.716459
O O4 0.201802 0.745136 0.883079
O O5 0.042291 0.500000 0.036762
O O6 0.065584 0.270886 0.212823
O O7 0.000000 0.277695 0.100640
O O8 0.049161 0.236912 0.878260
O O9 0.565268 0.237903 0.547350
O O10 0.625136 0.257913 0.381942
O O11 0.590262 0.000000 0.384408
O O12 0.500000 0.725014 0.654227
O O13 0.456226 0.500000 0.672797
O O14 0.250000 0.250000 0.110496
O O15 0.315224 0.240339 0.214820
O O16 0.286674 0.000000 0.069286
O O17 0.165179 0.000000 0.352306
#
# Coordination Sequence:
#
# PCOD9349712 Si02
#       6
#     8   8   8   8   8   8
#     4  10  21  38  61  86 112 146 188 234 282 332
#     4   9  19  37  60  84 110 144 188 235 281 332
#     4  11  23  38  58  84 115 152 191 233 284 339
#     4  10  21  37  59  86 114 147 187 232 283 337
#     4  11  22  38  62  88 115 148 188 234 282 335
#     4  11  24  40  58  83 117 154 191 234 284 338
#
# _framework density 18.406267
#
# number of rings (size 3 to 8) (size 9 to 14) (size 15 to 20)
#    0.000    1.667    0.000    5.500    0.000    8.333 
#    0.000    1.667    0.000    0.000    0.000    0.000 
#    0.000    0.000    0.000    0.000    0.000    0.000 
#
# Total GULP energy -134163.278861 kJ/mol
# GULP energy per Si atom -5590.136619 kJ/mol
# Density = 1.836437 g / cm^3
# Si number density = 18.406267 Si / 1000 Ang^3
#
#
#
# Elastic Constant Matrix: (Units=GPa)
#
#
# Indices 1 2 3 4 5 6 
#
# 1 130.5579 64.6603 119.9054 0.0000 0.0000 0.0000
# 2 64.6603 82.1449 69.2618 0.0000 0.0000 0.0000
# 3 119.9054 69.2618 148.1872 0.0000 0.0000 0.0000
# 4 0.0000 0.0000 0.0000 -31.7999 0.0000 0.0000
# 5 0.0000 0.0000 0.0000 0.0000 -17.6529 0.0000
# 6 0.0000 0.0000 0.0000 0.0000 0.0000 25.3752
#
#
#
# Elastic Compliance Matrix: (Units=1/GPa)
#
#
# Indices 1 2 3 4 5 6 
#
# 1 0.031206 -0.005403 -0.022725 0.000000 0.000000 0.000000
# 2 -0.005403 0.021027 -0.005456 0.000000 0.000000 0.000000
# 3 -0.022725 -0.005456 0.027687 0.000000 0.000000 0.000000
# 4 0.000000 0.000000 0.000000 -0.031447 0.000000 0.000000
# 5 0.000000 0.000000 0.000000 0.000000 -0.056648 0.000000
# 6 0.000000 0.000000 0.000000 0.000000 0.000000 0.039409
#
#
# Mechanical properties :
#
#
# Convention : Reuss Voigt Hill
#
# Bulk Modulus (GPa) = 78.42406 96.50500 87.46453
# Shear Modulus (GPa) = 48.70770 2.32197 25.51484
#
# Velocity S-wave (km/s) = 5.14976 1.12439 3.72721
# Velocity P-wave (km/s) = 8.83514 7.36410 8.13295
#
# Compressibility (1/GPa) = 0.01275119
#
# Stress axis : x y z
#
# Youngs Moduli (GPa) = 32.04469 47.55814 36.11856
#
# Poissons Ratio (x) = 0.25695 0.82081
# Poissons Ratio (y) = 0.17313 0.19707
# Poissons Ratio (z) = 0.72823 0.25948
#
# Static dielectric constant tensor:
#      x y z
#    x 1.613000 0.000000 0.000000 
#    y 0.000000 1.618530 0.000000 
#    z 0.000000 0.000000 1.608410 
# 
# From -- ./inp_files/10476.got.cif
#   From: 2010.05.17/outbox.cif.g08.bks.cpg/sg35_6_cif.got.tgz:10476.got - 2010.06.03 17:29:28.
