data_PCOD9349932
_publ_section_title
;
Structure prediction by ZEFSAII (Michael W. Deem and Ramdas Pophale) SiO2 
 PCOD9349932
Probable space group: C M M 2
;
_chemical_formula_sum "Si O2"
_cell_formula_units_Z 56
_cell_length_a 14.843184
_cell_length_b 14.164662
_cell_length_c 13.058260
_cell_angle_alpha 90.000000
_cell_angle_beta 90.000000
_cell_angle_gamma 90.000000
_cell_volume 2745.481985
_symmetry_space_group_name_H-M "C M M 2"
_symmetry_group_IT_number 35
_symmetry_cell_setting 'orthorhombic'
loop_
_space_group_symop_operation_xyz
x,y,z
-x,-y,z
-x,y,z
x,-y,z
1/2+x,1/2+y,z
1/2-x,1/2-y,z
1/2-x,1/2+y,z
1/2+x,1/2-y,z
loop_
_atom_site_type_symbol
_atom_site_label
_atom_site_fract_x
_atom_site_fract_y
_atom_site_fract_z
Si Si1 0.201755 0.111139 0.687650
Si Si2 0.903072 0.195889 0.495661
Si Si3 0.733191 0.395331 0.358783
Si Si4 0.394420 0.780823 0.996901
Si Si5 0.899508 0.387095 0.212207
Si Si6 0.639280 0.102800 0.553568
Si Si7 0.219469 0.113722 0.922058
O O1 0.143908 0.161197 0.600436
O O2 0.306508 0.124739 0.657296
O O3 0.189288 0.136413 0.805496
O O4 0.183508 0.000000 0.677856
O O5 0.845871 0.173990 0.393614
O O6 0.911344 0.306778 0.514500
O O7 0.000000 0.149778 0.485769
O O8 0.699020 0.500000 0.329166
O O9 0.811241 0.367147 0.279915
O O10 0.784574 0.405868 0.466574
O O11 0.500000 0.780270 0.961803
O O12 0.321527 0.847726 0.938338
O O13 0.347995 0.677105 0.991067
O O14 0.395578 0.823969 0.111037
O O15 0.895266 0.500000 0.187963
O O16 0.000000 0.372664 0.260511
O O17 0.596148 0.000000 0.561379
O O18 0.215666 0.000000 0.938131
#
# Coordination Sequence:
#
# PCOD9349932 Si02
#       7
#     8   8   8   8   8   8   8
#     4   9  19  37  59  82 117 164 206 245 297 365
#     4  11  22  34  56  90 128 165 202 245 296 362
#     4   9  18  35  60  86 116 156 200 245 295 360
#     4  10  22  39  64  96 124 159 214 271 319 377
#     4   9  18  36  64  94 122 157 204 258 319 382
#     4   9  19  36  56  79 112 156 203 249 296 349
#     4  10  22  40  63  93 131 171 211 261 323 380
#
# _framework density 20.397147
#
# number of rings (size 3 to 8) (size 9 to 14) (size 15 to 20)
#    0.000    2.429    0.000    3.429    4.000    3.714 
#    5.143    2.857    0.000    3.429    0.000    6.000 
#    0.000    0.000    0.000    0.000    0.000    0.000 
#
# Total GULP energy -155887.677961 kJ/mol
# GULP energy per Si atom -5567.417070 kJ/mol
# Density = 2.035072 g / cm^3
# Si number density = 20.397147 Si / 1000 Ang^3
#
#
#
# Elastic Constant Matrix: (Units=GPa)
#
#
# Indices 1 2 3 4 5 6 
#
# 1 142.8667 70.5639 44.0168 0.0000 0.0000 0.0000
# 2 70.5639 118.3245 40.2076 0.0000 0.0000 0.0000
# 3 44.0168 40.2076 69.2907 0.0000 0.0000 0.0000
# 4 0.0000 0.0000 0.0000 26.5885 0.0000 0.0000
# 5 0.0000 0.0000 0.0000 0.0000 -17.6071 0.0000
# 6 0.0000 0.0000 0.0000 0.0000 0.0000 13.2835
#
#
#
# Elastic Compliance Matrix: (Units=1/GPa)
#
#
# Indices 1 2 3 4 5 6 
#
# 1 0.010688 -0.005065 -0.003850 0.000000 0.000000 0.000000
# 2 -0.005065 0.012928 -0.004284 0.000000 0.000000 0.000000
# 3 -0.003850 -0.004284 0.019363 0.000000 0.000000 0.000000
# 4 0.000000 0.000000 0.000000 0.037610 0.000000 0.000000
# 5 0.000000 0.000000 0.000000 0.000000 -0.056795 0.000000
# 6 0.000000 0.000000 0.000000 0.000000 0.000000 0.075281
#
#
# Mechanical properties :
#
#
# Convention : Reuss Voigt Hill
#
# Bulk Modulus (GPa) = 60.31225 71.11762 65.71493
# Shear Modulus (GPa) = 38.16782 16.16589 27.16685
#
# Velocity S-wave (km/s) = 4.33047 2.81829 3.65347
# Velocity P-wave (km/s) = 7.39169 6.74778 7.07706
#
# Compressibility (1/GPa) = 0.01658038
#
# Stress axis : x y z
#
# Youngs Moduli (GPa) = 93.56690 77.35256 51.64359
#
# Poissons Ratio (x) = 0.39182 0.19882
# Poissons Ratio (y) = 0.47395 0.22124
# Poissons Ratio (z) = 0.36023 0.33137
#
# Static dielectric constant tensor:
#      x y z
#    x 1.783940 0.000000 0.000000 
#    y 0.000000 1.794580 0.000000 
#    z 0.000000 0.000000 1.711350 
# 
# From -- ./inp_files/12961.got.cif
#   From: 2010.05.17/outbox.cif.g08.bks.cpg/sg35_7_cif.got.tgz:12961.got - 2010.06.03 17:29:28.
