data_PCOD9349810
_publ_section_title
;
Structure prediction by ZEFSAII (Michael W. Deem and Ramdas Pophale) SiO2 
 PCOD9349810
Probable space group: C M M 2
;
_chemical_formula_sum "Si O2"
_cell_formula_units_Z 64
_cell_length_a 18.321467
_cell_length_b 18.983042
_cell_length_c 9.691385
_cell_angle_alpha 90.000000
_cell_angle_beta 90.000000
_cell_angle_gamma 90.000000
_cell_volume 3370.636350
_symmetry_space_group_name_H-M "C M M 2"
_symmetry_group_IT_number 35
_symmetry_cell_setting 'orthorhombic'
loop_
_space_group_symop_operation_xyz
x,y,z
-x,-y,z
-x,y,z
x,-y,z
1/2+x,1/2+y,z
1/2-x,1/2-y,z
1/2-x,1/2+y,z
1/2+x,1/2-y,z
loop_
_atom_site_type_symbol
_atom_site_label
_atom_site_fract_x
_atom_site_fract_y
_atom_site_fract_z
Si Si1 0.705096 0.678393 0.087340
Si Si2 0.819211 0.580220 0.933877
Si Si3 0.320094 0.342418 0.397037
Si Si4 0.583690 0.846722 0.718116
Si Si5 0.912713 0.082096 0.625077
Si Si6 0.084954 0.806084 0.860850
Si Si7 0.586274 0.079997 0.203195
Si Si8 0.847465 0.320835 0.429676
O O1 0.750000 0.750000 0.119475
O O2 0.685756 0.642631 0.233408
O O3 0.755960 0.629933 0.991757
O O4 0.634357 0.695449 0.996406
O O5 0.793641 0.500000 0.923247
O O6 0.856647 0.606005 0.794374
O O7 0.882655 0.584117 0.049375
O O8 0.369012 0.393117 0.489920
O O9 0.237267 0.340124 0.453616
O O10 0.351004 0.263024 0.409559
O O11 0.500000 0.870338 0.739542
O O12 0.591026 0.768456 0.782437
O O13 0.602799 0.842393 0.557765
O O14 0.892322 0.132712 0.753288
O O15 0.000000 0.091155 0.603361
O O16 0.898812 0.000000 0.654871
O O17 0.000000 0.817216 0.896008
O O18 0.500000 0.091306 0.204792
O O19 0.625964 0.137338 0.296056
O O20 0.601284 0.000000 0.253898
#
# Coordination Sequence:
#
# PCOD9349810 Si02
#       8
#     8   8   8   8   8   8   8   8
#     4  12  22  41  66  94 129 165 211 261 306 368
#     4  11  24  41  62  92 127 167 208 254 313 376
#     4  11  23  39  63  94 126 162 206 256 316 365
#     4  11  23  39  62  92 125 164 207 257 312 370
#     4  10  23  44  67  92 124 163 207 259 320 378
#     4  10  23  41  64  93 124 162 207 257 315 373
#     4  10  21  39  61  85 121 168 209 251 308 370
#     4  11  22  38  60  92 125 161 209 260 304 369
#
# _framework density 18.987513
#
# number of rings (size 3 to 8) (size 9 to 14) (size 15 to 20)
#    0.000    1.250    5.000    0.750    1.750    3.750 
#    0.000    0.000    0.000    1.500    0.000    0.000 
#    0.000    0.000    0.000    0.000    0.000    0.000 
#
# Total GULP energy -178828.374000 kJ/mol
# GULP energy per Si atom -5588.386687 kJ/mol
# Density = 1.894430 g / cm^3
# Si number density = 18.987513 Si / 1000 Ang^3
#
#
#
# Elastic Constant Matrix: (Units=GPa)
#
#
# Indices 1 2 3 4 5 6 
#
# 1 35.1792 6.4777 13.3051 0.0000 0.0000 0.0000
# 2 6.4777 35.9554 -15.2531 0.0000 0.0000 0.0000
# 3 13.3051 -15.2531 54.5733 0.0000 0.0000 0.0000
# 4 0.0000 0.0000 0.0000 24.9778 0.0000 0.0000
# 5 0.0000 0.0000 0.0000 0.0000 33.7208 0.0000
# 6 0.0000 0.0000 0.0000 0.0000 0.0000 24.3208
#
#
#
# Elastic Compliance Matrix: (Units=1/GPa)
#
#
# Indices 1 2 3 4 5 6 
#
# 1 0.034898 -0.011228 -0.011646 0.000000 0.000000 0.000000
# 2 -0.011228 0.035166 0.012566 0.000000 0.000000 0.000000
# 3 -0.011646 0.012566 0.024676 0.000000 0.000000 0.000000
# 4 0.000000 0.000000 0.000000 0.040036 0.000000 0.000000
# 5 0.000000 0.000000 0.000000 0.000000 0.029655 0.000000
# 6 0.000000 0.000000 0.000000 0.000000 0.000000 0.041117
#
#
# Mechanical properties :
#
#
# Convention : Reuss Voigt Hill
#
# Bulk Modulus (GPa) = 13.49101 14.97415 14.23258
# Shear Modulus (GPa) = 19.93050 24.68241 22.30645
#
# Velocity S-wave (km/s) = 3.24337 3.60936 3.43125
# Velocity P-wave (km/s) = 4.59853 5.02727 4.81767
#
# Compressibility (1/GPa) = 0.07412341
#
# Stress axis : x y z
#
# Youngs Moduli (GPa) = 28.65487 28.43659 40.52581
#
# Poissons Ratio (x) = 0.31928 0.47198
# Poissons Ratio (y) = 0.32173 -0.50926
# Poissons Ratio (z) = 0.33373 -0.35734
#
# Static dielectric constant tensor:
#      x y z
#    x 1.646990 0.000000 0.000000 
#    y 0.000000 1.656330 0.000000 
#    z 0.000000 0.000000 1.628280 
# 
# From -- ./inp_files/8744.got.cif
#   From: 2010.05.17/outbox.cif.g08.bks.cpg/sg35_5_cif.got.tgz:8744.got - 2010.06.03 17:29:28.
