data_PCOD9349570
_publ_section_title
;
Structure prediction by ZEFSAII (Michael W. Deem and Ramdas Pophale) SiO2 
 PCOD9349570
Probable space group: C M M 2
;
_chemical_formula_sum "Si O2"
_cell_formula_units_Z 64
_cell_length_a 26.472560
_cell_length_b 7.569542
_cell_length_c 12.903421
_cell_angle_alpha 90.000000
_cell_angle_beta 90.000000
_cell_angle_gamma 90.000000
_cell_volume 2585.654014
_symmetry_space_group_name_H-M "C M M 2"
_symmetry_group_IT_number 35
_symmetry_cell_setting 'orthorhombic'
loop_
_space_group_symop_operation_xyz
x,y,z
-x,-y,z
-x,y,z
x,-y,z
1/2+x,1/2+y,z
1/2-x,1/2-y,z
1/2-x,1/2+y,z
1/2+x,1/2-y,z
loop_
_atom_site_type_symbol
_atom_site_label
_atom_site_fract_x
_atom_site_fract_y
_atom_site_fract_z
Si Si1 0.305005 0.788924 0.212460
Si Si2 0.194576 0.801856 0.537286
Si Si3 0.554528 0.785010 0.053684
Si Si4 0.084431 0.792067 0.505927
Si Si5 0.553797 0.202602 0.726633
Si Si6 0.086633 0.287052 0.281653
Si Si7 0.332794 0.784866 0.764184
Si Si8 0.165038 0.715395 0.987615
O O1 0.250000 0.750000 0.256039
O O2 0.354912 0.724230 0.271216
O O3 0.308631 0.723157 0.093239
O O4 0.310072 0.000000 0.208991
O O5 0.250000 0.750000 0.501786
O O6 0.141796 0.712870 0.505212
O O7 0.193665 0.789592 0.662567
O O8 0.188513 0.000000 0.501281
O O9 0.500000 0.725634 0.013800
O O10 0.560397 0.733008 0.174530
O O11 0.606043 0.730782 0.997561
O O12 0.554784 0.000000 0.050741
O O13 0.056327 0.703811 0.601463
O O14 0.064189 0.772923 0.390275
O O15 0.085353 0.000000 0.532326
O O16 0.500000 0.283566 0.757683
O O17 0.608349 0.274075 0.758770
O O18 0.553598 0.000000 0.764638
O O19 0.085774 0.500000 0.282709
O O20 0.331167 0.000000 0.755966
O O21 0.313335 0.728936 0.876913
O O22 0.166025 0.500000 0.987968
#
# Coordination Sequence:
#
# PCOD9349570 Si02
#       8
#     8   8   8   8   8   8   8   8
#     4   9  18  32  48  68  96 128 160 195 237 283
#     4  10  21  36  52  71  96 126 161 200 244 293
#     4   8  14  26  46  72  99 126 157 193 234 280
#     4  10  21  35  51  72  97 126 161 201 245 291
#     4   9  18  32  50  73 100 130 164 200 239 284
#     4   9  18  32  49  70  97 126 157 197 241 284
#     4   9  17  31  51  74 101 130 161 200 241 281
#     4   8  15  28  46  70  99 127 156 194 237 278
#
# _framework density 24.751957999999998
#
# number of rings (size 3 to 8) (size 9 to 14) (size 15 to 20)
#    0.000    3.000    0.000    2.250    0.000    4.250 
#    0.000    8.125    0.000    0.750    0.000    0.000 
#    0.000    0.000    0.000    0.000    0.000    0.000 
#
# Total GULP energy -178661.064236 kJ/mol
# GULP energy per Si atom -5583.158257 kJ/mol
# Density = 2.469562 g / cm^3
# Si number density = 24.751958 Si / 1000 Ang^3
#
#
#
# Elastic Constant Matrix: (Units=GPa)
#
#
# Indices 1 2 3 4 5 6 
#
# 1 121.6343 -1.7939 -6.1087 0.0000 0.0000 0.0000
# 2 -1.7939 60.4255 -12.2453 0.0000 0.0000 0.0000
# 3 -6.1087 -12.2453 124.1638 0.0000 0.0000 0.0000
# 4 0.0000 0.0000 0.0000 -247.7023 0.0000 0.0000
# 5 0.0000 0.0000 0.0000 0.0000 -17.5614 0.0000
# 6 0.0000 0.0000 0.0000 0.0000 0.0000 3.8499
#
#
#
# Elastic Compliance Matrix: (Units=1/GPa)
#
#
# Indices 1 2 3 4 5 6 
#
# 1 0.008248 0.000334 0.000439 0.000000 0.000000 0.000000
# 2 0.000334 0.016900 0.001683 0.000000 0.000000 0.000000
# 3 0.000439 0.001683 0.008241 0.000000 0.000000 0.000000
# 4 0.000000 0.000000 0.000000 -0.004037 0.000000 0.000000
# 5 0.000000 0.000000 0.000000 0.000000 -0.056943 0.000000
# 6 0.000000 0.000000 0.000000 0.000000 0.000000 0.259747
#
#
# Mechanical properties :
#
#
# Convention : Reuss Voigt Hill
#
# Bulk Modulus (GPa) = 26.10870 29.54755 27.82812
# Shear Modulus (GPa) = 20.83220 -30.52465 -4.84623
#
# Velocity S-wave (km/s) = 2.90425 -3.51554 -1.40077
# Velocity P-wave (km/s) = 4.67089 2.12492 2.94125
#
# Compressibility (1/GPa) = 0.03830142
#
# Stress axis : x y z
#
# Youngs Moduli (GPa) = 121.23678 59.17056 121.33778
#
# Poissons Ratio (x) = -0.01975 -0.05323
# Poissons Ratio (y) = -0.04047 -0.20423
# Poissons Ratio (z) = -0.05319 -0.09959
#
# Static dielectric constant tensor:
#      x y z
#    x 1.996520 0.000000 0.000000 
#    y 0.000000 2.304620 0.000000 
#    z 0.000000 0.000000 1.943250 
# 
# From -- ./inp_files/17755.got.cif
#   From: 2010.05.17/outbox.cif.g08.bks.cpg/sg35_9_cif.got.tgz:17755.got - 2010.06.03 17:29:28.
