data_PCOD9349702
_publ_section_title
;
Structure prediction by ZEFSAII (Michael W. Deem and Ramdas Pophale) SiO2 
 PCOD9349702
Probable space group: C M M 2
;
_chemical_formula_sum "Si O2"
_cell_formula_units_Z 64
_cell_length_a 22.497718
_cell_length_b 21.915134
_cell_length_c 6.421396
_cell_angle_alpha 90.000000
_cell_angle_beta 90.000000
_cell_angle_gamma 90.000000
_cell_volume 3166.008324
_symmetry_space_group_name_H-M "C M M 2"
_symmetry_group_IT_number 35
_symmetry_cell_setting 'orthorhombic'
loop_
_space_group_symop_operation_xyz
x,y,z
-x,-y,z
-x,y,z
x,-y,z
1/2+x,1/2+y,z
1/2-x,1/2-y,z
1/2-x,1/2+y,z
1/2+x,1/2-y,z
loop_
_atom_site_type_symbol
_atom_site_label
_atom_site_fract_x
_atom_site_fract_y
_atom_site_fract_z
Si Si1 0.569707 0.731159 0.898690
Si Si2 0.068537 0.885390 0.596291
Si Si3 0.644142 0.345747 0.215135
Si Si4 0.674794 0.431054 0.833038
Si Si5 0.249997 0.860528 0.481467
Si Si6 0.171776 0.571560 0.139612
Si Si7 0.068190 0.428290 0.448931
Si Si8 0.354927 0.154091 0.753456
O O1 0.500000 0.741874 0.944246
O O2 0.572341 0.680091 0.715645
O O3 0.604866 0.790813 0.830343
O O4 0.605470 0.704113 0.094927
O O5 0.099524 0.879662 0.372620
O O6 0.108580 0.929228 0.736549
O O7 0.000000 0.902770 0.581445
O O8 0.699899 0.324076 0.354063
O O9 0.670878 0.391022 0.041117
O O10 0.693685 0.500000 0.873774
O O11 0.715441 0.399620 0.656974
O O12 0.283384 0.905257 0.318696
O O13 0.301599 0.824674 0.601993
O O14 0.180900 0.500000 0.093284
O O15 0.105848 0.578545 0.237914
O O16 0.173827 0.615272 0.940913
O O17 0.069569 0.500000 0.503191
O O18 0.102686 0.390759 0.623214
O O19 0.000000 0.408894 0.427013
#
# Coordination Sequence:
#
# PCOD9349702 Si02
#       8
#     8   8   8   8   8   8   8   8
#     4  10  22  41  63  86 114 152 201 250 295 347
#     4   9  20  40  61  83 116 153 187 232 293 352
#     4  10  21  39  61  86 114 153 194 236 293 350
#     4  10  21  38  61  88 117 151 192 236 285 348
#     4  10  22  39  57  82 119 158 194 234 289 356
#     4  10  21  37  58  85 118 156 195 238 291 348
#     4   9  19  35  54  81 119 157 192 236 292 350
#     4  11  22  37  58  88 115 149 198 247 294 343
#
# _framework density 20.214728000000001
#
# number of rings (size 3 to 8) (size 9 to 14) (size 15 to 20)
#    0.000    2.125    0.000    2.250    0.000    8.750 
#    0.000   16.250    0.000    0.000    0.000    0.000 
#    0.000    0.000    0.000    0.000    0.000    0.000 
#
# Total GULP energy -178716.320462 kJ/mol
# GULP energy per Si atom -5584.885014 kJ/mol
# Density = 2.016872 g / cm^3
# Si number density = 20.214728 Si / 1000 Ang^3
#
#
#
# Elastic Constant Matrix: (Units=GPa)
#
#
# Indices 1 2 3 4 5 6 
#
# 1 163.6970 33.1202 72.5456 0.0000 0.0000 0.0000
# 2 33.1202 54.7515 38.8280 0.0000 0.0000 0.0000
# 3 72.5456 38.8280 113.2868 0.0000 0.0000 0.0000
# 4 0.0000 0.0000 0.0000 10.9537 0.0000 0.0000
# 5 0.0000 0.0000 0.0000 0.0000 31.5518 0.0000
# 6 0.0000 0.0000 0.0000 0.0000 0.0000 14.1774
#
#
#
# Elastic Compliance Matrix: (Units=1/GPa)
#
#
# Indices 1 2 3 4 5 6 
#
# 1 0.008651 -0.001723 -0.004949 0.000000 0.000000 0.000000
# 2 -0.001723 0.024473 -0.007284 0.000000 0.000000 0.000000
# 3 -0.004949 -0.007284 0.014493 0.000000 0.000000 0.000000
# 4 0.000000 0.000000 0.000000 0.091293 0.000000 0.000000
# 5 0.000000 0.000000 0.000000 0.000000 0.031694 0.000000
# 6 0.000000 0.000000 0.000000 0.000000 0.000000 0.070535
#
#
# Mechanical properties :
#
#
# Convention : Reuss Voigt Hill
#
# Bulk Modulus (GPa) = 50.75322 68.96923 59.86122
# Shear Modulus (GPa) = 18.14097 23.81934 20.98016
#
# Velocity S-wave (km/s) = 2.99894 3.43638 3.22509
# Velocity P-wave (km/s) = 6.09533 7.06664 6.59888
#
# Compressibility (1/GPa) = 0.01970318
#
# Stress axis : x y z
#
# Youngs Moduli (GPa) = 115.59624 40.86218 68.99885
#
# Poissons Ratio (x) = 0.07042 0.34148
# Poissons Ratio (y) = 0.19921 0.50260
# Poissons Ratio (z) = 0.57210 0.29765
#
# Static dielectric constant tensor:
#      x y z
#    x 1.726130 0.000000 0.000000 
#    y 0.000000 1.704840 0.000000 
#    z 0.000000 0.000000 1.713310 
# 
# From -- ./inp_files/3505.got.cif
#   From: 2010.05.17/outbox.cif.g08.bks.cpg/sg35_2_cif.got.tgz:3505.got - 2010.06.03 17:29:28.
