data_PCOD9349904
_publ_section_title
;
Structure prediction by ZEFSAII (Michael W. Deem and Ramdas Pophale) SiO2 
 PCOD9349904
Probable space group: C M M 2
;
_chemical_formula_sum "Si O2"
_cell_formula_units_Z 56
_cell_length_a 9.242614
_cell_length_b 22.172018
_cell_length_c 14.531770
_cell_angle_alpha 90.000000
_cell_angle_beta 90.000000
_cell_angle_gamma 90.000000
_cell_volume 2977.957901
_symmetry_space_group_name_H-M "C M M 2"
_symmetry_group_IT_number 35
_symmetry_cell_setting 'orthorhombic'
loop_
_space_group_symop_operation_xyz
x,y,z
-x,-y,z
-x,y,z
x,-y,z
1/2+x,1/2+y,z
1/2-x,1/2-y,z
1/2-x,1/2+y,z
1/2+x,1/2-y,z
loop_
_atom_site_type_symbol
_atom_site_label
_atom_site_fract_x
_atom_site_fract_y
_atom_site_fract_z
Si Si1 0.168319 0.929408 0.627020
Si Si2 0.830278 0.618137 0.116776
Si Si3 0.172497 0.070163 0.846587
Si Si4 0.828811 0.311159 0.292686
Si Si5 0.170619 0.000000 0.130611
Si Si6 0.828516 0.686597 0.935440
Si Si7 0.828702 0.391865 0.456993
Si Si8 0.826940 0.000000 0.350203
O O1 0.190737 0.923372 0.735941
O O2 0.268991 0.891131 0.560122
O O3 0.000000 0.916238 0.607500
O O4 0.193784 0.000000 0.604733
O O5 0.782584 0.639461 0.217643
O O6 0.739539 0.559982 0.088979
O O7 0.000000 0.601563 0.119572
O O8 0.813836 0.672101 0.044305
O O9 0.258695 0.126391 0.889968
O O10 0.000000 0.075453 0.866750
O O11 0.214506 0.000000 0.869757
O O12 0.750000 0.250000 0.272159
O O13 0.802509 0.332536 0.396473
O O14 0.000000 0.304026 0.280135
O O15 0.203419 0.000000 0.240695
O O16 0.000000 0.000000 0.117973
O O17 0.750000 0.750000 0.912680
O O18 0.000000 0.690241 0.913915
O O19 0.743808 0.443141 0.400802
O O20 0.000000 0.404701 0.456002
O O21 0.000000 0.000000 0.362227
#
# Coordination Sequence:
#
# PCOD9349904 Si02
#       8
#     8   8   8   8   4   8   8   4
#     4   9  18  34  57  85 116 150 187 231 289 348
#     4  10  22  40  59  82 118 155 188 237 296 349
#     4   9  20  40  64  90 123 158 193 244 306 361
#     4  10  22  38  55  76 108 151 195 235 282 335
#     4  11  23  35  55  88 117 152 197 239 286 342
#     4  11  24  41  64  90 118 157 202 249 301 360
#     4  11  21  33  54  83 114 150 188 232 281 332
#     4  11  21  33  51  80 113 148 187 227 274 328
#
# _framework density 18.804832999999999
#
# number of rings (size 3 to 8) (size 9 to 14) (size 15 to 20)
#    0.000    1.857    2.143    2.571    1.000    4.286 
#    0.000    2.143    0.000    1.714    0.000    0.000 
#    0.000    0.000    0.000    0.000    0.000    0.000 
#
# Total GULP energy -156242.654460 kJ/mol
# GULP energy per Si atom -5580.094802 kJ/mol
# Density = 1.876203 g / cm^3
# Si number density = 18.804833 Si / 1000 Ang^3
#
#
#
# Elastic Constant Matrix: (Units=GPa)
#
#
# Indices 1 2 3 4 5 6 
#
# 1 58.8306 61.2416 38.0690 0.0000 0.0000 0.0000
# 2 61.2416 121.3412 29.1923 0.0000 0.0000 0.0000
# 3 38.0690 29.1923 62.9020 0.0000 0.0000 0.0000
# 4 0.0000 0.0000 0.0000 31.0564 0.0000 0.0000
# 5 0.0000 0.0000 0.0000 0.0000 29.6610 0.0000
# 6 0.0000 0.0000 0.0000 0.0000 0.0000 32.6910
#
#
#
# Elastic Compliance Matrix: (Units=1/GPa)
#
#
# Indices 1 2 3 4 5 6 
#
# 1 0.055016 -0.022240 -0.022975 0.000000 0.000000 0.000000
# 2 -0.022240 0.018267 0.004982 0.000000 0.000000 0.000000
# 3 -0.022975 0.004982 0.027490 0.000000 0.000000 0.000000
# 4 0.000000 0.000000 0.000000 0.032199 0.000000 0.000000
# 5 0.000000 0.000000 0.000000 0.000000 0.033714 0.000000
# 6 0.000000 0.000000 0.000000 0.000000 0.000000 0.030589
#
#
# Mechanical properties :
#
#
# Convention : Reuss Voigt Hill
#
# Bulk Modulus (GPa) = 49.24111 55.56440 52.40275
# Shear Modulus (GPa) = 17.57394 26.31973 21.94684
#
# Velocity S-wave (km/s) = 3.06035 3.74522 3.41997
# Velocity P-wave (km/s) = 6.22333 6.95085 6.59712
#
# Compressibility (1/GPa) = 0.02030823
#
# Stress axis : x y z
#
# Youngs Moduli (GPa) = 18.17644 54.74317 36.37623
#
# Poissons Ratio (x) = 1.21747 0.83575
# Poissons Ratio (y) = 0.40424 -0.18123
# Poissons Ratio (z) = 0.41761 -0.27274
#
# Static dielectric constant tensor:
#      x y z
#    x 1.627690 0.000000 0.000000 
#    y 0.000000 1.620390 0.000000 
#    z 0.000000 0.000000 1.673350 
# 
# From -- ./inp_files/15673.got.cif
#   From: 2010.05.17/outbox.cif.g08.bks.cpg/sg35_8_cif.got.tgz:15673.got - 2010.06.03 17:29:28.
