data_PCOD9349765
_publ_section_title
;
Structure prediction by ZEFSAII (Michael W. Deem and Ramdas Pophale) SiO2 
 PCOD9349765
Probable space group: C M M 2
;
_chemical_formula_sum "Si O2"
_cell_formula_units_Z 42
_cell_length_a 25.250542
_cell_length_b 14.220911
_cell_length_c 5.299646
_cell_angle_alpha 90.000000
_cell_angle_beta 90.000000
_cell_angle_gamma 90.000000
_cell_volume 1903.027149
_symmetry_space_group_name_H-M "C M M 2"
_symmetry_group_IT_number 35
_symmetry_cell_setting 'orthorhombic'
loop_
_space_group_symop_operation_xyz
x,y,z
-x,-y,z
-x,y,z
x,-y,z
1/2+x,1/2+y,z
1/2-x,1/2-y,z
1/2-x,1/2+y,z
1/2+x,1/2-y,z
loop_
_atom_site_type_symbol
_atom_site_label
_atom_site_fract_x
_atom_site_fract_y
_atom_site_fract_z
Si Si1 0.883495 0.840284 0.652410
Si Si2 0.500000 0.000000 0.413633
Si Si3 0.738430 0.614116 0.671227
Si Si4 0.415379 0.830108 0.356746
Si Si5 0.559664 0.362720 0.155910
Si Si6 0.300580 0.113105 0.168643
O O1 0.821207 0.849529 0.687540
O O2 0.900477 0.731370 0.605263
O O3 0.903258 0.888616 0.392674
O O4 0.913628 0.882970 0.890330
O O5 0.546613 0.082793 0.407805
O O6 0.735965 0.500000 0.676840
O O7 0.765029 0.641997 0.407401
O O8 0.774492 0.644896 0.906990
O O9 0.442184 0.750863 0.183164
O O10 0.360309 0.856184 0.223218
O O11 0.500000 0.397444 0.178272
O O12 0.300832 0.000000 0.162433
#
# Coordination Sequence:
#
# PCOD9349765 Si02
#       6
#     8   2   8   8   8   8
#     4  10  22  40  62  93 119 169 216 258 322 386
#     4  12  20  48  66  96 132 188 218 256 332 376
#     4  10  22  41  65  89 124 169 203 271 332 380
#     4  10  23  38  63  91 128 171 217 262 311 390
#     4  10  21  39  60  87 124 161 202 261 309 369
#     4  10  21  38  60  90 128 159 212 267 319 379
#
# _framework density 22.070101000000001
#
# number of rings (size 3 to 8) (size 9 to 14) (size 15 to 20)
#    1.143    0.762    1.905    1.714    4.000    0.762 
#    0.000    1.905    0.000    3.429    0.000    0.000 
#    0.000    0.000    0.000    0.000    0.000    0.000 
#
# Total GULP energy -117022.969851 kJ/mol
# GULP energy per Si atom -5572.522374 kJ/mol
# Density = 2.201987 g / cm^3
# Si number density = 22.070101 Si / 1000 Ang^3
#
#
#
# Elastic Constant Matrix: (Units=GPa)
#
#
# Indices 1 2 3 4 5 6 
#
# 1 183.5262 37.9060 54.2298 0.0000 0.0000 0.0000
# 2 37.9060 125.0017 17.8046 0.0000 0.0000 0.0000
# 3 54.2298 17.8046 148.8385 0.0000 0.0000 0.0000
# 4 0.0000 0.0000 0.0000 -21.5297 0.0000 0.0000
# 5 0.0000 0.0000 0.0000 0.0000 38.2367 0.0000
# 6 0.0000 0.0000 0.0000 0.0000 0.0000 -0.1935
#
#
#
# Elastic Compliance Matrix: (Units=1/GPa)
#
#
# Indices 1 2 3 4 5 6 
#
# 1 0.006421 -0.001642 -0.002143 0.000000 0.000000 0.000000
# 2 -0.001642 0.008558 -0.000426 0.000000 0.000000 0.000000
# 3 -0.002143 -0.000426 0.007550 0.000000 0.000000 0.000000
# 4 0.000000 0.000000 0.000000 -0.046448 0.000000 0.000000
# 5 0.000000 0.000000 0.000000 0.000000 0.026153 0.000000
# 6 0.000000 0.000000 0.000000 0.000000 0.000000 -5.169166
#
#
# Mechanical properties :
#
#
# Convention : Reuss Voigt Hill
#
# Bulk Modulus (GPa) = 70.87781 75.24971 73.06376
# Shear Modulus (GPa) = -0.97016 26.46445 12.74714
#
# Velocity S-wave (km/s) = -0.66373 3.46657 2.40589
# Velocity P-wave (km/s) = 5.62114 7.08467 6.39491
#
# Compressibility (1/GPa) = 0.01410879
#
# Stress axis : x y z
#
# Youngs Moduli (GPa) = 155.73341 116.84410 132.44200
#
# Poissons Ratio (x) = 0.19185 0.28385
# Poissons Ratio (y) = 0.25570 0.05636
# Poissons Ratio (z) = 0.33377 0.04972
#
# Static dielectric constant tensor:
#      x y z
#    x 1.776880 0.000000 0.000000 
#    y 0.000000 1.853050 0.000000 
#    z 0.000000 0.000000 1.792760 
# 
# From -- ./inp_files/2535.got.cif
#   From: 2010.05.17/outbox.cif.g08.bks.cpg/sg35_2_cif.got.tgz:2535.got - 2010.06.03 17:29:28.
