data_PCOD9349699
_publ_section_title
;
Structure prediction by ZEFSAII (Michael W. Deem and Ramdas Pophale) SiO2 
 PCOD9349699
Probable space group: C M M 2
;
_chemical_formula_sum "Si O2"
_cell_formula_units_Z 56
_cell_length_a 8.764347
_cell_length_b 19.102115
_cell_length_c 18.360468
_cell_angle_alpha 90.000000
_cell_angle_beta 90.000000
_cell_angle_gamma 90.000000
_cell_volume 3073.864832
_symmetry_space_group_name_H-M "C M M 2"
_symmetry_group_IT_number 35
_symmetry_cell_setting 'orthorhombic'
loop_
_space_group_symop_operation_xyz
x,y,z
-x,-y,z
-x,y,z
x,-y,z
1/2+x,1/2+y,z
1/2-x,1/2-y,z
1/2-x,1/2+y,z
1/2+x,1/2-y,z
loop_
_atom_site_type_symbol
_atom_site_label
_atom_site_fract_x
_atom_site_fract_y
_atom_site_fract_z
Si Si1 0.818276 0.172413 0.618640
Si Si2 0.683314 0.418432 0.333096
Si Si3 0.317796 0.172124 0.772007
Si Si4 0.180445 0.916571 0.902697
Si Si5 0.680019 0.916576 0.489298
Si Si6 0.683433 0.327849 0.192135
Si Si7 0.817294 0.417770 0.060332
O O1 0.750000 0.250000 0.607533
O O2 0.748037 0.145605 0.694810
O O3 0.769390 0.124448 0.551506
O O4 0.000000 0.176696 0.625080
O O5 0.500000 0.414673 0.342244
O O6 0.722189 0.500000 0.317965
O O7 0.761986 0.397391 0.408636
O O8 0.726989 0.369836 0.265515
O O9 0.500000 0.175583 0.768430
O O10 0.250000 0.250000 0.781839
O O11 0.263156 0.124535 0.838419
O O12 0.000000 0.901373 0.901625
O O13 0.201021 0.000000 0.892910
O O14 0.249534 0.898403 0.981532
O O15 0.500000 0.902299 0.495846
O O16 0.704353 0.000000 0.497206
O O17 0.500000 0.325391 0.188414
O O18 0.750000 0.250000 0.193241
O O19 0.746816 0.370482 0.123307
O O20 0.780414 0.500000 0.073339
O O21 0.000000 0.410644 0.059095
#
# Coordination Sequence:
#
# PCOD9349699 Si02
#       7
#     8   8   8   8   8   8   8
#     4  11  22  38  59  82 112 149 189 231 279 334
#     4   9  19  37  59  81 108 146 189 231 279 334
#     4  11  22  38  59  83 114 149 188 231 278 333
#     4  10  21  38  60  86 115 147 186 230 277 330
#     4  10  21  37  58  85 115 147 186 231 278 329
#     4  11  23  38  57  83 115 149 187 231 278 329
#     4  10  21  38  60  85 113 146 185 229 279 334
#
# _framework density 18.218107
#
# number of rings (size 3 to 8) (size 9 to 14) (size 15 to 20)
#    0.000    1.714    0.000    5.571    0.000    6.000 
#    0.000    5.714    0.000    0.000    0.000    0.000 
#    0.000    0.000    0.000    0.000    0.000    0.000 
#
# Total GULP energy -156488.067859 kJ/mol
# GULP energy per Si atom -5588.859566 kJ/mol
# Density = 1.817664 g / cm^3
# Si number density = 18.218107 Si / 1000 Ang^3
#
#
#
# Elastic Constant Matrix: (Units=GPa)
#
#
# Indices 1 2 3 4 5 6 
#
# 1 129.9763 64.8562 96.8156 0.0000 0.0000 0.0000
# 2 64.8562 72.1351 93.1977 0.0000 0.0000 0.0000
# 3 96.8156 93.1977 187.5063 0.0000 0.0000 0.0000
# 4 0.0000 0.0000 0.0000 77.7241 0.0000 0.0000
# 5 0.0000 0.0000 0.0000 0.0000 36.6818 0.0000
# 6 0.0000 0.0000 0.0000 0.0000 0.0000 26.2056
#
#
#
# Elastic Compliance Matrix: (Units=1/GPa)
#
#
# Indices 1 2 3 4 5 6 
#
# 1 0.014464 -0.009378 -0.002807 0.000000 0.000000 0.000000
# 2 -0.009378 0.044821 -0.017436 0.000000 0.000000 0.000000
# 3 -0.002807 -0.017436 0.015449 0.000000 0.000000 0.000000
# 4 0.000000 0.000000 0.000000 0.012866 0.000000 0.000000
# 5 0.000000 0.000000 0.000000 0.000000 0.027262 0.000000
# 6 0.000000 0.000000 0.000000 0.000000 0.000000 0.038160
#
#
# Mechanical properties :
#
#
# Convention : Reuss Voigt Hill
#
# Bulk Modulus (GPa) = 64.54647 99.92852 82.23750
# Shear Modulus (GPa) = 22.99625 37.10551 30.05088
#
# Velocity S-wave (km/s) = 3.55670 4.51792 4.06582
# Velocity P-wave (km/s) = 7.23696 9.06564 8.20242
#
# Compressibility (1/GPa) = 0.01549271
#
# Stress axis : x y z
#
# Youngs Moduli (GPa) = 69.13716 22.31091 64.72966
#
# Poissons Ratio (x) = 0.20922 0.18171
# Poissons Ratio (y) = 0.64834 1.12861
# Poissons Ratio (z) = 0.19408 0.38901
#
# Static dielectric constant tensor:
#      x y z
#    x 1.608830 0.000000 0.000000 
#    y 0.000000 1.603930 0.000000 
#    z 0.000000 0.000000 1.597160 
# 
# From -- ./inp_files/15590.got.cif
#   From: 2010.05.17/outbox.cif.g08.bks.cpg/sg35_8_cif.got.tgz:15590.got - 2010.06.03 17:29:28.
