data_PCOD9349542
_publ_section_title
;
Structure prediction by ZEFSAII (Michael W. Deem and Ramdas Pophale) SiO2 
 PCOD9349542
Probable space group: C M M 2
;
_chemical_formula_sum "Si O2"
_cell_formula_units_Z 38
_cell_length_a 9.547641
_cell_length_b 25.645448
_cell_length_c 8.342036
_cell_angle_alpha 90.000000
_cell_angle_beta 90.000000
_cell_angle_gamma 90.000000
_cell_volume 2042.576969
_symmetry_space_group_name_H-M "C M M 2"
_symmetry_group_IT_number 35
_symmetry_cell_setting 'orthorhombic'
loop_
_space_group_symop_operation_xyz
x,y,z
-x,-y,z
-x,y,z
x,-y,z
1/2+x,1/2+y,z
1/2-x,1/2-y,z
1/2-x,1/2+y,z
1/2+x,1/2-y,z
loop_
_atom_site_type_symbol
_atom_site_label
_atom_site_fract_x
_atom_site_fract_y
_atom_site_fract_z
Si Si1 0.000000 0.882094 0.111910
Si Si2 0.000000 0.846305 0.469596
Si Si3 0.000000 0.500000 0.977520
Si Si4 0.000000 0.720675 0.492034
Si Si5 0.500000 0.822416 0.133295
Si Si6 0.257051 0.672139 0.692456
Si Si7 0.000000 0.779026 0.908389
Si Si8 0.703951 0.900773 0.983393
O O1 0.000000 0.875539 0.302023
O O2 0.000000 0.823001 0.044082
O O3 0.137743 0.908105 0.039752
O O4 0.139459 0.857283 0.570277
O O5 0.000000 0.782807 0.462276
O O6 0.879926 0.546147 0.979083
O O7 0.000000 0.697858 0.313448
O O8 0.863994 0.701173 0.591936
O O9 0.500000 0.776335 0.998695
O O10 0.633153 0.859281 0.104427
O O11 0.362874 0.708326 0.800008
O O12 0.195795 0.629721 0.814455
#
# Coordination Sequence:
#
# PCOD9349542 Si02
#       8
#     4   4   2   4   4   8   4   8
#     4  10  20  40  58  94 124 160 196 238 306 350
#     4  11  22  35  54  88 134 166 189 234 284 369
#     4  10  22  46  68  90 104 142 218 260 326 344
#     4  12  22  34  55  89 125 178 200 237 278 354
#     4  11  22  36  56  88 129 167 200 239 293 348
#     4  10  23  36  58  85 123 165 206 240 293 344
#     4   9  21  39  53  83 128 167 204 231 284 357
#     4  10  23  40  66  87 116 159 203 265 294 364
#
# _framework density 18.603950000000001
#
# number of rings (size 3 to 8) (size 9 to 14) (size 15 to 20)
#    0.000    1.684    1.053    3.789    8.842    2.947 
#    0.000    0.000    0.000   24.000    0.000    0.000 
#    0.000    0.000    0.000    0.000    0.000    0.000 
#
# Total GULP energy -105847.004990 kJ/mol
# GULP energy per Si atom -5570.894999 kJ/mol
# Density = 1.856161 g / cm^3
# Si number density = 18.603950 Si / 1000 Ang^3
#
#
#
# Elastic Constant Matrix: (Units=GPa)
#
#
# Indices 1 2 3 4 5 6 
#
# 1 137.3657 51.6861 28.6609 0.0000 0.0000 0.0000
# 2 51.6861 125.3200 43.4461 0.0000 0.0000 0.0000
# 3 28.6609 43.4461 111.5291 0.0000 0.0000 0.0000
# 4 0.0000 0.0000 0.0000 0.7875 0.0000 0.0000
# 5 0.0000 0.0000 0.0000 0.0000 25.9353 0.0000
# 6 0.0000 0.0000 0.0000 0.0000 0.0000 41.6395
#
#
#
# Elastic Compliance Matrix: (Units=1/GPa)
#
#
# Indices 1 2 3 4 5 6 
#
# 1 0.008707 -0.003255 -0.000970 0.000000 0.000000 0.000000
# 2 -0.003255 0.010442 -0.003231 0.000000 0.000000 0.000000
# 3 -0.000970 -0.003231 0.010474 0.000000 0.000000 0.000000
# 4 0.000000 0.000000 0.000000 1.269911 0.000000 0.000000
# 5 0.000000 0.000000 0.000000 0.000000 0.038558 0.000000
# 6 0.000000 0.000000 0.000000 0.000000 0.000000 0.024016
#
#
# Mechanical properties :
#
#
# Convention : Reuss Voigt Hill
#
# Bulk Modulus (GPa) = 67.97288 69.08901 68.53094
# Shear Modulus (GPa) = 3.61815 30.36722 16.99269
#
# Velocity S-wave (km/s) = 1.39608 4.04456 3.02552
# Velocity P-wave (km/s) = 6.26218 7.68301 7.00869
#
# Compressibility (1/GPa) = 0.01471175
#
# Stress axis : x y z
#
# Youngs Moduli (GPa) = 114.85242 95.76514 95.47280
#
# Poissons Ratio (x) = 0.31170 0.09257
# Poissons Ratio (y) = 0.37383 0.30850
# Poissons Ratio (z) = 0.11136 0.30945
#
# Static dielectric constant tensor:
#      x y z
#    x 1.707350 0.000000 0.000000 
#    y 0.000000 1.605050 0.000000 
#    z 0.000000 0.000000 1.651150 
# 
# From -- ./inp_files/4876.got.cif
#   From: 2010.05.17/outbox.cif.g08.bks.cpg/sg35_3_cif.got.tgz:4876.got - 2010.06.03 17:29:28.
