data_PCOD9349875
_publ_section_title
;
Structure prediction by ZEFSAII (Michael W. Deem and Ramdas Pophale) SiO2 
 PCOD9349875
Probable space group: C M M 2
;
_chemical_formula_sum "Si O2"
_cell_formula_units_Z 56
_cell_length_a 17.669996
_cell_length_b 19.376340
_cell_length_c 7.728011
_cell_angle_alpha 90.000000
_cell_angle_beta 90.000000
_cell_angle_gamma 90.000000
_cell_volume 2645.915249
_symmetry_space_group_name_H-M "C M M 2"
_symmetry_group_IT_number 35
_symmetry_cell_setting 'orthorhombic'
loop_
_space_group_symop_operation_xyz
x,y,z
-x,-y,z
-x,y,z
x,-y,z
1/2+x,1/2+y,z
1/2-x,1/2-y,z
1/2-x,1/2+y,z
1/2+x,1/2-y,z
loop_
_atom_site_type_symbol
_atom_site_label
_atom_site_fract_x
_atom_site_fract_y
_atom_site_fract_z
Si Si1 0.416773 0.667356 0.471790
Si Si2 0.171761 0.580245 0.855818
Si Si3 0.840263 0.138983 0.799718
Si Si4 0.116608 0.922642 0.157875
Si Si5 0.293007 0.072944 0.258980
Si Si6 0.167846 0.719001 0.279968
Si Si7 0.909750 0.282785 0.905375
O O1 0.500000 0.686414 0.533978
O O2 0.376002 0.621276 0.615279
O O3 0.422152 0.627671 0.291117
O O4 0.367500 0.733585 0.425757
O O5 0.162463 0.500000 0.793592
O O6 0.253907 0.612602 0.806597
O O7 0.112234 0.642371 0.824698
O O8 0.173100 0.573957 0.065442
O O9 0.859394 0.220467 0.824568
O O10 0.881773 0.103631 0.962119
O O11 0.203704 0.922667 0.223292
O O12 0.087912 0.000000 0.166295
O O13 0.319988 0.141942 0.348869
O O14 0.311045 0.000000 0.344535
O O15 0.250000 0.750000 0.228717
O O16 0.116107 0.717774 0.108166
O O17 0.000000 0.270589 0.893642
#
# Coordination Sequence:
#
# PCOD9349875 Si02
#       7
#     8   8   8   8   8   8   8
#     4  12  26  40  61  95 132 168 216 271 325 386
#     4   9  19  37  63  94 126 167 217 269 319 380
#     4  11  22  41  66  92 126 172 222 266 318 386
#     4  10  21  41  66  90 125 166 208 264 325 381
#     4   8  15  32  60  90 119 157 209 261 308 370
#     4  11  19  36  62  91 124 173 224 266 317 382
#     4  11  21  36  63  97 134 172 211 268 335 390
#
# _framework density 21.164698000000001
#
# number of rings (size 3 to 8) (size 9 to 14) (size 15 to 20)
#    0.000    1.714    2.857    4.286    0.000    3.429 
#    0.000    0.000    0.000    5.143    0.000    0.000 
#    0.000    0.000    0.000    0.000    0.000    0.000 
#
# Total GULP energy -156234.742243 kJ/mol
# GULP energy per Si atom -5579.812223 kJ/mol
# Density = 2.111653 g / cm^3
# Si number density = 21.164698 Si / 1000 Ang^3
#
#
#
# Elastic Constant Matrix: (Units=GPa)
#
#
# Indices 1 2 3 4 5 6 
#
# 1 55.9153 42.8759 21.6564 0.0000 0.0000 0.0000
# 2 42.8759 160.6134 13.6705 0.0000 0.0000 0.0000
# 3 21.6564 13.6705 71.4366 0.0000 0.0000 0.0000
# 4 0.0000 0.0000 0.0000 17.5346 0.0000 0.0000
# 5 0.0000 0.0000 0.0000 0.0000 13.9074 0.0000
# 6 0.0000 0.0000 0.0000 0.0000 0.0000 3.7144
#
#
#
# Elastic Compliance Matrix: (Units=1/GPa)
#
#
# Indices 1 2 3 4 5 6 
#
# 1 0.025091 -0.006151 -0.006429 0.000000 0.000000 0.000000
# 2 -0.006151 0.007837 0.000365 0.000000 0.000000 0.000000
# 3 -0.006429 0.000365 0.015878 0.000000 0.000000 0.000000
# 4 0.000000 0.000000 0.000000 0.057030 0.000000 0.000000
# 5 0.000000 0.000000 0.000000 0.000000 0.071904 0.000000
# 6 0.000000 0.000000 0.000000 0.000000 0.000000 0.269221
#
#
# Mechanical properties :
#
#
# Convention : Reuss Voigt Hill
#
# Bulk Modulus (GPa) = 41.02560 49.37453 45.20007
# Shear Modulus (GPa) = 10.42718 21.01545 15.72131
#
# Velocity S-wave (km/s) = 2.22202 3.15453 2.72841
# Velocity P-wave (km/s) = 5.09992 6.05371 5.59717
#
# Compressibility (1/GPa) = 0.02437503
#
# Stress axis : x y z
#
# Youngs Moduli (GPa) = 39.85538 127.59936 62.98153
#
# Poissons Ratio (x) = 0.78483 0.40493
# Poissons Ratio (y) = 0.24514 -0.02298
# Poissons Ratio (z) = 0.25624 -0.04656
#
# Static dielectric constant tensor:
#      x y z
#    x 1.750630 0.000000 0.000000 
#    y 0.000000 1.802110 0.000000 
#    z 0.000000 0.000000 1.782790 
# 
# From -- ./inp_files/7595.got.cif
#   From: 2010.05.17/outbox.cif.g08.bks.cpg/sg35_4_cif.got.tgz:7595.got - 2010.06.03 17:29:28.
