data_PCOD9349731
_publ_section_title
;
Structure prediction by ZEFSAII (Michael W. Deem and Ramdas Pophale) SiO2 
 PCOD9349731
Probable space group: C M M 2
;
_chemical_formula_sum "Si O2"
_cell_formula_units_Z 64
_cell_length_a 18.376764
_cell_length_b 32.078322
_cell_length_c 5.408825
_cell_angle_alpha 90.000000
_cell_angle_beta 90.000000
_cell_angle_gamma 90.000000
_cell_volume 3188.479366
_symmetry_space_group_name_H-M "C M M 2"
_symmetry_group_IT_number 35
_symmetry_cell_setting 'orthorhombic'
loop_
_space_group_symop_operation_xyz
x,y,z
-x,-y,z
-x,y,z
x,-y,z
1/2+x,1/2+y,z
1/2-x,1/2-y,z
1/2-x,1/2+y,z
1/2+x,1/2-y,z
loop_
_atom_site_type_symbol
_atom_site_label
_atom_site_fract_x
_atom_site_fract_y
_atom_site_fract_z
Si Si1 0.083242 0.203950 0.862630
Si Si2 0.702499 0.788870 0.151825
Si Si3 0.858211 0.353019 0.762673
Si Si4 0.914801 0.848140 0.349718
Si Si5 0.327219 0.045494 0.293029
Si Si6 0.738944 0.372642 0.398088
Si Si7 0.916304 0.440088 0.802955
Si Si8 0.084878 0.724228 0.528421
O O1 0.086520 0.177693 0.606953
O O2 0.110308 0.248411 0.763581
O O3 0.000000 0.212862 0.927556
O O4 0.106719 0.177483 0.100025
O O5 0.750000 0.750000 0.055996
O O6 0.747064 0.824306 0.309439
O O7 0.640738 0.766132 0.312978
O O8 0.664049 0.820603 0.968469
O O9 0.782177 0.370983 0.657789
O O10 0.909258 0.390381 0.836644
O O11 0.902245 0.324765 0.568496
O O12 0.847434 0.879570 0.388438
O O13 0.000000 0.861844 0.318549
O O14 0.278661 0.087718 0.270132
O O15 0.374829 0.049735 0.545555
O O16 0.288849 0.000000 0.309239
O O17 0.377041 0.043878 0.049084
O O18 0.000000 0.452575 0.787472
O O19 0.000000 0.733084 0.478314
#
# Coordination Sequence:
#
# PCOD9349731 Si02
#       8
#     8   8   8   8   8   8   8   8
#     4   9  20  35  53  84 116 152 203 258 307 354
#     4  11  23  38  58  85 119 165 216 259 312 375
#     4  10  23  39  56  87 120 168 212 259 322 377
#     4  10  21  37  61  87 116 156 202 256 312 365
#     4  11  24  43  66  96 128 167 212 259 322 386
#     4  10  23  41  60  86 126 162 206 258 319 382
#     4  11  23  42  66  94 130 166 209 266 320 380
#     4  10  22  37  54  80 116 162 215 266 313 367
#
# _framework density 20.072264000000001
#
# number of rings (size 3 to 8) (size 9 to 14) (size 15 to 20)
#    0.000    1.750    1.250    1.875    5.250    4.500 
#    0.000    0.000    0.000    0.375    0.000    0.000 
#    0.000    5.250    0.000    0.000    0.000    0.875 
#
# Total GULP energy -178161.702493 kJ/mol
# GULP energy per Si atom -5567.553203 kJ/mol
# Density = 2.002658 g / cm^3
# Si number density = 20.072264 Si / 1000 Ang^3
#
#
#
# Elastic Constant Matrix: (Units=GPa)
#
#
# Indices 1 2 3 4 5 6 
#
# 1 131.5478 38.4947 37.3433 0.0000 0.0000 0.0000
# 2 38.4947 97.1654 11.7730 0.0000 0.0000 0.0000
# 3 37.3433 11.7730 90.0931 0.0000 0.0000 0.0000
# 4 0.0000 0.0000 0.0000 40.6325 0.0000 0.0000
# 5 0.0000 0.0000 0.0000 0.0000 22.3315 0.0000
# 6 0.0000 0.0000 0.0000 0.0000 0.0000 7.0932
#
#
#
# Elastic Compliance Matrix: (Units=1/GPa)
#
#
# Indices 1 2 3 4 5 6 
#
# 1 0.009592 -0.003372 -0.003535 0.000000 0.000000 0.000000
# 2 -0.003372 0.011643 -0.000124 0.000000 0.000000 0.000000
# 3 -0.003535 -0.000124 0.012581 0.000000 0.000000 0.000000
# 4 0.000000 0.000000 0.000000 0.024611 0.000000 0.000000
# 5 0.000000 0.000000 0.000000 0.000000 0.044780 0.000000
# 6 0.000000 0.000000 0.000000 0.000000 0.000000 0.140980
#
#
# Mechanical properties :
#
#
# Convention : Reuss Voigt Hill
#
# Bulk Modulus (GPa) = 50.62254 54.89203 52.75729
# Shear Modulus (GPa) = 18.87982 29.42446 24.15214
#
# Velocity S-wave (km/s) = 3.07024 3.83290 3.47257
# Velocity P-wave (km/s) = 6.15170 6.85527 6.51299
#
# Compressibility (1/GPa) = 0.01975405
#
# Stress axis : x y z
#
# Youngs Moduli (GPa) = 104.25282 85.89173 79.48394
#
# Poissons Ratio (x) = 0.28961 0.28100
# Poissons Ratio (y) = 0.35152 0.00984
# Poissons Ratio (z) = 0.36856 0.01063
#
# Static dielectric constant tensor:
#      x y z
#    x 1.774300 0.000000 0.000000 
#    y 0.000000 1.766190 0.000000 
#    z 0.000000 0.000000 1.812190 
# 
# From -- ./inp_files/2738.got.cif
#   From: 2010.05.17/outbox.cif.g08.bks.cpg/sg35_2_cif.got.tgz:2738.got - 2010.06.03 17:29:28.
