data_PCOD9349945
_publ_section_title
;
Structure prediction by ZEFSAII (Michael W. Deem and Ramdas Pophale) SiO2 
 PCOD9349945
Probable space group: C M M 2
;
_chemical_formula_sum "Si O2"
_cell_formula_units_Z 64
_cell_length_a 15.485189
_cell_length_b 18.160323
_cell_length_c 11.951056
_cell_angle_alpha 90.000000
_cell_angle_beta 90.000000
_cell_angle_gamma 90.000000
_cell_volume 3360.828570
_symmetry_space_group_name_H-M "C M M 2"
_symmetry_group_IT_number 35
_symmetry_cell_setting 'orthorhombic'
loop_
_space_group_symop_operation_xyz
x,y,z
-x,-y,z
-x,y,z
x,-y,z
1/2+x,1/2+y,z
1/2-x,1/2-y,z
1/2-x,1/2+y,z
1/2+x,1/2-y,z
loop_
_atom_site_type_symbol
_atom_site_label
_atom_site_fract_x
_atom_site_fract_y
_atom_site_fract_z
Si Si1 0.264885 0.084732 0.771060
Si Si2 0.813674 0.320717 0.132382
Si Si3 0.345845 0.213814 0.374792
Si Si4 0.647578 0.587508 0.142692
Si Si5 0.599260 0.185895 0.897474
Si Si6 0.230036 0.583729 0.505995
Si Si7 0.593588 0.630488 0.389425
Si Si8 0.402724 0.638888 0.897207
O O1 0.334212 0.140345 0.822843
O O2 0.259517 0.095832 0.638109
O O3 0.172820 0.099133 0.829515
O O4 0.290211 0.000000 0.792556
O O5 0.750000 0.250000 0.115139
O O6 0.864575 0.309221 0.247615
O O7 0.748016 0.388804 0.144529
O O8 0.873960 0.327921 0.025853
O O9 0.250000 0.250000 0.369214
O O10 0.334860 0.143430 0.453291
O O11 0.402824 0.282052 0.413571
O O12 0.636754 0.500000 0.141927
O O13 0.606482 0.619601 0.256020
O O14 0.608942 0.620985 0.028909
O O15 0.500000 0.165317 0.876773
O O16 0.607835 0.273624 0.879479
O O17 0.201294 0.500000 0.486223
O O18 0.323724 0.594614 0.448340
O O19 0.500000 0.600437 0.422258
O O20 0.500000 0.617478 0.863936
#
# Coordination Sequence:
#
# PCOD9349945 Si02
#       8
#     8   8   8   8   8   8   8   8
#     4  11  24  42  62  85 119 162 203 254 310 359
#     4  11  17  35  60  86 121 158 197 238 295 355
#     4   9  18  35  58  84 116 154 196 235 285 347
#     4  12  22  34  57  91 128 162 194 235 296 363
#     4  11  23  39  64  91 119 156 203 256 304 356
#     4  10  22  40  61  84 113 155 202 247 301 357
#     4  11  22  36  58  91 124 155 194 241 292 357
#     4  11  23  38  59  90 124 162 203 243 296 364
#
# _framework density 19.042922999999998
#
# number of rings (size 3 to 8) (size 9 to 14) (size 15 to 20)
#    0.000    1.250    6.250    1.500    0.000    7.750 
#    0.000    3.125    0.000    1.125    0.000    1.750 
#    0.000    0.000    0.000    0.000    0.000    0.000 
#
# Total GULP energy -178732.119442 kJ/mol
# GULP energy per Si atom -5585.378733 kJ/mol
# Density = 1.899958 g / cm^3
# Si number density = 19.042923 Si / 1000 Ang^3
#
#
#
# Elastic Constant Matrix: (Units=GPa)
#
#
# Indices 1 2 3 4 5 6 
#
# 1 51.7324 33.7108 13.0352 0.0000 0.0000 0.0000
# 2 33.7108 110.6048 51.9611 0.0000 0.0000 0.0000
# 3 13.0352 51.9611 88.7437 0.0000 0.0000 0.0000
# 4 0.0000 0.0000 0.0000 28.4281 0.0000 0.0000
# 5 0.0000 0.0000 0.0000 0.0000 -3.3507 0.0000
# 6 0.0000 0.0000 0.0000 0.0000 0.0000 6.5935
#
#
#
# Elastic Compliance Matrix: (Units=1/GPa)
#
#
# Indices 1 2 3 4 5 6 
#
# 1 0.024192 -0.007868 0.001054 0.000000 0.000000 0.000000
# 2 -0.007868 0.015031 -0.007645 0.000000 0.000000 0.000000
# 3 0.001054 -0.007645 0.015590 0.000000 0.000000 0.000000
# 4 0.000000 0.000000 0.000000 0.035176 0.000000 0.000000
# 5 0.000000 0.000000 0.000000 0.000000 -0.298448 0.000000
# 6 0.000000 0.000000 0.000000 0.000000 0.000000 0.151666
#
#
# Mechanical properties :
#
#
# Convention : Reuss Voigt Hill
#
# Bulk Modulus (GPa) = 38.62015 49.83280 44.22647
# Shear Modulus (GPa) = -259.84742 16.49244 -121.67749
#
# Velocity S-wave (km/s) = -11.69401 2.94609 -8.00220
# Velocity P-wave (km/s) = 12.72825 6.14802 7.88068
#
# Compressibility (1/GPa) = 0.02589322
#
# Stress axis : x y z
#
# Youngs Moduli (GPa) = 41.33584 66.52916 64.14352
#
# Poissons Ratio (x) = 0.52348 -0.06758
# Poissons Ratio (y) = 0.32525 0.49039
# Poissons Ratio (z) = -0.04355 0.50863
#
# Static dielectric constant tensor:
#      x y z
#    x 1.656310 0.000000 0.000000 
#    y 0.000000 1.669590 0.000000 
#    z 0.000000 0.000000 1.647550 
# 
# From -- ./inp_files/13218.got.cif
#   From: 2010.05.17/outbox.cif.g08.bks.cpg/sg35_7_cif.got.tgz:13218.got - 2010.06.03 17:29:28.
