data_PCOD9349346
_publ_section_title
;
Structure prediction by ZEFSAII (Michael W. Deem and Ramdas Pophale) SiO2 
 PCOD9349346
Probable space group: C M M 2
;
_chemical_formula_sum "Si O2"
_cell_formula_units_Z 48
_cell_length_a 8.706254
_cell_length_b 19.549664
_cell_length_c 15.316784
_cell_angle_alpha 90.000000
_cell_angle_beta 90.000000
_cell_angle_gamma 90.000000
_cell_volume 2606.983118
_symmetry_space_group_name_H-M "C M M 2"
_symmetry_group_IT_number 35
_symmetry_cell_setting 'orthorhombic'
loop_
_space_group_symop_operation_xyz
x,y,z
-x,-y,z
-x,y,z
x,-y,z
1/2+x,1/2+y,z
1/2-x,1/2-y,z
1/2-x,1/2+y,z
1/2+x,1/2-y,z
loop_
_atom_site_type_symbol
_atom_site_label
_atom_site_fract_x
_atom_site_fract_y
_atom_site_fract_z
Si Si1 0.684162 0.580095 0.611620
Si Si2 0.185276 0.078583 0.109601
Si Si3 0.316286 0.175132 0.461458
Si Si4 0.816731 0.324179 0.963414
Si Si5 0.684882 0.675695 0.269423
Si Si6 0.184186 0.675337 0.759699
O O1 0.500000 0.586058 0.606968
O O2 0.724806 0.500000 0.611916
O O3 0.757696 0.619487 0.529877
O O4 0.744484 0.618180 0.697835
O O5 0.227812 0.120080 0.196939
O O6 0.000000 0.079600 0.104320
O O7 0.236278 0.000000 0.112789
O O8 0.251194 0.118368 0.026686
O O9 0.500000 0.178419 0.460801
O O10 0.250000 0.250000 0.485586
O O11 0.253850 0.159752 0.364431
O O12 0.750000 0.250000 0.988132
O O13 0.776992 0.336489 0.861658
O O14 0.000000 0.321754 0.970496
O O15 0.500000 0.679451 0.275960
O O16 0.750000 0.750000 0.243468
O O17 0.250000 0.750000 0.735521
O O18 0.000000 0.676151 0.750475
#
# Coordination Sequence:
#
# PCOD9349346 Si02
#       6
#     8   8   8   8   8   8
#     4  11  24  40  58  82 114 151 187 226 277 334
#     4  10  22  38  56  81 115 153 188 227 278 333
#     4  11  22  38  61  86 113 146 186 231 278 329
#     4  10  21  37  59  85 112 146 187 233 280 328
#     4  10  20  36  58  83 111 145 188 234 279 328
#     4  10  21  38  60  85 113 145 186 233 279 329
#
# _framework density 18.412085999999999
#
# number of rings (size 3 to 8) (size 9 to 14) (size 15 to 20)
#    0.000    1.667    0.000    5.500    0.000    7.667 
#    0.000    5.000    0.000    0.000    0.000    0.000 
#    0.000    0.000    0.000    0.000    0.000    0.000 
#
# Total GULP energy -134161.280333 kJ/mol
# GULP energy per Si atom -5590.053347 kJ/mol
# Density = 1.837018 g / cm^3
# Si number density = 18.412086 Si / 1000 Ang^3
#
#
#
# Elastic Constant Matrix: (Units=GPa)
#
#
# Indices 1 2 3 4 5 6 
#
# 1 77.0242 69.0535 56.1773 0.0000 0.0000 0.0000
# 2 69.0535 189.7118 124.7968 0.0000 0.0000 0.0000
# 3 56.1773 124.7968 119.5074 0.0000 0.0000 0.0000
# 4 0.0000 0.0000 0.0000 -32.3406 0.0000 0.0000
# 5 0.0000 0.0000 0.0000 0.0000 336.2828 0.0000
# 6 0.0000 0.0000 0.0000 0.0000 0.0000 31.9583
#
#
#
# Elastic Compliance Matrix: (Units=1/GPa)
#
#
# Indices 1 2 3 4 5 6 
#
# 1 0.020492 -0.003585 -0.005889 0.000000 0.000000 0.000000
# 2 -0.003585 0.017465 -0.016552 0.000000 0.000000 0.000000
# 3 -0.005889 -0.016552 0.028421 0.000000 0.000000 0.000000
# 4 0.000000 0.000000 0.000000 -0.030921 0.000000 0.000000
# 5 0.000000 0.000000 0.000000 0.000000 0.002974 0.000000
# 6 0.000000 0.000000 0.000000 0.000000 0.000000 0.031291
#
#
# Mechanical properties :
#
#
# Convention : Reuss Voigt Hill
#
# Bulk Modulus (GPa) = 69.80946 98.47762 84.14354
# Shear Modulus (GPa) = 39.51026 76.26115 57.88571
#
# Velocity S-wave (km/s) = 4.63740 6.44275 5.61313
# Velocity P-wave (km/s) = 8.16525 10.43776 9.37065
#
# Compressibility (1/GPa) = 0.01432471
#
# Stress axis : x y z
#
# Youngs Moduli (GPa) = 48.79919 57.25878 35.18513
#
# Poissons Ratio (x) = 0.20527 0.20722
# Poissons Ratio (y) = 0.17494 0.58240
# Poissons Ratio (z) = 0.28739 0.94777
#
# Static dielectric constant tensor:
#      x y z
#    x 1.599980 0.000000 0.000000 
#    y 0.000000 1.602410 0.000000 
#    z 0.000000 0.000000 1.623200 
# 
# From -- ./inp_files/15095.got.cif
#   From: 2010.05.17/outbox.cif.g08.bks.cpg/sg35_8_cif.got.tgz:15095.got - 2010.06.03 17:29:28.
