data_PCOD9349649
_publ_section_title
;
Structure prediction by ZEFSAII (Michael W. Deem and Ramdas Pophale) SiO2 
 PCOD9349649
Probable space group: C M M 2
;
_chemical_formula_sum "Si O2"
_cell_formula_units_Z 56
_cell_length_a 14.381502
_cell_length_b 14.561763
_cell_length_c 11.966315
_cell_angle_alpha 90.000000
_cell_angle_beta 90.000000
_cell_angle_gamma 90.000000
_cell_volume 2505.985971
_symmetry_space_group_name_H-M "C M M 2"
_symmetry_group_IT_number 35
_symmetry_cell_setting 'orthorhombic'
loop_
_space_group_symop_operation_xyz
x,y,z
-x,-y,z
-x,y,z
x,-y,z
1/2+x,1/2+y,z
1/2-x,1/2-y,z
1/2-x,1/2+y,z
1/2+x,1/2-y,z
loop_
_atom_site_type_symbol
_atom_site_label
_atom_site_fract_x
_atom_site_fract_y
_atom_site_fract_z
Si Si1 0.252988 0.607240 0.755180
Si Si2 0.223431 0.606220 0.501625
Si Si3 0.107115 0.102226 0.333771
Si Si4 0.604364 0.370257 0.954806
Si Si5 0.110275 0.312197 0.307592
Si Si6 0.101716 0.343237 0.920433
Si Si7 0.733178 0.859444 0.108353
O O1 0.228569 0.500000 0.755925
O O2 0.252136 0.635792 0.626222
O O3 0.342659 0.613926 0.836551
O O4 0.169441 0.658898 0.815644
O O5 0.188787 0.500000 0.504395
O O6 0.318696 0.605404 0.432101
O O7 0.149537 0.667451 0.432094
O O8 0.119202 0.202987 0.276779
O O9 0.000000 0.103921 0.371941
O O10 0.119946 0.000000 0.279792
O O11 0.500000 0.406543 0.958551
O O12 0.593852 0.260874 0.961015
O O13 0.670943 0.398847 0.057539
O O14 0.181523 0.368664 0.227492
O O15 0.000000 0.335030 0.296529
O O16 0.000000 0.380509 0.896548
O O17 0.156549 0.392304 0.019227
O O18 0.750000 0.750000 0.096502
#
# Coordination Sequence:
#
# PCOD9349649 Si02
#       7
#     8   8   8   8   8   8   8
#     4  10  21  36  56  83 116 154 195 244 301 358
#     4  10  22  39  56  80 119 163 207 253 299 356
#     4   9  19  36  57  83 116 153 196 247 301 360
#     4   9  19  36  60  88 115 147 189 240 298 356
#     4  11  22  36  59  88 119 161 207 248 299 362
#     4   9  18  34  56  81 110 145 188 240 294 350
#     4   9  17  33  57  84 113 147 189 238 290 351
#
# _framework density 22.346495000000001
#
# number of rings (size 3 to 8) (size 9 to 14) (size 15 to 20)
#    0.000    2.429    0.000    3.000    0.000    4.857 
#    0.000    9.286    0.000   17.143    0.000   20.000 
#    0.000    0.000    0.000    1.429    0.000    0.000 
#
# Total GULP energy -155990.009182 kJ/mol
# GULP energy per Si atom -5571.071757 kJ/mol
# Density = 2.229563 g / cm^3
# Si number density = 22.346495 Si / 1000 Ang^3
#
#
#
# Elastic Constant Matrix: (Units=GPa)
#
#
# Indices 1 2 3 4 5 6 
#
# 1 199.0919 31.2427 88.1259 0.0000 0.0000 0.0000
# 2 31.2427 99.0058 17.0811 0.0000 0.0000 0.0000
# 3 88.1259 17.0811 140.4415 0.0000 0.0000 0.0000
# 4 0.0000 0.0000 0.0000 23.2964 0.0000 0.0000
# 5 0.0000 0.0000 0.0000 0.0000 17.6453 0.0000
# 6 0.0000 0.0000 0.0000 0.0000 0.0000 -0.2040
#
#
#
# Elastic Compliance Matrix: (Units=1/GPa)
#
#
# Indices 1 2 3 4 5 6 
#
# 1 0.007171 -0.001518 -0.004315 0.000000 0.000000 0.000000
# 2 -0.001518 0.010638 -0.000341 0.000000 0.000000 0.000000
# 3 -0.004315 -0.000341 0.009870 0.000000 0.000000 0.000000
# 4 0.000000 0.000000 0.000000 0.042925 0.000000 0.000000
# 5 0.000000 0.000000 0.000000 0.000000 0.056672 0.000000
# 6 0.000000 0.000000 0.000000 0.000000 0.000000 -4.902083
#
#
# Mechanical properties :
#
#
# Convention : Reuss Voigt Hill
#
# Bulk Modulus (GPa) = 65.23239 79.04874 72.14056
# Shear Modulus (GPa) = -1.05101 28.28686 13.61793
#
# Velocity S-wave (km/s) = -0.68654 3.56171 2.47128
# Velocity P-wave (km/s) = 5.35035 7.23639 6.36363
#
# Compressibility (1/GPa) = 0.01532981
#
# Stress axis : x y z
#
# Youngs Moduli (GPa) = 139.44762 93.99875 101.32116
#
# Poissons Ratio (x) = 0.14274 0.43722
# Poissons Ratio (y) = 0.21175 0.03456
# Poissons Ratio (z) = 0.60174 0.03206
#
# Static dielectric constant tensor:
#      x y z
#    x 1.835590 0.000000 0.000000 
#    y 0.000000 1.909390 0.000000 
#    z 0.000000 0.000000 1.842720 
# 
# From -- ./inp_files/13014.got.cif
#   From: 2010.05.17/outbox.cif.g08.bks.cpg/sg35_7_cif.got.tgz:13014.got - 2010.06.03 17:29:28.
