data_PCOD9349627
_publ_section_title
;
Structure prediction by ZEFSAII (Michael W. Deem and Ramdas Pophale) SiO2 
 PCOD9349627
Probable space group: C M M 2
;
_chemical_formula_sum "Si O2"
_cell_formula_units_Z 40
_cell_length_a 8.231297
_cell_length_b 18.748971
_cell_length_c 13.312966
_cell_angle_alpha 90.000000
_cell_angle_beta 90.000000
_cell_angle_gamma 90.000000
_cell_volume 2054.568060
_symmetry_space_group_name_H-M "C M M 2"
_symmetry_group_IT_number 35
_symmetry_cell_setting 'orthorhombic'
loop_
_space_group_symop_operation_xyz
x,y,z
-x,-y,z
-x,y,z
x,-y,z
1/2+x,1/2+y,z
1/2-x,1/2-y,z
1/2-x,1/2+y,z
1/2+x,1/2-y,z
loop_
_atom_site_type_symbol
_atom_site_label
_atom_site_fract_x
_atom_site_fract_y
_atom_site_fract_z
Si Si1 0.696272 0.081753 0.799080
Si Si2 0.695946 0.417790 0.410237
Si Si3 0.305430 0.668580 0.604151
Si Si4 0.804013 0.582236 0.189586
Si Si5 0.803486 0.331506 0.995168
O O1 0.500000 0.080210 0.802395
O O2 0.747371 0.123691 0.699749
O O3 0.754375 0.000000 0.797696
O O4 0.752768 0.123588 0.898441
O O5 0.500000 0.418325 0.412182
O O6 0.751737 0.500000 0.423580
O O7 0.754446 0.368752 0.501437
O O8 0.749949 0.393391 0.299896
O O9 0.500000 0.667115 0.602957
O O10 0.250000 0.750000 0.611032
O O11 0.748763 0.500000 0.176367
O O12 0.746428 0.631196 0.098116
O O13 0.000000 0.581683 0.187540
O O14 0.750000 0.250000 0.988563
O O15 0.000000 0.333456 0.995411
#
# Coordination Sequence:
#
# PCOD9349627 Si02
#       5
#     8   8   8   8   8
#     4  10  21  38  60  83 108 141 181 224 271 325
#     4   9  19  36  56  78 106 140 178 222 270 318
#     4  11  23  38  56  80 112 146 181 224 273 323
#     4   9  18  34  56  79 104 138 180 222 263 313
#     4  10  21  36  54  79 111 143 176 218 268 319
#
# _framework density 19.468812
#
# number of rings (size 3 to 8) (size 9 to 14) (size 15 to 20)
#    0.000    2.200    0.000    2.400    0.000    9.200 
#    0.000    6.000    0.000    3.600    0.000    0.000 
#    0.000    0.000    0.000    0.000    0.000    0.000 
#
# Total GULP energy -111702.509498 kJ/mol
# GULP energy per Si atom -5585.125475 kJ/mol
# Density = 1.942450 g / cm^3
# Si number density = 19.468812 Si / 1000 Ang^3
#
#
#
# Elastic Constant Matrix: (Units=GPa)
#
#
# Indices 1 2 3 4 5 6 
#
# 1 9.7432 15.8650 19.3422 0.0000 0.0000 0.0000
# 2 15.8650 173.3609 141.2973 0.0000 0.0000 0.0000
# 3 19.3422 141.2973 225.8996 0.0000 0.0000 0.0000
# 4 0.0000 0.0000 0.0000 611.7855 0.0000 0.0000
# 5 0.0000 0.0000 0.0000 0.0000 31.4055 0.0000
# 6 0.0000 0.0000 0.0000 0.0000 0.0000 24.2264
#
#
#
# Elastic Compliance Matrix: (Units=1/GPa)
#
#
# Indices 1 2 3 4 5 6 
#
# 1 0.126261 -0.005596 -0.007310 0.000000 0.000000 0.000000
# 2 -0.005596 0.012015 -0.007036 0.000000 0.000000 0.000000
# 3 -0.007310 -0.007036 0.009454 0.000000 0.000000 0.000000
# 4 0.000000 0.000000 0.000000 0.001635 0.000000 0.000000
# 5 0.000000 0.000000 0.000000 0.000000 0.031842 0.000000
# 6 0.000000 0.000000 0.000000 0.000000 0.000000 0.041277
#
#
# Mechanical properties :
#
#
# Convention : Reuss Voigt Hill
#
# Bulk Modulus (GPa) = 9.27263 84.66806 46.97035
# Shear Modulus (GPa) = 16.76065 148.98343 82.87204
#
# Velocity S-wave (km/s) = 2.93729 8.75730 6.53138
# Velocity P-wave (km/s) = 4.03444 12.07631 9.00316
#
# Compressibility (1/GPa) = 0.10784423
#
# Stress axis : x y z
#
# Youngs Moduli (GPa) = 7.92009 83.22689 105.77781
#
# Poissons Ratio (x) = 0.46577 0.77328
# Poissons Ratio (y) = 0.04432 0.74428
# Poissons Ratio (z) = 0.05790 0.58561
#
# Static dielectric constant tensor:
#      x y z
#    x 1.687250 0.000000 0.000000 
#    y 0.000000 1.611970 0.000000 
#    z 0.000000 0.000000 1.662620 
# 
# From -- ./inp_files/5891.got.cif
#   From: 2010.05.17/outbox.cif.g08.bks.cpg/sg35_3_cif.got.tgz:5891.got - 2010.06.03 17:29:28.
