data_PCOD9349424
_publ_section_title
;
Structure prediction by ZEFSAII (Michael W. Deem and Ramdas Pophale) SiO2 
 PCOD9349424
Probable space group: C M M 2
;
_chemical_formula_sum "Si O2"
_cell_formula_units_Z 48
_cell_length_a 8.344171
_cell_length_b 15.898300
_cell_length_c 19.280301
_cell_angle_alpha 90.000000
_cell_angle_beta 90.000000
_cell_angle_gamma 90.000000
_cell_volume 2557.688750
_symmetry_space_group_name_H-M "C M M 2"
_symmetry_group_IT_number 35
_symmetry_cell_setting 'orthorhombic'
loop_
_space_group_symop_operation_xyz
x,y,z
-x,-y,z
-x,y,z
x,-y,z
1/2+x,1/2+y,z
1/2-x,1/2-y,z
1/2-x,1/2+y,z
1/2+x,1/2-y,z
loop_
_atom_site_type_symbol
_atom_site_label
_atom_site_fract_x
_atom_site_fract_y
_atom_site_fract_z
Si Si1 0.806639 0.342370 0.025890
Si Si2 0.693400 0.157380 0.368809
Si Si3 0.689955 0.500000 0.777034
Si Si4 0.693822 0.000000 0.619615
Si Si5 0.696165 0.000000 0.117446
Si Si6 0.193483 0.657355 0.528409
Si Si7 0.808028 0.657278 0.866182
Si Si8 0.803805 0.500000 0.276958
O O1 0.750000 0.250000 0.047841
O O2 0.751590 0.416987 0.075870
O O3 0.000000 0.343005 0.025610
O O4 0.753146 0.356077 0.946111
O O5 0.500000 0.156703 0.368923
O O6 0.750000 0.250000 0.347467
O O7 0.746438 0.143032 0.448596
O O8 0.748371 0.083074 0.318486
O O9 0.500000 0.500000 0.775250
O O10 0.754490 0.500000 0.698920
O O11 0.747820 0.582746 0.817807
O O12 0.749622 0.916868 0.578586
O O13 0.500000 0.000000 0.617299
O O14 0.748123 0.000000 0.197195
O O15 0.500000 0.000000 0.117202
O O16 0.250000 0.750000 0.549768
O O17 0.000000 0.656678 0.528341
O O18 0.750000 0.750000 0.844517
O O19 0.000000 0.656411 0.865840
O O20 0.000000 0.500000 0.277203
#
# Coordination Sequence:
#
# PCOD9349424 Si02
#       8
#     8   8   4   4   4   8   8   4
#     4   9  18  33  54  77 101 131 171 214 256 301
#     4   9  17  31  51  75  99 129 170 213 253 298
#     4  12  25  38  54  80 111 142 174 212 260 318
#     4  10  21  37  54  73 101 138 172 208 256 310
#     4   9  17  30  48  73 104 139 172 204 248 303
#     4   9  18  33  54  76  99 129 169 213 256 301
#     4  10  20  37  59  81 105 137 177 222 266 312
#     4   9  17  29  48  72 102 139 174 204 244 303
#
# _framework density 18.766943999999999
#
# number of rings (size 3 to 8) (size 9 to 14) (size 15 to 20)
#    0.000    2.500    0.000    2.250    0.000    6.000 
#    0.000    2.500    0.000    5.000    0.000    0.000 
#    0.000    0.000    0.000    0.000    0.000    0.000 
#
# Total GULP energy -133952.316044 kJ/mol
# GULP energy per Si atom -5581.346502 kJ/mol
# Density = 1.872423 g / cm^3
# Si number density = 18.766944 Si / 1000 Ang^3
#
#
#
# Elastic Constant Matrix: (Units=GPa)
#
#
# Indices 1 2 3 4 5 6 
#
# 1 14.2382 23.5005 17.7002 0.0000 0.0000 0.0000
# 2 23.5005 220.6390 143.8210 0.0000 0.0000 0.0000
# 3 17.7002 143.8210 135.7833 0.0000 0.0000 0.0000
# 4 0.0000 0.0000 0.0000 -3.4529 0.0000 0.0000
# 5 0.0000 0.0000 0.0000 0.0000 13.7829 0.0000
# 6 0.0000 0.0000 0.0000 0.0000 0.0000 31.8625
#
#
#
# Elastic Compliance Matrix: (Units=1/GPa)
#
#
# Indices 1 2 3 4 5 6 
#
# 1 0.086206 -0.005998 -0.004884 0.000000 0.000000 0.000000
# 2 -0.005998 0.015058 -0.015167 0.000000 0.000000 0.000000
# 3 -0.004884 -0.015167 0.024066 0.000000 0.000000 0.000000
# 4 0.000000 0.000000 0.000000 -0.289610 0.000000 0.000000
# 5 0.000000 0.000000 0.000000 0.000000 0.072554 0.000000
# 6 0.000000 0.000000 0.000000 0.000000 0.000000 0.031385
#
#
# Mechanical properties :
#
#
# Convention : Reuss Voigt Hill
#
# Bulk Modulus (GPa) = 13.65549 82.30043 47.97796
# Shear Modulus (GPa) = 309.26436 20.81441 165.03938
#
# Velocity S-wave (km/s) = 12.85106 3.33393 9.38789
# Velocity P-wave (km/s) = 15.08283 7.66611 11.96372
#
# Compressibility (1/GPa) = 0.07323060
#
# Stress axis : x y z
#
# Youngs Moduli (GPa) = 11.60016 66.41141 41.55179
#
# Poissons Ratio (x) = 0.39833 0.20296
# Poissons Ratio (y) = 0.06958 0.63022
# Poissons Ratio (z) = 0.05666 1.00727
#
# Static dielectric constant tensor:
#      x y z
#    x 1.647900 0.000000 0.000000 
#    y 0.000000 1.620830 0.000000 
#    z 0.000000 0.000000 1.636840 
# 
# From -- ./inp_files/17950.got.cif
#   From: 2010.05.17/outbox.cif.g08.bks.cpg/sg35_9_cif.got.tgz:17950.got - 2010.06.03 17:29:28.
