data_PCOD9349660
_publ_section_title
;
Structure prediction by ZEFSAII (Michael W. Deem and Ramdas Pophale) SiO2 
 PCOD9349660
Probable space group: C M M 2
;
_chemical_formula_sum "Si O2"
_cell_formula_units_Z 64
_cell_length_a 25.187297
_cell_length_b 13.330908
_cell_length_c 9.758286
_cell_angle_alpha 90.000000
_cell_angle_beta 90.000000
_cell_angle_gamma 90.000000
_cell_volume 3276.535192
_symmetry_space_group_name_H-M "C M M 2"
_symmetry_group_IT_number 35
_symmetry_cell_setting 'orthorhombic'
loop_
_space_group_symop_operation_xyz
x,y,z
-x,-y,z
-x,y,z
x,-y,z
1/2+x,1/2+y,z
1/2-x,1/2-y,z
1/2-x,1/2+y,z
1/2+x,1/2-y,z
loop_
_atom_site_type_symbol
_atom_site_label
_atom_site_fract_x
_atom_site_fract_y
_atom_site_fract_z
Si Si1 0.615077 0.264497 0.933400
Si Si2 0.810561 0.107891 0.525766
Si Si3 0.436648 0.880685 0.697489
Si Si4 0.436210 0.379858 0.191227
Si Si5 0.198121 0.608520 0.046225
Si Si6 0.218613 0.147708 0.816972
Si Si7 0.288155 0.881746 0.350503
Si Si8 0.608926 0.239884 0.441672
O O1 0.586854 0.193371 0.817489
O O2 0.658085 0.337847 0.863269
O O3 0.581927 0.326989 0.047185
O O4 0.654014 0.189199 0.013603
O O5 0.783566 0.097396 0.671699
O O6 0.764668 0.149143 0.429194
O O7 0.860473 0.179445 0.534994
O O8 0.827738 0.000000 0.471366
O O9 0.500000 0.882154 0.714614
O O10 0.423775 0.830235 0.548181
O O11 0.418457 0.000000 0.704713
O O12 0.500000 0.380011 0.195861
O O13 0.419571 0.500000 0.199211
O O14 0.416688 0.306867 0.317834
O O15 0.171509 0.500000 0.053059
O O16 0.223761 0.630279 0.191253
O O17 0.244664 0.605081 0.935552
O O18 0.250000 0.250000 0.787582
O O19 0.343264 0.827599 0.382268
O O20 0.295220 0.000000 0.382151
#
# Coordination Sequence:
#
# PCOD9349660 Si02
#       8
#     8   8   8   8   8   8   8   8
#     4  11  22  43  67  92 128 172 213 267 325 382
#     4  11  23  37  58  91 127 169 215 257 309 378
#     4  11  25  45  70  99 128 164 215 275 338 393
#     4  11  26  46  68  95 127 169 222 276 328 381
#     4  10  21  37  60  94 130 165 208 258 318 385
#     4  10  21  36  58  90 127 168 206 257 314 380
#     4  10  22  37  60  92 128 167 209 258 316 384
#     4  12  22  43  66  91 129 172 212 267 325 383
#
# _framework density 19.532827999999999
#
# number of rings (size 3 to 8) (size 9 to 14) (size 15 to 20)
#    0.000    1.250    2.500    3.375    3.500    2.000 
#    0.000    0.000    0.000    5.250    0.000    0.000 
#    0.000    0.000    0.000    0.000    0.000    0.000 
#
# Total GULP energy -178200.589736 kJ/mol
# GULP energy per Si atom -5568.768429 kJ/mol
# Density = 1.948837 g / cm^3
# Si number density = 19.532828 Si / 1000 Ang^3
#
#
#
# Elastic Constant Matrix: (Units=GPa)
#
#
# Indices 1 2 3 4 5 6 
#
# 1 67.3838 24.7472 17.3195 0.0000 0.0000 0.0000
# 2 24.7472 110.6933 27.2120 0.0000 0.0000 0.0000
# 3 17.3195 27.2120 90.9049 0.0000 0.0000 0.0000
# 4 0.0000 0.0000 0.0000 32.3594 0.0000 0.0000
# 5 0.0000 0.0000 0.0000 0.0000 -143.0371 0.0000
# 6 0.0000 0.0000 0.0000 0.0000 0.0000 14.9590
#
#
#
# Elastic Compliance Matrix: (Units=1/GPa)
#
#
# Indices 1 2 3 4 5 6 
#
# 1 0.016569 -0.003161 -0.002211 0.000000 0.000000 0.000000
# 2 -0.003161 0.010355 -0.002497 0.000000 0.000000 0.000000
# 3 -0.002211 -0.002497 0.012169 0.000000 0.000000 0.000000
# 4 0.000000 0.000000 0.000000 0.030903 0.000000 0.000000
# 5 0.000000 0.000000 0.000000 0.000000 -0.006991 0.000000
# 6 0.000000 0.000000 0.000000 0.000000 0.000000 0.066849
#
#
# Mechanical properties :
#
#
# Convention : Reuss Voigt Hill
#
# Bulk Modulus (GPa) = 42.81662 45.28213 44.04937
# Shear Modulus (GPa) = 32.59933 -5.83019 13.38457
#
# Velocity S-wave (km/s) = 4.08971 -1.72954 2.62054
# Velocity P-wave (km/s) = 6.65349 4.38686 5.63531
#
# Compressibility (1/GPa) = 0.02335542
#
# Stress axis : x y z
#
# Youngs Moduli (GPa) = 60.35208 96.57564 82.17419
#
# Poissons Ratio (x) = 0.30527 0.18166
# Poissons Ratio (y) = 0.19077 0.20522
# Poissons Ratio (z) = 0.13342 0.24119
#
# Static dielectric constant tensor:
#      x y z
#    x 1.729110 0.000000 0.000000 
#    y 0.000000 1.728540 0.000000 
#    z 0.000000 0.000000 1.711070 
# 
# From -- ./inp_files/9907.got.cif
#   From: 2010.05.17/outbox.cif.g08.bks.cpg/sg35_5_cif.got.tgz:9907.got - 2010.06.03 17:29:28.
