data_PCOD9349556
_publ_section_title
;
Structure prediction by ZEFSAII (Michael W. Deem and Ramdas Pophale) SiO2 
 PCOD9349556
Probable space group: C M M 2
;
_chemical_formula_sum "Si O2"
_cell_formula_units_Z 58
_cell_length_a 30.886318
_cell_length_b 8.038109
_cell_length_c 12.930397
_cell_angle_alpha 90.000000
_cell_angle_beta 90.000000
_cell_angle_gamma 90.000000
_cell_volume 3210.198510
_symmetry_space_group_name_H-M "C M M 2"
_symmetry_group_IT_number 35
_symmetry_cell_setting 'orthorhombic'
loop_
_space_group_symop_operation_xyz
x,y,z
-x,-y,z
-x,y,z
x,-y,z
1/2+x,1/2+y,z
1/2-x,1/2-y,z
1/2-x,1/2+y,z
1/2+x,1/2-y,z
loop_
_atom_site_type_symbol
_atom_site_label
_atom_site_fract_x
_atom_site_fract_y
_atom_site_fract_z
Si Si1 0.202131 0.804461 0.125000
Si Si2 0.636434 0.197327 0.713618
Si Si3 0.797984 0.298911 0.537172
Si Si4 0.838267 0.304877 0.330095
Si Si5 0.937006 0.308517 0.400882
Si Si6 0.548614 0.304144 0.631482
Si Si7 0.000000 0.000000 0.350471
Si Si8 0.200913 0.800201 0.892189
O O1 0.250000 0.750000 0.158678
O O2 0.169463 0.765181 0.216650
O O3 0.203267 0.000000 0.111330
O O4 0.193793 0.734974 0.009747
O O5 0.665333 0.260582 0.616885
O O6 0.588421 0.272450 0.708014
O O7 0.664719 0.233506 0.814740
O O8 0.631448 0.000000 0.702289
O O9 0.800558 0.500000 0.535838
O O10 0.750000 0.250000 0.570779
O O11 0.808032 0.234663 0.421678
O O12 0.828152 0.500000 0.321564
O O13 0.887093 0.288393 0.369653
O O14 0.949472 0.500000 0.371550
O O15 0.942574 0.292912 0.524938
O O16 0.963133 0.151524 0.355736
O O17 0.500000 0.261729 0.669060
O O18 0.548043 0.500000 0.604431
O O19 0.250000 0.750000 0.862064
O O20 0.198620 0.000000 0.889724
#
# Coordination Sequence:
#
# PCOD9349556 Si02
#       8
#     8   8   8   8   8   8   2   8
#     4  10  21  36  57  81 111 147 192 241 285 337
#     4  11  22  36  55  80 113 150 189 232 286 344
#     4  10  21  34  47  73 110 149 183 218 271 336
#     4  10  21  36  54  80 114 149 189 232 285 342
#     4  11  21  36  56  82 118 153 191 245 291 348
#     4  11  21  36  56  84 113 149 192 236 288 347
#     4  12  22  36  56  86 112 154 206 232 300 350
#     4  10  21  38  57  82 111 147 192 241 288 340
#
# _framework density 18.067418
#
# number of rings (size 3 to 8) (size 9 to 14) (size 15 to 20)
#    0.000    1.517    2.759    2.690    0.966    6.345 
#    0.000    0.000    0.000    0.000    1.793    0.000 
#    0.000    0.000    0.000    0.000    0.000    0.000 
#
# Total GULP energy -161536.863213 kJ/mol
# GULP energy per Si atom -5570.236663 kJ/mol
# Density = 1.802630 g / cm^3
# Si number density = 18.067418 Si / 1000 Ang^3
#
#
#
# Elastic Constant Matrix: (Units=GPa)
#
#
# Indices 1 2 3 4 5 6 
#
# 1 129.4801 22.8213 53.1697 0.0000 0.0000 0.0000
# 2 22.8213 69.9426 10.7734 0.0000 0.0000 0.0000
# 3 53.1697 10.7734 70.1141 0.0000 0.0000 0.0000
# 4 0.0000 0.0000 0.0000 16.6116 0.0000 0.0000
# 5 0.0000 0.0000 0.0000 0.0000 40.6206 0.0000
# 6 0.0000 0.0000 0.0000 0.0000 0.0000 32.6010
#
#
#
# Elastic Compliance Matrix: (Units=1/GPa)
#
#
# Indices 1 2 3 4 5 6 
#
# 1 0.011626 -0.002494 -0.008433 0.000000 0.000000 0.000000
# 2 -0.002494 0.015179 -0.000441 0.000000 0.000000 0.000000
# 3 -0.008433 -0.000441 0.020725 0.000000 0.000000 0.000000
# 4 0.000000 0.000000 0.000000 0.060199 0.000000 0.000000
# 5 0.000000 0.000000 0.000000 0.000000 0.024618 0.000000
# 6 0.000000 0.000000 0.000000 0.000000 0.000000 0.030674
#
#
# Mechanical properties :
#
#
# Convention : Reuss Voigt Hill
#
# Bulk Modulus (GPa) = 40.33241 49.22951 44.78096
# Shear Modulus (GPa) = 25.77032 30.15145 27.96089
#
# Velocity S-wave (km/s) = 3.78079 4.08956 3.93821
# Velocity P-wave (km/s) = 6.43669 7.04317 6.74674
#
# Compressibility (1/GPa) = 0.02479396
#
# Stress axis : x y z
#
# Youngs Moduli (GPa) = 86.01621 65.87951 48.25061
#
# Poissons Ratio (x) = 0.16433 0.40689
# Poissons Ratio (y) = 0.21456 0.02127
# Poissons Ratio (z) = 0.72536 0.02904
#
# Static dielectric constant tensor:
#      x y z
#    x 1.619590 0.000000 0.000000 
#    y 0.000000 1.641620 0.000000 
#    z 0.000000 0.000000 1.641820 
# 
# From -- ./inp_files/14503.got.cif
#   From: 2010.05.17/outbox.cif.g08.bks.cpg/sg35_8_cif.got.tgz:14503.got - 2010.06.03 17:29:28.
