data_PCOD9349170
_publ_section_title
;
Structure prediction by ZEFSAII (Michael W. Deem and Ramdas Pophale) SiO2 
 PCOD9349170
Probable space group: C M M 2
;
_chemical_formula_sum "Si O2"
_cell_formula_units_Z 48
_cell_length_a 16.116540
_cell_length_b 8.325530
_cell_length_c 18.153961
_cell_angle_alpha 90.000000
_cell_angle_beta 90.000000
_cell_angle_gamma 90.000000
_cell_volume 2435.875563
_symmetry_space_group_name_H-M "C M M 2"
_symmetry_group_IT_number 35
_symmetry_cell_setting 'orthorhombic'
loop_
_space_group_symop_operation_xyz
x,y,z
-x,-y,z
-x,y,z
x,-y,z
1/2+x,1/2+y,z
1/2-x,1/2-y,z
1/2-x,1/2+y,z
1/2+x,1/2-y,z
loop_
_atom_site_type_symbol
_atom_site_label
_atom_site_fract_x
_atom_site_fract_y
_atom_site_fract_z
Si Si1 0.500000 0.805546 0.365101
Si Si2 0.597013 0.321790 0.780508
Si Si3 0.500000 0.694288 0.197308
Si Si4 0.843927 0.194103 0.935333
Si Si5 0.345055 0.194576 0.464076
Si Si6 0.343495 0.809546 0.628189
Si Si7 0.845919 0.805621 0.097577
O O1 0.500000 0.749080 0.281370
O O2 0.583947 0.751588 0.407342
O O3 0.500000 0.000000 0.367015
O O4 0.500000 0.338449 0.790799
O O5 0.636627 0.500000 0.775294
O O6 0.626333 0.241058 0.856389
O O7 0.610820 0.241689 0.702037
O O8 0.500000 0.500000 0.194459
O O9 0.584658 0.748312 0.156025
O O10 0.750000 0.250000 0.940203
O O11 0.853270 0.000000 0.931837
O O12 0.877831 0.243474 0.015492
O O13 0.250000 0.250000 0.450049
O O14 0.370603 0.248968 0.547043
O O15 0.343733 0.000000 0.463043
O O16 0.250000 0.750000 0.636934
O O17 0.345687 0.000000 0.624929
O O18 0.750000 0.750000 0.109282
O O19 0.843027 0.000000 0.098636
#
# Coordination Sequence:
#
# PCOD9349170 Si02
#       7
#     4   8   4   8   8   8   8
#     4  10  22  40  60  83 112 146 178 219 276 334
#     4  10  21  33  48  76 110 143 182 224 267 315
#     4  10  22  38  58  85 112 142 180 223 272 332
#     4   9  18  33  53  74 101 140 181 221 265 314
#     4   9  20  38  60  83 110 145 185 225 272 328
#     4  10  20  35  56  77 104 141 182 224 270 321
#     4   9  19  36  58  82 110 145 185 225 271 324
#
# _framework density 19.705439999999999
#
# number of rings (size 3 to 8) (size 9 to 14) (size 15 to 20)
#    0.000    2.500    0.000    1.000    2.333    5.000 
#    0.000    3.333    0.000    0.000    0.000    0.000 
#    0.000    0.000    0.000    0.000    0.000    0.000 
#
# Total GULP energy -133648.441441 kJ/mol
# GULP energy per Si atom -5568.685060 kJ/mol
# Density = 1.966059 g / cm^3
# Si number density = 19.705440 Si / 1000 Ang^3
#
#
#
# Elastic Constant Matrix: (Units=GPa)
#
#
# Indices 1 2 3 4 5 6 
#
# 1 90.5275 9.2036 95.1521 0.0000 0.0000 0.0000
# 2 9.2036 7.4515 19.4239 0.0000 0.0000 0.0000
# 3 95.1521 19.4239 192.7562 0.0000 0.0000 0.0000
# 4 0.0000 0.0000 0.0000 31.6012 0.0000 0.0000
# 5 0.0000 0.0000 0.0000 0.0000 47.3386 0.0000
# 6 0.0000 0.0000 0.0000 0.0000 0.0000 18.3006
#
#
#
# Elastic Compliance Matrix: (Units=1/GPa)
#
#
# Indices 1 2 3 4 5 6 
#
# 1 0.022973 0.001609 -0.011502 0.000000 0.000000 0.000000
# 2 0.001609 0.182125 -0.019147 0.000000 0.000000 0.000000
# 3 -0.011502 -0.019147 0.012795 0.000000 0.000000 0.000000
# 4 0.000000 0.000000 0.000000 0.031644 0.000000 0.000000
# 5 0.000000 0.000000 0.000000 0.000000 0.021124 0.000000
# 6 0.000000 0.000000 0.000000 0.000000 0.000000 0.054643
#
#
# Mechanical properties :
#
#
# Convention : Reuss Voigt Hill
#
# Bulk Modulus (GPa) = 6.25731 59.81049 33.03390
# Shear Modulus (GPa) = 11.45063 30.57844 21.01454
#
# Velocity S-wave (km/s) = 2.41320 3.94353 3.26917
# Velocity P-wave (km/s) = 3.30863 7.15216 5.57227
#
# Compressibility (1/GPa) = 0.15981299
#
# Stress axis : x y z
#
# Youngs Moduli (GPa) = 43.52964 5.49072 78.15310
#
# Poissons Ratio (x) = -0.00883 0.89895
# Poissons Ratio (y) = -0.07004 1.49639
# Poissons Ratio (z) = 0.50070 0.10513
#
# Static dielectric constant tensor:
#      x y z
#    x 1.661940 0.000000 0.000000 
#    y 0.000000 1.738560 0.000000 
#    z 0.000000 0.000000 1.747840 
# 
# From -- ./inp_files/15178.got.cif
#   From: 2010.05.17/outbox.cif.g08.bks.cpg/sg35_8_cif.got.tgz:15178.got - 2010.06.03 17:29:28.
