data_PCOD9349707
_publ_section_title
;
Structure prediction by ZEFSAII (Michael W. Deem and Ramdas Pophale) SiO2 
 PCOD9349707
Probable space group: C M M 2
;
_chemical_formula_sum "Si O2"
_cell_formula_units_Z 40
_cell_length_a 8.871615
_cell_length_b 15.836485
_cell_length_c 14.466677
_cell_angle_alpha 90.000000
_cell_angle_beta 90.000000
_cell_angle_gamma 90.000000
_cell_volume 2032.498648
_symmetry_space_group_name_H-M "C M M 2"
_symmetry_group_IT_number 35
_symmetry_cell_setting 'orthorhombic'
loop_
_space_group_symop_operation_xyz
x,y,z
-x,-y,z
-x,y,z
x,-y,z
1/2+x,1/2+y,z
1/2-x,1/2-y,z
1/2-x,1/2+y,z
1/2+x,1/2-y,z
loop_
_atom_site_type_symbol
_atom_site_label
_atom_site_fract_x
_atom_site_fract_y
_atom_site_fract_z
Si Si1 0.680139 0.343386 0.694550
Si Si2 0.321951 0.000000 0.022167
Si Si3 0.177774 0.500000 0.801492
Si Si4 0.179061 0.837648 0.119769
Si Si5 0.679918 0.342883 0.481378
Si Si6 0.673397 0.097657 0.299689
O O1 0.500000 0.338105 0.706415
O O2 0.750000 0.250000 0.709702
O O3 0.748176 0.415913 0.758750
O O4 0.710095 0.368643 0.587304
O O5 0.246214 0.083292 0.064390
O O6 0.500000 0.000000 0.044747
O O7 0.304298 0.000000 0.911825
O O8 0.000000 0.500000 0.779875
O O9 0.250000 0.750000 0.086044
O O10 0.229464 0.850861 0.226151
O O11 0.000000 0.835737 0.112686
O O12 0.500000 0.341455 0.468135
O O13 0.750000 0.250000 0.470991
O O14 0.758002 0.396481 0.401700
O O15 0.500000 0.127309 0.299299
O O16 0.675360 0.000000 0.270101
#
# Coordination Sequence:
#
# PCOD9349707 Si02
#       6
#     8   4   4   8   8   8
#     4  10  22  41  65  94 129 168 212 262 312 371
#     4  11  25  47  68  95 128 159 207 264 318 379
#     4  11  25  43  68  95 126 165 205 260 322 379
#     4  12  25  43  69  96 127 168 209 257 314 374
#     4  10  21  37  58  86 123 164 210 257 305 364
#     4  11  23  38  59  89 128 169 210 258 308 367
#
# _framework density 19.680209000000001
#
# number of rings (size 3 to 8) (size 9 to 14) (size 15 to 20)
#    0.000    1.200    1.000    4.800    1.400    6.000 
#    0.000    0.000    0.000    0.000    0.000    0.000 
#    0.000    0.000    0.000    0.000    0.000    0.000 
#
# Total GULP energy -111859.600969 kJ/mol
# GULP energy per Si atom -5592.980048 kJ/mol
# Density = 1.963542 g / cm^3
# Si number density = 19.680209 Si / 1000 Ang^3
#
#
#
# Elastic Constant Matrix: (Units=GPa)
#
#
# Indices 1 2 3 4 5 6 
#
# 1 171.0413 83.1266 77.7756 0.0000 0.0000 0.0000
# 2 83.1266 140.5412 70.1245 0.0000 0.0000 0.0000
# 3 77.7756 70.1245 90.5198 0.0000 0.0000 0.0000
# 4 0.0000 0.0000 0.0000 5.2176 0.0000 0.0000
# 5 0.0000 0.0000 0.0000 0.0000 31.6280 0.0000
# 6 0.0000 0.0000 0.0000 0.0000 0.0000 35.6518
#
#
#
# Elastic Compliance Matrix: (Units=1/GPa)
#
#
# Indices 1 2 3 4 5 6 
#
# 1 0.010189 -0.002703 -0.006660 0.000000 0.000000 0.000000
# 2 -0.002703 0.012316 -0.007218 0.000000 0.000000 0.000000
# 3 -0.006660 -0.007218 0.022362 0.000000 0.000000 0.000000
# 4 0.000000 0.000000 0.000000 0.191660 0.000000 0.000000
# 5 0.000000 0.000000 0.000000 0.000000 0.031618 0.000000
# 6 0.000000 0.000000 0.000000 0.000000 0.000000 0.028049
#
#
# Mechanical properties :
#
#
# Convention : Reuss Voigt Hill
#
# Bulk Modulus (GPa) = 85.44825 96.01728 90.73277
# Shear Modulus (GPa) = 15.00342 25.90453 20.45397
#
# Velocity S-wave (km/s) = 2.76408 3.63198 3.22734
# Velocity P-wave (km/s) = 7.32799 8.15372 7.75186
#
# Compressibility (1/GPa) = 0.01170299
#
# Stress axis : x y z
#
# Youngs Moduli (GPa) = 98.14662 81.19580 44.71937
#
# Poissons Ratio (x) = 0.21950 0.29784
# Poissons Ratio (y) = 0.26532 0.32280
# Poissons Ratio (z) = 0.65367 0.58609
#
# Static dielectric constant tensor:
#      x y z
#    x 1.655600 0.000000 0.000000 
#    y 0.000000 1.657660 0.000000 
#    z 0.000000 0.000000 1.684950 
# 
# From -- ./inp_files/14759.got.cif
#   From: 2010.05.17/outbox.cif.g08.bks.cpg/sg35_8_cif.got.tgz:14759.got - 2010.06.03 17:29:28.
