data_PCOD9349671
_publ_section_title
;
Structure prediction by ZEFSAII (Michael W. Deem and Ramdas Pophale) SiO2 
 PCOD9349671
Probable space group: C M M 2
;
_chemical_formula_sum "Si O2"
_cell_formula_units_Z 64
_cell_length_a 8.602935
_cell_length_b 20.595618
_cell_length_c 20.559020
_cell_angle_alpha 90.000000
_cell_angle_beta 90.000000
_cell_angle_gamma 90.000000
_cell_volume 3642.703967
_symmetry_space_group_name_H-M "C M M 2"
_symmetry_group_IT_number 35
_symmetry_cell_setting 'orthorhombic'
loop_
_space_group_symop_operation_xyz
x,y,z
-x,-y,z
-x,y,z
x,-y,z
1/2+x,1/2+y,z
1/2-x,1/2-y,z
1/2-x,1/2+y,z
1/2+x,1/2-y,z
loop_
_atom_site_type_symbol
_atom_site_label
_atom_site_fract_x
_atom_site_fract_y
_atom_site_fract_z
Si Si1 0.184940 0.820745 0.265100
Si Si2 0.312306 0.821508 0.769039
Si Si3 0.686100 0.424806 0.019708
Si Si4 0.810560 0.573847 0.515028
Si Si5 0.187458 0.575566 0.366044
Si Si6 0.187995 0.321488 0.620190
Si Si7 0.187809 0.425251 0.876343
Si Si8 0.314814 0.821019 0.120932
O O1 0.250000 0.750000 0.284623
O O2 0.236621 0.875366 0.315750
O O3 0.251918 0.835082 0.193367
O O4 0.000000 0.817125 0.260970
O O5 0.500000 0.819692 0.770172
O O6 0.250000 0.750000 0.785333
O O7 0.264592 0.836675 0.694631
O O8 0.260901 0.875422 0.820668
O O9 0.500000 0.420534 0.023067
O O10 0.731482 0.500000 0.032720
O O11 0.759384 0.375582 0.070929
O O12 0.741697 0.409282 0.946628
O O13 0.760919 0.500000 0.529415
O O14 0.765912 0.589864 0.440800
O O15 0.757226 0.625351 0.568338
O O16 0.000000 0.573769 0.516017
O O17 0.226382 0.500000 0.352879
O O18 0.000000 0.581372 0.361963
O O19 0.250000 0.250000 0.604253
O O20 0.000000 0.320170 0.618642
O O21 0.229333 0.500000 0.860682
O O22 0.000000 0.422039 0.881144
O O23 0.500000 0.818075 0.122848
O O24 0.250000 0.750000 0.102142
#
# Coordination Sequence:
#
# PCOD9349671 Si02
#       8
#     8   8   8   8   8   8   8   8
#     4  11  22  37  56  78 106 137 172 213 256 304
#     4   9  18  31  48  71  99 131 166 208 254 302
#     4  10  21  37  56  79 107 138 173 212 254 303
#     4   8  15  29  50  74  99 129 167 210 252 297
#     4   9  18  34  54  76 104 137 173 213 258 308
#     4   9  17  30  48  71  99 130 166 207 253 302
#     4   9  18  33  51  72  99 131 169 212 256 301
#     4  11  22  38  59  81 107 137 171 211 256 305
#
# _framework density 17.569367
#
# number of rings (size 3 to 8) (size 9 to 14) (size 15 to 20)
#    0.000    2.500    0.000    4.125    0.000    3.500 
#    0.000    5.625    0.000    1.125    0.000    3.500 
#    0.000    0.000    0.000    0.000    0.000    0.000 
#
# Total GULP energy -178533.886037 kJ/mol
# GULP energy per Si atom -5579.183939 kJ/mol
# Density = 1.752938 g / cm^3
# Si number density = 17.569367 Si / 1000 Ang^3
#
#
#
# Elastic Constant Matrix: (Units=GPa)
#
#
# Indices 1 2 3 4 5 6 
#
# 1 56.1447 52.0957 50.1619 0.0000 0.0000 0.0000
# 2 52.0957 151.9865 136.7406 0.0000 0.0000 0.0000
# 3 50.1619 136.7406 142.7386 0.0000 0.0000 0.0000
# 4 0.0000 0.0000 0.0000 44.2207 0.0000 0.0000
# 5 0.0000 0.0000 0.0000 0.0000 19.1737 0.0000
# 6 0.0000 0.0000 0.0000 0.0000 0.0000 27.1888
#
#
#
# Elastic Compliance Matrix: (Units=1/GPa)
#
#
# Indices 1 2 3 4 5 6 
#
# 1 0.026498 -0.005102 -0.004425 0.000000 0.000000 0.000000
# 2 -0.005102 0.048620 -0.044784 0.000000 0.000000 0.000000
# 3 -0.004425 -0.044784 0.051463 0.000000 0.000000 0.000000
# 4 0.000000 0.000000 0.000000 0.022614 0.000000 0.000000
# 5 0.000000 0.000000 0.000000 0.000000 0.052155 0.000000
# 6 0.000000 0.000000 0.000000 0.000000 0.000000 0.036780
#
#
# Mechanical properties :
#
#
# Convention : Reuss Voigt Hill
#
# Bulk Modulus (GPa) = 55.67913 92.09624 73.88768
# Shear Modulus (GPa) = 14.17487 25.57474 19.87481
#
# Velocity S-wave (km/s) = 2.84349 3.81943 3.36701
# Velocity P-wave (km/s) = 6.52230 8.48429 7.56715
#
# Compressibility (1/GPa) = 0.01796005
#
# Stress axis : x y z
#
# Youngs Moduli (GPa) = 37.73836 20.56772 19.43152
#
# Poissons Ratio (x) = 0.10493 0.08598
# Poissons Ratio (y) = 0.19254 0.87022
# Poissons Ratio (z) = 0.16698 0.92110
#
# Static dielectric constant tensor:
#      x y z
#    x 1.596860 0.000000 0.000000 
#    y 0.000000 1.577690 0.000000 
#    z 0.000000 0.000000 1.580750 
# 
# From -- ./inp_files/18344.got.cif
#   From: 2010.05.17/outbox.cif.g08.bks.cpg/sg35_10_cif.got.tgz:18344.got - 2010.06.03 17:29:28.
