data_PCOD9349672
_publ_section_title
;
Structure prediction by ZEFSAII (Michael W. Deem and Ramdas Pophale) SiO2 
 PCOD9349672
Probable space group: C M M 2
;
_chemical_formula_sum "Si O2"
_cell_formula_units_Z 56
_cell_length_a 18.696400
_cell_length_b 8.758927
_cell_length_c 18.733004
_cell_angle_alpha 90.000000
_cell_angle_beta 90.000000
_cell_angle_gamma 90.000000
_cell_volume 3067.724280
_symmetry_space_group_name_H-M "C M M 2"
_symmetry_group_IT_number 35
_symmetry_cell_setting 'orthorhombic'
loop_
_space_group_symop_operation_xyz
x,y,z
-x,-y,z
-x,y,z
x,-y,z
1/2+x,1/2+y,z
1/2-x,1/2-y,z
1/2-x,1/2+y,z
1/2+x,1/2-y,z
loop_
_atom_site_type_symbol
_atom_site_label
_atom_site_fract_x
_atom_site_fract_y
_atom_site_fract_z
Si Si1 0.330487 0.683141 0.877330
Si Si2 0.329451 0.816619 0.447430
Si Si3 0.170119 0.318689 0.022832
Si Si4 0.916854 0.815262 0.580260
Si Si5 0.329890 0.683870 0.719963
Si Si6 0.414581 0.679936 0.153930
Si Si7 0.583569 0.816516 0.306236
O O1 0.328432 0.500000 0.884124
O O2 0.250000 0.750000 0.875633
O O3 0.360042 0.723414 0.798836
O O4 0.363097 0.753117 0.949113
O O5 0.250000 0.750000 0.449860
O O6 0.374614 0.755138 0.514068
O O7 0.368937 0.771582 0.373867
O O8 0.326771 0.000000 0.450346
O O9 0.175127 0.500000 0.017798
O O10 0.250000 0.250000 0.029555
O O11 0.125273 0.268000 0.091202
O O12 0.879313 0.767787 0.654351
O O13 0.000000 0.771279 0.578768
O O14 0.912922 0.000000 0.575954
O O15 0.324060 0.500000 0.718202
O O16 0.250000 0.750000 0.712295
O O17 0.500000 0.703640 0.147903
O O18 0.399797 0.500000 0.147755
O O19 0.393358 0.739228 0.232347
O O20 0.500000 0.777326 0.319286
O O21 0.587628 0.000000 0.298009
#
# Coordination Sequence:
#
# PCOD9349672 Si02
#       7
#     8   8   8   8   8   8   8
#     4   9  16  29  49  74 104 137 177 222 269 319
#     4  11  23  38  57  82 111 142 178 220 266 315
#     4  11  21  34  54  79 109 143 181 224 269 317
#     4  10  21  37  56  79 109 144 181 220 265 318
#     4   9  18  32  52  77 104 137 177 222 270 318
#     4  10  21  37  57  81 109 142 180 219 263 318
#     4   9  19  37  58  78 104 140 179 219 266 318
#
# _framework density 18.254574000000002
#
# number of rings (size 3 to 8) (size 9 to 14) (size 15 to 20)
#    0.000    2.143    0.000    4.286    0.000    5.714 
#    0.000    3.571    0.000    2.571    0.000    0.000 
#    0.000    0.000    0.000    0.000    0.000    0.000 
#
# Total GULP energy -156270.155884 kJ/mol
# GULP energy per Si atom -5581.076996 kJ/mol
# Density = 1.821303 g / cm^3
# Si number density = 18.254574 Si / 1000 Ang^3
#
#
#
# Elastic Constant Matrix: (Units=GPa)
#
#
# Indices 1 2 3 4 5 6 
#
# 1 82.2627 41.1440 85.0820 0.0000 0.0000 0.0000
# 2 41.1440 68.1097 71.8484 0.0000 0.0000 0.0000
# 3 85.0820 71.8484 206.7273 0.0000 0.0000 0.0000
# 4 0.0000 0.0000 0.0000 27.3046 0.0000 0.0000
# 5 0.0000 0.0000 0.0000 0.0000 97.6200 0.0000
# 6 0.0000 0.0000 0.0000 0.0000 0.0000 18.4571
#
#
#
# Elastic Compliance Matrix: (Units=1/GPa)
#
#
# Indices 1 2 3 4 5 6 
#
# 1 0.022655 -0.006078 -0.007212 0.000000 0.000000 0.000000
# 2 -0.006078 0.024812 -0.006122 0.000000 0.000000 0.000000
# 3 -0.007212 -0.006122 0.009933 0.000000 0.000000 0.000000
# 4 0.000000 0.000000 0.000000 0.036624 0.000000 0.000000
# 5 0.000000 0.000000 0.000000 0.000000 0.010244 0.000000
# 6 0.000000 0.000000 0.000000 0.000000 0.000000 0.054180
#
#
# Mechanical properties :
#
#
# Convention : Reuss Voigt Hill
#
# Bulk Modulus (GPa) = 53.83087 83.69428 68.76258
# Shear Modulus (GPa) = 24.57463 39.27803 31.92633
#
# Velocity S-wave (km/s) = 3.67306 4.64365 4.18658
# Velocity P-wave (km/s) = 6.89504 8.64288 7.81795
#
# Compressibility (1/GPa) = 0.01857670
#
# Stress axis : x y z
#
# Youngs Moduli (GPa) = 44.14071 40.30348 100.67490
#
# Poissons Ratio (x) = 0.24497 0.72602
# Poissons Ratio (y) = 0.26829 0.61632
# Poissons Ratio (z) = 0.31832 0.24673
#
# Static dielectric constant tensor:
#      x y z
#    x 1.592660 0.000000 0.000000 
#    y 0.000000 1.615090 0.000000 
#    z 0.000000 0.000000 1.641520 
# 
# From -- ./inp_files/17416.got.cif
#   From: 2010.05.17/outbox.cif.g08.bks.cpg/sg35_9_cif.got.tgz:17416.got - 2010.06.03 17:29:28.
