data_PCOD9349888
_publ_section_title
;
Structure prediction by ZEFSAII (Michael W. Deem and Ramdas Pophale) SiO2 
 PCOD9349888
Probable space group: C M M 2
;
_chemical_formula_sum "Si O2"
_cell_formula_units_Z 48
_cell_length_a 15.876064
_cell_length_b 23.997731
_cell_length_c 5.332398
_cell_angle_alpha 90.000000
_cell_angle_beta 90.000000
_cell_angle_gamma 90.000000
_cell_volume 2031.587718
_symmetry_space_group_name_H-M "C M M 2"
_symmetry_group_IT_number 35
_symmetry_cell_setting 'orthorhombic'
loop_
_space_group_symop_operation_xyz
x,y,z
-x,-y,z
-x,y,z
x,-y,z
1/2+x,1/2+y,z
1/2-x,1/2-y,z
1/2-x,1/2+y,z
1/2+x,1/2-y,z
loop_
_atom_site_type_symbol
_atom_site_label
_atom_site_fract_x
_atom_site_fract_y
_atom_site_fract_z
Si Si1 0.752568 0.559330 0.202380
Si Si2 0.670356 0.845517 0.498211
Si Si3 0.164930 0.818282 0.716807
Si Si4 0.100336 0.242810 0.218123
Si Si5 0.401907 0.561722 0.845853
Si Si6 0.591760 0.062578 0.816833
O O1 0.763818 0.500000 0.334759
O O2 0.765972 0.611755 0.370908
O O3 0.661689 0.559877 0.078418
O O4 0.827109 0.563366 0.996112
O O5 0.733101 0.816607 0.696415
O O6 0.633969 0.804274 0.290287
O O7 0.602825 0.885710 0.629346
O O8 0.127544 0.790297 0.467864
O O9 0.127421 0.881094 0.719057
O O10 0.136765 0.786561 0.970074
O O11 0.000000 0.244299 0.192893
O O12 0.500000 0.566615 0.912794
O O13 0.392087 0.500000 0.719494
O O14 0.500000 0.068168 0.945688
O O15 0.591385 0.000000 0.701402
#
# Coordination Sequence:
#
# PCOD9349888 Si02
#       6
#     8   8   8   8   8   8
#     4  10  22  42  71 107 149 193 245 315 380 446
#     4  12  26  43  75 104 146 198 260 310 382 465
#     4  12  27  48  75 109 151 193 251 317 386 446
#     4  12  29  51  76 107 149 202 257 315 382 456
#     4  10  21  42  73 105 140 188 243 300 374 460
#     4  10  22  42  70 108 153 197 247 312 382 452
#
# _framework density 23.626837999999999
#
# number of rings (size 3 to 8) (size 9 to 14) (size 15 to 20)
#    0.000    1.000    1.667    4.000    2.333    4.667 
#    0.000    4.167    0.000    9.000    0.000    0.000 
#    0.000    0.000    0.000    0.000    0.000    0.000 
#
# Total GULP energy -134186.552177 kJ/mol
# GULP energy per Si atom -5591.106341 kJ/mol
# Density = 2.357306 g / cm^3
# Si number density = 23.626838 Si / 1000 Ang^3
#
#
#
# Elastic Constant Matrix: (Units=GPa)
#
#
# Indices 1 2 3 4 5 6 
#
# 1 127.7466 34.3976 53.5210 0.0000 0.0000 0.0000
# 2 34.3976 153.5074 58.9138 0.0000 0.0000 0.0000
# 3 53.5210 58.9138 109.3928 0.0000 0.0000 0.0000
# 4 0.0000 0.0000 0.0000 5.3188 0.0000 0.0000
# 5 0.0000 0.0000 0.0000 0.0000 -37.5661 0.0000
# 6 0.0000 0.0000 0.0000 0.0000 0.0000 41.1895
#
#
#
# Elastic Compliance Matrix: (Units=1/GPa)
#
#
# Indices 1 2 3 4 5 6 
#
# 1 0.009871 -0.000452 -0.004586 0.000000 0.000000 0.000000
# 2 -0.000452 0.008232 -0.004212 0.000000 0.000000 0.000000
# 3 -0.004586 -0.004212 0.013654 0.000000 0.000000 0.000000
# 4 0.000000 0.000000 0.000000 0.188012 0.000000 0.000000
# 5 0.000000 0.000000 0.000000 0.000000 -0.026620 0.000000
# 6 0.000000 0.000000 0.000000 0.000000 0.000000 0.024278
#
#
# Mechanical properties :
#
#
# Convention : Reuss Voigt Hill
#
# Bulk Modulus (GPa) = 75.43579 76.03463 75.73521
# Shear Modulus (GPa) = 20.80329 18.04273 19.42301
#
# Velocity S-wave (km/s) = 2.97053 2.76643 2.87029
# Velocity P-wave (km/s) = 6.61534 6.51579 6.56575
#
# Compressibility (1/GPa) = 0.01325631
#
# Stress axis : x y z
#
# Youngs Moduli (GPa) = 101.30609 121.47331 73.23961
#
# Poissons Ratio (x) = 0.05488 0.33589
# Poissons Ratio (y) = 0.04577 0.30852
# Poissons Ratio (z) = 0.46461 0.51170
#
# Static dielectric constant tensor:
#      x y z
#    x 1.883650 0.000000 0.000000 
#    y 0.000000 1.958200 0.000000 
#    z 0.000000 0.000000 1.910890 
# 
# From -- ./inp_files/1912.got.cif
#   From: 2010.05.17/outbox.cif.g08.bks.cpg/sg35_1_cif.got.tgz:1912.got - 2010.06.03 17:29:28.
