data_PCOD9349579
_publ_section_title
;
Structure prediction by ZEFSAII (Michael W. Deem and Ramdas Pophale) SiO2 
 PCOD9349579
Probable space group: C M M 2
;
_chemical_formula_sum "Si O2"
_cell_formula_units_Z 64
_cell_length_a 9.118775
_cell_length_b 18.678508
_cell_length_c 21.361801
_cell_angle_alpha 90.000000
_cell_angle_beta 90.000000
_cell_angle_gamma 90.000000
_cell_volume 3638.451143
_symmetry_space_group_name_H-M "C M M 2"
_symmetry_group_IT_number 35
_symmetry_cell_setting 'orthorhombic'
loop_
_space_group_symop_operation_xyz
x,y,z
-x,-y,z
-x,y,z
x,-y,z
1/2+x,1/2+y,z
1/2-x,1/2-y,z
1/2-x,1/2+y,z
1/2+x,1/2-y,z
loop_
_atom_site_type_symbol
_atom_site_label
_atom_site_fract_x
_atom_site_fract_y
_atom_site_fract_z
Si Si1 0.676784 0.672432 0.357400
Si Si2 0.172786 0.585758 0.246390
Si Si3 0.669590 0.412716 0.617275
Si Si4 0.176911 0.172867 0.992347
Si Si5 0.331503 0.912744 0.742511
Si Si6 0.678389 0.417639 0.479473
Si Si7 0.823865 0.083683 0.870042
Si Si8 0.825981 0.084674 0.116349
O O1 0.500000 0.677244 0.354763
O O2 0.750000 0.750000 0.355732
O O3 0.737086 0.626494 0.299456
O O4 0.719647 0.631970 0.421700
O O5 0.191512 0.500000 0.253851
O O6 0.234885 0.604786 0.177853
O O7 0.000000 0.602169 0.250934
O O8 0.500000 0.390893 0.623861
O O9 0.671097 0.500000 0.616553
O O10 0.759108 0.388282 0.677601
O O11 0.726845 0.391827 0.548409
O O12 0.250000 0.250000 0.993025
O O13 0.221246 0.129225 0.930264
O O14 0.000000 0.179215 0.991225
O O15 0.215523 0.129098 0.055005
O O16 0.500000 0.891006 0.745890
O O17 0.246572 0.890665 0.805114
O O18 0.325640 0.000000 0.741490
O O19 0.500000 0.419227 0.482112
O O20 0.726721 0.500000 0.469570
O O21 0.000000 0.086940 0.864441
O O22 0.784364 0.000000 0.879367
O O23 0.000000 0.095171 0.128431
O O24 0.804233 0.000000 0.104371
#
# Coordination Sequence:
#
# PCOD9349579 Si02
#       8
#     8   8   8   8   8   8   8   8
#     4  11  22  36  54  76 105 140 176 214 257 305
#     4  10  21  37  57  82 109 135 168 211 256 304
#     4   8  13  24  44  69  95 123 159 204 251 300
#     4  10  21  35  52  75 102 132 166 206 250 297
#     4   9  16  25  40  68 102 129 157 200 253 300
#     4   8  15  29  51  76  98 126 168 212 252 300
#     4   9  17  31  51  72  95 128 169 207 243 290
#     4   9  18  35  58  80 102 132 170 208 247 295
#
# _framework density 17.589903
#
# number of rings (size 3 to 8) (size 9 to 14) (size 15 to 20)
#    0.000    2.750    0.000    2.625    0.000    5.750 
#    0.000    2.500    0.000    7.500    0.000    1.750 
#    0.000    0.000    0.000    0.000    0.000    0.000 
#
# Total GULP energy -178422.594042 kJ/mol
# GULP energy per Si atom -5575.706064 kJ/mol
# Density = 1.754987 g / cm^3
# Si number density = 17.589903 Si / 1000 Ang^3
#
#
#
# Elastic Constant Matrix: (Units=GPa)
#
#
# Indices 1 2 3 4 5 6 
#
# 1 54.8521 38.5890 70.3640 0.0000 0.0000 0.0000
# 2 38.5890 53.7826 73.9535 0.0000 0.0000 0.0000
# 3 70.3640 73.9535 196.8466 0.0000 0.0000 0.0000
# 4 0.0000 0.0000 0.0000 -5.5573 0.0000 0.0000
# 5 0.0000 0.0000 0.0000 0.0000 13.3186 0.0000
# 6 0.0000 0.0000 0.0000 0.0000 0.0000 20.6776
#
#
#
# Elastic Compliance Matrix: (Units=1/GPa)
#
#
# Indices 1 2 3 4 5 6 
#
# 1 0.041635 -0.019463 -0.007570 0.000000 0.000000 0.000000
# 2 -0.019463 0.047562 -0.010911 0.000000 0.000000 0.000000
# 3 -0.007570 -0.010911 0.011885 0.000000 0.000000 0.000000
# 4 0.000000 0.000000 0.000000 -0.179945 0.000000 0.000000
# 5 0.000000 0.000000 0.000000 0.000000 0.075083 0.000000
# 6 0.000000 0.000000 0.000000 0.000000 0.000000 0.048361
#
#
# Mechanical properties :
#
#
# Convention : Reuss Voigt Hill
#
# Bulk Modulus (GPa) = 39.69506 74.58826 57.14166
# Shear Modulus (GPa) = 38.79912 13.85944 26.32928
#
# Velocity S-wave (km/s) = 4.70165 2.81004 3.87310
# Velocity P-wave (km/s) = 7.21734 7.28179 7.24964
#
# Compressibility (1/GPa) = 0.02519205
#
# Stress axis : x y z
#
# Youngs Moduli (GPa) = 24.01844 21.02533 84.13646
#
# Poissons Ratio (x) = 0.40922 0.63695
# Poissons Ratio (y) = 0.46748 0.91804
# Poissons Ratio (z) = 0.18183 0.22941
#
# Static dielectric constant tensor:
#      x y z
#    x 1.588390 0.000000 0.000000 
#    y 0.000000 1.575570 0.000000 
#    z 0.000000 0.000000 1.595970 
# 
# From -- ./inp_files/18411.got.cif
#   From: 2010.05.17/outbox.cif.g08.bks.cpg/sg35_10_cif.got.tgz:18411.got - 2010.06.03 17:29:28.
