data_PCOD9349766
_publ_section_title
;
Structure prediction by ZEFSAII (Michael W. Deem and Ramdas Pophale) SiO2 
 PCOD9349766
Probable space group: C M M 2
;
_chemical_formula_sum "Si O2"
_cell_formula_units_Z 56
_cell_length_a 22.581671
_cell_length_b 8.526201
_cell_length_c 14.946555
_cell_angle_alpha 90.000000
_cell_angle_beta 90.000000
_cell_angle_gamma 90.000000
_cell_volume 2877.747909
_symmetry_space_group_name_H-M "C M M 2"
_symmetry_group_IT_number 35
_symmetry_cell_setting 'orthorhombic'
loop_
_space_group_symop_operation_xyz
x,y,z
-x,-y,z
-x,y,z
x,-y,z
1/2+x,1/2+y,z
1/2-x,1/2-y,z
1/2-x,1/2+y,z
1/2+x,1/2-y,z
loop_
_atom_site_type_symbol
_atom_site_label
_atom_site_fract_x
_atom_site_fract_y
_atom_site_fract_z
Si Si1 0.500000 0.309141 0.156750
Si Si2 0.883578 0.812947 0.264548
Si Si3 0.685514 0.810770 0.753294
Si Si4 0.686229 0.187358 0.106957
Si Si5 0.066914 0.688620 0.439125
Si Si6 0.000000 0.187126 0.949497
Si Si7 0.567342 0.809079 0.647022
Si Si8 0.875646 0.311314 0.930197
O O1 0.500000 0.500000 0.155849
O O2 0.442191 0.256754 0.210807
O O3 0.500000 0.256933 0.053667
O O4 0.830647 0.749491 0.204399
O O5 0.888680 0.755114 0.365799
O O6 0.882795 0.000000 0.263675
O O7 0.750000 0.750000 0.724089
O O8 0.626103 0.757549 0.700275
O O9 0.672240 0.764018 0.856130
O O10 0.687015 0.000000 0.747905
O O11 0.750000 0.250000 0.080942
O O12 0.685398 0.000000 0.107591
O O13 0.641546 0.244648 0.029432
O O14 0.068391 0.500000 0.435034
O O15 0.076193 0.732925 0.542416
O O16 0.000000 0.740974 0.414805
O O17 0.059691 0.249857 0.905628
O O18 0.000000 0.000000 0.949039
O O19 0.500000 0.756912 0.673294
O O20 0.566080 0.000000 0.652891
O O21 0.877802 0.500000 0.931010
#
# Coordination Sequence:
#
# PCOD9349766 Si02
#       8
#     4   8   8   8   8   4   8   8
#     4   9  18  31  49  76 107 140 174 213 265 315
#     4  11  20  34  54  79 111 146 183 223 272 328
#     4  10  21  38  61  85 112 149 190 236 285 341
#     4  11  23  38  54  76 107 147 191 234 277 325
#     4   9  17  31  53  82 111 140 182 231 279 332
#     4  11  21  35  55  82 115 150 184 229 283 329
#     4   8  16  33  58  85 111 145 188 235 287 342
#     4  10  22  37  56  83 113 147 188 230 276 333
#
# _framework density 19.459661000000001
#
# number of rings (size 3 to 8) (size 9 to 14) (size 15 to 20)
#    0.000    2.143    2.143    2.357    1.000    1.143 
#    0.000    1.429    0.000    2.571    0.000    0.000 
#    0.000    0.000    0.000    0.000    0.000    0.000 
#
# Total GULP energy -156196.247960 kJ/mol
# GULP energy per Si atom -5578.437427 kJ/mol
# Density = 1.941537 g / cm^3
# Si number density = 19.459661 Si / 1000 Ang^3
#
#
#
# Elastic Constant Matrix: (Units=GPa)
#
#
# Indices 1 2 3 4 5 6 
#
# 1 123.9938 13.5630 46.1862 0.0000 0.0000 0.0000
# 2 13.5630 13.1365 18.7269 0.0000 0.0000 0.0000
# 3 46.1862 18.7269 84.3094 0.0000 0.0000 0.0000
# 4 0.0000 0.0000 0.0000 11.5901 0.0000 0.0000
# 5 0.0000 0.0000 0.0000 0.0000 32.2028 0.0000
# 6 0.0000 0.0000 0.0000 0.0000 0.0000 28.6922
#
#
#
# Elastic Compliance Matrix: (Units=1/GPa)
#
#
# Indices 1 2 3 4 5 6 
#
# 1 0.010259 -0.003776 -0.004781 0.000000 0.000000 0.000000
# 2 -0.003776 0.112788 -0.022984 0.000000 0.000000 0.000000
# 3 -0.004781 -0.022984 0.019586 0.000000 0.000000 0.000000
# 4 0.000000 0.000000 0.000000 0.086281 0.000000 0.000000
# 5 0.000000 0.000000 0.000000 0.000000 0.031053 0.000000
# 6 0.000000 0.000000 0.000000 0.000000 0.000000 0.034853
#
#
# Mechanical properties :
#
#
# Convention : Reuss Voigt Hill
#
# Bulk Modulus (GPa) = 12.57078 42.04356 27.30717
# Shear Modulus (GPa) = 13.00668 24.02792 18.51730
#
# Velocity S-wave (km/s) = 2.58813 3.51772 3.08810
# Velocity P-wave (km/s) = 3.92494 6.17669 5.17478
#
# Compressibility (1/GPa) = 0.07954957
#
# Stress axis : x y z
#
# Youngs Moduli (GPa) = 97.47603 8.86622 51.05793
#
# Poissons Ratio (x) = 0.03348 0.24412
# Poissons Ratio (y) = 0.36807 1.17352
# Poissons Ratio (z) = 0.46606 0.20378
#
# Static dielectric constant tensor:
#      x y z
#    x 1.665310 0.000000 0.000000 
#    y 0.000000 1.653140 0.000000 
#    z 0.000000 0.000000 1.687530 
# 
# From -- ./inp_files/15734.got.cif
#   From: 2010.05.17/outbox.cif.g08.bks.cpg/sg35_8_cif.got.tgz:15734.got - 2010.06.03 17:29:28.
