data_PCOD9349142
_publ_section_title
;
Structure prediction by ZEFSAII (Michael W. Deem and Ramdas Pophale) SiO2 
 PCOD9349142
Probable space group: C M M 2
;
_chemical_formula_sum "Si O2"
_cell_formula_units_Z 58
_cell_length_a 9.356604
_cell_length_b 25.423655
_cell_length_c 12.695728
_cell_angle_alpha 90.000000
_cell_angle_beta 90.000000
_cell_angle_gamma 90.000000
_cell_volume 3020.047996
_symmetry_space_group_name_H-M "C M M 2"
_symmetry_group_IT_number 35
_symmetry_cell_setting 'orthorhombic'
loop_
_space_group_symop_operation_xyz
x,y,z
-x,-y,z
-x,y,z
x,-y,z
1/2+x,1/2+y,z
1/2-x,1/2-y,z
1/2-x,1/2+y,z
1/2+x,1/2-y,z
loop_
_atom_site_type_symbol
_atom_site_label
_atom_site_fract_x
_atom_site_fract_y
_atom_site_fract_z
Si Si1 0.000000 0.000000 0.355561
Si Si2 0.167710 0.940367 0.062204
Si Si3 0.161935 0.084243 0.815826
Si Si4 0.833979 0.697760 0.325490
Si Si5 0.335173 0.162358 0.090539
Si Si6 0.834530 0.201617 0.888390
Si Si7 0.337562 0.938743 0.614459
Si Si8 0.658234 0.396869 0.423626
O O1 0.877171 0.047652 0.365141
O O2 0.267919 0.895494 0.108209
O O3 0.000000 0.929307 0.086075
O O4 0.197336 0.000000 0.096269
O O5 0.182667 0.936551 0.934911
O O6 0.171163 0.147412 0.824224
O O7 0.275402 0.064977 0.732036
O O8 0.000000 0.069447 0.783757
O O9 0.750000 0.750000 0.359776
O O10 0.830330 0.694119 0.198491
O O11 0.756236 0.645039 0.364875
O O12 0.000000 0.698993 0.358055
O O13 0.500000 0.157754 0.056065
O O14 0.241360 0.188640 0.999308
O O15 0.750000 0.250000 0.838639
O O16 0.000000 0.215027 0.905884
O O17 0.500000 0.918764 0.609313
O O18 0.232563 0.909893 0.534338
O O19 0.338285 0.000000 0.584420
O O20 0.500000 0.373238 0.440468
#
# Coordination Sequence:
#
# PCOD9349142 Si02
#       8
#     2   8   8   8   8   8   8   8
#     4   8  20  40  66  92 112 150 198 238 296 352
#     4   9  18  34  52  77 111 152 192 235 282 334
#     4   9  19  33  52  76 108 144 185 227 274 334
#     4  11  24  41  61  88 118 154 195 243 295 351
#     4  10  21  36  55  80 111 146 189 233 282 339
#     4  10  20  35  55  78 106 142 184 230 278 327
#     4  11  21  34  55  85 114 145 183 231 283 338
#     4  10  20  40  63  87 115 148 193 238 289 349
#
# _framework density 19.204993000000002
#
# number of rings (size 3 to 8) (size 9 to 14) (size 15 to 20)
#    0.414    1.655    0.690    3.724    0.000    7.724 
#    1.241    0.690    0.000    1.655    0.000    0.000 
#    0.000    0.000    0.000    0.000    0.000    0.000 
#
# Total GULP energy -161552.133723 kJ/mol
# GULP energy per Si atom -5570.763232 kJ/mol
# Density = 1.916128 g / cm^3
# Si number density = 19.204993 Si / 1000 Ang^3
#
#
#
# Elastic Constant Matrix: (Units=GPa)
#
#
# Indices 1 2 3 4 5 6 
#
# 1 140.6300 54.0487 23.0855 0.0000 0.0000 0.0000
# 2 54.0487 105.5263 1.8965 0.0000 0.0000 0.0000
# 3 23.0855 1.8965 21.1630 0.0000 0.0000 0.0000
# 4 0.0000 0.0000 0.0000 12.3456 0.0000 0.0000
# 5 0.0000 0.0000 0.0000 0.0000 24.2781 0.0000
# 6 0.0000 0.0000 0.0000 0.0000 0.0000 32.3480
#
#
#
# Elastic Compliance Matrix: (Units=1/GPa)
#
#
# Indices 1 2 3 4 5 6 
#
# 1 0.011136 -0.005494 -0.011655 0.000000 0.000000 0.000000
# 2 -0.005494 0.012202 0.004900 0.000000 0.000000 0.000000
# 3 -0.011655 0.004900 0.059527 0.000000 0.000000 0.000000
# 4 0.000000 0.000000 0.000000 0.081001 0.000000 0.000000
# 5 0.000000 0.000000 0.000000 0.000000 0.041189 0.000000
# 6 0.000000 0.000000 0.000000 0.000000 0.000000 0.030914
#
#
# Mechanical properties :
#
#
# Convention : Reuss Voigt Hill
#
# Bulk Modulus (GPa) = 17.13320 47.26452 32.19886
# Shear Modulus (GPa) = 17.86209 26.34691 22.10450
#
# Velocity S-wave (km/s) = 3.05302 3.70791 3.39629
# Velocity P-wave (km/s) = 4.62261 6.55709 5.67291
#
# Compressibility (1/GPa) = 0.05836620
#
# Stress axis : x y z
#
# Youngs Moduli (GPa) = 89.80193 81.95251 16.79912
#
# Poissons Ratio (x) = 0.45025 0.19579
# Poissons Ratio (y) = 0.49337 -0.08231
# Poissons Ratio (z) = 1.04663 -0.40154
#
# Static dielectric constant tensor:
#      x y z
#    x 1.659850 0.000000 0.000000 
#    y 0.000000 1.700630 0.000000 
#    z 0.000000 0.000000 1.668260 
# 
# From -- ./inp_files/11614.got.cif
#   From: 2010.05.17/outbox.cif.g08.bks.cpg/sg35_6_cif.got.tgz:11614.got - 2010.06.03 17:29:28.
