data_PCOD9349277
_publ_section_title
;
Structure prediction by ZEFSAII (Michael W. Deem and Ramdas Pophale) SiO2 
 PCOD9349277
Probable space group: C M M 2
;
_chemical_formula_sum "Si O2"
_cell_formula_units_Z 40
_cell_length_a 11.307238
_cell_length_b 17.380602
_cell_length_c 9.725202
_cell_angle_alpha 90.000000
_cell_angle_beta 90.000000
_cell_angle_gamma 90.000000
_cell_volume 1911.260916
_symmetry_space_group_name_H-M "C M M 2"
_symmetry_group_IT_number 35
_symmetry_cell_setting 'orthorhombic'
loop_
_space_group_symop_operation_xyz
x,y,z
-x,-y,z
-x,y,z
x,-y,z
1/2+x,1/2+y,z
1/2-x,1/2-y,z
1/2-x,1/2+y,z
1/2+x,1/2-y,z
loop_
_atom_site_type_symbol
_atom_site_label
_atom_site_fract_x
_atom_site_fract_y
_atom_site_fract_z
Si Si1 0.287738 0.907926 0.163300
Si Si2 0.860714 0.193193 0.666296
Si Si3 0.768373 0.407325 0.474177
Si Si4 0.000000 0.592721 0.653025
Si Si5 0.500000 0.093944 0.968830
Si Si6 0.639042 0.585075 0.917016
O O1 0.286383 0.878511 0.318073
O O2 0.306880 0.000000 0.177573
O O3 0.388359 0.879881 0.058603
O O4 0.170641 0.896185 0.073754
O O5 0.750000 0.250000 0.642935
O O6 0.844485 0.130699 0.545378
O O7 0.827448 0.149093 0.807687
O O8 0.000000 0.218689 0.670743
O O9 0.756972 0.500000 0.473630
O O10 0.883630 0.387598 0.565721
O O11 0.000000 0.500000 0.662162
O O12 0.000000 0.620723 0.811017
O O13 0.500000 0.000000 0.965472
O O14 0.500000 0.578165 0.902563
O O15 0.693814 0.500000 0.885607
#
# Coordination Sequence:
#
# PCOD9349277 Si02
#       6
#     8   8   8   4   4   8
#     4   9  17  30  52  87 123 151 190 248 308 361
#     4  11  25  43  62  86 121 162 208 254 306 367
#     4  10  20  35  60  92 123 158 202 253 308 365
#     4   9  17  29  53  89 125 161 198 241 294 355
#     4   9  15  25  43  75 121 159 189 229 290 353
#     4   9  18  36  62  88 115 151 198 254 308 360
#
# _framework density 20.928592999999999
#
# number of rings (size 3 to 8) (size 9 to 14) (size 15 to 20)
#    0.000    2.400    0.000    2.400    1.400    7.600 
#    1.800    3.000    0.000    0.000    0.000    0.000 
#    0.000    0.000    0.000    0.000    0.000    0.000 
#
# Total GULP energy -111487.588614 kJ/mol
# GULP energy per Si atom -5574.379431 kJ/mol
# Density = 2.088096 g / cm^3
# Si number density = 20.928593 Si / 1000 Ang^3
#
#
#
# Elastic Constant Matrix: (Units=GPa)
#
#
# Indices 1 2 3 4 5 6 
#
# 1 64.8740 37.4136 22.8861 0.0000 0.0000 0.0000
# 2 37.4136 41.2176 27.5669 0.0000 0.0000 0.0000
# 3 22.8861 27.5669 157.1233 0.0000 0.0000 0.0000
# 4 0.0000 0.0000 0.0000 0.0726 0.0000 0.0000
# 5 0.0000 0.0000 0.0000 0.0000 18.9338 0.0000
# 6 0.0000 0.0000 0.0000 0.0000 0.0000 14.2832
#
#
#
# Elastic Compliance Matrix: (Units=1/GPa)
#
#
# Indices 1 2 3 4 5 6 
#
# 1 0.032383 -0.029728 0.000499 0.000000 0.000000 0.000000
# 2 -0.029728 0.054778 -0.005280 0.000000 0.000000 0.000000
# 3 0.000499 -0.005280 0.007218 0.000000 0.000000 0.000000
# 4 0.000000 0.000000 0.000000 13.774099 0.000000 0.000000
# 5 0.000000 0.000000 0.000000 0.000000 0.052816 0.000000
# 6 0.000000 0.000000 0.000000 0.000000 0.000000 0.070012
#
#
# Mechanical properties :
#
#
# Convention : Reuss Voigt Hill
#
# Bulk Modulus (GPa) = 39.43295 48.77203 44.10249
# Shear Modulus (GPa) = 0.35540 18.34781 9.35160
#
# Velocity S-wave (km/s) = 0.41253 2.96410 2.11614
# Velocity P-wave (km/s) = 4.37144 5.92192 5.20474
#
# Compressibility (1/GPa) = 0.02535950
#
# Stress axis : x y z
#
# Youngs Moduli (GPa) = 30.88037 18.25566 138.53846
#
# Poissons Ratio (x) = 0.54271 -0.06912
# Poissons Ratio (y) = 0.91801 0.73155
# Poissons Ratio (z) = -0.01541 0.09640
#
# Static dielectric constant tensor:
#      x y z
#    x 1.797180 0.000000 0.000000 
#    y 0.000000 1.815130 0.000000 
#    z 0.000000 0.000000 1.722380 
# 
# From -- ./inp_files/6106.got.cif
#   From: 2010.05.17/outbox.cif.g08.bks.cpg/sg35_4_cif.got.tgz:6106.got - 2010.06.03 17:29:28.
