data_PCOD9349008
_publ_section_title
;
Structure prediction by ZEFSAII (Michael W. Deem and Ramdas Pophale) SiO2 
 PCOD9349008
Probable space group: C M M 2
;
_chemical_formula_sum "Si O2"
_cell_formula_units_Z 48
_cell_length_a 8.794555
_cell_length_b 18.790264
_cell_length_c 15.816816
_cell_angle_alpha 90.000000
_cell_angle_beta 90.000000
_cell_angle_gamma 90.000000
_cell_volume 2613.760639
_symmetry_space_group_name_H-M "C M M 2"
_symmetry_group_IT_number 35
_symmetry_cell_setting 'orthorhombic'
loop_
_space_group_symop_operation_xyz
x,y,z
-x,-y,z
-x,y,z
x,-y,z
1/2+x,1/2+y,z
1/2-x,1/2-y,z
1/2-x,1/2+y,z
1/2+x,1/2-y,z
loop_
_atom_site_type_symbol
_atom_site_label
_atom_site_fract_x
_atom_site_fract_y
_atom_site_fract_z
Si Si1 0.180998 0.671099 0.486310
Si Si2 0.182302 0.170963 0.163200
Si Si3 0.182799 0.328871 0.986154
Si Si4 0.818865 0.916048 0.640647
Si Si5 0.680848 0.916028 0.819771
Si Si6 0.816988 0.916913 0.331022
O O1 0.250000 0.750000 0.482564
O O2 0.237396 0.630880 0.570318
O O3 0.238658 0.625662 0.406493
O O4 0.000000 0.675650 0.485621
O O5 0.250000 0.250000 0.177316
O O6 0.219619 0.120510 0.241946
O O7 0.000000 0.176509 0.155990
O O8 0.250445 0.143399 0.074779
O O9 0.250000 0.250000 0.976134
O O10 0.225545 0.374512 0.904212
O O11 0.000000 0.326085 0.991941
O O12 0.768124 0.894337 0.734879
O O13 0.000000 0.909412 0.631517
O O14 0.779062 0.000000 0.630145
O O15 0.500000 0.905433 0.806254
O O16 0.706996 0.000000 0.832422
O O17 0.000000 0.912609 0.342378
O O18 0.774526 0.000000 0.331500
#
# Coordination Sequence:
#
# PCOD9349008 Si02
#       6
#     8   8   8   8   8   8
#     4  12  25  40  60  85 113 147 186 229 277 330
#     4  10  20  35  56  80 109 146 185 227 275 327
#     4  10  20  34  54  79 109 145 183 228 278 327
#     4  10  21  38  60  85 114 148 185 228 278 331
#     4   9  19  36  56  79 109 146 187 229 274 325
#     4  10  22  40  60  84 115 148 183 227 278 331
#
# _framework density 18.364345
#
# number of rings (size 3 to 8) (size 9 to 14) (size 15 to 20)
#    0.000    1.833    0.000    5.000    0.000    8.667 
#    0.000    1.667    0.000    0.000    0.000    0.000 
#    0.000    0.000    0.000    0.000    0.000    0.000 
#
# Total GULP energy -134096.797203 kJ/mol
# GULP energy per Si atom -5587.366550 kJ/mol
# Density = 1.832255 g / cm^3
# Si number density = 18.364345 Si / 1000 Ang^3
#
#
#
# Elastic Constant Matrix: (Units=GPa)
#
#
# Indices 1 2 3 4 5 6 
#
# 1 76.0073 63.1931 85.9701 0.0000 0.0000 0.0000
# 2 63.1931 111.3989 108.1048 0.0000 0.0000 0.0000
# 3 85.9701 108.1048 194.9640 0.0000 0.0000 0.0000
# 4 0.0000 0.0000 0.0000 41.5549 0.0000 0.0000
# 5 0.0000 0.0000 0.0000 0.0000 24.2743 0.0000
# 6 0.0000 0.0000 0.0000 0.0000 0.0000 23.6705
#
#
#
# Elastic Compliance Matrix: (Units=1/GPa)
#
#
# Indices 1 2 3 4 5 6 
#
# 1 0.029927 -0.009029 -0.008190 0.000000 0.000000 0.000000
# 2 -0.009029 0.022158 -0.008305 0.000000 0.000000 0.000000
# 3 -0.008190 -0.008305 0.013346 0.000000 0.000000 0.000000
# 4 0.000000 0.000000 0.000000 0.024065 0.000000 0.000000
# 5 0.000000 0.000000 0.000000 0.000000 0.041196 0.000000
# 6 0.000000 0.000000 0.000000 0.000000 0.000000 0.042247
#
#
# Mechanical properties :
#
#
# Convention : Reuss Voigt Hill
#
# Bulk Modulus (GPa) = 69.52764 99.65626 84.59195
# Shear Modulus (GPa) = 21.85520 26.24010 24.04765
#
# Velocity S-wave (km/s) = 3.45351 3.78413 3.62259
# Velocity P-wave (km/s) = 7.33789 8.57186 7.97877
#
# Compressibility (1/GPa) = 0.01438277
#
# Stress axis : x y z
#
# Youngs Moduli (GPa) = 33.41502 45.13075 74.93110
#
# Poissons Ratio (x) = 0.40747 0.61369
# Poissons Ratio (y) = 0.30169 0.62230
# Poissons Ratio (z) = 0.27367 0.37481
#
# Static dielectric constant tensor:
#      x y z
#    x 1.618040 0.000000 0.000000 
#    y 0.000000 1.606580 0.000000 
#    z 0.000000 0.000000 1.616350 
# 
# From -- ./inp_files/15126.got.cif
#   From: 2010.05.17/outbox.cif.g08.bks.cpg/sg35_8_cif.got.tgz:15126.got - 2010.06.03 17:29:28.
