data_PCOD9349420
_publ_section_title
;
Structure prediction by ZEFSAII (Michael W. Deem and Ramdas Pophale) SiO2 
 PCOD9349420
Probable space group: C M M 2
;
_chemical_formula_sum "Si O2"
_cell_formula_units_Z 48
_cell_length_a 31.668292
_cell_length_b 8.427101
_cell_length_c 9.646067
_cell_angle_alpha 90.000000
_cell_angle_beta 90.000000
_cell_angle_gamma 90.000000
_cell_volume 2574.264181
_symmetry_space_group_name_H-M "C M M 2"
_symmetry_group_IT_number 35
_symmetry_cell_setting 'orthorhombic'
loop_
_space_group_symop_operation_xyz
x,y,z
-x,-y,z
-x,y,z
x,-y,z
1/2+x,1/2+y,z
1/2-x,1/2-y,z
1/2-x,1/2+y,z
1/2+x,1/2-y,z
loop_
_atom_site_type_symbol
_atom_site_label
_atom_site_fract_x
_atom_site_fract_y
_atom_site_fract_z
Si Si1 0.629736 0.310491 0.047640
Si Si2 0.095658 0.688055 0.329172
Si Si3 0.000000 0.182942 0.365725
Si Si4 0.000000 0.814097 0.699098
Si Si5 0.585060 0.181561 0.808074
Si Si6 0.702920 0.308580 0.831717
Si Si7 0.145200 0.181818 0.595152
O O1 0.626051 0.500000 0.036554
O O2 0.623843 0.262323 0.206209
O O3 0.592132 0.221423 0.967468
O O4 0.671576 0.261349 0.959007
O O5 0.094742 0.500000 0.315545
O O6 0.046359 0.746097 0.325790
O O7 0.120567 0.732143 0.471166
O O8 0.000000 0.188630 0.533013
O O9 0.000000 0.000000 0.319316
O O10 0.960884 0.718470 0.757045
O O11 0.000000 0.000000 0.741545
O O12 0.612886 0.307192 0.723299
O O13 0.597616 0.000000 0.778082
O O14 0.702105 0.500000 0.826623
O O15 0.750000 0.250000 0.856463
O O16 0.686093 0.252914 0.678982
O O17 0.152590 0.000000 0.552687
#
# Coordination Sequence:
#
# PCOD9349420 Si02
#       7
#     8   8   4   4   8   8   8
#     4  10  22  41  60  82 117 159 194 232 293 362
#     4  12  24  38  59  89 120 154 200 251 293 337
#     4  11  23  38  59  82 116 163 201 239 290 352
#     4  11  21  34  55  80 110 153 199 239 288 346
#     4  11  21  34  55  83 111 143 191 246 288 329
#     4   9  20  38  64  91 116 148 191 240 291 353
#     4  10  20  37  58  83 115 154 191 229 287 354
#
# _framework density 18.646106
#
# number of rings (size 3 to 8) (size 9 to 14) (size 15 to 20)
#    0.000    1.500    1.667    5.500    0.000    5.333 
#    0.000    4.167    0.000    0.000    0.000    0.000 
#    0.000    0.000    0.000    0.000    0.000    0.000 
#
# Total GULP energy -133677.623237 kJ/mol
# GULP energy per Si atom -5569.900968 kJ/mol
# Density = 1.860367 g / cm^3
# Si number density = 18.646106 Si / 1000 Ang^3
#
#
#
# Elastic Constant Matrix: (Units=GPa)
#
#
# Indices 1 2 3 4 5 6 
#
# 1 102.8964 27.6331 34.4652 0.0000 0.0000 0.0000
# 2 27.6331 87.0102 20.1013 0.0000 0.0000 0.0000
# 3 34.4652 20.1013 89.0319 0.0000 0.0000 0.0000
# 4 0.0000 0.0000 0.0000 15.8824 0.0000 0.0000
# 5 0.0000 0.0000 0.0000 0.0000 14.5672 0.0000
# 6 0.0000 0.0000 0.0000 0.0000 0.0000 17.3520
#
#
#
# Elastic Compliance Matrix: (Units=1/GPa)
#
#
# Indices 1 2 3 4 5 6 
#
# 1 0.011796 -0.002839 -0.003925 0.000000 0.000000 0.000000
# 2 -0.002839 0.012809 -0.001793 0.000000 0.000000 0.000000
# 3 -0.003925 -0.001793 0.013156 0.000000 0.000000 0.000000
# 4 0.000000 0.000000 0.000000 0.062963 0.000000 0.000000
# 5 0.000000 0.000000 0.000000 0.000000 0.068647 0.000000
# 6 0.000000 0.000000 0.000000 0.000000 0.000000 0.057630
#
#
# Mechanical properties :
#
#
# Convention : Reuss Voigt Hill
#
# Bulk Modulus (GPa) = 48.43532 49.25974 48.84753
# Shear Modulus (GPa) = 19.92047 22.67623 21.29835
#
# Velocity S-wave (km/s) = 3.27210 3.49110 3.38337
# Velocity P-wave (km/s) = 6.34886 6.53651 6.44337
#
# Compressibility (1/GPa) = 0.02064609
#
# Stress axis : x y z
#
# Youngs Moduli (GPa) = 84.77606 78.07120 76.00982
#
# Poissons Ratio (x) = 0.22167 0.29836
# Poissons Ratio (y) = 0.24071 0.13627
# Poissons Ratio (z) = 0.33276 0.13996
#
# Static dielectric constant tensor:
#      x y z
#    x 1.720610 0.000000 0.000000 
#    y 0.000000 1.649400 0.000000 
#    z 0.000000 0.000000 1.641740 
# 
# From -- ./inp_files/5367.got.cif
#   From: 2010.05.17/outbox.cif.g08.bks.cpg/sg35_3_cif.got.tgz:5367.got - 2010.06.03 17:29:28.
