data_PCOD9349548
_publ_section_title
;
Structure prediction by ZEFSAII (Michael W. Deem and Ramdas Pophale) SiO2 
 PCOD9349548
Probable space group: C M M 2
;
_chemical_formula_sum "Si O2"
_cell_formula_units_Z 38
_cell_length_a 15.545535
_cell_length_b 10.762817
_cell_length_c 11.126375
_cell_angle_alpha 90.000000
_cell_angle_beta 90.000000
_cell_angle_gamma 90.000000
_cell_volume 1861.595507
_symmetry_space_group_name_H-M "C M M 2"
_symmetry_group_IT_number 35
_symmetry_cell_setting 'orthorhombic'
loop_
_space_group_symop_operation_xyz
x,y,z
-x,-y,z
-x,y,z
x,-y,z
1/2+x,1/2+y,z
1/2-x,1/2-y,z
1/2-x,1/2+y,z
1/2+x,1/2-y,z
loop_
_atom_site_type_symbol
_atom_site_label
_atom_site_fract_x
_atom_site_fract_y
_atom_site_fract_z
Si Si1 0.351689 0.243293 0.522360
Si Si2 0.403764 0.000000 0.658068
Si Si3 0.818347 0.143394 0.023594
Si Si4 0.900135 0.857037 0.280345
Si Si5 0.000000 0.138015 0.668718
Si Si6 0.000000 0.770265 0.923614
Si Si7 0.500000 0.000000 0.893781
O O1 0.250000 0.250000 0.517491
O O2 0.363652 0.120397 0.600767
O O3 0.382565 0.258186 0.384826
O O4 0.414407 0.340427 0.590525
O O5 0.500000 0.000000 0.607907
O O6 0.418004 0.000000 0.801789
O O7 0.750000 0.250000 0.987144
O O8 0.839281 0.157565 0.165452
O O9 0.790473 0.000000 0.001078
O O10 0.911503 0.165030 0.962253
O O11 0.000000 0.847376 0.241751
O O12 0.888157 0.000000 0.325897
O O13 0.000000 0.233573 0.778652
O O14 0.000000 0.000000 0.720003
O O15 0.000000 0.627286 0.966640
#
# Coordination Sequence:
#
# PCOD9349548 Si02
#       7
#     8   4   8   8   4   4   2
#     4  12  24  39  65 100 129 173 215 267 331 389
#     4  10  20  46  61  85 138 175 201 273 334 387
#     4  11  25  46  71 102 134 174 225 279 338 400
#     4  10  20  41  68  95 132 172 214 269 326 390
#     4  12  24  43  64  94 129 169 229 266 320 404
#     4  12  24  47  70  94 132 182 224 280 336 395
#     4  10  22  46  68  88 138 180 220 282 344 382
#
# _framework density 20.412597999999999
#
# number of rings (size 3 to 8) (size 9 to 14) (size 15 to 20)
#    0.316    0.632    5.263    2.211    4.421    0.842 
#    1.895    0.000    0.000    0.000    0.000    0.000 
#    0.000    0.000    0.000    0.000    0.000    0.000 
#
# Total GULP energy -105934.828820 kJ/mol
# GULP energy per Si atom -5575.517306 kJ/mol
# Density = 2.036614 g / cm^3
# Si number density = 20.412598 Si / 1000 Ang^3
#
#
#
# Elastic Constant Matrix: (Units=GPa)
#
#
# Indices 1 2 3 4 5 6 
#
# 1 115.0046 27.2851 7.5437 0.0000 0.0000 0.0000
# 2 27.2851 92.7977 -3.8332 0.0000 0.0000 0.0000
# 3 7.5437 -3.8332 48.6720 0.0000 0.0000 0.0000
# 4 0.0000 0.0000 0.0000 28.0736 0.0000 0.0000
# 5 0.0000 0.0000 0.0000 0.0000 8.4064 0.0000
# 6 0.0000 0.0000 0.0000 0.0000 0.0000 5.9706
#
#
#
# Elastic Compliance Matrix: (Units=1/GPa)
#
#
# Indices 1 2 3 4 5 6 
#
# 1 0.009485 -0.002859 -0.001695 0.000000 0.000000 0.000000
# 2 -0.002859 0.011673 0.001362 0.000000 0.000000 0.000000
# 3 -0.001695 0.001362 0.020916 0.000000 0.000000 0.000000
# 4 0.000000 0.000000 0.000000 0.035621 0.000000 0.000000
# 5 0.000000 0.000000 0.000000 0.000000 0.118957 0.000000
# 6 0.000000 0.000000 0.000000 0.000000 0.000000 0.167487
#
#
# Mechanical properties :
#
#
# Convention : Reuss Voigt Hill
#
# Bulk Modulus (GPa) = 28.01886 35.38507 31.70196
# Shear Modulus (GPa) = 13.07470 23.52205 18.29837
#
# Velocity S-wave (km/s) = 2.53360 3.39828 2.99728
# Velocity P-wave (km/s) = 4.72386 5.72454 5.24810
#
# Compressibility (1/GPa) = 0.03569025
#
# Stress axis : x y z
#
# Youngs Moduli (GPa) = 105.43226 85.66800 47.81093
#
# Poissons Ratio (x) = 0.24491 0.08105
# Poissons Ratio (y) = 0.30141 -0.06514
# Poissons Ratio (z) = 0.17873 -0.11671
#
# Static dielectric constant tensor:
#      x y z
#    x 1.650810 0.000000 0.000000 
#    y 0.000000 1.798630 0.000000 
#    z 0.000000 0.000000 1.717120 
# 
# From -- ./inp_files/12781.got.cif
#   From: 2010.05.17/outbox.cif.g08.bks.cpg/sg35_7_cif.got.tgz:12781.got - 2010.06.03 17:29:28.
