data_PCOD9349012
_publ_section_title
;
Structure prediction by ZEFSAII (Michael W. Deem and Ramdas Pophale) SiO2 
 PCOD9349012
Probable space group: C M M 2
;
_chemical_formula_sum "Si O2"
_cell_formula_units_Z 40
_cell_length_a 9.360247
_cell_length_b 15.370162
_cell_length_c 13.264433
_cell_angle_alpha 90.000000
_cell_angle_beta 90.000000
_cell_angle_gamma 90.000000
_cell_volume 1908.334248
_symmetry_space_group_name_H-M "C M M 2"
_symmetry_group_IT_number 35
_symmetry_cell_setting 'orthorhombic'
loop_
_space_group_symop_operation_xyz
x,y,z
-x,-y,z
-x,y,z
x,-y,z
1/2+x,1/2+y,z
1/2-x,1/2-y,z
1/2-x,1/2+y,z
1/2+x,1/2-y,z
loop_
_atom_site_type_symbol
_atom_site_label
_atom_site_fract_x
_atom_site_fract_y
_atom_site_fract_z
Si Si1 0.663943 0.893269 0.645040
Si Si2 0.671424 0.158262 0.031813
Si Si3 0.337527 0.606608 0.447215
Si Si4 0.839956 0.603634 0.258078
Si Si5 0.339291 0.602540 0.837666
O O1 0.500000 0.864530 0.650396
O O2 0.739506 0.867280 0.541118
O O3 0.755097 0.861979 0.740884
O O4 0.662342 0.000000 0.646649
O O5 0.500000 0.162889 0.018868
O O6 0.750000 0.250000 0.033312
O O7 0.699639 0.117838 0.141813
O O8 0.744445 0.111302 0.937586
O O9 0.500000 0.636092 0.459583
O O10 0.340076 0.500000 0.446912
O O11 0.269971 0.636577 0.341506
O O12 0.848086 0.500000 0.273241
O O13 0.000000 0.639831 0.273906
O O14 0.500000 0.639386 0.849927
O O15 0.354734 0.500000 0.818747
#
# Coordination Sequence:
#
# PCOD9349012 Si02
#       5
#     8   8   8   8   8
#     4   9  16  27  46  73 105 138 170 206 252 306
#     4  11  23  38  55  75 103 139 178 219 264 314
#     4   9  16  26  44  73 106 135 165 206 255 304
#     4   9  18  33  53  76 102 134 172 212 255 307
#     4  10  20  34  54  80 108 137 173 217 262 310
#
# _framework density 20.960691000000001
#
# number of rings (size 3 to 8) (size 9 to 14) (size 15 to 20)
#    0.000    2.400    0.000    3.000    0.000    8.400 
#    0.000    2.000    0.000    1.200    0.000    5.600 
#    0.000    0.000    0.000    0.000    0.000    0.000 
#
# Total GULP energy -111647.589339 kJ/mol
# GULP energy per Si atom -5582.379467 kJ/mol
# Density = 2.091298 g / cm^3
# Si number density = 20.960691 Si / 1000 Ang^3
#
#
#
# Elastic Constant Matrix: (Units=GPa)
#
#
# Indices 1 2 3 4 5 6 
#
# 1 190.2590 11.0472 125.9795 0.0000 0.0000 0.0000
# 2 11.0472 14.6457 -2.3745 0.0000 0.0000 0.0000
# 3 125.9795 -2.3745 179.3195 0.0000 0.0000 0.0000
# 4 0.0000 0.0000 0.0000 -40.1635 0.0000 0.0000
# 5 0.0000 0.0000 0.0000 0.0000 12.9704 0.0000
# 6 0.0000 0.0000 0.0000 0.0000 0.0000 16.1599
#
#
#
# Elastic Compliance Matrix: (Units=1/GPa)
#
#
# Indices 1 2 3 4 5 6 
#
# 1 0.011027 -0.009594 -0.007874 0.000000 0.000000 0.000000
# 2 -0.009594 0.076773 0.007757 0.000000 0.000000 0.000000
# 3 -0.007874 0.007757 0.011211 0.000000 0.000000 0.000000
# 4 0.000000 0.000000 0.000000 -0.024898 0.000000 0.000000
# 5 0.000000 0.000000 0.000000 0.000000 0.077099 0.000000
# 6 0.000000 0.000000 0.000000 0.000000 0.000000 0.061882
#
#
# Mechanical properties :
#
#
# Convention : Reuss Voigt Hill
#
# Bulk Modulus (GPa) = 12.56450 72.61428 42.58939
# Shear Modulus (GPa) = 19.30170 14.43151 16.86660
#
# Velocity S-wave (km/s) = 3.03785 2.62678 2.83976
# Velocity P-wave (km/s) = 4.27925 6.62708 5.57809
#
# Compressibility (1/GPa) = 0.07958934
#
# Stress axis : x y z
#
# Youngs Moduli (GPa) = 90.69000 13.02533 89.19868
#
# Poissons Ratio (x) = 0.12496 0.70232
# Poissons Ratio (y) = 0.87006 -0.69189
# Poissons Ratio (z) = 0.71406 -0.10103
#
# Static dielectric constant tensor:
#      x y z
#    x 1.731520 0.000000 0.000000 
#    y 0.000000 1.828460 0.000000 
#    z 0.000000 0.000000 1.786670 
# 
# From -- ./inp_files/10995.got.cif
#   From: 2010.05.17/outbox.cif.g08.bks.cpg/sg35_6_cif.got.tgz:10995.got - 2010.06.03 17:29:28.
