data_PCOD9349951
_publ_section_title
;
Structure prediction by ZEFSAII (Michael W. Deem and Ramdas Pophale) SiO2 
 PCOD9349951
Probable space group: C M M 2
;
_chemical_formula_sum "Si O2"
_cell_formula_units_Z 48
_cell_length_a 16.952855
_cell_length_b 10.405387
_cell_length_c 14.613969
_cell_angle_alpha 90.000000
_cell_angle_beta 90.000000
_cell_angle_gamma 90.000000
_cell_volume 2577.918994
_symmetry_space_group_name_H-M "C M M 2"
_symmetry_group_IT_number 35
_symmetry_cell_setting 'orthorhombic'
loop_
_space_group_symop_operation_xyz
x,y,z
-x,-y,z
-x,y,z
x,-y,z
1/2+x,1/2+y,z
1/2-x,1/2-y,z
1/2-x,1/2+y,z
1/2+x,1/2-y,z
loop_
_atom_site_type_symbol
_atom_site_label
_atom_site_fract_x
_atom_site_fract_y
_atom_site_fract_z
Si Si1 0.403595 0.741601 0.459570
Si Si2 0.676433 0.153167 0.839294
Si Si3 0.903930 0.500000 0.359154
Si Si4 0.096543 0.000000 0.338388
Si Si5 0.405097 0.000000 0.148863
Si Si6 0.344694 0.759894 0.034518
Si Si7 0.905509 0.647750 0.644789
Si Si8 0.405606 0.500000 0.125763
O O1 0.500000 0.738287 0.460758
O O2 0.378281 0.871848 0.409874
O O3 0.377913 0.623037 0.397441
O O4 0.378118 0.754827 0.565332
O O5 0.750000 0.250000 0.831733
O O6 0.629026 0.167207 0.745191
O O7 0.696392 0.000000 0.850501
O O8 0.632006 0.200371 0.930991
O O9 0.879832 0.500000 0.254143
O O10 0.000000 0.500000 0.361360
O O11 0.122510 0.000000 0.232266
O O12 0.000000 0.000000 0.335982
O O13 0.373117 0.126106 0.099502
O O14 0.500000 0.000000 0.145188
O O15 0.250000 0.750000 0.035290
O O16 0.377653 0.626157 0.071972
O O17 0.887213 0.500000 0.616605
O O18 0.000000 0.656793 0.650096
O O19 0.500000 0.500000 0.128742
#
# Coordination Sequence:
#
# PCOD9349951 Si02
#       8
#     8   8   4   4   4   8   8   4
#     4   9  15  28  49  78 112 146 178 221 283 344
#     4  10  22  40  62  82 110 153 195 231 283 354
#     4   9  16  27  50  79 108 140 183 231 276 331
#     4   9  18  31  50  79 116 150 181 225 288 345
#     4  11  21  35  58  91 114 142 199 255 282 325
#     4  11  23  40  60  82 115 160 197 232 294 361
#     4   9  17  32  57  88 113 140 185 240 286 325
#     4  11  23  39  60  89 122 154 193 249 300 335
#
# _framework density 18.619669999999999
#
# number of rings (size 3 to 8) (size 9 to 14) (size 15 to 20)
#    0.000    2.167    1.667    2.000    3.500    4.000 
#    1.500    0.000    0.000    6.000    0.000    0.000 
#    0.000    0.000    0.000    0.000    0.000    0.000 
#
# Total GULP energy -133842.925924 kJ/mol
# GULP energy per Si atom -5576.788580 kJ/mol
# Density = 1.857729 g / cm^3
# Si number density = 18.619670 Si / 1000 Ang^3
#
#
#
# Elastic Constant Matrix: (Units=GPa)
#
#
# Indices 1 2 3 4 5 6 
#
# 1 18.3921 19.8866 28.1206 0.0000 0.0000 0.0000
# 2 19.8866 168.5884 96.5628 0.0000 0.0000 0.0000
# 3 28.1206 96.5628 186.6928 0.0000 0.0000 0.0000
# 4 0.0000 0.0000 0.0000 30.1720 0.0000 0.0000
# 5 0.0000 0.0000 0.0000 0.0000 -410.4976 0.0000
# 6 0.0000 0.0000 0.0000 0.0000 0.0000 24.9642
#
#
#
# Elastic Compliance Matrix: (Units=1/GPa)
#
#
# Indices 1 2 3 4 5 6 
#
# 1 0.071860 -0.003235 -0.009150 0.000000 0.000000 0.000000
# 2 -0.003235 0.008574 -0.003948 0.000000 0.000000 0.000000
# 3 -0.009150 -0.003948 0.008776 0.000000 0.000000 0.000000
# 4 0.000000 0.000000 0.000000 0.033143 0.000000 0.000000
# 5 0.000000 0.000000 0.000000 0.000000 -0.002436 0.000000
# 6 0.000000 0.000000 0.000000 0.000000 0.000000 0.040057
#
#
# Mechanical properties :
#
#
# Convention : Reuss Voigt Hill
#
# Bulk Modulus (GPa) = 17.68533 73.64592 45.66563
# Shear Modulus (GPa) = 23.64172 -55.79872 -16.07850
#
# Velocity S-wave (km/s) = 3.56718 -5.48021 -2.94176
# Velocity P-wave (km/s) = 5.14637 0.63636 3.61111
#
# Compressibility (1/GPa) = 0.05654405
#
# Stress axis : x y z
#
# Youngs Moduli (GPa) = 13.91591 116.62772 113.94124
#
# Poissons Ratio (x) = 0.37734 1.04262
# Poissons Ratio (y) = 0.04502 0.44979
# Poissons Ratio (z) = 0.12734 0.46039
#
# Static dielectric constant tensor:
#      x y z
#    x 1.640140 0.000000 0.000000 
#    y 0.000000 1.630520 0.000000 
#    z 0.000000 0.000000 1.655670 
# 
# From -- ./inp_files/15321.got.cif
#   From: 2010.05.17/outbox.cif.g08.bks.cpg/sg35_8_cif.got.tgz:15321.got - 2010.06.03 17:29:28.
