data_PCOD9349454
_publ_section_title
;
Structure prediction by ZEFSAII (Michael W. Deem and Ramdas Pophale) SiO2 
 PCOD9349454
Probable space group: C M M 2
;
_chemical_formula_sum "Si O2"
_cell_formula_units_Z 64
_cell_length_a 7.984734
_cell_length_b 32.021090
_cell_length_c 12.262496
_cell_angle_alpha 90.000000
_cell_angle_beta 90.000000
_cell_angle_gamma 90.000000
_cell_volume 3135.273580
_symmetry_space_group_name_H-M "C M M 2"
_symmetry_group_IT_number 35
_symmetry_cell_setting 'orthorhombic'
loop_
_space_group_symop_operation_xyz
x,y,z
-x,-y,z
-x,y,z
x,-y,z
1/2+x,1/2+y,z
1/2-x,1/2-y,z
1/2-x,1/2+y,z
1/2+x,1/2-y,z
loop_
_atom_site_type_symbol
_atom_site_label
_atom_site_fract_x
_atom_site_fract_y
_atom_site_fract_z
Si Si1 0.298122 0.704289 0.558120
Si Si2 0.300856 0.124091 0.945184
Si Si3 0.298281 0.676516 0.322541
Si Si4 0.299783 0.546110 0.561823
Si Si5 0.799968 0.796103 0.086561
Si Si6 0.795237 0.453157 0.091680
Si Si7 0.700450 0.625201 0.695141
Si Si8 0.299198 0.920683 0.327591
O O1 0.500000 0.702108 0.555371
O O2 0.250000 0.750000 0.598082
O O3 0.235557 0.697379 0.434131
O O4 0.235395 0.666554 0.633667
O O5 0.500000 0.120049 0.938829
O O6 0.261032 0.166233 0.011049
O O7 0.236321 0.083744 0.012092
O O8 0.233747 0.125818 0.822984
O O9 0.500000 0.680037 0.322291
O O10 0.234241 0.696445 0.210083
O O11 0.253892 0.627660 0.324944
O O12 0.500000 0.544548 0.578529
O O13 0.230808 0.500000 0.585409
O O14 0.231966 0.583445 0.636995
O O15 0.269459 0.557884 0.436087
O O16 0.750000 0.750000 0.048584
O O17 0.000000 0.798376 0.089415
O O18 0.742278 0.500000 0.061256
O O19 0.743245 0.442377 0.215333
O O20 0.000000 0.452515 0.090836
O O21 0.500000 0.625079 0.679015
O O22 0.500000 0.922847 0.331598
#
# Coordination Sequence:
#
# PCOD9349454 Si02
#       8
#     8   8   8   8   8   8   8   8
#     4  10  21  38  60  85 116 150 185 234 287 344
#     4  11  23  40  61  85 116 155 202 248 295 348
#     4  10  20  37  60  87 120 155 189 233 292 353
#     4  10  21  39  62  86 118 158 196 239 294 353
#     4  11  23  39  63  90 121 155 194 242 293 353
#     4   9  19  36  57  84 119 155 189 235 295 349
#     4  10  22  41  60  81 115 155 197 245 295 342
#     4  11  20  33  59  90 122 154 190 239 292 352
#
# _framework density 20.412893
#
# number of rings (size 3 to 8) (size 9 to 14) (size 15 to 20)
#    0.000    1.750    2.500    1.875    0.000    3.750 
#    0.000    1.250    0.000    3.375    0.000    0.000 
#    0.000    0.000    0.000    0.000    0.000    0.000 
#
# Total GULP energy -178807.383009 kJ/mol
# GULP energy per Si atom -5587.730719 kJ/mol
# Density = 2.036643 g / cm^3
# Si number density = 20.412893 Si / 1000 Ang^3
#
#
#
# Elastic Constant Matrix: (Units=GPa)
#
#
# Indices 1 2 3 4 5 6 
#
# 1 8.3702 -6.6687 -1.6608 0.0000 0.0000 0.0000
# 2 -6.6687 193.8092 94.8710 0.0000 0.0000 0.0000
# 3 -1.6608 94.8710 131.7405 0.0000 0.0000 0.0000
# 4 0.0000 0.0000 0.0000 16.4205 0.0000 0.0000
# 5 0.0000 0.0000 0.0000 0.0000 16.2254 0.0000
# 6 0.0000 0.0000 0.0000 0.0000 0.0000 16.0123
#
#
#
# Elastic Compliance Matrix: (Units=1/GPa)
#
#
# Indices 1 2 3 4 5 6 
#
# 1 0.123296 0.005377 -0.002318 0.000000 0.000000 0.000000
# 2 0.005377 0.008203 -0.005840 0.000000 0.000000 0.000000
# 3 -0.002318 -0.005840 0.011767 0.000000 0.000000 0.000000
# 4 0.000000 0.000000 0.000000 0.060899 0.000000 0.000000
# 5 0.000000 0.000000 0.000000 0.000000 0.061632 0.000000
# 6 0.000000 0.000000 0.000000 0.000000 0.000000 0.062452
#
#
# Mechanical properties :
#
#
# Convention : Reuss Voigt Hill
#
# Bulk Modulus (GPa) = 7.26190 56.33365 31.79778
# Shear Modulus (GPa) = 13.16788 26.22354 19.69571
#
# Velocity S-wave (km/s) = 2.54259 3.58810 3.10960
# Velocity P-wave (km/s) = 3.49069 6.69499 5.33891
#
# Compressibility (1/GPa) = 0.13770492
#
# Stress axis : x y z
#
# Youngs Moduli (GPa) = 8.11058 121.90201 84.98463
#
# Poissons Ratio (x) = -0.65548 0.19699
# Poissons Ratio (y) = -0.04361 0.49629
# Poissons Ratio (z) = 0.01880 0.71187
#
# Static dielectric constant tensor:
#      x y z
#    x 1.736620 0.000000 0.000000 
#    y 0.000000 1.718820 0.000000 
#    z 0.000000 0.000000 1.702910 
# 
# From -- ./inp_files/11910.got.cif
#   From: 2010.05.17/outbox.cif.g08.bks.cpg/sg35_6_cif.got.tgz:11910.got - 2010.06.03 17:29:28.
