data_PCOD9349094
_publ_section_title
;
Structure prediction by ZEFSAII (Michael W. Deem and Ramdas Pophale) SiO2 
 PCOD9349094
Probable space group: C M M 2
;
_chemical_formula_sum "Si O2"
_cell_formula_units_Z 64
_cell_length_a 17.727007
_cell_length_b 14.408417
_cell_length_c 12.627467
_cell_angle_alpha 90.000000
_cell_angle_beta 90.000000
_cell_angle_gamma 90.000000
_cell_volume 3225.283743
_symmetry_space_group_name_H-M "C M M 2"
_symmetry_group_IT_number 35
_symmetry_cell_setting 'orthorhombic'
loop_
_space_group_symop_operation_xyz
x,y,z
-x,-y,z
-x,y,z
x,-y,z
1/2+x,1/2+y,z
1/2-x,1/2-y,z
1/2-x,1/2+y,z
1/2+x,1/2-y,z
loop_
_atom_site_type_symbol
_atom_site_label
_atom_site_fract_x
_atom_site_fract_y
_atom_site_fract_z
Si Si1 0.184191 0.892202 0.361250
Si Si2 0.168432 0.395811 0.723093
Si Si3 0.585589 0.365619 0.564561
Si Si4 0.581955 0.853822 0.528480
Si Si5 0.837125 0.105155 0.786452
Si Si6 0.648546 0.816477 0.313183
Si Si7 0.909016 0.392285 0.092011
Si Si8 0.089330 0.270686 0.888753
O O1 0.147673 0.896501 0.478698
O O2 0.270686 0.858152 0.350865
O O3 0.145256 0.797191 0.313606
O O4 0.177043 0.000000 0.319640
O O5 0.158419 0.500000 0.763736
O O6 0.147978 0.395478 0.599479
O O7 0.253980 0.366999 0.746055
O O8 0.112063 0.329516 0.785441
O O9 0.500000 0.397061 0.540188
O O10 0.584331 0.254746 0.556659
O O11 0.609589 0.391439 0.682970
O O12 0.500000 0.891719 0.558574
O O13 0.593376 0.856500 0.403135
O O14 0.867316 0.174553 0.874532
O O15 0.833799 0.000000 0.825192
O O16 0.628674 0.853984 0.198113
O O17 0.888982 0.500000 0.074885
O O18 0.000000 0.387147 0.103111
O O19 0.887854 0.329713 0.991258
O O20 0.000000 0.255384 0.891139
#
# Coordination Sequence:
#
# PCOD9349094 Si02
#       8
#     8   8   8   8   8   8   8   8
#     4  10  21  37  58  89 123 164 210 251 305 368
#     4  11  23  38  58  89 126 164 201 251 317 379
#     4  10  20  35  57  87 125 169 209 248 299 368
#     4  10  20  34  57  90 127 164 200 251 312 369
#     4  11  23  38  59  90 125 168 213 253 306 374
#     4  10  21  39  62  89 125 163 205 260 310 369
#     4  10  22  42  68  93 119 158 207 256 312 378
#     4  11  23  41  64  89 119 158 207 264 315 367
#
# _framework density 19.843215000000001
#
# number of rings (size 3 to 8) (size 9 to 14) (size 15 to 20)
#    0.000    1.625    1.250    3.375    0.000    6.750 
#    4.500    0.625    0.000    0.750    0.000    0.000 
#    0.000    0.000    0.000    0.000    0.000    0.000 
#
# Total GULP energy -178530.390789 kJ/mol
# GULP energy per Si atom -5579.074712 kJ/mol
# Density = 1.979805 g / cm^3
# Si number density = 19.843215 Si / 1000 Ang^3
#
#
#
# Elastic Constant Matrix: (Units=GPa)
#
#
# Indices 1 2 3 4 5 6 
#
# 1 75.9759 41.2294 40.3333 0.0000 0.0000 0.0000
# 2 41.2294 142.7429 53.0454 0.0000 0.0000 0.0000
# 3 40.3333 53.0454 113.8775 0.0000 0.0000 0.0000
# 4 0.0000 0.0000 0.0000 5.1186 0.0000 0.0000
# 5 0.0000 0.0000 0.0000 0.0000 18.2263 0.0000
# 6 0.0000 0.0000 0.0000 0.0000 0.0000 -51.0359
#
#
#
# Elastic Compliance Matrix: (Units=1/GPa)
#
#
# Indices 1 2 3 4 5 6 
#
# 1 0.017414 -0.003311 -0.004626 0.000000 0.000000 0.000000
# 2 -0.003311 0.009102 -0.003067 0.000000 0.000000 0.000000
# 3 -0.004626 -0.003067 0.011848 0.000000 0.000000 0.000000
# 4 0.000000 0.000000 0.000000 0.195367 0.000000 0.000000
# 5 0.000000 0.000000 0.000000 0.000000 0.054866 0.000000
# 6 0.000000 0.000000 0.000000 0.000000 0.000000 -0.019594
#
#
# Mechanical properties :
#
#
# Convention : Reuss Voigt Hill
#
# Bulk Modulus (GPa) = 61.13476 66.86807 64.00142
# Shear Modulus (GPa) = 16.86552 7.66100 12.26326
#
# Velocity S-wave (km/s) = 2.91853 1.96701 2.48867
# Velocity P-wave (km/s) = 6.49868 6.23941 6.37037
#
# Compressibility (1/GPa) = 0.01635731
#
# Stress axis : x y z
#
# Youngs Moduli (GPa) = 57.42374 109.86998 84.40036
#
# Poissons Ratio (x) = 0.36378 0.39040
# Poissons Ratio (y) = 0.19013 0.25885
# Poissons Ratio (z) = 0.26562 0.33697
#
# Static dielectric constant tensor:
#      x y z
#    x 1.709090 0.000000 0.000000 
#    y 0.000000 1.764880 0.000000 
#    z 0.000000 0.000000 1.656390 
# 
# From -- ./inp_files/13603.got.cif
#   From: 2010.05.17/outbox.cif.g08.bks.cpg/sg35_7_cif.got.tgz:13603.got - 2010.06.03 17:29:28.
