data_PCOD9349795
_publ_section_title
;
Structure prediction by ZEFSAII (Michael W. Deem and Ramdas Pophale) SiO2 
 PCOD9349795
Probable space group: C M M 2
;
_chemical_formula_sum "Si O2"
_cell_formula_units_Z 48
_cell_length_a 8.127377
_cell_length_b 18.218112
_cell_length_c 17.291610
_cell_angle_alpha 90.000000
_cell_angle_beta 90.000000
_cell_angle_gamma 90.000000
_cell_volume 2560.290266
_symmetry_space_group_name_H-M "C M M 2"
_symmetry_group_IT_number 35
_symmetry_cell_setting 'orthorhombic'
loop_
_space_group_symop_operation_xyz
x,y,z
-x,-y,z
-x,y,z
x,-y,z
1/2+x,1/2+y,z
1/2-x,1/2-y,z
1/2-x,1/2+y,z
1/2+x,1/2-y,z
loop_
_atom_site_type_symbol
_atom_site_label
_atom_site_fract_x
_atom_site_fract_y
_atom_site_fract_z
Si Si1 0.000000 0.087540 0.809590
Si Si2 0.298761 0.164485 0.719647
Si Si3 0.309121 0.666463 0.411222
Si Si4 0.804749 0.417614 0.561779
Si Si5 0.000000 0.913255 0.992954
Si Si6 0.307397 0.916428 0.260802
Si Si7 0.315472 0.331169 0.116347
O O1 0.169102 0.122274 0.775386
O O2 0.000000 0.099520 0.902040
O O3 0.000000 0.000000 0.794495
O O4 0.500000 0.155870 0.733353
O O5 0.250000 0.250000 0.723132
O O6 0.256761 0.132383 0.634565
O O7 0.500000 0.667148 0.428566
O O8 0.250000 0.750000 0.408480
O O9 0.228293 0.620865 0.480404
O O10 0.277775 0.627877 0.329336
O O11 0.732138 0.500000 0.565135
O O12 0.000000 0.424728 0.568850
O O13 0.845685 0.875785 0.037161
O O14 0.000000 0.000000 0.008128
O O15 0.500000 0.918576 0.280033
O O16 0.285793 0.875873 0.179216
O O17 0.244783 0.000000 0.255638
O O18 0.500000 0.324213 0.150365
O O19 0.250000 0.250000 0.102260
#
# Coordination Sequence:
#
# PCOD9349795 Si02
#       7
#     4   8   8   8   4   8   8
#     4  11  24  44  70 101 134 174 219 271 334 402
#     4  11  23  42  67  99 134 176 220 274 331 392
#     4  12  25  39  58  85 119 164 211 264 315 369
#     4  10  22  40  62  89 125 165 210 262 320 379
#     4   9  22  42  66  93 128 168 205 257 324 386
#     4  11  23  39  61  87 122 163 208 258 315 376
#     4  10  21  38  63  90 124 159 205 254 309 372
#
# _framework density 18.747873999999999
#
# number of rings (size 3 to 8) (size 9 to 14) (size 15 to 20)
#    0.500    0.833    0.833    5.000    1.167    6.333 
#    0.000    0.833    0.000    2.000    0.000    0.000 
#    0.000    0.000    0.000    0.000    0.000    0.000 
#
# Total GULP energy -133886.959706 kJ/mol
# GULP energy per Si atom -5578.623321 kJ/mol
# Density = 1.870520 g / cm^3
# Si number density = 18.747874 Si / 1000 Ang^3
#
#
#
# Elastic Constant Matrix: (Units=GPa)
#
#
# Indices 1 2 3 4 5 6 
#
# 1 43.5976 21.5909 9.7230 0.0000 0.0000 0.0000
# 2 21.5909 164.1133 73.7086 0.0000 0.0000 0.0000
# 3 9.7230 73.7086 117.5873 0.0000 0.0000 0.0000
# 4 0.0000 0.0000 0.0000 39.3705 0.0000 0.0000
# 5 0.0000 0.0000 0.0000 0.0000 22.7147 0.0000
# 6 0.0000 0.0000 0.0000 0.0000 0.0000 21.2428
#
#
#
# Elastic Compliance Matrix: (Units=1/GPa)
#
#
# Indices 1 2 3 4 5 6 
#
# 1 0.024536 -0.003225 -0.000008 0.000000 0.000000 0.000000
# 2 -0.003225 0.008905 -0.005315 0.000000 0.000000 0.000000
# 3 -0.000008 -0.005315 0.011837 0.000000 0.000000 0.000000
# 4 0.000000 0.000000 0.000000 0.025400 0.000000 0.000000
# 5 0.000000 0.000000 0.000000 0.000000 0.044024 0.000000
# 6 0.000000 0.000000 0.000000 0.000000 0.000000 0.047075
#
#
# Mechanical properties :
#
#
# Convention : Reuss Voigt Hill
#
# Bulk Modulus (GPa) = 35.48295 59.48256 47.48276
# Shear Modulus (GPa) = 26.55830 31.35064 28.95447
#
# Velocity S-wave (km/s) = 3.76786 4.09372 3.93417
# Velocity P-wave (km/s) = 6.15601 7.35807 6.78372
#
# Compressibility (1/GPa) = 0.02818255
#
# Stress axis : x y z
#
# Youngs Moduli (GPa) = 40.75705 112.29840 84.48236
#
# Poissons Ratio (x) = 0.36211 0.00063
# Poissons Ratio (y) = 0.13142 0.44905
# Poissons Ratio (z) = 0.00031 0.59690
#
# Static dielectric constant tensor:
#      x y z
#    x 1.680240 0.000000 0.000000 
#    y 0.000000 1.649220 0.000000 
#    z 0.000000 0.000000 1.604260 
# 
# From -- ./inp_files/15250.got.cif
#   From: 2010.05.17/outbox.cif.g08.bks.cpg/sg35_8_cif.got.tgz:15250.got - 2010.06.03 17:29:28.
