data_PCOD9349435
_publ_section_title
;
Structure prediction by ZEFSAII (Michael W. Deem and Ramdas Pophale) SiO2 
 PCOD9349435
Probable space group: C M M 2
;
_chemical_formula_sum "Si O2"
_cell_formula_units_Z 64
_cell_length_a 8.578899
_cell_length_b 30.107094
_cell_length_c 12.574498
_cell_angle_alpha 90.000000
_cell_angle_beta 90.000000
_cell_angle_gamma 90.000000
_cell_volume 3247.813252
_symmetry_space_group_name_H-M "C M M 2"
_symmetry_group_IT_number 35
_symmetry_cell_setting 'orthorhombic'
loop_
_space_group_symop_operation_xyz
x,y,z
-x,-y,z
-x,y,z
x,-y,z
1/2+x,1/2+y,z
1/2-x,1/2-y,z
1/2-x,1/2+y,z
1/2+x,1/2-y,z
loop_
_atom_site_type_symbol
_atom_site_label
_atom_site_fract_x
_atom_site_fract_y
_atom_site_fract_z
Si Si1 0.817386 0.328534 0.805370
Si Si2 0.815475 0.076994 0.749676
Si Si3 0.812254 0.549238 0.523719
Si Si4 0.312640 0.853690 0.042166
Si Si5 0.184532 0.359173 0.433009
Si Si6 0.181918 0.796157 0.601742
Si Si7 0.184239 0.800058 0.242515
Si Si8 0.187745 0.548662 0.969916
O O1 0.784538 0.378371 0.764887
O O2 0.714508 0.299070 0.727325
O O3 0.000000 0.317473 0.793956
O O4 0.774904 0.330210 0.929480
O O5 0.766355 0.055004 0.638984
O O6 0.771676 0.050027 0.855561
O O7 0.000000 0.086934 0.748133
O O8 0.777549 0.500000 0.482132
O O9 0.764273 0.589748 0.447324
O O10 0.000000 0.552816 0.538329
O O11 0.500000 0.852991 0.053669
O O12 0.239654 0.826528 0.138021
O O13 0.266327 0.905974 0.031533
O O14 0.226148 0.335305 0.543675
O O15 0.263375 0.330039 0.342096
O O16 0.000000 0.358355 0.414686
O O17 0.250000 0.750000 0.560250
O O18 0.000000 0.799948 0.579353
O O19 0.250000 0.750000 0.247278
O O20 0.000000 0.796398 0.242372
O O21 0.218358 0.500000 0.019696
O O22 0.000000 0.551912 0.952951
#
# Coordination Sequence:
#
# PCOD9349435 Si02
#       8
#     8   8   8   8   8   8   8   8
#     4  10  20  37  59  85 121 163 202 248 301 359
#     4  11  20  30  50  83 123 165 205 250 298 353
#     4  10  21  37  59  86 119 162 206 246 295 358
#     4   9  20  39  63  90 121 156 202 252 301 356
#     4  11  23  42  66  89 121 158 202 254 303 356
#     4  12  24  38  59  89 124 160 200 244 303 370
#     4  12  26  45  69  92 117 151 200 254 311 369
#     4   9  18  34  57  85 121 166 210 249 293 354
#
# _framework density 19.705566999999999
#
# number of rings (size 3 to 8) (size 9 to 14) (size 15 to 20)
#    0.000    1.500    1.250    5.625    0.000    5.500 
#    0.000    0.625    0.000    3.750    0.000    0.000 
#    0.000    0.000    0.000    0.000    0.000    0.000 
#
# Total GULP energy -178701.214575 kJ/mol
# GULP energy per Si atom -5584.412955 kJ/mol
# Density = 1.966072 g / cm^3
# Si number density = 19.705567 Si / 1000 Ang^3
#
#
#
# Elastic Constant Matrix: (Units=GPa)
#
#
# Indices 1 2 3 4 5 6 
#
# 1 36.5924 25.2575 34.6345 0.0000 0.0000 0.0000
# 2 25.2575 141.5544 63.6411 0.0000 0.0000 0.0000
# 3 34.6345 63.6411 104.7881 0.0000 0.0000 0.0000
# 4 0.0000 0.0000 0.0000 17.2065 0.0000 0.0000
# 5 0.0000 0.0000 0.0000 0.0000 31.0457 0.0000
# 6 0.0000 0.0000 0.0000 0.0000 0.0000 12.9615
#
#
#
# Elastic Compliance Matrix: (Units=1/GPa)
#
#
# Indices 1 2 3 4 5 6 
#
# 1 0.040045 -0.001643 -0.012238 0.000000 0.000000 0.000000
# 2 -0.001643 0.009785 -0.005400 0.000000 0.000000 0.000000
# 3 -0.012238 -0.005400 0.016867 0.000000 0.000000 0.000000
# 4 0.000000 0.000000 0.000000 0.058118 0.000000 0.000000
# 5 0.000000 0.000000 0.000000 0.000000 0.032211 0.000000
# 6 0.000000 0.000000 0.000000 0.000000 0.000000 0.077152
#
#
# Mechanical properties :
#
#
# Convention : Reuss Voigt Hill
#
# Bulk Modulus (GPa) = 35.54132 58.88902 47.21517
# Shear Modulus (GPa) = 17.72308 22.86953 20.29631
#
# Velocity S-wave (km/s) = 3.00224 3.41040 3.21281
# Velocity P-wave (km/s) = 5.48574 6.74219 6.14615
#
# Compressibility (1/GPa) = 0.02813626
#
# Stress axis : x y z
#
# Youngs Moduli (GPa) = 24.97176 102.19395 59.28633
#
# Poissons Ratio (x) = 0.16794 0.72553
# Poissons Ratio (y) = 0.04104 0.32013
# Poissons Ratio (z) = 0.30560 0.55182
#
# Static dielectric constant tensor:
#      x y z
#    x 1.659340 0.000000 0.000000 
#    y 0.000000 1.729630 0.000000 
#    z 0.000000 0.000000 1.686200 
# 
# From -- ./inp_files/11896.got.cif
#   From: 2010.05.17/outbox.cif.g08.bks.cpg/sg35_6_cif.got.tgz:11896.got - 2010.06.03 17:29:28.
