data_PCOD9349871
_publ_section_title
;
Structure prediction by ZEFSAII (Michael W. Deem and Ramdas Pophale) SiO2 
 PCOD9349871
Probable space group: C M M 2
;
_chemical_formula_sum "Si O2"
_cell_formula_units_Z 48
_cell_length_a 10.298867
_cell_length_b 17.811081
_cell_length_c 14.127629
_cell_angle_alpha 90.000000
_cell_angle_beta 90.000000
_cell_angle_gamma 90.000000
_cell_volume 2591.486853
_symmetry_space_group_name_H-M "C M M 2"
_symmetry_group_IT_number 35
_symmetry_cell_setting 'orthorhombic'
loop_
_space_group_symop_operation_xyz
x,y,z
-x,-y,z
-x,y,z
x,-y,z
1/2+x,1/2+y,z
1/2-x,1/2-y,z
1/2-x,1/2+y,z
1/2+x,1/2-y,z
loop_
_atom_site_type_symbol
_atom_site_label
_atom_site_fract_x
_atom_site_fract_y
_atom_site_fract_z
Si Si1 0.500000 0.409237 0.897711
Si Si2 0.652320 0.088899 0.607002
Si Si3 0.000000 0.413732 0.877702
Si Si4 0.000000 0.586252 0.103465
Si Si5 0.760283 0.339829 0.206434
Si Si6 0.654277 0.820584 0.415136
Si Si7 0.000000 0.910053 0.122840
Si Si8 0.253589 0.339789 0.790619
O O1 0.500000 0.500000 0.888020
O O2 0.375863 0.373565 0.846028
O O3 0.500000 0.391793 0.010258
O O4 0.500000 0.101530 0.633090
O O5 0.668844 0.123057 0.502750
O O6 0.742426 0.130185 0.683214
O O7 0.675850 0.000000 0.608226
O O8 0.873226 0.372100 0.841661
O O9 0.000000 0.500000 0.843125
O O10 0.000000 0.414510 0.990662
O O11 0.126251 0.628125 0.141309
O O12 0.000000 0.500000 0.137269
O O13 0.750000 0.250000 0.197370
O O14 0.800515 0.355116 0.315134
O O15 0.626343 0.376530 0.173574
O O16 0.500000 0.799846 0.408008
O O17 0.750000 0.750000 0.431435
O O18 0.000000 0.000000 0.130550
O O19 0.250000 0.250000 0.791887
#
# Coordination Sequence:
#
# PCOD9349871 Si02
#       8
#     4   8   4   4   8   8   4   8
#     4  11  25  43  62  89 130 171 209 262 324 373
#     4  10  21  40  66  93 124 165 211 258 311 374
#     4  11  23  41  64  87 122 167 215 258 310 379
#     4  11  23  39  62  93 122 161 215 266 306 369
#     4  11  23  40  64  92 126 166 208 259 316 373
#     4  10  22  41  66  94 127 165 208 259 316 373
#     4  11  25  43  62  89 130 173 209 260 324 375
#     4  12  24  40  64  95 125 164 211 262 317 373
#
# _framework density 18.522186000000001
#
# number of rings (size 3 to 8) (size 9 to 14) (size 15 to 20)
#    0.000    1.167    1.667    4.500    3.500    8.000 
#    1.500    0.000    0.000    0.000    0.000    0.000 
#    0.000    0.000    0.000    0.000    0.000    0.000 
#
# Total GULP energy -134161.363501 kJ/mol
# GULP energy per Si atom -5590.056813 kJ/mol
# Density = 1.848003 g / cm^3
# Si number density = 18.522186 Si / 1000 Ang^3
#
#
#
# Elastic Constant Matrix: (Units=GPa)
#
#
# Indices 1 2 3 4 5 6 
#
# 1 173.4112 72.2231 77.2364 0.0000 0.0000 0.0000
# 2 72.2231 126.2362 76.8648 0.0000 0.0000 0.0000
# 3 77.2364 76.8648 135.2309 0.0000 0.0000 0.0000
# 4 0.0000 0.0000 0.0000 37.4629 0.0000 0.0000
# 5 0.0000 0.0000 0.0000 0.0000 49.8944 0.0000
# 6 0.0000 0.0000 0.0000 0.0000 0.0000 28.7013
#
#
#
# Elastic Compliance Matrix: (Units=1/GPa)
#
#
# Indices 1 2 3 4 5 6 
#
# 1 0.008363 -0.002869 -0.003145 0.000000 0.000000 0.000000
# 2 -0.002869 0.013099 -0.005807 0.000000 0.000000 0.000000
# 3 -0.003145 -0.005807 0.012492 0.000000 0.000000 0.000000
# 4 0.000000 0.000000 0.000000 0.026693 0.000000 0.000000
# 5 0.000000 0.000000 0.000000 0.000000 0.020042 0.000000
# 6 0.000000 0.000000 0.000000 0.000000 0.000000 0.034842
#
#
# Mechanical properties :
#
#
# Convention : Reuss Voigt Hill
#
# Bulk Modulus (GPa) = 96.98682 98.61409 97.80045
# Shear Modulus (GPa) = 35.06082 37.11533 36.08808
#
# Velocity S-wave (km/s) = 4.35548 4.48127 4.41882
# Velocity P-wave (km/s) = 8.81872 8.95167 8.88544
#
# Compressibility (1/GPa) = 0.01031068
#
# Stress axis : x y z
#
# Youngs Moduli (GPa) = 119.58055 76.34270 80.05343
#
# Poissons Ratio (x) = 0.21905 0.25180
# Poissons Ratio (y) = 0.34311 0.46484
# Poissons Ratio (z) = 0.37612 0.44329
#
# Static dielectric constant tensor:
#      x y z
#    x 1.589870 0.000000 0.000000 
#    y 0.000000 1.605880 0.000000 
#    z 0.000000 0.000000 1.639790 
# 
# From -- ./inp_files/15300.got.cif
#   From: 2010.05.17/outbox.cif.g08.bks.cpg/sg35_8_cif.got.tgz:15300.got - 2010.06.03 17:29:28.
