data_PCOD9349039
_publ_section_title
;
Structure prediction by ZEFSAII (Michael W. Deem and Ramdas Pophale) SiO2 
 PCOD9349039
Probable space group: C M M 2
;
_chemical_formula_sum "Si O2"
_cell_formula_units_Z 56
_cell_length_a 18.707427
_cell_length_b 8.788203
_cell_length_c 18.707623
_cell_angle_alpha 90.000000
_cell_angle_beta 90.000000
_cell_angle_gamma 90.000000
_cell_volume 3075.620513
_symmetry_space_group_name_H-M "C M M 2"
_symmetry_group_IT_number 35
_symmetry_cell_setting 'orthorhombic'
loop_
_space_group_symop_operation_xyz
x,y,z
-x,-y,z
-x,y,z
x,-y,z
1/2+x,1/2+y,z
1/2-x,1/2-y,z
1/2-x,1/2+y,z
1/2+x,1/2-y,z
loop_
_atom_site_type_symbol
_atom_site_label
_atom_site_fract_x
_atom_site_fract_y
_atom_site_fract_z
Si Si1 0.170026 0.682146 0.949980
Si Si2 0.170862 0.816137 0.222211
Si Si3 0.583826 0.317035 0.362809
Si Si4 0.169888 0.682129 0.791263
Si Si5 0.917068 0.816167 0.081374
Si Si6 0.414557 0.820753 0.515207
Si Si7 0.170227 0.819116 0.646094
O O1 0.175109 0.500000 0.955687
O O2 0.250000 0.750000 0.956254
O O3 0.140359 0.717970 0.870188
O O4 0.121076 0.747728 0.012188
O O5 0.250000 0.750000 0.218812
O O6 0.130656 0.769657 0.294955
O O7 0.125264 0.769468 0.152834
O O8 0.174289 0.000000 0.222110
O O9 0.500000 0.281506 0.349974
O O10 0.589215 0.500000 0.370703
O O11 0.606405 0.239382 0.436785
O O12 0.172711 0.500000 0.783315
O O13 0.250000 0.750000 0.793176
O O14 0.136960 0.754060 0.719989
O O15 0.000000 0.771345 0.085541
O O16 0.914030 0.000000 0.077226
O O17 0.500000 0.798308 0.521477
O O18 0.374761 0.732339 0.577882
O O19 0.399294 0.000000 0.521207
O O20 0.250000 0.750000 0.639461
O O21 0.175268 0.000000 0.650727
#
# Coordination Sequence:
#
# PCOD9349039 Si02
#       7
#     8   8   8   8   8   8   8
#     4  10  20  34  55  81 108 140 178 221 268 318
#     4  10  21  36  55  80 108 138 174 218 267 317
#     4   9  18  35  57  77 101 137 179 219 262 316
#     4   9  17  31  51  76 106 139 176 219 268 318
#     4  10  21  37  56  78 107 143 181 221 267 318
#     4  10  21  37  56  79 109 143 179 220 267 318
#     4  11  21  34  55  81 109 141 180 223 267 317
#
# _framework density 18.207709000000001
#
# number of rings (size 3 to 8) (size 9 to 14) (size 15 to 20)
#    0.000    2.143    0.000    4.286    0.000    7.429 
#    0.000    2.143    0.000    3.429    0.000    0.000 
#    0.000    0.000    0.000    0.000    0.000    0.000 
#
# Total GULP energy -156276.908287 kJ/mol
# GULP energy per Si atom -5581.318153 kJ/mol
# Density = 1.816627 g / cm^3
# Si number density = 18.207709 Si / 1000 Ang^3
#
#
#
# Elastic Constant Matrix: (Units=GPa)
#
#
# Indices 1 2 3 4 5 6 
#
# 1 81.6787 41.5632 85.4275 0.0000 0.0000 0.0000
# 2 41.5632 70.1783 73.1810 0.0000 0.0000 0.0000
# 3 85.4275 73.1810 207.2579 0.0000 0.0000 0.0000
# 4 0.0000 0.0000 0.0000 32.7033 0.0000 0.0000
# 5 0.0000 0.0000 0.0000 0.0000 88.6670 0.0000
# 6 0.0000 0.0000 0.0000 0.0000 0.0000 26.6187
#
#
#
# Elastic Compliance Matrix: (Units=1/GPa)
#
#
# Indices 1 2 3 4 5 6 
#
# 1 0.022969 -0.005905 -0.007382 0.000000 0.000000 0.000000
# 2 -0.005905 0.024072 -0.006066 0.000000 0.000000 0.000000
# 3 -0.007382 -0.006066 0.010009 0.000000 0.000000 0.000000
# 4 0.000000 0.000000 0.000000 0.030578 0.000000 0.000000
# 5 0.000000 0.000000 0.000000 0.000000 0.011278 0.000000
# 6 0.000000 0.000000 0.000000 0.000000 0.000000 0.037568
#
#
# Mechanical properties :
#
#
# Convention : Reuss Voigt Hill
#
# Bulk Modulus (GPa) = 54.51322 84.38424 69.44873
# Shear Modulus (GPa) = 27.57929 40.19403 33.88666
#
# Velocity S-wave (km/s) = 3.89614 4.70353 4.31875
# Velocity P-wave (km/s) = 7.08834 8.71456 7.94318
#
# Compressibility (1/GPa) = 0.01834417
#
# Stress axis : x y z
#
# Youngs Moduli (GPa) = 43.53642 41.54213 99.90582
#
# Poissons Ratio (x) = 0.24532 0.73754
# Poissons Ratio (y) = 0.25710 0.60598
# Poissons Ratio (z) = 0.32140 0.25197
#
# Static dielectric constant tensor:
#      x y z
#    x 1.595040 0.000000 0.000000 
#    y 0.000000 1.613460 0.000000 
#    z 0.000000 0.000000 1.636360 
# 
# From -- ./inp_files/17400.got.cif
#   From: 2010.05.17/outbox.cif.g08.bks.cpg/sg35_9_cif.got.tgz:17400.got - 2010.06.03 17:29:28.
