data_PCOD9349552
_publ_section_title
;
Structure prediction by ZEFSAII (Michael W. Deem and Ramdas Pophale) SiO2 
 PCOD9349552
Probable space group: C M M 2
;
_chemical_formula_sum "Si O2"
_cell_formula_units_Z 58
_cell_length_a 30.335235
_cell_length_b 7.332323
_cell_length_c 12.316196
_cell_angle_alpha 90.000000
_cell_angle_beta 90.000000
_cell_angle_gamma 90.000000
_cell_volume 2739.463658
_symmetry_space_group_name_H-M "C M M 2"
_symmetry_group_IT_number 35
_symmetry_cell_setting 'orthorhombic'
loop_
_space_group_symop_operation_xyz
x,y,z
-x,-y,z
-x,y,z
x,-y,z
1/2+x,1/2+y,z
1/2-x,1/2-y,z
1/2-x,1/2+y,z
1/2+x,1/2-y,z
loop_
_atom_site_type_symbol
_atom_site_label
_atom_site_fract_x
_atom_site_fract_y
_atom_site_fract_z
Si Si1 0.864622 0.296509 0.379880
Si Si2 0.301811 0.218015 0.564827
Si Si3 0.549912 0.779852 0.755007
Si Si4 0.582565 0.775721 0.178762
Si Si5 0.382938 0.778398 0.940566
Si Si6 0.698572 0.782423 0.808549
Si Si7 0.049635 0.789919 0.504903
Si Si8 0.000000 0.000000 0.210405
O O1 0.847363 0.500000 0.358583
O O2 0.831138 0.208496 0.465909
O O3 0.878929 0.222016 0.263751
O O4 0.911316 0.304949 0.442499
O O5 0.250000 0.250000 0.546861
O O6 0.312249 0.287510 0.686597
O O7 0.309746 0.000000 0.568127
O O8 0.500000 0.725541 0.782947
O O9 0.583654 0.719080 0.845943
O O10 0.559103 0.715316 0.633260
O O11 0.551435 0.000000 0.750661
O O12 0.538935 0.661214 0.206099
O O13 0.576174 0.000000 0.185729
O O14 0.599019 0.727571 0.057948
O O15 0.334794 0.716496 0.900767
O O16 0.382862 0.000000 0.941411
O O17 0.750000 0.750000 0.829931
O O18 0.692905 0.000000 0.802727
O O19 0.000000 0.717052 0.488998
O O20 0.048984 0.000000 0.468182
#
# Coordination Sequence:
#
# PCOD9349552 Si02
#       8
#     8   8   8   8   8   8   8   2
#     4  10  21  37  58  80 110 151 198 245 289 360
#     4   9  18  34  57  87 116 150 194 240 301 365
#     4   9  17  31  52  76 103 140 185 230 286 357
#     4  10  24  43  64  89 119 162 211 251 306 356
#     4   9  18  36  59  80 110 151 196 246 293 356
#     4   9  17  32  56  84 116 151 192 243 300 365
#     4  10  21  33  48  75 111 144 180 233 294 351
#     4  12  26  44  64  90 122 164 210 268 292 356
#
# _framework density 21.172028000000001
#
# number of rings (size 3 to 8) (size 9 to 14) (size 15 to 20)
#    0.000    2.483    0.000    1.448    2.897    3.586 
#    2.483    3.448    0.000    0.000    0.000    0.000 
#    0.000    0.000    0.000    0.000    0.000    0.000 
#
# Total GULP energy -161587.350940 kJ/mol
# GULP energy per Si atom -5571.977619 kJ/mol
# Density = 2.112384 g / cm^3
# Si number density = 21.172028 Si / 1000 Ang^3
#
#
#
# Elastic Constant Matrix: (Units=GPa)
#
#
# Indices 1 2 3 4 5 6 
#
# 1 49.2553 1.6821 37.7447 0.0000 0.0000 0.0000
# 2 1.6821 99.4147 1.2237 0.0000 0.0000 0.0000
# 3 37.7447 1.2237 68.3832 0.0000 0.0000 0.0000
# 4 0.0000 0.0000 0.0000 -6.3886 0.0000 0.0000
# 5 0.0000 0.0000 0.0000 0.0000 16.9898 0.0000
# 6 0.0000 0.0000 0.0000 0.0000 0.0000 14.1572
#
#
#
# Elastic Compliance Matrix: (Units=1/GPa)
#
#
# Indices 1 2 3 4 5 6 
#
# 1 0.035197 -0.000356 -0.019421 0.000000 0.000000 0.000000
# 2 -0.000356 0.010065 0.000017 0.000000 0.000000 0.000000
# 3 -0.019421 0.000017 0.025343 0.000000 0.000000 0.000000
# 4 0.000000 0.000000 0.000000 -0.156528 0.000000 0.000000
# 5 0.000000 0.000000 0.000000 0.000000 0.058859 0.000000
# 6 0.000000 0.000000 0.000000 0.000000 0.000000 0.070636
#
#
# Mechanical properties :
#
#
# Convention : Reuss Voigt Hill
#
# Bulk Modulus (GPa) = 32.17200 33.15048 32.66124
# Shear Modulus (GPa) = 53.50273 16.71184 35.10728
#
# Velocity S-wave (km/s) = 5.03243 2.81256 4.07651
# Velocity P-wave (km/s) = 6.99969 5.12240 6.13330
#
# Compressibility (1/GPa) = 0.03108293
#
# Stress axis : x y z
#
# Youngs Moduli (GPa) = 28.41153 99.35716 39.45905
#
# Poissons Ratio (x) = 0.03542 0.76633
# Poissons Ratio (y) = 0.01013 -0.00066
# Poissons Ratio (z) = 0.55178 -0.00165
#
# Static dielectric constant tensor:
#      x y z
#    x 1.731040 0.000000 0.000000 
#    y 0.000000 1.862660 0.000000 
#    z 0.000000 0.000000 1.770730 
# 
# From -- ./inp_files/11778.got.cif
#   From: 2010.05.17/outbox.cif.g08.bks.cpg/sg35_6_cif.got.tgz:11778.got - 2010.06.03 17:29:28.
