data_PCOD9349655
_publ_section_title
;
Structure prediction by ZEFSAII (Michael W. Deem and Ramdas Pophale) SiO2 
 PCOD9349655
Probable space group: C M M 2
;
_chemical_formula_sum "Si O2"
_cell_formula_units_Z 40
_cell_length_a 8.692311
_cell_length_b 15.827413
_cell_length_c 14.797108
_cell_angle_alpha 90.000000
_cell_angle_beta 90.000000
_cell_angle_gamma 90.000000
_cell_volume 2035.738711
_symmetry_space_group_name_H-M "C M M 2"
_symmetry_group_IT_number 35
_symmetry_cell_setting 'orthorhombic'
loop_
_space_group_symop_operation_xyz
x,y,z
-x,-y,z
-x,y,z
x,-y,z
1/2+x,1/2+y,z
1/2-x,1/2-y,z
1/2-x,1/2+y,z
1/2+x,1/2-y,z
loop_
_atom_site_type_symbol
_atom_site_label
_atom_site_fract_x
_atom_site_fract_y
_atom_site_fract_z
Si Si1 0.184712 0.500000 0.613000
Si Si2 0.813994 0.154700 0.496486
Si Si3 0.685972 0.838984 0.922016
Si Si4 0.823456 0.402827 0.111696
Si Si5 0.684693 0.500000 0.815327
Si Si6 0.682582 0.656946 0.291729
O O1 0.244823 0.583976 0.561841
O O2 0.252787 0.500000 0.713524
O O3 0.000000 0.500000 0.615070
O O4 0.750000 0.250000 0.511876
O O5 0.771315 0.129568 0.392850
O O6 0.000000 0.156164 0.504034
O O7 0.500000 0.841033 0.920132
O O8 0.750000 0.750000 0.887658
O O9 0.751693 0.917059 0.865787
O O10 0.737447 0.850317 0.026810
O O11 0.822735 0.500000 0.081379
O O12 0.737439 0.395592 0.206125
O O13 0.000000 0.376984 0.128367
O O14 0.500000 0.500000 0.816660
O O15 0.500000 0.660794 0.291120
O O16 0.750000 0.750000 0.278407
#
# Coordination Sequence:
#
# PCOD9349655 Si02
#       6
#     4   8   8   8   4   8
#     4  12  26  44  69  96 125 164 205 258 322 380
#     4  10  22  42  65  94 130 167 212 262 312 371
#     4  11  23  43  67  95 129 167 210 259 314 373
#     4  10  21  37  58  88 127 168 209 257 306 362
#     4  12  26  46  69  96 125 160 207 262 318 378
#     4  10  21  36  57  86 123 165 209 256 303 361
#
# _framework density 19.648886000000001
#
# number of rings (size 3 to 8) (size 9 to 14) (size 15 to 20)
#    0.000    1.400    1.000    4.200    1.400    6.800 
#    0.000    4.000    0.000    0.000    0.000    0.000 
#    0.000    0.000    0.000    0.000    0.000    0.000 
#
# Total GULP energy -111751.722299 kJ/mol
# GULP energy per Si atom -5587.586115 kJ/mol
# Density = 1.960416 g / cm^3
# Si number density = 19.648886 Si / 1000 Ang^3
#
#
#
# Elastic Constant Matrix: (Units=GPa)
#
#
# Indices 1 2 3 4 5 6 
#
# 1 95.2647 52.5553 56.8536 0.0000 0.0000 0.0000
# 2 52.5553 135.4860 86.5171 0.0000 0.0000 0.0000
# 3 56.8536 86.5171 138.9751 0.0000 0.0000 0.0000
# 4 0.0000 0.0000 0.0000 -1.1786 0.0000 0.0000
# 5 0.0000 0.0000 0.0000 0.0000 25.4150 0.0000
# 6 0.0000 0.0000 0.0000 0.0000 0.0000 35.3584
#
#
#
# Elastic Compliance Matrix: (Units=1/GPa)
#
#
# Indices 1 2 3 4 5 6 
#
# 1 0.014620 -0.003074 -0.004067 0.000000 0.000000 0.000000
# 2 -0.003074 0.012897 -0.006772 0.000000 0.000000 0.000000
# 3 -0.004067 -0.006772 0.013075 0.000000 0.000000 0.000000
# 4 0.000000 0.000000 0.000000 -0.848431 0.000000 0.000000
# 5 0.000000 0.000000 0.000000 0.000000 0.039347 0.000000
# 6 0.000000 0.000000 0.000000 0.000000 0.000000 0.028282
#
#
# Mechanical properties :
#
#
# Convention : Reuss Voigt Hill
#
# Bulk Modulus (GPa) = 78.32772 84.61975 81.47373
# Shear Modulus (GPa) = -7.06086 23.50559 8.22236
#
# Velocity S-wave (km/s) = -1.89771 3.46248 2.04786
# Velocity P-wave (km/s) = 5.92861 7.69054 6.86633
#
# Compressibility (1/GPa) = 0.01276687
#
# Stress axis : x y z
#
# Youngs Moduli (GPa) = 68.39807 77.53559 76.48182
#
# Poissons Ratio (x) = 0.23834 0.31108
# Poissons Ratio (y) = 0.21025 0.51790
# Poissons Ratio (z) = 0.27820 0.52503
#
# Static dielectric constant tensor:
#      x y z
#    x 1.670190 0.000000 0.000000 
#    y 0.000000 1.680740 0.000000 
#    z 0.000000 0.000000 1.696120 
# 
# From -- ./inp_files/14727.got.cif
#   From: 2010.05.17/outbox.cif.g08.bks.cpg/sg35_8_cif.got.tgz:14727.got - 2010.06.03 17:29:28.
