data_PCOD9349400
_publ_section_title
;
Structure prediction by ZEFSAII (Michael W. Deem and Ramdas Pophale) SiO2 
 PCOD9349400
Probable space group: C M M 2
;
_chemical_formula_sum "Si O2"
_cell_formula_units_Z 56
_cell_length_a 8.159260
_cell_length_b 21.117758
_cell_length_c 14.864275
_cell_angle_alpha 90.000000
_cell_angle_beta 90.000000
_cell_angle_gamma 90.000000
_cell_volume 2561.193038
_symmetry_space_group_name_H-M "C M M 2"
_symmetry_group_IT_number 35
_symmetry_cell_setting 'orthorhombic'
loop_
_space_group_symop_operation_xyz
x,y,z
-x,-y,z
-x,y,z
x,-y,z
1/2+x,1/2+y,z
1/2-x,1/2-y,z
1/2-x,1/2+y,z
1/2+x,1/2-y,z
loop_
_atom_site_type_symbol
_atom_site_label
_atom_site_fract_x
_atom_site_fract_y
_atom_site_fract_z
Si Si1 0.803576 0.000000 0.054660
Si Si2 0.696000 0.573719 0.692714
Si Si3 0.698171 0.681487 0.828342
Si Si4 0.810831 0.127530 0.364154
Si Si5 0.196229 0.133442 0.014507
Si Si6 0.701006 0.500000 0.263689
Si Si7 0.688462 0.185498 0.192376
Si Si8 0.189811 0.677184 0.550960
O O1 0.741442 0.000000 0.159200
O O2 0.768620 0.939400 0.994430
O O3 0.000000 0.000000 0.068442
O O4 0.500000 0.568482 0.702673
O O5 0.757288 0.500000 0.687046
O O6 0.756699 0.619743 0.773464
O O7 0.727961 0.620008 0.607385
O O8 0.500000 0.679677 0.828149
O O9 0.750000 0.750000 0.790818
O O10 0.754982 0.675385 0.931859
O O11 0.748068 0.061793 0.320480
O O12 0.798275 0.173640 0.278953
O O13 0.715331 0.157066 0.447154
O O14 0.000000 0.119177 0.391604
O O15 0.000000 0.143205 0.026113
O O16 0.278972 0.138803 0.111281
O O17 0.500000 0.500000 0.262100
O O18 0.500000 0.186061 0.218748
O O19 0.750000 0.250000 0.149341
O O20 0.250000 0.750000 0.563691
O O21 0.000000 0.676937 0.575087
#
# Coordination Sequence:
#
# PCOD9349400 Si02
#       8
#     4   8   8   8   8   4   8   8
#     4   9  16  32  58  87 118 159 209 254 302 364
#     4  10  23  44  69  99 131 166 210 261 319 385
#     4  10  22  39  64  95 126 165 212 264 317 376
#     4  11  22  40  64  92 124 163 208 258 314 376
#     4  10  20  36  60  89 122 163 210 258 309 370
#     4   9  18  34  60  89 118 161 209 252 306 368
#     4  12  24  38  56  83 120 163 208 259 310 369
#     4  12  26  45  68  97 129 168 213 262 321 383
#
# _framework density 21.864809000000001
#
# number of rings (size 3 to 8) (size 9 to 14) (size 15 to 20)
#    0.000    1.429    1.429    4.286    2.000    3.714 
#    0.000    2.143    0.000    0.000    0.000    0.000 
#    0.000    0.000    0.000    0.000    0.000    0.000 
#
# Total GULP energy -156143.091246 kJ/mol
# GULP energy per Si atom -5576.538973 kJ/mol
# Density = 2.181504 g / cm^3
# Si number density = 21.864809 Si / 1000 Ang^3
#
#
#
# Elastic Constant Matrix: (Units=GPa)
#
#
# Indices 1 2 3 4 5 6 
#
# 1 28.0289 13.1287 -0.2035 0.0000 0.0000 0.0000
# 2 13.1287 156.2348 35.1395 0.0000 0.0000 0.0000
# 3 -0.2035 35.1395 98.5473 0.0000 0.0000 0.0000
# 4 0.0000 0.0000 0.0000 23.2732 0.0000 0.0000
# 5 0.0000 0.0000 0.0000 0.0000 -14.5827 0.0000
# 6 0.0000 0.0000 0.0000 0.0000 0.0000 39.3910
#
#
#
# Elastic Compliance Matrix: (Units=1/GPa)
#
#
# Indices 1 2 3 4 5 6 
#
# 1 0.037291 -0.003426 0.001299 0.000000 0.000000 0.000000
# 2 -0.003426 0.007273 -0.002601 0.000000 0.000000 0.000000
# 3 0.001299 -0.002601 0.011077 0.000000 0.000000 0.000000
# 4 0.000000 0.000000 0.000000 0.042968 0.000000 0.000000
# 5 0.000000 0.000000 0.000000 0.000000 -0.068574 0.000000
# 6 0.000000 0.000000 0.000000 0.000000 0.000000 0.025387
#
#
# Mechanical properties :
#
#
# Convention : Reuss Voigt Hill
#
# Bulk Modulus (GPa) = 21.65125 42.10449 31.87787
# Shear Modulus (GPa) = 62.28716 25.26606 43.77661
#
# Velocity S-wave (km/s) = 5.34315 3.40304 4.47939
# Velocity P-wave (km/s) = 6.92744 5.89402 6.43152
#
# Compressibility (1/GPa) = 0.04618670
#
# Stress axis : x y z
#
# Youngs Moduli (GPa) = 26.81579 137.48724 90.27396
#
# Poissons Ratio (x) = 0.47099 -0.11722
# Poissons Ratio (y) = 0.09186 0.23477
# Poissons Ratio (z) = -0.03482 0.35755
#
# Static dielectric constant tensor:
#      x y z
#    x 1.822390 0.000000 0.000000 
#    y 0.000000 1.868110 0.000000 
#    z 0.000000 0.000000 1.771930 
# 
# From -- ./inp_files/15794.got.cif
#   From: 2010.05.17/outbox.cif.g08.bks.cpg/sg35_8_cif.got.tgz:15794.got - 2010.06.03 17:29:28.
