data_PCOD9349924
_publ_section_title
;
Structure prediction by ZEFSAII (Michael W. Deem and Ramdas Pophale) SiO2 
 PCOD9349924
Probable space group: C M M 2
;
_chemical_formula_sum "Si O2"
_cell_formula_units_Z 40
_cell_length_a 8.232913
_cell_length_b 29.982189
_cell_length_c 7.998835
_cell_angle_alpha 90.000000
_cell_angle_beta 90.000000
_cell_angle_gamma 90.000000
_cell_volume 1974.438459
_symmetry_space_group_name_H-M "C M M 2"
_symmetry_group_IT_number 35
_symmetry_cell_setting 'orthorhombic'
loop_
_space_group_symop_operation_xyz
x,y,z
-x,-y,z
-x,y,z
x,-y,z
1/2+x,1/2+y,z
1/2-x,1/2-y,z
1/2-x,1/2+y,z
1/2+x,1/2-y,z
loop_
_atom_site_type_symbol
_atom_site_label
_atom_site_fract_x
_atom_site_fract_y
_atom_site_fract_z
Si Si1 0.196418 0.048994 0.846780
Si Si2 0.306147 0.356880 0.717843
Si Si3 0.196310 0.451146 0.232863
Si Si4 0.804315 0.356697 0.357491
Si Si5 0.805657 0.699104 0.037043
O O1 0.256060 0.092431 0.748651
O O2 0.000000 0.049239 0.843634
O O3 0.251924 0.000000 0.786274
O O4 0.251378 0.053383 0.039463
O O5 0.500000 0.358151 0.716562
O O6 0.247060 0.340096 0.538772
O O7 0.251635 0.326716 0.872187
O O8 0.253447 0.500000 0.292715
O O9 0.255344 0.407598 0.330348
O O10 0.000000 0.451091 0.237862
O O11 0.000000 0.357349 0.351014
O O12 0.745569 0.326775 0.202779
O O13 0.750000 0.750000 0.036499
O O14 0.000000 0.697870 0.039379
#
# Coordination Sequence:
#
# PCOD9349924 Si02
#       5
#     8   8   8   8   8
#     4   9  18  33  54  83 120 160 200 241 288 344
#     4  11  23  38  61  91 123 160 200 244 293 353
#     4   9  17  32  56  85 117 156 200 243 291 345
#     4  10  22  39  60  88 122 158 197 245 296 351
#     4  11  24  44  67  89 116 152 194 248 305 359
#
# _framework density 20.258925000000001
#
# number of rings (size 3 to 8) (size 9 to 14) (size 15 to 20)
#    0.000    2.000    2.000    1.200    0.000    4.800 
#    0.000    2.000    0.000    0.000    0.000    0.000 
#    0.000    0.000    0.000    0.000    0.000    0.000 
#
# Total GULP energy -111689.175815 kJ/mol
# GULP energy per Si atom -5584.458791 kJ/mol
# Density = 2.021281 g / cm^3
# Si number density = 20.258925 Si / 1000 Ang^3
#
#
#
# Elastic Constant Matrix: (Units=GPa)
#
#
# Indices 1 2 3 4 5 6 
#
# 1 15.2796 19.6451 12.1028 0.0000 0.0000 0.0000
# 2 19.6451 148.7294 88.3041 0.0000 0.0000 0.0000
# 3 12.1028 88.3041 158.8342 0.0000 0.0000 0.0000
# 4 0.0000 0.0000 0.0000 1.6707 0.0000 0.0000
# 5 0.0000 0.0000 0.0000 0.0000 -107.1978 0.0000
# 6 0.0000 0.0000 0.0000 0.0000 0.0000 0.7376
#
#
#
# Elastic Compliance Matrix: (Units=1/GPa)
#
#
# Indices 1 2 3 4 5 6 
#
# 1 0.078846 -0.010221 -0.000325 0.000000 0.000000 0.000000
# 2 -0.010221 0.011362 -0.005538 0.000000 0.000000 0.000000
# 3 -0.000325 -0.005538 0.009399 0.000000 0.000000 0.000000
# 4 0.000000 0.000000 0.000000 0.598548 0.000000 0.000000
# 5 0.000000 0.000000 0.000000 0.000000 -0.009329 0.000000
# 6 0.000000 0.000000 0.000000 0.000000 0.000000 1.355780
#
#
# Mechanical properties :
#
#
# Convention : Reuss Voigt Hill
#
# Bulk Modulus (GPa) = 14.82832 62.54968 38.68900
# Shear Modulus (GPa) = 2.38180 -7.43848 -2.52834
#
# Velocity S-wave (km/s) = 1.08546 -1.91825 -1.11836
# Velocity P-wave (km/s) = 2.98434 5.10254 4.17984
#
# Compressibility (1/GPa) = 0.06743852
#
# Stress axis : x y z
#
# Youngs Moduli (GPa) = 12.68291 88.01630 106.39086
#
# Poissons Ratio (x) = 0.89965 0.03461
# Poissons Ratio (y) = 0.12964 0.58915
# Poissons Ratio (z) = 0.00413 0.48740
#
# Static dielectric constant tensor:
#      x y z
#    x 1.863540 0.000000 0.000000 
#    y 0.000000 1.730560 0.000000 
#    z 0.000000 0.000000 1.697540 
# 
# From -- ./inp_files/4955.got.cif
#   From: 2010.05.17/outbox.cif.g08.bks.cpg/sg35_3_cif.got.tgz:4955.got - 2010.06.03 17:29:28.
