data_PCOD9349771
_publ_section_title
;
Structure prediction by ZEFSAII (Michael W. Deem and Ramdas Pophale) SiO2 
 PCOD9349771
Probable space group: C M M 2
;
_chemical_formula_sum "Si O2"
_cell_formula_units_Z 56
_cell_length_a 8.639695
_cell_length_b 22.459198
_cell_length_c 14.783764
_cell_angle_alpha 90.000000
_cell_angle_beta 90.000000
_cell_angle_gamma 90.000000
_cell_volume 2868.650742
_symmetry_space_group_name_H-M "C M M 2"
_symmetry_group_IT_number 35
_symmetry_cell_setting 'orthorhombic'
loop_
_space_group_symop_operation_xyz
x,y,z
-x,-y,z
-x,y,z
x,-y,z
1/2+x,1/2+y,z
1/2-x,1/2-y,z
1/2-x,1/2+y,z
1/2+x,1/2-y,z
loop_
_atom_site_type_symbol
_atom_site_label
_atom_site_fract_x
_atom_site_fract_y
_atom_site_fract_z
Si Si1 0.687987 0.000000 0.307860
Si Si2 0.313289 0.128721 0.080751
Si Si3 0.683202 0.313511 0.254857
Si Si4 0.311990 0.000000 0.097958
Si Si5 0.185630 0.067441 0.587722
Si Si6 0.186600 0.931681 0.800593
Si Si7 0.815216 0.618631 0.414365
Si Si8 0.685757 0.186015 0.899723
O O1 0.737250 0.058496 0.362043
O O2 0.500000 0.000000 0.306695
O O3 0.737407 0.000000 0.203377
O O4 0.500000 0.129996 0.085992
O O5 0.249162 0.141882 0.179655
O O6 0.262662 0.061885 0.053925
O O7 0.264371 0.175049 0.004197
O O8 0.500000 0.313779 0.252425
O O9 0.750000 0.250000 0.228184
O O10 0.742392 0.329563 0.354602
O O11 0.500000 0.000000 0.097279
O O12 0.221168 0.075696 0.693356
O O13 0.261576 0.112396 0.517316
O O14 0.000000 0.070234 0.578136
O O15 0.236569 0.000000 0.563860
O O16 0.258528 0.874235 0.849558
O O17 0.000000 0.929957 0.811333
O O18 0.236591 0.000000 0.826013
O O19 0.000000 0.622425 0.409920
O O20 0.500000 0.187938 0.895554
O O21 0.750000 0.250000 0.867696
#
# Coordination Sequence:
#
# PCOD9349771 Si02
#       8
#     4   8   8   4   8   8   8   8
#     4   9  16  28  52  81 112 149 181 218 272 326
#     4  10  21  38  61  87 118 155 193 241 295 352
#     4  12  25  40  57  79 111 154 201 247 290 346
#     4   9  16  32  56  83 118 153 187 230 286 344
#     4   9  18  34  57  87 120 154 191 235 291 352
#     4   9  20  40  64  90 125 161 194 245 310 366
#     4  11  20  34  56  85 118 154 191 232 282 338
#     4  11  24  40  63  90 120 158 205 253 302 364
#
# _framework density 19.521373000000001
#
# number of rings (size 3 to 8) (size 9 to 14) (size 15 to 20)
#    0.000    1.857    2.143    3.429    1.000    3.143 
#    0.000    3.214    0.000    3.429    0.000    0.000 
#    0.000    0.000    0.000    0.000    0.000    0.000 
#
# Total GULP energy -156246.464987 kJ/mol
# GULP energy per Si atom -5580.230892 kJ/mol
# Density = 1.947694 g / cm^3
# Si number density = 19.521373 Si / 1000 Ang^3
#
#
#
# Elastic Constant Matrix: (Units=GPa)
#
#
# Indices 1 2 3 4 5 6 
#
# 1 39.9900 30.1984 25.8467 0.0000 0.0000 0.0000
# 2 30.1984 121.4306 39.0286 0.0000 0.0000 0.0000
# 3 25.8467 39.0286 72.4354 0.0000 0.0000 0.0000
# 4 0.0000 0.0000 0.0000 29.8851 0.0000 0.0000
# 5 0.0000 0.0000 0.0000 0.0000 25.4643 0.0000
# 6 0.0000 0.0000 0.0000 0.0000 0.0000 25.3763
#
#
#
# Elastic Compliance Matrix: (Units=1/GPa)
#
#
# Indices 1 2 3 4 5 6 
#
# 1 0.035549 -0.005761 -0.009581 0.000000 0.000000 0.000000
# 2 -0.005761 0.010894 -0.003814 0.000000 0.000000 0.000000
# 3 -0.009581 -0.003814 0.019279 0.000000 0.000000 0.000000
# 4 0.000000 0.000000 0.000000 0.033461 0.000000 0.000000
# 5 0.000000 0.000000 0.000000 0.000000 0.039271 0.000000
# 6 0.000000 0.000000 0.000000 0.000000 0.000000 0.039407
#
#
# Mechanical properties :
#
#
# Convention : Reuss Voigt Hill
#
# Bulk Modulus (GPa) = 36.48265 47.11150 41.79707
# Shear Modulus (GPa) = 22.19176 25.39730 23.79453
#
# Velocity S-wave (km/s) = 3.37529 3.61085 3.49506
# Velocity P-wave (km/s) = 5.82403 6.44748 6.14367
#
# Compressibility (1/GPa) = 0.02741029
#
# Stress axis : x y z
#
# Youngs Moduli (GPa) = 28.13006 91.79589 51.87031
#
# Poissons Ratio (x) = 0.52888 0.49694
# Poissons Ratio (y) = 0.16207 0.19782
# Poissons Ratio (z) = 0.26950 0.35009
#
# Static dielectric constant tensor:
#      x y z
#    x 1.660650 0.000000 0.000000 
#    y 0.000000 1.680490 0.000000 
#    z 0.000000 0.000000 1.672030 
# 
# From -- ./inp_files/15731.got.cif
#   From: 2010.05.17/outbox.cif.g08.bks.cpg/sg35_8_cif.got.tgz:15731.got - 2010.06.03 17:29:28.
