data_PCOD9349512
_publ_section_title
;
Structure prediction by ZEFSAII (Michael W. Deem and Ramdas Pophale) SiO2 
 PCOD9349512
Probable space group: C M M 2
;
_chemical_formula_sum "Si O2"
_cell_formula_units_Z 48
_cell_length_a 15.238172
_cell_length_b 8.833710
_cell_length_c 19.326439
_cell_angle_alpha 90.000000
_cell_angle_beta 90.000000
_cell_angle_gamma 90.000000
_cell_volume 2601.524076
_symmetry_space_group_name_H-M "C M M 2"
_symmetry_group_IT_number 35
_symmetry_cell_setting 'orthorhombic'
loop_
_space_group_symop_operation_xyz
x,y,z
-x,-y,z
-x,y,z
x,-y,z
1/2+x,1/2+y,z
1/2-x,1/2-y,z
1/2-x,1/2+y,z
1/2+x,1/2-y,z
loop_
_atom_site_type_symbol
_atom_site_label
_atom_site_fract_x
_atom_site_fract_y
_atom_site_fract_z
Si Si1 0.156579 0.681652 0.323210
Si Si2 0.158079 0.821007 0.024991
Si Si3 0.000000 0.680242 0.938576
Si Si4 0.651514 0.682665 0.677271
Si Si5 0.500000 0.682157 0.786674
Si Si6 0.000000 0.182131 0.412172
Si Si7 0.394494 0.175693 0.166333
Si Si8 0.500000 0.316021 0.572270
O O1 0.155104 0.500000 0.328739
O O2 0.250000 0.750000 0.341925
O O3 0.083459 0.752798 0.372036
O O4 0.136774 0.719510 0.242782
O O5 0.250000 0.750000 0.003799
O O6 0.141816 0.778230 0.105184
O O7 0.157035 0.000000 0.016331
O O8 0.083055 0.745338 0.979377
O O9 0.000000 0.500000 0.941879
O O10 0.000000 0.736975 0.859997
O O11 0.659802 0.500000 0.675106
O O12 0.750000 0.750000 0.678527
O O13 0.588021 0.720029 0.742644
O O14 0.588936 0.731096 0.612694
O O15 0.500000 0.500000 0.795659
O O16 0.000000 0.229480 0.492493
O O17 0.000000 0.000000 0.409220
O O18 0.500000 0.182557 0.165301
O O19 0.368824 0.000000 0.153383
O O20 0.500000 0.500000 0.575411
#
# Coordination Sequence:
#
# PCOD9349512 Si02
#       8
#     8   8   4   8   4   4   8   4
#     4  11  23  40  59  84 116 154 198 247 299 354
#     4  12  25  41  62  88 117 154 198 245 296 353
#     4  12  25  42  62  87 122 158 195 242 290 346
#     4   9  18  36  62  88 117 151 189 233 281 338
#     4   9  20  39  60  84 118 157 190 229 284 344
#     4  11  22  38  60  85 118 158 198 243 294 350
#     4  10  20  38  62  85 114 150 193 248 301 352
#     4   8  18  37  58  84 118 155 191 230 284 344
#
# _framework density 18.450721999999999
#
# number of rings (size 3 to 8) (size 9 to 14) (size 15 to 20)
#    0.000    1.667    1.667    4.500    0.000    4.667 
#    0.000    6.250    0.000    0.000    0.000    0.000 
#    0.000    0.000    0.000    0.000    0.000    0.000 
#
# Total GULP energy -134073.813578 kJ/mol
# GULP energy per Si atom -5586.408899 kJ/mol
# Density = 1.840873 g / cm^3
# Si number density = 18.450722 Si / 1000 Ang^3
#
#
#
# Elastic Constant Matrix: (Units=GPa)
#
#
# Indices 1 2 3 4 5 6 
#
# 1 198.1116 71.6715 96.8085 0.0000 0.0000 0.0000
# 2 71.6715 91.0385 79.3300 0.0000 0.0000 0.0000
# 3 96.8085 79.3300 154.5047 0.0000 0.0000 0.0000
# 4 0.0000 0.0000 0.0000 8.1402 0.0000 0.0000
# 5 0.0000 0.0000 0.0000 0.0000 77.7098 0.0000
# 6 0.0000 0.0000 0.0000 0.0000 0.0000 34.7024
#
#
#
# Elastic Compliance Matrix: (Units=1/GPa)
#
#
# Indices 1 2 3 4 5 6 
#
# 1 0.007821 -0.003415 -0.003147 0.000000 0.000000 0.000000
# 2 -0.003415 0.021369 -0.008832 0.000000 0.000000 0.000000
# 3 -0.003147 -0.008832 0.012979 0.000000 0.000000 0.000000
# 4 0.000000 0.000000 0.000000 0.122847 0.000000 0.000000
# 5 0.000000 0.000000 0.000000 0.000000 0.012868 0.000000
# 6 0.000000 0.000000 0.000000 0.000000 0.000000 0.028816
#
#
# Mechanical properties :
#
#
# Convention : Reuss Voigt Hill
#
# Bulk Modulus (GPa) = 87.86742 104.36386 96.11564
# Shear Modulus (GPa) = 20.72260 37.16681 28.94470
#
# Velocity S-wave (km/s) = 3.35495 4.49306 3.96505
# Velocity P-wave (km/s) = 7.92046 9.14347 8.55385
#
# Compressibility (1/GPa) = 0.01138078
#
# Stress axis : x y z
#
# Youngs Moduli (GPa) = 127.86322 46.79665 77.04744
#
# Poissons Ratio (x) = 0.15980 0.24247
# Poissons Ratio (y) = 0.43663 0.68050
# Poissons Ratio (z) = 0.40239 0.41332
#
# Static dielectric constant tensor:
#      x y z
#    x 1.606880 0.000000 0.000000 
#    y 0.000000 1.619810 0.000000 
#    z 0.000000 0.000000 1.624810 
# 
# From -- ./inp_files/18825.got.cif
#   From: 2010.05.17/outbox.cif.g08.bks.cpg/sg35_10_cif.got.tgz:18825.got - 2010.06.03 17:29:28.
