data_PCOD9349520
_publ_section_title
;
Structure prediction by ZEFSAII (Michael W. Deem and Ramdas Pophale) SiO2 
 PCOD9349520
Probable space group: C M M 2
;
_chemical_formula_sum "Si O2"
_cell_formula_units_Z 40
_cell_length_a 14.837352
_cell_length_b 8.553029
_cell_length_c 15.608465
_cell_angle_alpha 90.000000
_cell_angle_beta 90.000000
_cell_angle_gamma 90.000000
_cell_volume 1980.781355
_symmetry_space_group_name_H-M "C M M 2"
_symmetry_group_IT_number 35
_symmetry_cell_setting 'orthorhombic'
loop_
_space_group_symop_operation_xyz
x,y,z
-x,-y,z
-x,y,z
x,-y,z
1/2+x,1/2+y,z
1/2-x,1/2-y,z
1/2-x,1/2+y,z
1/2+x,1/2-y,z
loop_
_atom_site_type_symbol
_atom_site_label
_atom_site_fract_x
_atom_site_fract_y
_atom_site_fract_z
Si Si1 0.647474 0.311421 0.014400
Si Si2 0.148116 0.313823 0.649364
Si Si3 0.000000 0.685862 0.330790
Si Si4 0.500000 0.313917 0.522694
Si Si5 0.147776 0.811493 0.202648
Si Si6 0.853156 0.811654 0.829254
O O1 0.648285 0.500000 0.013687
O O2 0.750000 0.250000 0.014411
O O3 0.611119 0.264733 0.107603
O O4 0.607265 0.264274 0.922152
O O5 0.150239 0.500000 0.648744
O O6 0.250000 0.250000 0.641708
O O7 0.086525 0.250907 0.573316
O O8 0.109513 0.256820 0.741227
O O9 0.086101 0.742453 0.276576
O O10 0.000000 0.500000 0.337680
O O11 0.000000 0.758708 0.424980
O O12 0.500000 0.500000 0.526767
O O13 0.250000 0.750000 0.209453
O O14 0.147225 0.000000 0.207451
O O15 0.750000 0.750000 0.831086
O O16 0.854298 0.000000 0.823337
#
# Coordination Sequence:
#
# PCOD9349520 Si02
#       6
#     8   8   4   4   8   8
#     4   8  15  27  49  80 116 154 195 236 281 334
#     4  11  22  39  62  91 123 158 196 240 290 349
#     4  12  26  44  63  88 117 150 193 246 300 356
#     4  12  26  46  67  88 113 148 193 248 304 356
#     4  10  20  38  62  90 121 158 198 242 292 347
#     4   9  15  27  49  81 117 157 197 237 282 336
#
# _framework density 20.194051000000002
#
# number of rings (size 3 to 8) (size 9 to 14) (size 15 to 20)
#    0.000    2.000    0.000    6.000    0.000    2.400 
#    0.000    5.000    0.000    2.400    0.000    0.000 
#    0.000    0.000    0.000    0.000    0.000    0.000 
#
# Total GULP energy -111641.366436 kJ/mol
# GULP energy per Si atom -5582.068322 kJ/mol
# Density = 2.014809 g / cm^3
# Si number density = 20.194051 Si / 1000 Ang^3
#
#
#
# Elastic Constant Matrix: (Units=GPa)
#
#
# Indices 1 2 3 4 5 6 
#
# 1 100.2218 33.9652 73.2027 0.0000 0.0000 0.0000
# 2 33.9652 129.1739 71.6532 0.0000 0.0000 0.0000
# 3 73.2027 71.6532 231.5894 0.0000 0.0000 0.0000
# 4 0.0000 0.0000 0.0000 32.5541 0.0000 0.0000
# 5 0.0000 0.0000 0.0000 0.0000 43.9482 0.0000
# 6 0.0000 0.0000 0.0000 0.0000 0.0000 22.3473
#
#
#
# Elastic Compliance Matrix: (Units=1/GPa)
#
#
# Indices 1 2 3 4 5 6 
#
# 1 0.013178 -0.001394 -0.003734 0.000000 0.000000 0.000000
# 2 -0.001394 0.009493 -0.002497 0.000000 0.000000 0.000000
# 3 -0.003734 -0.002497 0.006271 0.000000 0.000000 0.000000
# 4 0.000000 0.000000 0.000000 0.030718 0.000000 0.000000
# 5 0.000000 0.000000 0.000000 0.000000 0.022754 0.000000
# 6 0.000000 0.000000 0.000000 0.000000 0.000000 0.044748
#
#
# Mechanical properties :
#
#
# Convention : Reuss Voigt Hill
#
# Bulk Modulus (GPa) = 73.03232 90.95858 81.99545
# Shear Modulus (GPa) = 34.01961 38.58086 36.30024
#
# Velocity S-wave (km/s) = 4.10888 4.37568 4.24438
# Velocity P-wave (km/s) = 7.66514 8.40647 8.04435
#
# Compressibility (1/GPa) = 0.01369257
#
# Stress axis : x y z
#
# Youngs Moduli (GPa) = 75.88647 105.34324 159.47149
#
# Poissons Ratio (x) = 0.14681 0.59548
# Poissons Ratio (y) = 0.10576 0.39813
# Poissons Ratio (z) = 0.28337 0.26299
#
# Static dielectric constant tensor:
#      x y z
#    x 1.709500 0.000000 0.000000 
#    y 0.000000 1.670340 0.000000 
#    z 0.000000 0.000000 1.743830 
# 
# From -- ./inp_files/16626.got.cif
#   From: 2010.05.17/outbox.cif.g08.bks.cpg/sg35_9_cif.got.tgz:16626.got - 2010.06.03 17:29:28.
