data_PCOD9349343
_publ_section_title
;
Structure prediction by ZEFSAII (Michael W. Deem and Ramdas Pophale) SiO2 
 PCOD9349343
Probable space group: C M M 2
;
_chemical_formula_sum "Si O2"
_cell_formula_units_Z 48
_cell_length_a 8.494329
_cell_length_b 16.303131
_cell_length_c 17.359300
_cell_angle_alpha 90.000000
_cell_angle_beta 90.000000
_cell_angle_gamma 90.000000
_cell_volume 2403.988052
_symmetry_space_group_name_H-M "C M M 2"
_symmetry_group_IT_number 35
_symmetry_cell_setting 'orthorhombic'
loop_
_space_group_symop_operation_xyz
x,y,z
-x,-y,z
-x,y,z
x,-y,z
1/2+x,1/2+y,z
1/2-x,1/2-y,z
1/2-x,1/2+y,z
1/2+x,1/2-y,z
loop_
_atom_site_type_symbol
_atom_site_label
_atom_site_fract_x
_atom_site_fract_y
_atom_site_fract_z
Si Si1 0.684666 0.905120 0.514460
Si Si2 0.312765 0.658782 0.357649
Si Si3 0.309350 0.162337 0.674164
Si Si4 0.191833 0.093961 0.192854
Si Si5 0.689222 0.000000 0.944694
Si Si6 0.188871 0.161917 0.031442
Si Si7 0.191709 0.500000 0.766024
O O1 0.500000 0.886308 0.503574
O O2 0.765848 0.891640 0.432979
O O3 0.745316 0.851572 0.585786
O O4 0.697118 0.000000 0.538310
O O5 0.500000 0.660347 0.352684
O O6 0.250000 0.750000 0.368136
O O7 0.251668 0.623438 0.276389
O O8 0.500000 0.162243 0.673648
O O9 0.250000 0.250000 0.702981
O O10 0.256935 0.083474 0.723497
O O11 0.242220 0.148245 0.120346
O O12 0.000000 0.095185 0.194102
O O13 0.239914 0.000000 0.179514
O O14 0.500000 0.000000 0.948891
O O15 0.737831 0.000000 0.855177
O O16 0.751607 0.082644 0.985040
O O17 0.250000 0.250000 0.003333
O O18 0.000000 0.162028 0.029510
O O19 0.000000 0.500000 0.762796
#
# Coordination Sequence:
#
# PCOD9349343 Si02
#       7
#     8   8   8   8   4   8   4
#     4  10  20  36  58  82 113 153 196 240 292 350
#     4  11  22  35  53  79 115 154 197 245 292 343
#     4  10  20  38  62  87 116 156 196 238 291 349
#     4   9  18  35  58  82 112 154 198 243 295 347
#     4  11  23  41  65  94 123 156 200 249 305 369
#     4  11  22  40  65  91 124 163 203 249 302 360
#     4   9  20  41  65  86 117 156 192 237 297 359
#
# _framework density 19.966820999999999
#
# number of rings (size 3 to 8) (size 9 to 14) (size 15 to 20)
#    0.000    1.833    1.667    2.750    0.000    3.667 
#    0.000    6.250    0.000    0.000    0.000    0.000 
#    0.000    0.000    0.000    0.000    0.000    0.000 
#
# Total GULP energy -134034.137250 kJ/mol
# GULP energy per Si atom -5584.755719 kJ/mol
# Density = 1.992138 g / cm^3
# Si number density = 19.966821 Si / 1000 Ang^3
#
#
#
# Elastic Constant Matrix: (Units=GPa)
#
#
# Indices 1 2 3 4 5 6 
#
# 1 30.4726 26.0931 25.4290 0.0000 0.0000 0.0000
# 2 26.0931 137.3482 64.1378 0.0000 0.0000 0.0000
# 3 25.4290 64.1378 129.1677 0.0000 0.0000 0.0000
# 4 0.0000 0.0000 0.0000 11.2082 0.0000 0.0000
# 5 0.0000 0.0000 0.0000 0.0000 16.2769 0.0000
# 6 0.0000 0.0000 0.0000 0.0000 0.0000 26.2255
#
#
#
# Elastic Compliance Matrix: (Units=1/GPa)
#
#
# Indices 1 2 3 4 5 6 
#
# 1 0.042110 -0.005375 -0.005621 0.000000 0.000000 0.000000
# 2 -0.005375 0.010165 -0.003989 0.000000 0.000000 0.000000
# 3 -0.005621 -0.003989 0.010829 0.000000 0.000000 0.000000
# 4 0.000000 0.000000 0.000000 0.089221 0.000000 0.000000
# 5 0.000000 0.000000 0.000000 0.000000 0.061437 0.000000
# 6 0.000000 0.000000 0.000000 0.000000 0.000000 0.038131
#
#
# Mechanical properties :
#
#
# Convention : Reuss Voigt Hill
#
# Bulk Modulus (GPa) = 30.18116 58.70089 44.44103
# Shear Modulus (GPa) = 17.07029 22.83069 19.95049
#
# Velocity S-wave (km/s) = 2.92710 3.38513 3.16441
# Velocity P-wave (km/s) = 5.15483 6.68894 5.97136
#
# Compressibility (1/GPa) = 0.03313325
#
# Stress axis : x y z
#
# Youngs Moduli (GPa) = 23.74752 98.37990 92.34251
#
# Poissons Ratio (x) = 0.52879 0.51907
# Poissons Ratio (y) = 0.12764 0.36836
# Poissons Ratio (z) = 0.13349 0.39244
#
# Static dielectric constant tensor:
#      x y z
#    x 1.699490 0.000000 0.000000 
#    y 0.000000 1.690940 0.000000 
#    z 0.000000 0.000000 1.723230 
# 
# From -- ./inp_files/17837.got.cif
#   From: 2010.05.17/outbox.cif.g08.bks.cpg/sg35_9_cif.got.tgz:17837.got - 2010.06.03 17:29:28.
