data_PCOD9349054
_publ_section_title
;
Structure prediction by ZEFSAII (Michael W. Deem and Ramdas Pophale) SiO2 
 PCOD9349054
Probable space group: C M M 2
;
_chemical_formula_sum "Si O2"
_cell_formula_units_Z 56
_cell_length_a 14.513493
_cell_length_b 13.744423
_cell_length_c 13.441461
_cell_angle_alpha 90.000000
_cell_angle_beta 90.000000
_cell_angle_gamma 90.000000
_cell_volume 2681.297089
_symmetry_space_group_name_H-M "C M M 2"
_symmetry_group_IT_number 35
_symmetry_cell_setting 'orthorhombic'
loop_
_space_group_symop_operation_xyz
x,y,z
-x,-y,z
-x,y,z
x,-y,z
1/2+x,1/2+y,z
1/2-x,1/2-y,z
1/2-x,1/2+y,z
1/2+x,1/2-y,z
loop_
_atom_site_type_symbol
_atom_site_label
_atom_site_fract_x
_atom_site_fract_y
_atom_site_fract_z
Si Si1 0.606222 0.617760 0.304480
Si Si2 0.216423 0.118491 0.498161
Si Si3 0.393979 0.797874 0.023960
Si Si4 0.294603 0.385077 0.096067
Si Si5 0.396734 0.117202 0.598427
Si Si6 0.645630 0.216652 0.806471
Si Si7 0.898348 0.108304 0.687795
O O1 0.500000 0.653242 0.298573
O O2 0.600628 0.500000 0.310767
O O3 0.661707 0.652190 0.401509
O O4 0.666101 0.637765 0.206135
O O5 0.322169 0.147140 0.515621
O O6 0.166923 0.146099 0.601067
O O7 0.213169 0.000000 0.495441
O O8 0.500000 0.805805 0.059503
O O9 0.356765 0.686290 0.028299
O O10 0.312929 0.856187 0.081519
O O11 0.390038 0.828518 0.908258
O O12 0.306505 0.500000 0.076603
O O13 0.500000 0.154205 0.579615
O O14 0.367355 0.150463 0.709058
O O15 0.398466 0.000000 0.598080
O O16 0.750000 0.250000 0.820379
O O17 0.598438 0.318102 0.777914
O O18 0.000000 0.101860 0.643004
O O19 0.868858 0.000000 0.718080
#
# Coordination Sequence:
#
# PCOD9349054 Si02
#       7
#     8   8   8   8   8   8   8
#     4   9  17  33  60  90 118 152 193 241 301 360
#     4   9  17  31  54  84 117 151 192 238 286 344
#     4  11  24  43  63  87 121 161 203 253 309 364
#     4  10  22  41  64  91 120 153 200 256 309 363
#     4  10  21  37  57  82 117 161 201 235 280 344
#     4  12  22  39  59  81 116 158 194 244 291 347
#     4  10  20  34  55  84 116 148 186 236 290 342
#
# _framework density 20.885413
#
# number of rings (size 3 to 8) (size 9 to 14) (size 15 to 20)
#    0.000    1.857    2.857    2.143    0.000    4.000 
#    0.000    3.571    0.000    2.571    0.000    0.000 
#    0.000    0.000    0.000    0.000    0.000    0.000 
#
# Total GULP energy -156230.941218 kJ/mol
# GULP energy per Si atom -5579.676472 kJ/mol
# Density = 2.083788 g / cm^3
# Si number density = 20.885413 Si / 1000 Ang^3
#
#
#
# Elastic Constant Matrix: (Units=GPa)
#
#
# Indices 1 2 3 4 5 6 
#
# 1 179.9003 6.3795 67.6518 0.0000 0.0000 0.0000
# 2 6.3795 59.7841 14.0361 0.0000 0.0000 0.0000
# 3 67.6518 14.0361 107.0951 0.0000 0.0000 0.0000
# 4 0.0000 0.0000 0.0000 27.2768 0.0000 0.0000
# 5 0.0000 0.0000 0.0000 0.0000 21.2313 0.0000
# 6 0.0000 0.0000 0.0000 0.0000 0.0000 10.8705
#
#
#
# Elastic Compliance Matrix: (Units=1/GPa)
#
#
# Indices 1 2 3 4 5 6 
#
# 1 0.007296 0.000313 -0.004650 0.000000 0.000000 0.000000
# 2 0.000313 0.017271 -0.002461 0.000000 0.000000 0.000000
# 3 -0.004650 -0.002461 0.012598 0.000000 0.000000 0.000000
# 4 0.000000 0.000000 0.000000 0.036661 0.000000 0.000000
# 5 0.000000 0.000000 0.000000 0.000000 0.047100 0.000000
# 6 0.000000 0.000000 0.000000 0.000000 0.000000 0.091992
#
#
# Mechanical properties :
#
#
# Convention : Reuss Voigt Hill
#
# Bulk Modulus (GPa) = 42.42967 58.10159 50.26563
# Shear Modulus (GPa) = 21.33367 29.12319 25.22843
#
# Velocity S-wave (km/s) = 3.19950 3.73825 3.47932
# Velocity P-wave (km/s) = 5.83169 6.82000 6.34511
#
# Compressibility (1/GPa) = 0.02356841
#
# Stress axis : x y z
#
# Youngs Moduli (GPa) = 137.05802 57.89942 79.38072
#
# Poissons Ratio (x) = -0.01813 0.36912
# Poissons Ratio (y) = -0.04292 0.19539
# Poissons Ratio (z) = 0.63732 0.14252
#
# Static dielectric constant tensor:
#      x y z
#    x 1.974880 0.000000 0.000000 
#    y 0.000000 1.786050 0.000000 
#    z 0.000000 0.000000 1.735690 
# 
# From -- ./inp_files/12960.got.cif
#   From: 2010.05.17/outbox.cif.g08.bks.cpg/sg35_7_cif.got.tgz:12960.got - 2010.06.03 17:29:28.
