data_PCOD9349328
_publ_section_title
;
Structure prediction by ZEFSAII (Michael W. Deem and Ramdas Pophale) SiO2 
 PCOD9349328
Probable space group: C M M 2
;
_chemical_formula_sum "Si O2"
_cell_formula_units_Z 56
_cell_length_a 16.644119
_cell_length_b 32.283504
_cell_length_c 5.221990
_cell_angle_alpha 90.000000
_cell_angle_beta 90.000000
_cell_angle_gamma 90.000000
_cell_volume 2805.934405
_symmetry_space_group_name_H-M "C M M 2"
_symmetry_group_IT_number 35
_symmetry_cell_setting 'orthorhombic'
loop_
_space_group_symop_operation_xyz
x,y,z
-x,-y,z
-x,y,z
x,-y,z
1/2+x,1/2+y,z
1/2-x,1/2-y,z
1/2-x,1/2+y,z
1/2+x,1/2-y,z
loop_
_atom_site_type_symbol
_atom_site_label
_atom_site_fract_x
_atom_site_fract_y
_atom_site_fract_z
Si Si1 0.372739 0.046474 0.702970
Si Si2 0.088259 0.405265 0.186241
Si Si3 0.198126 0.047168 0.538103
Si Si4 0.685905 0.713670 0.177603
Si Si5 0.261277 0.376836 0.165611
Si Si6 0.909787 0.892499 0.786172
Si Si7 0.590693 0.698753 0.654370
O O1 0.398381 0.076895 0.472607
O O2 0.275205 0.047019 0.727514
O O3 0.395185 0.000000 0.626900
O O4 0.409230 0.058504 0.974365
O O5 0.166549 0.379162 0.101674
O O6 0.000000 0.385272 0.174690
O O7 0.223661 0.083493 0.345260
O O8 0.115471 0.064514 0.654558
O O9 0.191148 0.000000 0.438986
O O10 0.750000 0.750000 0.172779
O O11 0.725955 0.669944 0.260157
O O12 0.620269 0.720639 0.398012
O O13 0.646461 0.708328 0.897969
O O14 0.333289 0.383084 0.963896
O O15 0.910765 0.851358 0.609593
O O16 0.000000 0.894792 0.900793
O O17 0.500000 0.710530 0.720487
#
# Coordination Sequence:
#
# PCOD9349328 Si02
#       7
#     8   8   8   8   8   8   8
#     4  10  21  36  56  81 112 150 199 252 299 354
#     4  11  22  36  57  81 112 155 197 244 308 365
#     4  10  20  36  57  83 119 163 206 256 313 370
#     4  11  22  39  67  95 123 165 212 256 319 384
#     4  10  22  40  58  86 127 160 206 260 315 373
#     4  10  20  36  60  86 118 165 209 255 312 371
#     4  10  21  39  64  95 129 163 208 261 311 378
#
# _framework density 19.957699999999999
#
# number of rings (size 3 to 8) (size 9 to 14) (size 15 to 20)
#    0.000    1.714    2.857    1.714    0.000    4.286 
#    0.000    1.429    0.000    0.000    0.000    0.000 
#    0.000    0.000    0.000    0.000    0.000    0.000 
#
# Total GULP energy -155905.145933 kJ/mol
# GULP energy per Si atom -5568.040926 kJ/mol
# Density = 1.991228 g / cm^3
# Si number density = 19.957700 Si / 1000 Ang^3
#
#
#
# Elastic Constant Matrix: (Units=GPa)
#
#
# Indices 1 2 3 4 5 6 
#
# 1 148.6365 41.8787 8.1437 0.0000 0.0000 0.0000
# 2 41.8787 96.5246 16.7380 0.0000 0.0000 0.0000
# 3 8.1437 16.7380 45.0798 0.0000 0.0000 0.0000
# 4 0.0000 0.0000 0.0000 17.1829 0.0000 0.0000
# 5 0.0000 0.0000 0.0000 0.0000 20.4351 0.0000
# 6 0.0000 0.0000 0.0000 0.0000 0.0000 -0.5014
#
#
#
# Elastic Compliance Matrix: (Units=1/GPa)
#
#
# Indices 1 2 3 4 5 6 
#
# 1 0.007666 -0.003298 -0.000160 0.000000 0.000000 0.000000
# 2 -0.003298 0.012492 -0.004042 0.000000 0.000000 0.000000
# 3 -0.000160 -0.004042 0.023713 0.000000 0.000000 0.000000
# 4 0.000000 0.000000 0.000000 0.058198 0.000000 0.000000
# 5 0.000000 0.000000 0.000000 0.000000 0.048935 0.000000
# 6 0.000000 0.000000 0.000000 0.000000 0.000000 -1.994330
#
#
# Mechanical properties :
#
#
# Convention : Reuss Voigt Hill
#
# Bulk Modulus (GPa) = 34.63927 47.08463 40.86195
# Shear Modulus (GPa) = -2.74921 22.32201 9.78640
#
# Velocity S-wave (km/s) = -1.17495 3.34798 2.21680
# Velocity P-wave (km/s) = 3.94377 6.21198 5.20298
#
# Compressibility (1/GPa) = 0.02886897
#
# Stress axis : x y z
#
# Youngs Moduli (GPa) = 130.44827 80.05127 42.17136
#
# Poissons Ratio (x) = 0.26402 0.00676
# Poissons Ratio (y) = 0.43024 0.17047
# Poissons Ratio (z) = 0.02091 0.32360
#
# Static dielectric constant tensor:
#      x y z
#    x 1.781280 0.000000 0.000000 
#    y 0.000000 1.714960 0.000000 
#    z 0.000000 0.000000 1.753010 
# 
# From -- ./inp_files/2050.got.cif
#   From: 2010.05.17/outbox.cif.g08.bks.cpg/sg35_2_cif.got.tgz:2050.got - 2010.06.03 17:29:28.
