data_PCOD9349723
_publ_section_title
;
Structure prediction by ZEFSAII (Michael W. Deem and Ramdas Pophale) SiO2 
 PCOD9349723
Probable space group: C M M 2
;
_chemical_formula_sum "Si O2"
_cell_formula_units_Z 64
_cell_length_a 15.138771
_cell_length_b 17.371539
_cell_length_c 12.393539
_cell_angle_alpha 90.000000
_cell_angle_beta 90.000000
_cell_angle_gamma 90.000000
_cell_volume 3259.299372
_symmetry_space_group_name_H-M "C M M 2"
_symmetry_group_IT_number 35
_symmetry_cell_setting 'orthorhombic'
loop_
_space_group_symop_operation_xyz
x,y,z
-x,-y,z
-x,y,z
x,-y,z
1/2+x,1/2+y,z
1/2-x,1/2-y,z
1/2-x,1/2+y,z
1/2+x,1/2-y,z
loop_
_atom_site_type_symbol
_atom_site_label
_atom_site_fract_x
_atom_site_fract_y
_atom_site_fract_z
Si Si1 0.400520 0.371862 0.029810
Si Si2 0.893065 0.140878 0.270095
Si Si3 0.106120 0.591438 0.484710
Si Si4 0.253128 0.159388 0.646771
Si Si5 0.157940 0.704786 0.040236
Si Si6 0.763910 0.588380 0.882085
Si Si7 0.102771 0.911112 0.503033
Si Si8 0.893633 0.318131 0.271015
O O1 0.500000 0.401973 0.015317
O O2 0.366608 0.388821 0.152006
O O3 0.404970 0.278263 0.023919
O O4 0.329613 0.401239 0.944313
O O5 0.869246 0.095647 0.377610
O O6 0.863990 0.229393 0.286044
O O7 0.000000 0.141158 0.264262
O O8 0.123779 0.500000 0.487050
O O9 0.162040 0.633687 0.576815
O O10 0.133710 0.628070 0.369585
O O11 0.000000 0.602545 0.497283
O O12 0.250000 0.250000 0.668164
O O13 0.253294 0.114355 0.759240
O O14 0.167473 0.137475 0.576586
O O15 0.250000 0.750000 0.052234
O O16 0.137347 0.661054 0.151155
O O17 0.168843 0.645941 0.942677
O O18 0.791719 0.500000 0.889018
O O19 0.000000 0.886013 0.510011
O O20 0.107773 0.000000 0.535954
O O21 0.000000 0.318014 0.270397
#
# Coordination Sequence:
#
# PCOD9349723 Si02
#       8
#     8   8   8   8   8   8   8   8
#     4   9  18  35  60  85 111 148 190 229 271 325
#     4   8  15  30  53  83 118 153 187 222 267 332
#     4  10  22  40  61  86 117 151 189 236 288 341
#     4  12  25  42  63  82 108 151 199 243 284 335
#     4   9  18  34  55  81 113 150 188 226 271 327
#     4  11  24  40  56  79 113 147 185 234 284 338
#     4  10  21  37  59  90 125 153 182 230 290 346
#     4   9  17  32  56  85 115 146 185 232 278 329
#
# _framework density 19.636119999999998
#
# number of rings (size 3 to 8) (size 9 to 14) (size 15 to 20)
#    0.000    2.250    0.000    4.125    0.000    6.750 
#    0.000    3.750    0.000    2.625    0.000    0.000 
#    0.000    0.000    0.000    0.000    0.000    0.000 
#
# Total GULP energy -178623.939564 kJ/mol
# GULP energy per Si atom -5581.998111 kJ/mol
# Density = 1.959143 g / cm^3
# Si number density = 19.636120 Si / 1000 Ang^3
#
#
#
# Elastic Constant Matrix: (Units=GPa)
#
#
# Indices 1 2 3 4 5 6 
#
# 1 39.9749 11.2389 12.5025 0.0000 0.0000 0.0000
# 2 11.2389 63.4159 29.7953 0.0000 0.0000 0.0000
# 3 12.5025 29.7953 116.3785 0.0000 0.0000 0.0000
# 4 0.0000 0.0000 0.0000 841.2341 0.0000 0.0000
# 5 0.0000 0.0000 0.0000 0.0000 -330.3844 0.0000
# 6 0.0000 0.0000 0.0000 0.0000 0.0000 17.0889
#
#
#
# Elastic Compliance Matrix: (Units=1/GPa)
#
#
# Indices 1 2 3 4 5 6 
#
# 1 0.026685 -0.003845 -0.001882 0.000000 0.000000 0.000000
# 2 -0.003845 0.018479 -0.004318 0.000000 0.000000 0.000000
# 3 -0.001882 -0.004318 0.009900 0.000000 0.000000 0.000000
# 4 0.000000 0.000000 0.000000 0.001189 0.000000 0.000000
# 5 0.000000 0.000000 0.000000 0.000000 -0.003027 0.000000
# 6 0.000000 0.000000 0.000000 0.000000 0.000000 0.058518
#
#
# Mechanical properties :
#
#
# Convention : Reuss Voigt Hill
#
# Bulk Modulus (GPa) = 28.59246 36.31588 32.45417
# Shear Modulus (GPa) = 34.84489 116.66990 75.75740
#
# Velocity S-wave (km/s) = 4.21709 7.71654 6.21807
# Velocity P-wave (km/s) = 6.18907 9.89585 8.25325
#
# Compressibility (1/GPa) = 0.03497425
#
# Stress axis : x y z
#
# Youngs Moduli (GPa) = 37.47367 54.11520 101.00630
#
# Poissons Ratio (x) = 0.20807 0.19014
# Poissons Ratio (y) = 0.14408 0.43614
# Poissons Ratio (z) = 0.07054 0.23367
#
# Static dielectric constant tensor:
#      x y z
#    x 1.728990 0.000000 0.000000 
#    y 0.000000 1.630580 0.000000 
#    z 0.000000 0.000000 1.673130 
# 
# From -- ./inp_files/13152.got.cif
#   From: 2010.05.17/outbox.cif.g08.bks.cpg/sg35_7_cif.got.tgz:13152.got - 2010.06.03 17:29:28.
