data_PCOD9349101
_publ_section_title
;
Structure prediction by ZEFSAII (Michael W. Deem and Ramdas Pophale) SiO2 
 PCOD9349101
Probable space group: C M M 2
;
_chemical_formula_sum "Si O2"
_cell_formula_units_Z 48
_cell_length_a 13.815217
_cell_length_b 14.189591
_cell_length_c 11.773964
_cell_angle_alpha 90.000000
_cell_angle_beta 90.000000
_cell_angle_gamma 90.000000
_cell_volume 2308.076994
_symmetry_space_group_name_H-M "C M M 2"
_symmetry_group_IT_number 35
_symmetry_cell_setting 'orthorhombic'
loop_
_space_group_symop_operation_xyz
x,y,z
-x,-y,z
-x,y,z
x,-y,z
1/2+x,1/2+y,z
1/2-x,1/2-y,z
1/2-x,1/2+y,z
1/2+x,1/2-y,z
loop_
_atom_site_type_symbol
_atom_site_label
_atom_site_fract_x
_atom_site_fract_y
_atom_site_fract_z
Si Si1 0.751057 0.888235 0.076980
Si Si2 0.115528 0.899848 0.616468
Si Si3 0.885740 0.262775 0.195709
Si Si4 0.384029 0.806844 0.623165
Si Si5 0.741335 0.893086 0.815243
Si Si6 0.617563 0.103201 0.395662
O O1 0.826699 0.828332 0.152987
O O2 0.646418 0.847208 0.111532
O O3 0.760058 0.000000 0.092895
O O4 0.763160 0.865637 0.943745
O O5 0.141261 0.796281 0.572575
O O6 0.160711 0.897643 0.742047
O O7 0.000000 0.901474 0.619577
O O8 0.146884 0.000000 0.562770
O O9 0.855924 0.308686 0.316505
O O10 0.000000 0.244988 0.195153
O O11 0.500000 0.811107 0.639129
O O12 0.330688 0.829251 0.740799
O O13 0.354921 0.880822 0.526432
O O14 0.700593 0.000000 0.817928
O O15 0.500000 0.101903 0.392722
O O16 0.651683 0.000000 0.355440
#
# Coordination Sequence:
#
# PCOD9349101 Si02
#       6
#     8   8   8   8   8   8
#     4  10  23  41  60  88 126 160 202 258 308 363
#     4   9  19  35  53  77 114 157 196 232 282 353
#     4  10  22  40  64  88 117 161 210 254 305 362
#     4  10  20  34  59  90 120 153 196 247 303 367
#     4  10  21  37  56  82 118 155 191 241 301 360
#     4   9  18  36  61  88 118 154 200 254 308 361
#
# _framework density 20.796533
#
# number of rings (size 3 to 8) (size 9 to 14) (size 15 to 20)
#    0.000    2.333    0.000    1.500    4.667    3.667 
#    6.000    4.167    0.000    3.000    0.000    0.000 
#    0.000    0.000    0.000    0.000    0.000    0.000 
#
# Total GULP energy -133752.772199 kJ/mol
# GULP energy per Si atom -5573.032175 kJ/mol
# Density = 2.074920 g / cm^3
# Si number density = 20.796533 Si / 1000 Ang^3
#
#
#
# Elastic Constant Matrix: (Units=GPa)
#
#
# Indices 1 2 3 4 5 6 
#
# 1 66.3256 34.4121 12.4561 0.0000 0.0000 0.0000
# 2 34.4121 163.3898 38.9581 0.0000 0.0000 0.0000
# 3 12.4561 38.9581 74.1501 0.0000 0.0000 0.0000
# 4 0.0000 0.0000 0.0000 29.8035 0.0000 0.0000
# 5 0.0000 0.0000 0.0000 0.0000 18.9489 0.0000
# 6 0.0000 0.0000 0.0000 0.0000 0.0000 28.8178
#
#
#
# Elastic Compliance Matrix: (Units=1/GPa)
#
#
# Indices 1 2 3 4 5 6 
#
# 1 0.017007 -0.003316 -0.001115 0.000000 0.000000 0.000000
# 2 -0.003316 0.007643 -0.003459 0.000000 0.000000 0.000000
# 3 -0.001115 -0.003459 0.015491 0.000000 0.000000 0.000000
# 4 0.000000 0.000000 0.000000 0.033553 0.000000 0.000000
# 5 0.000000 0.000000 0.000000 0.000000 0.052773 0.000000
# 6 0.000000 0.000000 0.000000 0.000000 0.000000 0.034701
#
#
# Mechanical properties :
#
#
# Convention : Reuss Voigt Hill
#
# Bulk Modulus (GPa) = 41.04758 52.83534 46.94146
# Shear Modulus (GPa) = 27.01708 30.05000 28.53354
#
# Velocity S-wave (km/s) = 3.60823 3.80538 3.70812
# Velocity P-wave (km/s) = 6.09423 6.69095 6.39955
#
# Compressibility (1/GPa) = 0.02436197
#
# Stress axis : x y z
#
# Youngs Moduli (GPa) = 58.79940 130.83096 64.55522
#
# Poissons Ratio (x) = 0.43385 0.07196
# Poissons Ratio (y) = 0.19499 0.22328
# Poissons Ratio (z) = 0.06554 0.45251
#
# Static dielectric constant tensor:
#      x y z
#    x 1.750820 0.000000 0.000000 
#    y 0.000000 1.821020 0.000000 
#    z 0.000000 0.000000 1.733320 
# 
# From -- ./inp_files/12870.got.cif
#   From: 2010.05.17/outbox.cif.g08.bks.cpg/sg35_7_cif.got.tgz:12870.got - 2010.06.03 17:29:28.
