data_PCOD9349642
_publ_section_title
;
Structure prediction by ZEFSAII (Michael W. Deem and Ramdas Pophale) SiO2 
 PCOD9349642
Probable space group: C M M 2
;
_chemical_formula_sum "Si O2"
_cell_formula_units_Z 40
_cell_length_a 27.132432
_cell_length_b 14.082381
_cell_length_c 5.169566
_cell_angle_alpha 90.000000
_cell_angle_beta 90.000000
_cell_angle_gamma 90.000000
_cell_volume 1975.235569
_symmetry_space_group_name_H-M "C M M 2"
_symmetry_group_IT_number 35
_symmetry_cell_setting 'orthorhombic'
loop_
_space_group_symop_operation_xyz
x,y,z
-x,-y,z
-x,y,z
x,-y,z
1/2+x,1/2+y,z
1/2-x,1/2-y,z
1/2-x,1/2+y,z
1/2+x,1/2-y,z
loop_
_atom_site_type_symbol
_atom_site_label
_atom_site_fract_x
_atom_site_fract_y
_atom_site_fract_z
Si Si1 0.922653 0.109492 0.115460
Si Si2 0.184560 0.891618 0.902095
Si Si3 0.292631 0.888133 0.107564
Si Si4 0.946042 0.771086 0.611734
Si Si5 0.661108 0.793867 0.606724
O O1 0.939671 0.150618 0.387316
O O2 0.937099 0.000000 0.082637
O O3 0.863316 0.114641 0.084752
O O4 0.942539 0.175009 0.885165
O O5 0.176665 0.813604 0.680993
O O6 0.186982 0.000000 0.800423
O O7 0.234905 0.871428 0.052099
O O8 0.313162 0.829905 0.348640
O O9 0.299319 0.000000 0.155798
O O10 0.320888 0.856206 0.848903
O O11 0.898146 0.704959 0.585670
O O12 0.000000 0.725922 0.586316
#
# Coordination Sequence:
#
# PCOD9349642 Si02
#       5
#     8   8   8   8   8
#     4  10  21  36  55  84 122 159 197 237 284 356
#     4   9  21  39  61  93 128 161 193 233 292 365
#     4  11  24  42  65  91 122 159 203 250 298 355
#     4  11  23  38  57  82 114 156 202 251 303 348
#     4  11  23  41  63  89 121 160 202 249 300 353
#
# _framework density 20.250747
#
# number of rings (size 3 to 8) (size 9 to 14) (size 15 to 20)
#    0.000    1.600    0.000    4.800    0.000   11.200 
#    0.000   13.000    0.000    4.800    0.000    0.000 
#    0.000    0.000    0.000    0.000    0.000    0.000 
#
# Total GULP energy -111929.050757 kJ/mol
# GULP energy per Si atom -5596.452538 kJ/mol
# Density = 2.020466 g / cm^3
# Si number density = 20.250747 Si / 1000 Ang^3
#
#
#
# Elastic Constant Matrix: (Units=GPa)
#
#
# Indices 1 2 3 4 5 6 
#
# 1 189.0234 54.1569 40.5968 0.0000 0.0000 0.0000
# 2 54.1569 59.2369 13.1583 0.0000 0.0000 0.0000
# 3 40.5968 13.1583 65.6051 0.0000 0.0000 0.0000
# 4 0.0000 0.0000 0.0000 21.7139 0.0000 0.0000
# 5 0.0000 0.0000 0.0000 0.0000 -0.7185 0.0000
# 6 0.0000 0.0000 0.0000 0.0000 0.0000 109.6971
#
#
#
# Elastic Compliance Matrix: (Units=1/GPa)
#
#
# Indices 1 2 3 4 5 6 
#
# 1 0.007906 -0.006427 -0.003603 0.000000 0.000000 0.000000
# 2 -0.006427 0.022894 -0.000615 0.000000 0.000000 0.000000
# 3 -0.003603 -0.000615 0.017595 0.000000 0.000000 0.000000
# 4 0.000000 0.000000 0.000000 0.046054 0.000000 0.000000
# 5 0.000000 0.000000 0.000000 0.000000 -1.391882 0.000000
# 6 0.000000 0.000000 0.000000 0.000000 0.000000 0.009116
#
#
# Mechanical properties :
#
#
# Convention : Reuss Voigt Hill
#
# Bulk Modulus (GPa) = 36.89288 58.85438 47.87363
# Shear Modulus (GPa) = -3.97459 39.86874 17.94708
#
# Velocity S-wave (km/s) = -1.40248 4.44188 2.98021
# Velocity P-wave (km/s) = 3.95411 7.44533 5.96104
#
# Compressibility (1/GPa) = 0.02710550
#
# Stress axis : x y z
#
# Youngs Moduli (GPa) = 126.49177 43.67951 56.83275
#
# Poissons Ratio (x) = 0.28074 0.20476
# Poissons Ratio (y) = 0.81301 0.03493
# Poissons Ratio (z) = 0.45574 0.02684
#
# Static dielectric constant tensor:
#      x y z
#    x 1.758570 0.000000 0.000000 
#    y 0.000000 1.707980 0.000000 
#    z 0.000000 0.000000 1.684890 
# 
# From -- ./inp_files/3329.got.cif
#   From: 2010.05.17/outbox.cif.g08.bks.cpg/sg35_2_cif.got.tgz:3329.got - 2010.06.03 17:29:28.
