data_PCOD9349918
_publ_section_title
;
Structure prediction by ZEFSAII (Michael W. Deem and Ramdas Pophale) SiO2 
 PCOD9349918
Probable space group: C M M 2
;
_chemical_formula_sum "Si O2"
_cell_formula_units_Z 48
_cell_length_a 15.714071
_cell_length_b 18.246425
_cell_length_c 7.962151
_cell_angle_alpha 90.000000
_cell_angle_beta 90.000000
_cell_angle_gamma 90.000000
_cell_volume 2282.952666
_symmetry_space_group_name_H-M "C M M 2"
_symmetry_group_IT_number 35
_symmetry_cell_setting 'orthorhombic'
loop_
_space_group_symop_operation_xyz
x,y,z
-x,-y,z
-x,y,z
x,-y,z
1/2+x,1/2+y,z
1/2-x,1/2-y,z
1/2-x,1/2+y,z
1/2+x,1/2-y,z
loop_
_atom_site_type_symbol
_atom_site_label
_atom_site_fract_x
_atom_site_fract_y
_atom_site_fract_z
Si Si1 0.594985 0.000000 0.975870
Si Si2 0.147701 0.820108 0.099950
Si Si3 0.402862 0.000000 0.579342
Si Si4 0.150436 0.341849 0.101239
Si Si5 0.101928 0.917747 0.784884
Si Si6 0.602180 0.312701 0.490515
Si Si7 0.401460 0.846698 0.479837
O O1 0.500000 0.000000 0.051579
O O2 0.589235 0.000000 0.776909
O O3 0.635307 0.921294 0.020826
O O4 0.122662 0.738375 0.032154
O O5 0.248823 0.830625 0.116501
O O6 0.116790 0.828723 0.292900
O O7 0.117407 0.877631 0.961523
O O8 0.360218 0.923540 0.530173
O O9 0.500000 0.000000 0.504330
O O10 0.103848 0.345005 0.279712
O O11 0.134908 0.871085 0.625650
O O12 0.000000 0.922546 0.764115
O O13 0.137593 0.000000 0.786441
O O14 0.500000 0.308557 0.509208
O O15 0.636773 0.231192 0.533281
O O16 0.500000 0.848921 0.538890
#
# Coordination Sequence:
#
# PCOD9349918 Si02
#       7
#     4   8   4   8   8   8   8
#     4  11  23  37  59  91 124 159 202 251 296 354
#     4  10  22  41  60  88 123 159 201 244 300 362
#     4   9  19  33  53  85 117 149 196 247 295 346
#     4  10  22  39  57  86 120 160 201 242 297 361
#     4  10  22  39  61  89 118 151 195 249 302 353
#     4   9  19  37  62  88 114 151 199 247 299 357
#     4   9  17  34  58  83 114 153 197 247 295 349
#
# _framework density 21.025403000000001
#
# number of rings (size 3 to 8) (size 9 to 14) (size 15 to 20)
#    0.000    2.333    0.000    1.500    3.500    3.333 
#    3.000    3.333    0.000    0.000    0.000    0.000 
#    0.000    0.000    0.000    0.000    0.000    0.000 
#
# Total GULP energy -133695.530180 kJ/mol
# GULP energy per Si atom -5570.647091 kJ/mol
# Density = 2.097755 g / cm^3
# Si number density = 21.025403 Si / 1000 Ang^3
#
#
#
# Elastic Constant Matrix: (Units=GPa)
#
#
# Indices 1 2 3 4 5 6 
#
# 1 27.9230 19.8860 -5.3035 0.0000 0.0000 0.0000
# 2 19.8860 248.0138 94.5111 0.0000 0.0000 0.0000
# 3 -5.3035 94.5111 79.1328 0.0000 0.0000 0.0000
# 4 0.0000 0.0000 0.0000 37.3827 0.0000 0.0000
# 5 0.0000 0.0000 0.0000 0.0000 -182.6844 0.0000
# 6 0.0000 0.0000 0.0000 0.0000 0.0000 -271.2940
#
#
#
# Elastic Compliance Matrix: (Units=1/GPa)
#
#
# Indices 1 2 3 4 5 6 
#
# 1 0.044484 -0.008631 0.013290 0.000000 0.000000 0.000000
# 2 -0.008631 0.009075 -0.011417 0.000000 0.000000 0.000000
# 3 0.013290 -0.011417 0.027163 0.000000 0.000000 0.000000
# 4 0.000000 0.000000 0.000000 0.026750 0.000000 0.000000
# 5 0.000000 0.000000 0.000000 0.000000 -0.005474 0.000000
# 6 0.000000 0.000000 0.000000 0.000000 0.000000 -0.003686
#
#
# Mechanical properties :
#
#
# Convention : Reuss Voigt Hill
#
# Bulk Modulus (GPa) = 14.87979 63.69521 39.28750
# Shear Modulus (GPa) = 37.24970 -66.92072 -14.83551
#
# Velocity S-wave (km/s) = 4.21367 -5.64780 -2.65919
# Velocity P-wave (km/s) = 5.54669 3.48855 3.04924
#
# Compressibility (1/GPa) = 0.06720526
#
# Stress axis : x y z
#
# Youngs Moduli (GPa) = 22.48013 110.19751 36.81498
#
# Poissons Ratio (x) = 0.95112 -0.48926
# Poissons Ratio (y) = 0.19403 0.42030
# Poissons Ratio (z) = -0.29875 1.25808
#
# Static dielectric constant tensor:
#      x y z
#    x 1.775650 0.000000 0.000000 
#    y 0.000000 1.855110 0.000000 
#    z 0.000000 0.000000 1.712720 
# 
# From -- ./inp_files/8383.got.cif
#   From: 2010.05.17/outbox.cif.g08.bks.cpg/sg35_5_cif.got.tgz:8383.got - 2010.06.03 17:29:28.
