data_PCOD9349790
_publ_section_title
;
Structure prediction by ZEFSAII (Michael W. Deem and Ramdas Pophale) SiO2 
 PCOD9349790
Probable space group: C M M 2
;
_chemical_formula_sum "Si O2"
_cell_formula_units_Z 64
_cell_length_a 17.322241
_cell_length_b 14.716118
_cell_length_c 11.524710
_cell_angle_alpha 90.000000
_cell_angle_beta 90.000000
_cell_angle_gamma 90.000000
_cell_volume 2937.834618
_symmetry_space_group_name_H-M "C M M 2"
_symmetry_group_IT_number 35
_symmetry_cell_setting 'orthorhombic'
loop_
_space_group_symop_operation_xyz
x,y,z
-x,-y,z
-x,y,z
x,-y,z
1/2+x,1/2+y,z
1/2-x,1/2-y,z
1/2-x,1/2+y,z
1/2+x,1/2-y,z
loop_
_atom_site_type_symbol
_atom_site_label
_atom_site_fract_x
_atom_site_fract_y
_atom_site_fract_z
Si Si1 0.821228 0.678185 0.384970
Si Si2 0.589860 0.711443 0.090281
Si Si3 0.089587 0.153784 0.326678
Si Si4 0.816742 0.894116 0.929544
Si Si5 0.092239 0.094168 0.565932
Si Si6 0.591699 0.106590 0.611462
Si Si7 0.670616 0.261209 0.718087
Si Si8 0.815571 0.604899 0.127338
O O1 0.750000 0.750000 0.397327
O O2 0.895939 0.741136 0.356467
O O3 0.852245 0.626413 0.499647
O O4 0.802680 0.622187 0.266354
O O5 0.500000 0.727583 0.108266
O O6 0.620495 0.649470 0.197487
O O7 0.631335 0.808978 0.090384
O O8 0.605000 0.649508 0.979629
O O9 0.124308 0.101566 0.435419
O O10 0.000000 0.128393 0.321959
O O11 0.801865 0.824266 0.824862
O O12 0.822059 0.000000 0.897152
O O13 0.754519 0.886938 0.034224
O O14 0.115177 0.177982 0.641255
O O15 0.000000 0.093470 0.558212
O O16 0.119476 0.000000 0.619472
O O17 0.500000 0.129122 0.590678
O O18 0.626385 0.165445 0.718912
O O19 0.595442 0.000000 0.636491
O O20 0.750000 0.250000 0.649682
O O21 0.844158 0.500000 0.115997
#
# Coordination Sequence:
#
# PCOD9349790 Si02
#       8
#     8   8   8   8   8   8   8   8
#     4  11  20  36  63  97 133 176 222 277 337 394
#     4  10  21  38  63  97 134 170 219 280 335 393
#     4   9  18  34  57  87 131 175 207 257 328 393
#     4  11  25  46  70  95 127 175 229 283 339 402
#     4  10  21  38  62  92 126 169 218 268 329 398
#     4  11  25  44  66  97 139 184 228 277 340 413
#     4  12  25  44  67  93 129 172 221 280 335 392
#     4  10  21  40  66  97 135 180 227 274 334 407
#
# _framework density 21.784754
#
# number of rings (size 3 to 8) (size 9 to 14) (size 15 to 20)
#    0.000    1.500    1.250    4.500    0.000    3.500 
#    0.000    2.500    0.000    0.000    0.000    0.000 
#    0.000    0.000    0.000    0.000    0.000    0.000 
#
# Total GULP energy -178159.687631 kJ/mol
# GULP energy per Si atom -5567.490238 kJ/mol
# Density = 2.173517 g / cm^3
# Si number density = 21.784754 Si / 1000 Ang^3
#
#
#
# Elastic Constant Matrix: (Units=GPa)
#
#
# Indices 1 2 3 4 5 6 
#
# 1 77.4744 51.1145 27.8134 0.0000 0.0000 0.0000
# 2 51.1145 126.5198 51.5151 0.0000 0.0000 0.0000
# 3 27.8134 51.5151 74.6819 0.0000 0.0000 0.0000
# 4 0.0000 0.0000 0.0000 22.1879 0.0000 0.0000
# 5 0.0000 0.0000 0.0000 0.0000 305.3322 0.0000
# 6 0.0000 0.0000 0.0000 0.0000 0.0000 18.6056
#
#
#
# Elastic Compliance Matrix: (Units=1/GPa)
#
#
# Indices 1 2 3 4 5 6 
#
# 1 0.017885 -0.006276 -0.002332 0.000000 0.000000 0.000000
# 2 -0.006276 0.013193 -0.006763 0.000000 0.000000 0.000000
# 3 -0.002332 -0.006763 0.018924 0.000000 0.000000 0.000000
# 4 0.000000 0.000000 0.000000 0.045070 0.000000 0.000000
# 5 0.000000 0.000000 0.000000 0.000000 0.003275 0.000000
# 6 0.000000 0.000000 0.000000 0.000000 0.000000 0.053747
#
#
# Mechanical properties :
#
#
# Convention : Reuss Voigt Hill
#
# Bulk Modulus (GPa) = 51.92074 59.95134 55.93604
# Shear Modulus (GPa) = 26.41910 79.10734 52.76322
#
# Velocity S-wave (km/s) = 3.48621 6.03258 4.92675
# Velocity P-wave (km/s) = 6.33168 8.72366 7.62209
#
# Compressibility (1/GPa) = 0.01926013
#
# Stress axis : x y z
#
# Youngs Moduli (GPa) = 55.91133 75.79540 52.84391
#
# Poissons Ratio (x) = 0.47573 0.12321
# Poissons Ratio (y) = 0.35093 0.35740
# Poissons Ratio (z) = 0.13036 0.51262
#
# Static dielectric constant tensor:
#      x y z
#    x 1.243560 0.000000 0.000000 
#    y 0.000000 1.784460 0.000000 
#    z 0.000000 0.000000 1.879460 
# 
# From -- ./inp_files/13616.got.cif
#   From: 2010.05.17/outbox.cif.g08.bks.cpg/sg35_7_cif.got.tgz:13616.got - 2010.06.03 17:29:28.
