data_PCOD9349640
_publ_section_title
;
Structure prediction by ZEFSAII (Michael W. Deem and Ramdas Pophale) SiO2 
 PCOD9349640
Probable space group: C M M 2
;
_chemical_formula_sum "Si O2"
_cell_formula_units_Z 64
_cell_length_a 15.081994
_cell_length_b 24.675767
_cell_length_c 9.518683
_cell_angle_alpha 90.000000
_cell_angle_beta 90.000000
_cell_angle_gamma 90.000000
_cell_volume 3542.470874
_symmetry_space_group_name_H-M "C M M 2"
_symmetry_group_IT_number 35
_symmetry_cell_setting 'orthorhombic'
loop_
_space_group_symop_operation_xyz
x,y,z
-x,-y,z
-x,y,z
x,-y,z
1/2+x,1/2+y,z
1/2-x,1/2-y,z
1/2-x,1/2+y,z
1/2+x,1/2-y,z
loop_
_atom_site_type_symbol
_atom_site_label
_atom_site_fract_x
_atom_site_fract_y
_atom_site_fract_z
Si Si1 0.850818 0.730822 0.194530
Si Si2 0.895490 0.565033 0.009401
Si Si3 0.100663 0.164874 0.358724
Si Si4 0.639190 0.129283 0.730255
Si Si5 0.286529 0.882918 0.257694
Si Si6 0.301817 0.303748 0.639220
Si Si7 0.405020 0.938560 0.469777
Si Si8 0.096930 0.258229 0.872307
O O1 0.750000 0.750000 0.184335
O O2 0.900254 0.776972 0.280648
O O3 0.843262 0.672945 0.269820
O O4 0.882458 0.728334 0.033722
O O5 0.890776 0.500000 0.020205
O O6 0.822697 0.592271 0.112027
O O7 0.000000 0.580505 0.036237
O O8 0.869895 0.586547 0.855459
O O9 0.182792 0.131650 0.285030
O O10 0.130541 0.176932 0.519365
O O11 0.000000 0.142201 0.351429
O O12 0.736122 0.147603 0.677591
O O13 0.594209 0.103191 0.596241
O O14 0.599875 0.185421 0.788068
O O15 0.322903 0.924133 0.372717
O O16 0.250000 0.250000 0.581113
O O17 0.340381 0.282325 0.787153
O O18 0.500000 0.934794 0.391453
O O19 0.397705 0.000000 0.522521
O O20 0.000000 0.233713 0.866785
#
# Coordination Sequence:
#
# PCOD9349640 Si02
#       8
#     8   8   8   8   8   8   8   8
#     4  10  21  36  55  82 117 152 187 233 282 343
#     4  11  23  39  61  90 121 152 191 237 290 354
#     4  11  23  39  59  86 116 154 201 243 285 338
#     4  11  21  37  58  84 119 155 186 231 290 346
#     4  11  22  39  60  85 120 156 191 237 293 344
#     4  10  21  37  55  83 119 158 192 235 280 344
#     4  11  23  38  58  86 116 149 194 240 288 350
#     4  11  21  33  54  86 119 155 193 230 280 345
#
# _framework density 18.066485
#
# number of rings (size 3 to 8) (size 9 to 14) (size 15 to 20)
#    0.000    1.250    2.500    5.250    3.500    3.500 
#    0.000    0.000    0.000    1.500    0.000    0.000 
#    0.000    0.000    0.000    0.000    0.000    0.000 
#
# Total GULP energy -178390.878427 kJ/mol
# GULP energy per Si atom -5574.714951 kJ/mol
# Density = 1.802537 g / cm^3
# Si number density = 18.066485 Si / 1000 Ang^3
#
#
#
# Elastic Constant Matrix: (Units=GPa)
#
#
# Indices 1 2 3 4 5 6 
#
# 1 119.6236 30.2649 27.5703 0.0000 0.0000 0.0000
# 2 30.2649 56.3389 0.0994 0.0000 0.0000 0.0000
# 3 27.5703 0.0994 61.9950 0.0000 0.0000 0.0000
# 4 0.0000 0.0000 0.0000 20.8507 0.0000 0.0000
# 5 0.0000 0.0000 0.0000 0.0000 -16.5661 0.0000
# 6 0.0000 0.0000 0.0000 0.0000 0.0000 21.3418
#
#
#
# Elastic Compliance Matrix: (Units=1/GPa)
#
#
# Indices 1 2 3 4 5 6 
#
# 1 0.010971 -0.005885 -0.004869 0.000000 0.000000 0.000000
# 2 -0.005885 0.020906 0.002584 0.000000 0.000000 0.000000
# 3 -0.004869 0.002584 0.018292 0.000000 0.000000 0.000000
# 4 0.000000 0.000000 0.000000 0.047960 0.000000 0.000000
# 5 0.000000 0.000000 0.000000 0.000000 -0.060364 0.000000
# 6 0.000000 0.000000 0.000000 0.000000 0.000000 0.046856
#
#
# Mechanical properties :
#
#
# Convention : Reuss Voigt Hill
#
# Bulk Modulus (GPa) = 29.56174 39.31407 34.43791
# Shear Modulus (GPa) = 44.54819 17.12682 30.83751
#
# Velocity S-wave (km/s) = 4.97106 3.08228 4.13593
# Velocity P-wave (km/s) = 7.02473 5.87157 6.47388
#
# Compressibility (1/GPa) = 0.03382751
#
# Stress axis : x y z
#
# Youngs Moduli (GPa) = 91.15198 47.83216 54.66960
#
# Poissons Ratio (x) = 0.28148 0.26621
# Poissons Ratio (y) = 0.53641 -0.14124
# Poissons Ratio (z) = 0.44386 -0.12358
#
# Static dielectric constant tensor:
#      x y z
#    x 1.659260 0.000000 0.000000 
#    y 0.000000 1.609020 0.000000 
#    z 0.000000 0.000000 1.651850 
# 
# From -- ./inp_files/7835.got.cif
#   From: 2010.05.17/outbox.cif.g08.bks.cpg/sg35_4_cif.got.tgz:7835.got - 2010.06.03 17:29:28.
