data_PCOD9349961
_publ_section_title
;
Structure prediction by ZEFSAII (Michael W. Deem and Ramdas Pophale) SiO2 
 PCOD9349961
Probable space group: C M M 2
;
_chemical_formula_sum "Si O2"
_cell_formula_units_Z 58
_cell_length_a 16.378535
_cell_length_b 26.485422
_cell_length_c 7.062715
_cell_angle_alpha 90.000000
_cell_angle_beta 90.000000
_cell_angle_gamma 90.000000
_cell_volume 3063.752170
_symmetry_space_group_name_H-M "C M M 2"
_symmetry_group_IT_number 35
_symmetry_cell_setting 'orthorhombic'
loop_
_space_group_symop_operation_xyz
x,y,z
-x,-y,z
-x,y,z
x,-y,z
1/2+x,1/2+y,z
1/2-x,1/2-y,z
1/2-x,1/2+y,z
1/2+x,1/2-y,z
loop_
_atom_site_type_symbol
_atom_site_label
_atom_site_fract_x
_atom_site_fract_y
_atom_site_fract_z
Si Si1 0.595441 0.260644 0.296640
Si Si2 0.771147 0.100828 0.524471
Si Si3 0.807176 0.056706 0.933893
Si Si4 0.695568 0.205992 0.631146
Si Si5 0.597013 0.621543 0.225796
Si Si6 0.000000 0.500000 0.196404
Si Si7 0.095454 0.676089 0.991123
Si Si8 0.153968 0.576360 0.196252
O O1 0.500000 0.258559 0.355648
O O2 0.648701 0.234257 0.460104
O O3 0.614303 0.318590 0.246251
O O4 0.604606 0.227559 0.108279
O O5 0.785107 0.073842 0.722980
O O6 0.750259 0.159697 0.558335
O O7 0.851797 0.096446 0.395770
O O8 0.695674 0.079020 0.402718
O O9 0.841903 0.000000 0.936111
O O10 0.866618 0.096917 0.035416
O O11 0.723811 0.056437 0.055298
O O12 0.750000 0.250000 0.723117
O O13 0.636278 0.182343 0.787491
O O14 0.500000 0.614082 0.238080
O O15 0.072522 0.543628 0.195699
O O16 0.134693 0.632170 0.117727
O O17 0.000000 0.664927 0.968330
#
# Coordination Sequence:
#
# PCOD9349961 Si02
#       8
#     8   8   8   8   8   2   8   8
#     4  10  22  40  62  92 132 170 210 269 329 398
#     4  11  24  41  66  96 134 171 219 274 333 405
#     4  11  25  45  67  94 130 173 221 278 338 394
#     4  12  23  36  62  97 132 176 217 261 328 403
#     4  10  24  45  69  96 129 170 218 278 344 402
#     4  12  24  44  70  96 134 178 240 276 324 384
#     4  11  23  39  61  92 133 177 218 263 322 388
#     4  11  23  42  66  94 131 177 221 275 324 385
#
# _framework density 18.931035999999999
#
# number of rings (size 3 to 8) (size 9 to 14) (size 15 to 20)
#    0.000    1.103    5.517    0.414    2.897    1.931 
#    1.241    1.379    0.000    0.000    0.000    0.000 
#    0.000    0.000    0.000    0.000    0.000    0.000 
#
# Total GULP energy -161697.448402 kJ/mol
# GULP energy per Si atom -5575.774083 kJ/mol
# Density = 1.888795 g / cm^3
# Si number density = 18.931036 Si / 1000 Ang^3
#
#
#
# Elastic Constant Matrix: (Units=GPa)
#
#
# Indices 1 2 3 4 5 6 
#
# 1 96.8952 37.6247 45.1429 0.0000 0.0000 0.0000
# 2 37.6247 87.9318 35.0540 0.0000 0.0000 0.0000
# 3 45.1429 35.0540 112.1034 0.0000 0.0000 0.0000
# 4 0.0000 0.0000 0.0000 46.2330 0.0000 0.0000
# 5 0.0000 0.0000 0.0000 0.0000 20.1476 0.0000
# 6 0.0000 0.0000 0.0000 0.0000 0.0000 35.2766
#
#
#
# Elastic Compliance Matrix: (Units=1/GPa)
#
#
# Indices 1 2 3 4 5 6 
#
# 1 0.013979 -0.004270 -0.004294 0.000000 0.000000 0.000000
# 2 -0.004270 0.014296 -0.002751 0.000000 0.000000 0.000000
# 3 -0.004294 -0.002751 0.011510 0.000000 0.000000 0.000000
# 4 0.000000 0.000000 0.000000 0.021630 0.000000 0.000000
# 5 0.000000 0.000000 0.000000 0.000000 0.049634 0.000000
# 6 0.000000 0.000000 0.000000 0.000000 0.000000 0.028347
#
#
# Mechanical properties :
#
#
# Convention : Reuss Voigt Hill
#
# Bulk Modulus (GPa) = 58.29056 59.17483 58.73270
# Shear Modulus (GPa) = 29.80750 32.27203 31.03977
#
# Velocity S-wave (km/s) = 3.97234 4.13330 4.05362
# Velocity P-wave (km/s) = 7.20397 7.35560 7.28018
#
# Compressibility (1/GPa) = 0.01715544
#
# Stress axis : x y z
#
# Youngs Moduli (GPa) = 71.53643 69.94969 86.88294
#
# Poissons Ratio (x) = 0.29865 0.37308
# Poissons Ratio (y) = 0.30543 0.23901
# Poissons Ratio (z) = 0.30718 0.19243
#
# Static dielectric constant tensor:
#      x y z
#    x 1.649460 0.000000 0.000000 
#    y 0.000000 1.663070 0.000000 
#    z 0.000000 0.000000 1.632950 
# 
# From -- ./inp_files/2668.got.cif
#   From: 2010.05.17/outbox.cif.g08.bks.cpg/sg35_2_cif.got.tgz:2668.got - 2010.06.03 17:29:28.
