data_PCOD9349090
_publ_section_title
;
Structure prediction by ZEFSAII (Michael W. Deem and Ramdas Pophale) SiO2 
 PCOD9349090
Probable space group: C M M 2
;
_chemical_formula_sum "Si O2"
_cell_formula_units_Z 36
_cell_length_a 13.786351
_cell_length_b 16.394823
_cell_length_c 8.642632
_cell_angle_alpha 90.000000
_cell_angle_beta 90.000000
_cell_angle_gamma 90.000000
_cell_volume 1953.449035
_symmetry_space_group_name_H-M "C M M 2"
_symmetry_group_IT_number 35
_symmetry_cell_setting 'orthorhombic'
loop_
_space_group_symop_operation_xyz
x,y,z
-x,-y,z
-x,y,z
x,-y,z
1/2+x,1/2+y,z
1/2-x,1/2-y,z
1/2-x,1/2+y,z
1/2+x,1/2-y,z
loop_
_atom_site_type_symbol
_atom_site_label
_atom_site_fract_x
_atom_site_fract_y
_atom_site_fract_z
Si Si1 0.893569 0.651539 0.435150
Si Si2 0.250000 0.750000 0.993262
Si Si3 0.609453 0.689813 0.226978
Si Si4 0.609689 0.730254 0.730644
Si Si5 0.813362 0.907301 0.514053
O O1 0.882742 0.718516 0.298580
O O2 0.894466 0.706214 0.590208
O O3 0.797992 0.598326 0.455947
O O4 0.000000 0.612095 0.419238
O O5 0.336476 0.771345 0.875053
O O6 0.304450 0.684683 0.102494
O O7 0.500000 0.679378 0.166399
O O8 0.625664 0.629726 0.371105
O O9 0.500000 0.706121 0.769569
O O10 0.666817 0.652614 0.659296
O O11 0.839432 0.000000 0.548754
#
# Coordination Sequence:
#
# PCOD9349090 Si02
#       5
#     8   4   8   8   8
#     4   9  17  35  57  77 103 138 192 237 259 303
#     4  12  18  34  58  80 114 134 180 230 272 318
#     4  10  20  34  57  83 105 140 186 228 269 318
#     4  10  20  34  57  83 105 140 186 228 269 318
#     4  11  20  36  57  80 115 146 178 224 272 326
#
# _framework density 18.428941999999999
#
# number of rings (size 3 to 8) (size 9 to 14) (size 15 to 20)
#    0.000    1.778    4.444    4.000    0.000    2.222 
#    0.000    1.111    0.000    2.667    0.000    6.222 
#    0.000    0.000    0.000    0.000    0.000    0.000 
#
# Total GULP energy -100212.220503 kJ/mol
# GULP energy per Si atom -5567.345584 kJ/mol
# Density = 1.838700 g / cm^3
# Si number density = 18.428942 Si / 1000 Ang^3
#
#
#
# Elastic Constant Matrix: (Units=GPa)
#
#
# Indices 1 2 3 4 5 6 
#
# 1 139.4285 18.5200 26.4814 0.0000 0.0000 0.0000
# 2 18.5200 47.6883 8.5818 0.0000 0.0000 0.0000
# 3 26.4814 8.5818 65.7225 0.0000 0.0000 0.0000
# 4 0.0000 0.0000 0.0000 7.7807 0.0000 0.0000
# 5 0.0000 0.0000 0.0000 0.0000 22.3377 0.0000
# 6 0.0000 0.0000 0.0000 0.0000 0.0000 9.2549
#
#
#
# Elastic Compliance Matrix: (Units=1/GPa)
#
#
# Indices 1 2 3 4 5 6 
#
# 1 0.008072 -0.002611 -0.002911 0.000000 0.000000 0.000000
# 2 -0.002611 0.022319 -0.001862 0.000000 0.000000 0.000000
# 3 -0.002911 -0.001862 0.016632 0.000000 0.000000 0.000000
# 4 0.000000 0.000000 0.000000 0.128523 0.000000 0.000000
# 5 0.000000 0.000000 0.000000 0.000000 0.044767 0.000000
# 6 0.000000 0.000000 0.000000 0.000000 0.000000 0.108051
#
#
# Mechanical properties :
#
#
# Convention : Reuss Voigt Hill
#
# Bulk Modulus (GPa) = 31.00482 40.00063 35.50273
# Shear Modulus (GPa) = 14.12896 21.15841 17.64368
#
# Velocity S-wave (km/s) = 2.77189 3.39205 3.09753
# Velocity P-wave (km/s) = 5.20625 6.09047 5.66563
#
# Compressibility (1/GPa) = 0.03225305
#
# Stress axis : x y z
#
# Youngs Moduli (GPa) = 123.88666 44.80569 60.12591
#
# Poissons Ratio (x) = 0.11698 0.17505
# Poissons Ratio (y) = 0.32345 0.11197
# Poissons Ratio (z) = 0.36069 0.08344
#
# Static dielectric constant tensor:
#      x y z
#    x 1.707370 0.000000 0.000000 
#    y 0.000000 1.602230 0.000000 
#    z 0.000000 0.000000 1.652980 
# 
# From -- ./inp_files/6896.got.cif
#   From: 2010.05.17/outbox.cif.g08.bks.cpg/sg35_4_cif.got.tgz:6896.got - 2010.06.03 17:29:28.
