data_PCOD9349409
_publ_section_title
;
Structure prediction by ZEFSAII (Michael W. Deem and Ramdas Pophale) SiO2 
 PCOD9349409
Probable space group: C M M 2
;
_chemical_formula_sum "Si O2"
_cell_formula_units_Z 64
_cell_length_a 24.002867
_cell_length_b 14.547478
_cell_length_c 8.254259
_cell_angle_alpha 90.000000
_cell_angle_beta 90.000000
_cell_angle_gamma 90.000000
_cell_volume 2882.231895
_symmetry_space_group_name_H-M "C M M 2"
_symmetry_group_IT_number 35
_symmetry_cell_setting 'orthorhombic'
loop_
_space_group_symop_operation_xyz
x,y,z
-x,-y,z
-x,y,z
x,-y,z
1/2+x,1/2+y,z
1/2-x,1/2-y,z
1/2-x,1/2+y,z
1/2+x,1/2-y,z
loop_
_atom_site_type_symbol
_atom_site_label
_atom_site_fract_x
_atom_site_fract_y
_atom_site_fract_z
Si Si1 0.936523 0.111137 0.657790
Si Si2 0.690563 0.741613 0.122151
Si Si3 0.128888 0.395427 0.572959
Si Si4 0.743195 0.359746 0.541690
Si Si5 0.562002 0.111766 0.260366
Si Si6 0.864089 0.894311 0.339656
Si Si7 0.126435 0.389958 0.943767
Si Si8 0.670753 0.603700 0.851297
O O1 0.907026 0.127982 0.484372
O O2 0.890170 0.137971 0.791172
O O3 0.000000 0.146526 0.671605
O O4 0.939282 0.000000 0.670107
O O5 0.750000 0.750000 0.210216
O O6 0.640200 0.690803 0.216490
O O7 0.675034 0.837784 0.040504
O O8 0.698001 0.670571 0.977728
O O9 0.108128 0.500000 0.587643
O O10 0.194283 0.395449 0.532778
O O11 0.099654 0.355468 0.412331
O O12 0.121022 0.356917 0.756478
O O13 0.750000 0.250000 0.555958
O O14 0.699328 0.392096 0.406961
O O15 0.712115 0.395781 0.700543
O O16 0.500000 0.143913 0.293533
O O17 0.577338 0.130962 0.072580
O O18 0.564461 0.000000 0.266760
O O19 0.875799 0.000000 0.285012
O O20 0.135616 0.500000 0.938347
O O21 0.664848 0.500000 0.913054
#
# Coordination Sequence:
#
# PCOD9349409 Si02
#       8
#     8   8   8   8   8   8   8   8
#     4   8  16  36  65  91 118 160 206 254 316 378
#     4  12  25  39  57  89 124 166 208 257 320 385
#     4  10  20  36  62  90 118 159 210 254 310 380
#     4  11  21  35  57  87 126 163 204 256 311 375
#     4   9  20  39  63  89 118 158 208 261 318 381
#     4  10  22  38  59  88 125 166 210 259 314 382
#     4  10  23  42  63  89 124 163 208 264 321 380
#     4  10  20  37  61  89 126 163 204 256 313 383
#
# _framework density 22.205013000000001
#
# number of rings (size 3 to 8) (size 9 to 14) (size 15 to 20)
#    0.000    2.000    0.000    4.500    3.500    2.500 
#    0.000    4.375    0.000    3.000    0.000    0.000 
#    0.000    0.000    0.000    0.000    0.000    0.000 
#
# Total GULP energy -178378.901088 kJ/mol
# GULP energy per Si atom -5574.340659 kJ/mol
# Density = 2.215447 g / cm^3
# Si number density = 22.205013 Si / 1000 Ang^3
#
#
#
# Elastic Constant Matrix: (Units=GPa)
#
#
# Indices 1 2 3 4 5 6 
#
# 1 128.0626 -5.9629 24.0052 0.0000 0.0000 0.0000
# 2 -5.9629 85.4850 1.3824 0.0000 0.0000 0.0000
# 3 24.0052 1.3824 68.9793 0.0000 0.0000 0.0000
# 4 0.0000 0.0000 0.0000 10.0803 0.0000 0.0000
# 5 0.0000 0.0000 0.0000 0.0000 10.1739 0.0000
# 6 0.0000 0.0000 0.0000 0.0000 0.0000 4.6186
#
#
#
# Elastic Compliance Matrix: (Units=1/GPa)
#
#
# Indices 1 2 3 4 5 6 
#
# 1 0.008388 0.000632 -0.002932 0.000000 0.000000 0.000000
# 2 0.000632 0.011749 -0.000456 0.000000 0.000000 0.000000
# 3 -0.002932 -0.000456 0.015526 0.000000 0.000000 0.000000
# 4 0.000000 0.000000 0.000000 0.099203 0.000000 0.000000
# 5 0.000000 0.000000 0.000000 0.000000 0.098290 0.000000
# 6 0.000000 0.000000 0.000000 0.000000 0.000000 0.216517
#
#
# Mechanical properties :
#
#
# Convention : Reuss Voigt Hill
#
# Bulk Modulus (GPa) = 33.16298 35.70849 34.43573
# Shear Modulus (GPa) = 10.74725 22.51471 16.63098
#
# Velocity S-wave (km/s) = 2.20239 3.18771 2.73971
# Velocity P-wave (km/s) = 4.62976 5.44654 5.05468
#
# Compressibility (1/GPa) = 0.03015411
#
# Stress axis : x y z
#
# Youngs Moduli (GPa) = 119.22268 85.11041 64.40619
#
# Poissons Ratio (x) = -0.05383 0.18882
# Poissons Ratio (y) = -0.07541 0.02934
# Poissons Ratio (z) = 0.34952 0.03877
#
# Static dielectric constant tensor:
#      x y z
#    x 1.854820 0.000000 0.000000 
#    y 0.000000 1.892730 0.000000 
#    z 0.000000 0.000000 1.859520 
# 
# From -- ./inp_files/7828.got.cif
#   From: 2010.05.17/outbox.cif.g08.bks.cpg/sg35_4_cif.got.tgz:7828.got - 2010.06.03 17:29:28.
