data_PCOD9349507
_publ_section_title
;
Structure prediction by ZEFSAII (Michael W. Deem and Ramdas Pophale) SiO2 
 PCOD9349507
Probable space group: C M M 2
;
_chemical_formula_sum "Si O2"
_cell_formula_units_Z 64
_cell_length_a 18.066497
_cell_length_b 24.123312
_cell_length_c 7.381227
_cell_angle_alpha 90.000000
_cell_angle_beta 90.000000
_cell_angle_gamma 90.000000
_cell_volume 3216.913986
_symmetry_space_group_name_H-M "C M M 2"
_symmetry_group_IT_number 35
_symmetry_cell_setting 'orthorhombic'
loop_
_space_group_symop_operation_xyz
x,y,z
-x,-y,z
-x,y,z
x,-y,z
1/2+x,1/2+y,z
1/2-x,1/2-y,z
1/2-x,1/2+y,z
1/2+x,1/2-y,z
loop_
_atom_site_type_symbol
_atom_site_label
_atom_site_fract_x
_atom_site_fract_y
_atom_site_fract_z
Si Si1 0.705721 0.306606 0.893980
Si Si2 0.852483 0.563448 0.046537
Si Si3 0.087339 0.240768 0.661409
Si Si4 0.086270 0.867004 0.457627
Si Si5 0.165089 0.359451 0.701153
Si Si6 0.691910 0.401108 0.144512
Si Si7 0.416653 0.563596 0.824878
Si Si8 0.083659 0.434235 0.428107
O O1 0.750000 0.250000 0.905873
O O2 0.624110 0.290792 0.831365
O O3 0.749803 0.343382 0.744070
O O4 0.708750 0.338589 0.080943
O O5 0.863225 0.500000 0.981435
O O6 0.770236 0.568083 0.134966
O O7 0.906965 0.574868 0.213435
O O8 0.859336 0.607596 0.883963
O O9 0.102395 0.198340 0.494866
O O10 0.123982 0.301396 0.659406
O O11 0.000000 0.245790 0.679099
O O12 0.143553 0.896684 0.324069
O O13 0.090706 0.897756 0.650619
O O14 0.000000 0.871457 0.396148
O O15 0.144716 0.400006 0.537755
O O16 0.641481 0.424313 0.981737
O O17 0.500000 0.571159 0.897756
O O18 0.408689 0.500000 0.765650
O O19 0.092770 0.500000 0.459437
O O20 0.000000 0.418360 0.485475
#
# Coordination Sequence:
#
# PCOD9349507 Si02
#       8
#     8   8   8   8   8   8   8   8
#     4   9  20  38  58  86 117 155 199 248 301 356
#     4  10  23  40  61  93 123 154 203 259 310 369
#     4  10  20  38  61  87 120 158 204 251 300 363
#     4  10  22  38  58  88 124 164 207 255 305 360
#     4  10  21  40  64  87 121 161 204 249 310 371
#     4  11  21  37  62  85 118 161 202 243 307 372
#     4  10  21  37  58  86 122 160 202 253 299 352
#     4  10  22  40  62  90 122 155 197 252 313 374
#
# _framework density 19.894842000000001
#
# number of rings (size 3 to 8) (size 9 to 14) (size 15 to 20)
#    0.000    2.000    1.250    1.500    1.750    2.500 
#    6.750    5.000    0.000    0.000    0.000    0.000 
#    0.000    0.000    0.000    0.000    0.000    0.000 
#
# Total GULP energy -178486.765676 kJ/mol
# GULP energy per Si atom -5577.711427 kJ/mol
# Density = 1.984956 g / cm^3
# Si number density = 19.894842 Si / 1000 Ang^3
#
#
#
# Elastic Constant Matrix: (Units=GPa)
#
#
# Indices 1 2 3 4 5 6 
#
# 1 62.9173 14.3589 13.2529 0.0000 0.0000 0.0000
# 2 14.3589 87.0041 25.4203 0.0000 0.0000 0.0000
# 3 13.2529 25.4203 44.4664 0.0000 0.0000 0.0000
# 4 0.0000 0.0000 0.0000 22.3942 0.0000 0.0000
# 5 0.0000 0.0000 0.0000 0.0000 23.6993 0.0000
# 6 0.0000 0.0000 0.0000 0.0000 0.0000 16.6148
#
#
#
# Elastic Compliance Matrix: (Units=1/GPa)
#
#
# Indices 1 2 3 4 5 6 
#
# 1 0.017143 -0.001604 -0.004192 0.000000 0.000000 0.000000
# 2 -0.001604 0.013949 -0.007496 0.000000 0.000000 0.000000
# 3 -0.004192 -0.007496 0.028024 0.000000 0.000000 0.000000
# 4 0.000000 0.000000 0.000000 0.044654 0.000000 0.000000
# 5 0.000000 0.000000 0.000000 0.000000 0.042195 0.000000
# 6 0.000000 0.000000 0.000000 0.000000 0.000000 0.060187
#
#
# Mechanical properties :
#
#
# Convention : Reuss Voigt Hill
#
# Bulk Modulus (GPa) = 30.74057 33.38356 32.06206
# Shear Modulus (GPa) = 20.52708 21.96537 21.24622
#
# Velocity S-wave (km/s) = 3.21562 3.32636 3.27146
# Velocity P-wave (km/s) = 5.41036 5.61866 5.51549
#
# Compressibility (1/GPa) = 0.03253030
#
# Stress axis : x y z
#
# Youngs Moduli (GPa) = 58.33260 71.69179 35.68426
#
# Poissons Ratio (x) = 0.11502 0.14959
# Poissons Ratio (y) = 0.09359 0.26749
# Poissons Ratio (z) = 0.24454 0.53739
#
# Static dielectric constant tensor:
#      x y z
#    x 1.706870 0.000000 0.000000 
#    y 0.000000 1.724700 0.000000 
#    z 0.000000 0.000000 1.675810 
# 
# From -- ./inp_files/3165.got.cif
#   From: 2010.05.17/outbox.cif.g08.bks.cpg/sg35_2_cif.got.tgz:3165.got - 2010.06.03 17:29:28.
