data_PCOD9349996
_publ_section_title
;
Structure prediction by ZEFSAII (Michael W. Deem and Ramdas Pophale) SiO2 
 PCOD9349996
Probable space group: C M M 2
;
_chemical_formula_sum "Si O2"
_cell_formula_units_Z 58
_cell_length_a 9.276716
_cell_length_b 30.291210
_cell_length_c 11.890519
_cell_angle_alpha 90.000000
_cell_angle_beta 90.000000
_cell_angle_gamma 90.000000
_cell_volume 3341.270945
_symmetry_space_group_name_H-M "C M M 2"
_symmetry_group_IT_number 35
_symmetry_cell_setting 'orthorhombic'
loop_
_space_group_symop_operation_xyz
x,y,z
-x,-y,z
-x,y,z
x,-y,z
1/2+x,1/2+y,z
1/2-x,1/2-y,z
1/2-x,1/2+y,z
1/2+x,1/2-y,z
loop_
_atom_site_type_symbol
_atom_site_label
_atom_site_fract_x
_atom_site_fract_y
_atom_site_fract_z
Si Si1 0.500000 0.000000 0.198570
Si Si2 0.659391 0.092863 0.196149
Si Si3 0.662700 0.051203 0.559736
Si Si4 0.172942 0.796393 0.826484
Si Si5 0.671316 0.380167 0.419029
Si Si6 0.172949 0.796393 0.567730
Si Si7 0.162784 0.551205 0.829651
Si Si8 0.828641 0.880785 0.972510
O O1 0.623948 0.040158 0.198188
O O2 0.500000 0.113860 0.195135
O O3 0.745544 0.108894 0.304977
O O4 0.745763 0.107604 0.086255
O O5 0.500000 0.064655 0.523420
O O6 0.781348 0.081633 0.505062
O O7 0.667767 0.053536 0.694691
O O8 0.679878 0.000000 0.527022
O O9 0.250000 0.750000 0.848750
O O10 0.208786 0.809769 0.697094
O O11 0.213287 0.834358 0.914578
O O12 0.000000 0.790717 0.831369
O O13 0.500000 0.379929 0.401362
O O14 0.713391 0.334219 0.479283
O O15 0.250000 0.750000 0.545535
O O16 0.000000 0.790745 0.562830
O O17 0.180494 0.500000 0.862284
O O18 0.281058 0.581696 0.884638
O O19 0.000000 0.564535 0.865902
O O20 0.000000 0.880752 0.989956
#
# Coordination Sequence:
#
# PCOD9349996 Si02
#       8
#     2   8   8   8   8   8   8   8
#     4   8  24  44  62  76 106 156 198 252 272 326
#     4  10  23  41  60  78 106 149 196 235 279 330
#     4   9  19  34  52  76 108 146 185 224 271 334
#     4   9  19  36  58  85 117 149 183 226 280 341
#     4  11  22  36  56  83 114 144 183 238 291 339
#     4   9  19  36  58  85 117 149 183 226 280 341
#     4   9  19  34  52  76 108 146 185 224 271 334
#     4  11  22  36  56  83 114 144 183 238 291 339
#
# _framework density 17.358664000000001
#
# number of rings (size 3 to 8) (size 9 to 14) (size 15 to 20)
#    0.414    1.931    0.000    2.897    1.931    4.414 
#    0.000    5.517    0.000    0.000    0.000    0.000 
#    0.000    0.000    0.000    0.000    0.000    0.000 
#
# Total GULP energy -161445.282163 kJ/mol
# GULP energy per Si atom -5567.078695 kJ/mol
# Density = 1.731916 g / cm^3
# Si number density = 17.358664 Si / 1000 Ang^3
#
#
#
# Elastic Constant Matrix: (Units=GPa)
#
#
# Indices 1 2 3 4 5 6 
#
# 1 67.6302 51.5332 46.7172 0.0000 0.0000 0.0000
# 2 51.5332 97.8931 65.9898 0.0000 0.0000 0.0000
# 3 46.7172 65.9898 76.3351 0.0000 0.0000 0.0000
# 4 0.0000 0.0000 0.0000 39.6936 0.0000 0.0000
# 5 0.0000 0.0000 0.0000 0.0000 20.8083 0.0000
# 6 0.0000 0.0000 0.0000 0.0000 0.0000 35.2533
#
#
#
# Elastic Compliance Matrix: (Units=1/GPa)
#
#
# Indices 1 2 3 4 5 6 
#
# 1 0.027780 -0.007581 -0.010447 0.000000 0.000000 0.000000
# 2 -0.007581 0.026551 -0.018313 0.000000 0.000000 0.000000
# 3 -0.010447 -0.018313 0.035325 0.000000 0.000000 0.000000
# 4 0.000000 0.000000 0.000000 0.025193 0.000000 0.000000
# 5 0.000000 0.000000 0.000000 0.000000 0.048058 0.000000
# 6 0.000000 0.000000 0.000000 0.000000 0.000000 0.028366
#
#
# Mechanical properties :
#
#
# Convention : Reuss Voigt Hill
#
# Bulk Modulus (GPa) = 58.91856 63.37097 61.14477
# Shear Modulus (GPa) = 18.54505 24.32560 21.43533
#
# Velocity S-wave (km/s) = 3.27210 3.74752 3.51785
# Velocity P-wave (km/s) = 6.94918 7.43716 7.19731
#
# Compressibility (1/GPa) = 0.01697258
#
# Stress axis : x y z
#
# Youngs Moduli (GPa) = 35.99701 37.66345 28.30861
#
# Poissons Ratio (x) = 0.28554 0.29575
# Poissons Ratio (y) = 0.27291 0.51841
# Poissons Ratio (z) = 0.37608 0.68972
#
# Static dielectric constant tensor:
#      x y z
#    x 1.581440 0.000000 0.000000 
#    y 0.000000 1.563730 0.000000 
#    z 0.000000 0.000000 1.878570 
# 
# From -- ./inp_files/11791.got.cif
#   From: 2010.05.17/outbox.cif.g08.bks.cpg/sg35_6_cif.got.tgz:11791.got - 2010.06.03 17:29:28.
