data_PCOD9349894
_publ_section_title
;
Structure prediction by ZEFSAII (Michael W. Deem and Ramdas Pophale) SiO2 
 PCOD9349894
Probable space group: C M M 2
;
_chemical_formula_sum "Si O2"
_cell_formula_units_Z 48
_cell_length_a 17.658947
_cell_length_b 20.698483
_cell_length_c 7.535769
_cell_angle_alpha 90.000000
_cell_angle_beta 90.000000
_cell_angle_gamma 90.000000
_cell_volume 2754.424656
_symmetry_space_group_name_H-M "C M M 2"
_symmetry_group_IT_number 35
_symmetry_cell_setting 'orthorhombic'
loop_
_space_group_symop_operation_xyz
x,y,z
-x,-y,z
-x,y,z
x,-y,z
1/2+x,1/2+y,z
1/2-x,1/2-y,z
1/2-x,1/2+y,z
1/2+x,1/2-y,z
loop_
_atom_site_type_symbol
_atom_site_label
_atom_site_fract_x
_atom_site_fract_y
_atom_site_fract_z
Si Si1 0.707294 0.573834 0.706610
Si Si2 0.342717 0.376684 0.351575
Si Si3 0.188934 0.308532 0.782709
Si Si4 0.416275 0.422240 0.995727
Si Si5 0.199384 0.684722 0.192829
Si Si6 0.409961 0.760704 0.473386
O O1 0.730707 0.500000 0.745468
O O2 0.665549 0.576197 0.517590
O O3 0.773603 0.626644 0.703450
O O4 0.648540 0.597449 0.857649
O O5 0.396151 0.398751 0.192041
O O6 0.259565 0.367404 0.263668
O O7 0.374521 0.309776 0.432145
O O8 0.250000 0.250000 0.770720
O O9 0.118950 0.285465 0.664119
O O10 0.174100 0.322256 0.989714
O O11 0.500000 0.399059 0.943251
O O12 0.416758 0.500000 0.994475
O O13 0.250000 0.750000 0.198697
O O14 0.129706 0.693997 0.325481
O O15 0.500000 0.759140 0.460476
#
# Coordination Sequence:
#
# PCOD9349894 Si02
#       6
#     8   8   8   8   8   8
#     4  11  22  36  59  86 113 152 196 235 279 337
#     4  11  19  37  57  83 113 154 193 229 278 341
#     4  11  19  39  59  80 112 149 192 235 282 336
#     4  10  22  37  52  81 123 157 190 231 277 338
#     4   9  19  33  57  78 108 148 187 232 277 334
#     4  11  22  34  55  88 118 144 188 242 289 334
#
# _framework density 17.426507000000001
#
# number of rings (size 3 to 8) (size 9 to 14) (size 15 to 20)
#    0.000    1.500    5.000    1.500    0.000    2.000 
#    0.000    1.667    0.000    0.500    0.000    0.000 
#    0.000    0.000    0.000    0.000    0.000    0.000 
#
# Total GULP energy -133887.665311 kJ/mol
# GULP energy per Si atom -5578.652721 kJ/mol
# Density = 1.738684 g / cm^3
# Si number density = 17.426507 Si / 1000 Ang^3
#
#
#
# Elastic Constant Matrix: (Units=GPa)
#
#
# Indices 1 2 3 4 5 6 
#
# 1 86.3722 16.6007 34.5333 0.0000 0.0000 0.0000
# 2 16.6007 35.6371 -1.2406 0.0000 0.0000 0.0000
# 3 34.5333 -1.2406 100.6833 0.0000 0.0000 0.0000
# 4 0.0000 0.0000 0.0000 20.5747 0.0000 0.0000
# 5 0.0000 0.0000 0.0000 0.0000 15.8920 0.0000
# 6 0.0000 0.0000 0.0000 0.0000 0.0000 5.4203
#
#
#
# Elastic Compliance Matrix: (Units=1/GPa)
#
#
# Indices 1 2 3 4 5 6 
#
# 1 0.015063 -0.007200 -0.005255 0.000000 0.000000 0.000000
# 2 -0.007200 0.031514 0.002858 0.000000 0.000000 0.000000
# 3 -0.005255 0.002858 0.011770 0.000000 0.000000 0.000000
# 4 0.000000 0.000000 0.000000 0.048603 0.000000 0.000000
# 5 0.000000 0.000000 0.000000 0.000000 0.062925 0.000000
# 6 0.000000 0.000000 0.000000 0.000000 0.000000 0.184493
#
#
# Mechanical properties :
#
#
# Convention : Reuss Voigt Hill
#
# Bulk Modulus (GPa) = 25.54114 35.83104 30.68609
# Shear Modulus (GPa) = 12.93287 19.89734 16.41511
#
# Velocity S-wave (km/s) = 2.72718 3.38270 3.07247
# Velocity P-wave (km/s) = 4.96034 5.98855 5.49853
#
# Compressibility (1/GPa) = 0.03915252
#
# Stress axis : x y z
#
# Youngs Moduli (GPa) = 66.38960 31.73205 84.96347
#
# Poissons Ratio (x) = 0.22846 0.44649
# Poissons Ratio (y) = 0.47797 -0.24280
# Poissons Ratio (z) = 0.34888 -0.09068
#
# Static dielectric constant tensor:
#      x y z
#    x 1.586640 0.000000 0.000000 
#    y 0.000000 1.597900 0.000000 
#    z 0.000000 0.000000 1.615270 
# 
# From -- ./inp_files/7474.got.cif
#   From: 2010.05.17/outbox.cif.g08.bks.cpg/sg35_4_cif.got.tgz:7474.got - 2010.06.03 17:29:28.
