data_PCOD9349118
_publ_section_title
;
Structure prediction by ZEFSAII (Michael W. Deem and Ramdas Pophale) SiO2 
 PCOD9349118
Probable space group: C M M 2
;
_chemical_formula_sum "Si O2"
_cell_formula_units_Z 40
_cell_length_a 19.469465
_cell_length_b 11.652333
_cell_length_c 9.215416
_cell_angle_alpha 90.000000
_cell_angle_beta 90.000000
_cell_angle_gamma 90.000000
_cell_volume 2090.652490
_symmetry_space_group_name_H-M "C M M 2"
_symmetry_group_IT_number 35
_symmetry_cell_setting 'orthorhombic'
loop_
_space_group_symop_operation_xyz
x,y,z
-x,-y,z
-x,y,z
x,-y,z
1/2+x,1/2+y,z
1/2-x,1/2-y,z
1/2-x,1/2+y,z
1/2+x,1/2-y,z
loop_
_atom_site_type_symbol
_atom_site_label
_atom_site_fract_x
_atom_site_fract_y
_atom_site_fract_z
Si Si1 0.422027 0.868908 0.067080
Si Si2 0.921743 0.865149 0.491977
Si Si3 0.820590 0.704771 0.313762
Si Si4 0.784578 0.375367 0.624157
Si Si5 0.921492 0.703543 0.756900
O O1 0.500000 0.852287 0.121482
O O2 0.368052 0.852731 0.194350
O O3 0.417492 0.000000 0.011595
O O4 0.411311 0.786283 0.929243
O O5 0.866787 0.802669 0.390653
O O6 0.916417 0.815906 0.655524
O O7 0.000000 0.839391 0.443303
O O8 0.911451 0.000000 0.489901
O O9 0.750000 0.750000 0.245527
O O10 0.796373 0.629612 0.450983
O O11 0.751317 0.500000 0.660401
O O12 0.750000 0.250000 0.660679
O O13 0.859560 0.372278 0.696772
O O14 0.000000 0.659118 0.737555
#
# Coordination Sequence:
#
# PCOD9349118 Si02
#       5
#     8   8   8   8   8
#     4  10  20  35  54  76 106 140 175 221 273 322
#     4   9  18  35  58  81 107 141 180 224 274 327
#     4  10  21  34  53  78 109 142 179 221 266 321
#     4  10  21  36  56  81 110 144 183 228 276 329
#     4   9  19  35  56  81 107 138 180 228 274 322
#
# _framework density 19.132783
#
# number of rings (size 3 to 8) (size 9 to 14) (size 15 to 20)
#    0.000    2.400    0.000    1.800    0.000   10.800 
#    0.000    1.000    0.000    3.600    0.000    0.000 
#    0.000    0.000    0.000    0.000    0.000    0.000 
#
# Total GULP energy -111375.136804 kJ/mol
# GULP energy per Si atom -5568.756840 kJ/mol
# Density = 1.908924 g / cm^3
# Si number density = 19.132783 Si / 1000 Ang^3
#
#
#
# Elastic Constant Matrix: (Units=GPa)
#
#
# Indices 1 2 3 4 5 6 
#
# 1 98.6546 36.4131 26.7526 0.0000 0.0000 0.0000
# 2 36.4131 111.4966 13.5677 0.0000 0.0000 0.0000
# 3 26.7526 13.5677 44.0726 0.0000 0.0000 0.0000
# 4 0.0000 0.0000 0.0000 3.8747 0.0000 0.0000
# 5 0.0000 0.0000 0.0000 0.0000 25.6214 0.0000
# 6 0.0000 0.0000 0.0000 0.0000 0.0000 11.6921
#
#
#
# Elastic Compliance Matrix: (Units=1/GPa)
#
#
# Indices 1 2 3 4 5 6 
#
# 1 0.013330 -0.003500 -0.007014 0.000000 0.000000 0.000000
# 2 -0.003500 0.010237 -0.001027 0.000000 0.000000 0.000000
# 3 -0.007014 -0.001027 0.027264 0.000000 0.000000 0.000000
# 4 0.000000 0.000000 0.000000 0.258087 0.000000 0.000000
# 5 0.000000 0.000000 0.000000 0.000000 0.039030 0.000000
# 6 0.000000 0.000000 0.000000 0.000000 0.000000 0.085528
#
#
# Mechanical properties :
#
#
# Convention : Reuss Voigt Hill
#
# Bulk Modulus (GPa) = 36.03767 45.29897 40.66832
# Shear Modulus (GPa) = 10.73405 20.07033 15.40219
#
# Velocity S-wave (km/s) = 2.37118 3.24234 2.84036
# Velocity P-wave (km/s) = 5.13547 6.14366 5.66205
#
# Compressibility (1/GPa) = 0.02774874
#
# Stress axis : x y z
#
# Youngs Moduli (GPa) = 75.01734 97.68615 36.67890
#
# Poissons Ratio (x) = 0.34189 0.25727
# Poissons Ratio (y) = 0.26256 0.03767
# Poissons Ratio (z) = 0.52618 0.10031
#
# Static dielectric constant tensor:
#      x y z
#    x 1.709430 0.000000 0.000000 
#    y 0.000000 1.707210 0.000000 
#    z 0.000000 0.000000 1.638220 
# 
# From -- ./inp_files/5887.got.cif
#   From: 2010.05.17/outbox.cif.g08.bks.cpg/sg35_3_cif.got.tgz:5887.got - 2010.06.03 17:29:28.
