data_PCOD9349641
_publ_section_title
;
Structure prediction by ZEFSAII (Michael W. Deem and Ramdas Pophale) SiO2 
 PCOD9349641
Probable space group: C M M 2
;
_chemical_formula_sum "Si O2"
_cell_formula_units_Z 52
_cell_length_a 9.757136
_cell_length_b 24.865932
_cell_length_c 9.918178
_cell_angle_alpha 90.000000
_cell_angle_beta 90.000000
_cell_angle_gamma 90.000000
_cell_volume 2406.351126
_symmetry_space_group_name_H-M "C M M 2"
_symmetry_group_IT_number 35
_symmetry_cell_setting 'orthorhombic'
loop_
_space_group_symop_operation_xyz
x,y,z
-x,-y,z
-x,y,z
x,-y,z
1/2+x,1/2+y,z
1/2-x,1/2-y,z
1/2-x,1/2+y,z
1/2+x,1/2-y,z
loop_
_atom_site_type_symbol
_atom_site_label
_atom_site_fract_x
_atom_site_fract_y
_atom_site_fract_z
Si Si1 0.657211 0.938803 0.371630
Si Si2 0.160909 0.161277 0.442952
Si Si3 0.839665 0.559355 0.778362
Si Si4 0.160385 0.198618 0.135082
Si Si5 0.252472 0.323208 0.728839
Si Si6 0.846601 0.600033 0.072056
Si Si7 0.000000 0.750496 0.809886
O O1 0.500000 0.924844 0.409770
O O2 0.763388 0.895606 0.425852
O O3 0.664445 0.933334 0.209507
O O4 0.683941 0.000000 0.411447
O O5 0.170774 0.190605 0.297977
O O6 0.230408 0.190036 0.569662
O O7 0.000000 0.155294 0.473289
O O8 0.790884 0.500000 0.736732
O O9 0.759026 0.612220 0.733435
O O10 0.000000 0.564183 0.737365
O O11 0.836830 0.563883 0.940639
O O12 0.250000 0.250000 0.096671
O O13 0.231167 0.145781 0.074399
O O14 0.000000 0.206154 0.099567
O O15 0.380654 0.297306 0.803095
O O16 0.118726 0.296281 0.790745
O O17 0.000000 0.625530 0.073279
#
# Coordination Sequence:
#
# PCOD9349641 Si02
#       7
#     8   8   8   8   8   8   4
#     4   9  18  33  56  85 115 151 194 241 292 352
#     4  10  22  36  56  83 118 151 195 243 295 360
#     4  10  21  40  66  91 120 156 203 254 300 357
#     4  10  21  36  55  83 117 152 191 240 294 354
#     4  11  22  42  60  93 116 160 203 247 306 356
#     4   9  18  37  59  85 112 150 197 240 295 348
#     4  10  24  40  64  82 122 156 204 252 292 362
#
# _framework density 21.609480999999999
#
# number of rings (size 3 to 8) (size 9 to 14) (size 15 to 20)
#    0.000    2.154    1.538    0.923    3.231    3.385 
#    4.154    1.923    0.000    0.923    0.000    0.000 
#    0.000    0.000    0.000    0.000    0.000    0.000 
#
# Total GULP energy -144838.403658 kJ/mol
# GULP energy per Si atom -5570.707833 kJ/mol
# Density = 2.156030 g / cm^3
# Si number density = 21.609481 Si / 1000 Ang^3
#
#
#
# Elastic Constant Matrix: (Units=GPa)
#
#
# Indices 1 2 3 4 5 6 
#
# 1 134.2245 60.1673 7.6239 0.0000 0.0000 0.0000
# 2 60.1673 153.1348 7.1369 0.0000 0.0000 0.0000
# 3 7.6239 7.1369 85.8595 0.0000 0.0000 0.0000
# 4 0.0000 0.0000 0.0000 -15.5694 0.0000 0.0000
# 5 0.0000 0.0000 0.0000 0.0000 6.5955 0.0000
# 6 0.0000 0.0000 0.0000 0.0000 0.0000 50.3015
#
#
#
# Elastic Compliance Matrix: (Units=1/GPa)
#
#
# Indices 1 2 3 4 5 6 
#
# 1 0.009065 -0.003538 -0.000511 0.000000 0.000000 0.000000
# 2 -0.003538 0.007936 -0.000346 0.000000 0.000000 0.000000
# 3 -0.000511 -0.000346 0.011721 0.000000 0.000000 0.000000
# 4 0.000000 0.000000 0.000000 -0.064228 0.000000 0.000000
# 5 0.000000 0.000000 0.000000 0.000000 0.151618 0.000000
# 6 0.000000 0.000000 0.000000 0.000000 0.000000 0.019880
#
#
# Mechanical properties :
#
#
# Convention : Reuss Voigt Hill
#
# Bulk Modulus (GPa) = 50.16590 58.11946 54.14268
# Shear Modulus (GPa) = 33.01949 28.15157 30.58553
#
# Velocity S-wave (km/s) = 3.91322 3.61327 3.76623
# Velocity P-wave (km/s) = 6.60930 6.66043 6.63491
#
# Compressibility (1/GPa) = 0.01993386
#
# Stress axis : x y z
#
# Youngs Moduli (GPa) = 110.31292 126.00237 85.31685
#
# Poissons Ratio (x) = 0.44579 0.04359
# Poissons Ratio (y) = 0.39028 0.02948
# Poissons Ratio (z) = 0.05635 0.04354
#
# Static dielectric constant tensor:
#      x y z
#    x 1.723130 0.000000 0.000000 
#    y 0.000000 1.895830 0.000000 
#    z 0.000000 0.000000 1.897360 
# 
# From -- ./inp_files/11563.got.cif
#   From: 2010.05.17/outbox.cif.g08.bks.cpg/sg35_6_cif.got.tgz:11563.got - 2010.06.03 17:29:28.
