data_PCOD9349096
_publ_section_title
;
Structure prediction by ZEFSAII (Michael W. Deem and Ramdas Pophale) SiO2 
 PCOD9349096
Probable space group: C M M 2
;
_chemical_formula_sum "Si O2"
_cell_formula_units_Z 40
_cell_length_a 7.479717
_cell_length_b 15.591901
_cell_length_c 17.112628
_cell_angle_alpha 90.000000
_cell_angle_beta 90.000000
_cell_angle_gamma 90.000000
_cell_volume 1995.726135
_symmetry_space_group_name_H-M "C M M 2"
_symmetry_group_IT_number 35
_symmetry_cell_setting 'orthorhombic'
loop_
_space_group_symop_operation_xyz
x,y,z
-x,-y,z
-x,y,z
x,-y,z
1/2+x,1/2+y,z
1/2-x,1/2-y,z
1/2-x,1/2+y,z
1/2+x,1/2-y,z
loop_
_atom_site_type_symbol
_atom_site_label
_atom_site_fract_x
_atom_site_fract_y
_atom_site_fract_z
Si Si1 0.716842 0.500000 0.516410
Si Si2 0.793151 0.896051 0.975382
Si Si3 0.500000 0.103537 0.277541
Si Si4 0.000000 0.395388 0.098573
Si Si5 0.219436 0.000000 0.694851
Si Si6 0.286895 0.346315 0.804506
Si Si7 0.788324 0.153266 0.402304
O O1 0.500000 0.500000 0.519083
O O2 0.780133 0.500000 0.605412
O O3 0.768559 0.416152 0.467127
O O4 0.672050 0.869239 0.047985
O O5 0.000000 0.870756 0.985784
O O6 0.787778 0.000000 0.969251
O O7 0.720842 0.860740 0.892960
O O8 0.500000 0.133429 0.187940
O O9 0.672386 0.135818 0.325113
O O10 0.500000 0.000000 0.279047
O O11 0.000000 0.500000 0.100507
O O12 0.278586 0.083090 0.743600
O O13 0.000000 0.000000 0.693350
O O14 0.500000 0.358992 0.810114
O O15 0.250000 0.250000 0.778770
O O16 0.750000 0.250000 0.428891
O O17 0.000000 0.143102 0.387688
#
# Coordination Sequence:
#
# PCOD9349096 Si02
#       7
#     4   8   4   4   4   8   8
#     4   9  20  37  63  93 117 156 203 245 303 366
#     4   9  17  34  57  82 114 157 203 240 295 354
#     4  11  22  40  64  91 127 156 201 260 308 366
#     4   9  20  34  58  90 115 152 197 255 300 341
#     4   9  18  38  60  84 121 156 193 246 298 354
#     4  10  20  34  58  83 114 161 200 240 297 351
#     4  11  22  39  65  92 121 165 204 245 309 371
#
# _framework density 20.042829000000001
#
# number of rings (size 3 to 8) (size 9 to 14) (size 15 to 20)
#    0.000    2.200    3.000    0.000    1.400    1.600 
#    0.000    3.500    4.400    0.000    0.000    0.000 
#    0.000    0.000    0.000    0.000    0.000    0.000 
#
# Total GULP energy -111710.068109 kJ/mol
# GULP energy per Si atom -5585.503405 kJ/mol
# Density = 1.999721 g / cm^3
# Si number density = 20.042829 Si / 1000 Ang^3
#
#
#
# Elastic Constant Matrix: (Units=GPa)
#
#
# Indices 1 2 3 4 5 6 
#
# 1 97.3227 22.7518 57.5515 0.0000 0.0000 0.0000
# 2 22.7518 130.5272 86.9830 0.0000 0.0000 0.0000
# 3 57.5515 86.9830 207.9450 0.0000 0.0000 0.0000
# 4 0.0000 0.0000 0.0000 -8.1974 0.0000 0.0000
# 5 0.0000 0.0000 0.0000 0.0000 194.0755 0.0000
# 6 0.0000 0.0000 0.0000 0.0000 0.0000 11.3609
#
#
#
# Elastic Compliance Matrix: (Units=1/GPa)
#
#
# Indices 1 2 3 4 5 6 
#
# 1 0.012289 0.000173 -0.003473 0.000000 0.000000 0.000000
# 2 0.000173 0.010625 -0.004492 0.000000 0.000000 0.000000
# 3 -0.003473 -0.004492 0.007649 0.000000 0.000000 0.000000
# 4 0.000000 0.000000 0.000000 -0.121990 0.000000 0.000000
# 5 0.000000 0.000000 0.000000 0.000000 0.005153 0.000000
# 6 0.000000 0.000000 0.000000 0.000000 0.000000 0.088021
#
#
# Mechanical properties :
#
#
# Convention : Reuss Voigt Hill
#
# Bulk Modulus (GPa) = 66.76851 85.59637 76.18244
# Shear Modulus (GPa) = 223.97536 57.34838 140.66187
#
# Velocity S-wave (km/s) = 10.58258 5.35491 8.38648
# Velocity P-wave (km/s) = 13.51690 9.00182 11.48345
#
# Compressibility (1/GPa) = 0.01497712
#
# Stress axis : x y z
#
# Youngs Moduli (GPa) = 81.37604 94.12092 130.73217
#
# Poissons Ratio (x) = -0.01624 0.45406
# Poissons Ratio (y) = -0.01404 0.58725
# Poissons Ratio (z) = 0.28264 0.42279
#
# Static dielectric constant tensor:
#      x y z
#    x 1.737960 0.000000 0.000000 
#    y 0.000000 1.706220 0.000000 
#    z 0.000000 0.000000 1.671050 
# 
# From -- ./inp_files/14825.got.cif
#   From: 2010.05.17/outbox.cif.g08.bks.cpg/sg35_8_cif.got.tgz:14825.got - 2010.06.03 17:29:28.
