data_PCOD9349538
_publ_section_title
;
Structure prediction by ZEFSAII (Michael W. Deem and Ramdas Pophale) SiO2 
 PCOD9349538
Probable space group: C M M 2
;
_chemical_formula_sum "Si O2"
_cell_formula_units_Z 40
_cell_length_a 18.382581
_cell_length_b 7.433986
_cell_length_c 15.152704
_cell_angle_alpha 90.000000
_cell_angle_beta 90.000000
_cell_angle_gamma 90.000000
_cell_volume 2070.705642
_symmetry_space_group_name_H-M "C M M 2"
_symmetry_group_IT_number 35
_symmetry_cell_setting 'orthorhombic'
loop_
_space_group_symop_operation_xyz
x,y,z
-x,-y,z
-x,y,z
x,-y,z
1/2+x,1/2+y,z
1/2-x,1/2-y,z
1/2-x,1/2+y,z
1/2+x,1/2-y,z
loop_
_atom_site_type_symbol
_atom_site_label
_atom_site_fract_x
_atom_site_fract_y
_atom_site_fract_z
Si Si1 0.083356 0.219206 0.365760
Si Si2 0.836104 0.213619 0.993441
Si Si3 0.086510 0.500000 0.873822
Si Si4 0.164036 0.212998 0.545047
Si Si5 0.835386 0.214692 0.192027
Si Si6 0.412932 0.000000 0.665901
O O1 0.131787 0.269557 0.449861
O O2 0.117827 0.283753 0.273832
O O3 0.000000 0.276963 0.376322
O O4 0.083530 0.000000 0.363257
O O5 0.750000 0.250000 0.982951
O O6 0.879530 0.327352 0.922232
O O7 0.848942 0.000000 0.986175
O O8 0.854826 0.276939 0.093381
O O9 0.103156 0.500000 0.769922
O O10 0.000000 0.500000 0.884363
O O11 0.250000 0.250000 0.547879
O O12 0.122700 0.327787 0.618671
O O13 0.151508 0.000000 0.556146
O O14 0.750000 0.250000 0.207114
O O15 0.844641 0.000000 0.189767
O O16 0.500000 0.000000 0.653460
#
# Coordination Sequence:
#
# PCOD9349538 Si02
#       6
#     8   8   4   8   8   4
#     4   9  18  33  55  85 122 164 201 242 300 361
#     4  10  20  39  65  93 122 166 210 253 306 365
#     4  11  26  44  63  93 128 157 199 265 321 366
#     4  11  22  41  66  93 124 161 209 255 306 364
#     4   9  18  32  56  84 118 156 201 248 295 353
#     4  11  26  46  65  91 126 159 201 261 321 372
#
# _framework density 19.317087000000001
#
# number of rings (size 3 to 8) (size 9 to 14) (size 15 to 20)
#    0.000    2.000    2.000    1.200    1.400    4.000 
#    1.800    4.000    0.000    0.000    0.000    0.000 
#    0.000    0.000    0.000    0.000    0.000    0.000 
#
# Total GULP energy -111738.105711 kJ/mol
# GULP energy per Si atom -5586.905286 kJ/mol
# Density = 1.927312 g / cm^3
# Si number density = 19.317087 Si / 1000 Ang^3
#
#
#
# Elastic Constant Matrix: (Units=GPa)
#
#
# Indices 1 2 3 4 5 6 
#
# 1 120.0277 40.4328 113.8083 0.0000 0.0000 0.0000
# 2 40.4328 116.6310 69.7946 0.0000 0.0000 0.0000
# 3 113.8083 69.7946 195.6218 0.0000 0.0000 0.0000
# 4 0.0000 0.0000 0.0000 43.1019 0.0000 0.0000
# 5 0.0000 0.0000 0.0000 0.0000 39.5681 0.0000
# 6 0.0000 0.0000 0.0000 0.0000 0.0000 12.7985
#
#
#
# Elastic Compliance Matrix: (Units=1/GPa)
#
#
# Indices 1 2 3 4 5 6 
#
# 1 0.018582 0.000035 -0.010823 0.000000 0.000000 0.000000
# 2 0.000035 0.010902 -0.003910 0.000000 0.000000 0.000000
# 3 -0.010823 -0.003910 0.012803 0.000000 0.000000 0.000000
# 4 0.000000 0.000000 0.000000 0.023201 0.000000 0.000000
# 5 0.000000 0.000000 0.000000 0.000000 0.025273 0.000000
# 6 0.000000 0.000000 0.000000 0.000000 0.000000 0.078134
#
#
# Mechanical properties :
#
#
# Convention : Reuss Voigt Hill
#
# Bulk Modulus (GPa) = 77.57271 97.81687 87.69479
# Shear Modulus (GPa) = 24.68072 32.97669 28.82871
#
# Velocity S-wave (km/s) = 3.57832 4.13622 3.86734
# Velocity P-wave (km/s) = 7.57081 8.57663 8.08937
#
# Compressibility (1/GPa) = 0.01289113
#
# Stress axis : x y z
#
# Youngs Moduli (GPa) = 53.81626 91.72892 78.10447
#
# Poissons Ratio (x) = -0.00320 0.84531
# Poissons Ratio (y) = -0.00188 0.30537
# Poissons Ratio (z) = 0.58245 0.35864
#
# Static dielectric constant tensor:
#      x y z
#    x 1.636700 0.000000 0.000000 
#    y 0.000000 1.699730 0.000000 
#    z 0.000000 0.000000 1.656900 
# 
# From -- ./inp_files/16608.got.cif
#   From: 2010.05.17/outbox.cif.g08.bks.cpg/sg35_9_cif.got.tgz:16608.got - 2010.06.03 17:29:28.
