data_PCOD9349554
_publ_section_title
;
Structure prediction by ZEFSAII (Michael W. Deem and Ramdas Pophale) SiO2 
 PCOD9349554
Probable space group: C M M 2
;
_chemical_formula_sum "Si O2"
_cell_formula_units_Z 40
_cell_length_a 14.255180
_cell_length_b 20.246475
_cell_length_c 5.684488
_cell_angle_alpha 90.000000
_cell_angle_beta 90.000000
_cell_angle_gamma 90.000000
_cell_volume 1640.640700
_symmetry_space_group_name_H-M "C M M 2"
_symmetry_group_IT_number 35
_symmetry_cell_setting 'orthorhombic'
loop_
_space_group_symop_operation_xyz
x,y,z
-x,-y,z
-x,y,z
x,-y,z
1/2+x,1/2+y,z
1/2-x,1/2-y,z
1/2-x,1/2+y,z
1/2+x,1/2-y,z
loop_
_atom_site_type_symbol
_atom_site_label
_atom_site_fract_x
_atom_site_fract_y
_atom_site_fract_z
Si Si1 0.363007 0.249107 0.065490
Si Si2 0.601842 0.120070 0.815903
Si Si3 0.363007 0.249107 0.566318
Si Si4 0.809221 0.075708 0.815901
Si Si5 0.611687 0.420401 0.315901
O O1 0.250000 0.250000 0.065356
O O2 0.396567 0.274180 0.315904
O O3 0.390948 0.172161 0.032315
O O4 0.395005 0.278618 0.815904
O O5 0.500000 0.087391 0.815904
O O6 0.609052 0.172162 0.599493
O O7 0.696382 0.078643 0.815902
O O8 0.250000 0.250000 0.566452
O O9 0.843540 0.104045 0.563360
O O10 0.843348 0.000000 0.815900
O O11 0.843541 0.104044 0.068442
O O12 0.500000 0.411522 0.315901
O O13 0.629503 0.500000 0.315901
#
# Coordination Sequence:
#
# PCOD9349554 Si02
#       5
#     8   8   8   8   8
#     4   8  16  32  52  73  92 130 178 231 269 297
#     4  10  21  33  53  81 114 155 191 212 254 328
#     4   8  16  32  52  73  92 130 178 231 269 297
#     4  10  21  34  52  82 113 146 184 226 271 314
#     4   9  18  36  59  77  96 131 183 238 288 327
#
# _framework density 24.380718999999999
#
# number of rings (size 3 to 8) (size 9 to 14) (size 15 to 20)
#    1.200    1.800    0.000    0.600    2.800    3.600 
#    0.000    0.000    0.000   13.200    0.000    0.000 
#    0.000    0.000    0.000    0.000    0.000    0.000 
#
# Total GULP energy -111491.091393 kJ/mol
# GULP energy per Si atom -5574.554570 kJ/mol
# Density = 2.432523 g / cm^3
# Si number density = 24.380719 Si / 1000 Ang^3
#
#
#
# Elastic Constant Matrix: (Units=GPa)
#
#
# Indices 1 2 3 4 5 6 
#
# 1 167.8192 -15.0113 55.7837 0.0000 0.0000 0.0000
# 2 -15.0113 50.3756 38.8080 0.0000 0.0000 0.0000
# 3 55.7837 38.8080 297.8759 0.0000 0.0000 0.0000
# 4 0.0000 0.0000 0.0000 32.4049 0.0000 0.0000
# 5 0.0000 0.0000 0.0000 0.0000 -63.7735 0.0000
# 6 0.0000 0.0000 0.0000 0.0000 0.0000 21.1469
#
#
#
# Elastic Compliance Matrix: (Units=1/GPa)
#
#
# Indices 1 2 3 4 5 6 
#
# 1 0.006830 0.003357 -0.001716 0.000000 0.000000 0.000000
# 2 0.003357 0.023716 -0.003719 0.000000 0.000000 0.000000
# 3 -0.001716 -0.003719 0.004163 0.000000 0.000000 0.000000
# 4 0.000000 0.000000 0.000000 0.030860 0.000000 0.000000
# 5 0.000000 0.000000 0.000000 0.000000 -0.015680 0.000000
# 6 0.000000 0.000000 0.000000 0.000000 0.000000 0.047288
#
#
# Mechanical properties :
#
#
# Convention : Reuss Voigt Hill
#
# Bulk Modulus (GPa) = 32.72934 75.02575 53.87754
# Shear Modulus (GPa) = 44.83679 27.05499 35.94589
#
# Velocity S-wave (km/s) = 4.29304 3.33481 3.84390
# Velocity P-wave (km/s) = 6.16660 6.75776 6.46894
#
# Compressibility (1/GPa) = 0.03055363
#
# Stress axis : x y z
#
# Youngs Moduli (GPa) = 146.42025 42.16560 240.21145
#
# Poissons Ratio (x) = -0.14157 0.41230
# Poissons Ratio (y) = -0.49160 0.89323
# Poissons Ratio (z) = 0.25132 0.15679
#
# Static dielectric constant tensor:
#      x y z
#    x 1.864860 0.000000 0.000000 
#    y 0.000000 1.966570 0.000000 
#    z 0.000000 0.000000 1.972550 
# 
# From -- ./inp_files/1237.got.cif
#   From: 2010.05.17/outbox.cif.g08.bks.cpg/sg35_1_cif.got.tgz:1237.got - 2010.06.03 17:29:28.
