data_PCOD9349255
_publ_section_title
;
Structure prediction by ZEFSAII (Michael W. Deem and Ramdas Pophale) SiO2 
 PCOD9349255
Probable space group: C M M 2
;
_chemical_formula_sum "Si O2"
_cell_formula_units_Z 56
_cell_length_a 22.374785
_cell_length_b 8.735171
_cell_length_c 14.706444
_cell_angle_alpha 90.000000
_cell_angle_beta 90.000000
_cell_angle_gamma 90.000000
_cell_volume 2874.338788
_symmetry_space_group_name_H-M "C M M 2"
_symmetry_group_IT_number 35
_symmetry_cell_setting 'orthorhombic'
loop_
_space_group_symop_operation_xyz
x,y,z
-x,-y,z
-x,y,z
x,-y,z
1/2+x,1/2+y,z
1/2-x,1/2-y,z
1/2-x,1/2+y,z
1/2+x,1/2-y,z
loop_
_atom_site_type_symbol
_atom_site_label
_atom_site_fract_x
_atom_site_fract_y
_atom_site_fract_z
Si Si1 0.685770 0.183910 0.027960
Si Si2 0.124537 0.682437 0.844130
Si Si3 0.000000 0.181640 0.839359
Si Si4 0.069673 0.818907 0.338843
Si Si5 0.884956 0.682320 0.519215
Si Si6 0.000000 0.182374 0.621054
Si Si7 0.187118 0.181630 0.674236
Si Si8 0.932348 0.315084 0.137700
O O1 0.750000 0.250000 0.056259
O O2 0.626141 0.237175 0.081830
O O3 0.688374 0.000000 0.036671
O O4 0.672132 0.220052 0.922427
O O5 0.123911 0.500000 0.829643
O O6 0.059537 0.738435 0.875681
O O7 0.140428 0.767051 0.751064
O O8 0.000000 0.205356 0.729581
O O9 0.000000 0.000000 0.856528
O O10 0.109770 0.747239 0.417753
O O11 0.076278 0.739064 0.241485
O O12 0.000000 0.797771 0.366513
O O13 0.080424 0.000000 0.330617
O O14 0.884656 0.500000 0.517984
O O15 0.830157 0.746258 0.577637
O O16 0.942443 0.743447 0.574513
O O17 0.000000 0.000000 0.603850
O O18 0.250000 0.250000 0.704181
O O19 0.188365 0.000000 0.667910
O O20 0.932992 0.500000 0.133451
O O21 0.000000 0.263211 0.109491
#
# Coordination Sequence:
#
# PCOD9349255 Si02
#       8
#     8   8   4   8   8   4   8   8
#     4  10  23  41  64  91 120 160 203 254 308 366
#     4  11  23  39  62  89 120 160 204 248 303 364
#     4  11  23  37  57  88 124 161 198 250 309 355
#     4  10  20  35  58  88 123 155 191 243 305 361
#     4  12  23  36  59  88 118 157 200 241 293 353
#     4  11  21  35  55  84 120 155 192 240 293 343
#     4  12  25  42  60  82 117 159 205 253 300 353
#     4   9  19  38  63  89 120 155 200 251 307 370
#
# _framework density 19.482741999999998
#
# number of rings (size 3 to 8) (size 9 to 14) (size 15 to 20)
#    0.000    1.286    2.143    4.286    1.000    4.000 
#    0.000    0.714    0.000    1.714    0.000    0.000 
#    0.000    0.000    0.000    0.000    0.000    0.000 
#
# Total GULP energy -156467.259308 kJ/mol
# GULP energy per Si atom -5588.116404 kJ/mol
# Density = 1.943840 g / cm^3
# Si number density = 19.482742 Si / 1000 Ang^3
#
#
#
# Elastic Constant Matrix: (Units=GPa)
#
#
# Indices 1 2 3 4 5 6 
#
# 1 114.2723 21.3489 37.2190 0.0000 0.0000 0.0000
# 2 21.3489 62.2196 19.3385 0.0000 0.0000 0.0000
# 3 37.2190 19.3385 71.3055 0.0000 0.0000 0.0000
# 4 0.0000 0.0000 0.0000 17.4798 0.0000 0.0000
# 5 0.0000 0.0000 0.0000 0.0000 38.6762 0.0000
# 6 0.0000 0.0000 0.0000 0.0000 0.0000 31.3563
#
#
#
# Elastic Compliance Matrix: (Units=1/GPa)
#
#
# Indices 1 2 3 4 5 6 
#
# 1 0.010797 -0.002133 -0.005057 0.000000 0.000000 0.000000
# 2 -0.002133 0.017973 -0.003761 0.000000 0.000000 0.000000
# 3 -0.005057 -0.003761 0.017684 0.000000 0.000000 0.000000
# 4 0.000000 0.000000 0.000000 0.057209 0.000000 0.000000
# 5 0.000000 0.000000 0.000000 0.000000 0.025856 0.000000
# 6 0.000000 0.000000 0.000000 0.000000 0.000000 0.031892
#
#
# Mechanical properties :
#
#
# Convention : Reuss Voigt Hill
#
# Bulk Modulus (GPa) = 40.73082 44.84557 42.78820
# Shear Modulus (GPa) = 26.11034 28.82853 27.46943
#
# Velocity S-wave (km/s) = 3.66482 3.85085 3.75899
# Velocity P-wave (km/s) = 6.23372 6.54524 6.39138
#
# Compressibility (1/GPa) = 0.02455143
#
# Stress axis : x y z
#
# Youngs Moduli (GPa) = 92.62206 55.63932 56.54892
#
# Poissons Ratio (x) = 0.11867 0.28597
# Poissons Ratio (y) = 0.19754 0.21269
# Poissons Ratio (z) = 0.46839 0.20927
#
# Static dielectric constant tensor:
#      x y z
#    x 0.787730 0.000000 0.000000 
#    y 0.000000 1.642830 0.000000 
#    z 0.000000 0.000000 1.668600 
# 
# From -- ./inp_files/17465.got.cif
#   From: 2010.05.17/outbox.cif.g08.bks.cpg/sg35_9_cif.got.tgz:17465.got - 2010.06.03 17:29:28.
