data_PCOD9349286
_publ_section_title
;
Structure prediction by ZEFSAII (Michael W. Deem and Ramdas Pophale) SiO2 
 PCOD9349286
Probable space group: C M M 2
;
_chemical_formula_sum "Si O2"
_cell_formula_units_Z 40
_cell_length_a 26.857254
_cell_length_b 8.636750
_cell_length_c 9.811278
_cell_angle_alpha 90.000000
_cell_angle_beta 90.000000
_cell_angle_gamma 90.000000
_cell_volume 2275.818045
_symmetry_space_group_name_H-M "C M M 2"
_symmetry_group_IT_number 35
_symmetry_cell_setting 'orthorhombic'
loop_
_space_group_symop_operation_xyz
x,y,z
-x,-y,z
-x,y,z
x,-y,z
1/2+x,1/2+y,z
1/2-x,1/2-y,z
1/2-x,1/2+y,z
1/2+x,1/2-y,z
loop_
_atom_site_type_symbol
_atom_site_label
_atom_site_fract_x
_atom_site_fract_y
_atom_site_fract_z
Si Si1 0.500000 0.178176 0.576231
Si Si2 0.392488 0.189006 0.593458
Si Si3 0.606428 0.315421 0.899427
Si Si4 0.303290 0.813762 0.397502
Si Si5 0.000000 0.321673 0.907852
Si Si6 0.304108 0.186112 0.081012
O O1 0.446392 0.245380 0.538441
O O2 0.500000 0.178530 0.741816
O O3 0.500000 0.000000 0.528821
O O4 0.386147 0.250738 0.746260
O O5 0.347895 0.236810 0.495158
O O6 0.394113 0.000000 0.600000
O O7 0.607139 0.500000 0.896820
O O8 0.551774 0.258329 0.948185
O O9 0.650764 0.251586 0.992604
O O10 0.250000 0.750000 0.443021
O O11 0.310912 0.767525 0.239830
O O12 0.301639 0.000000 0.400737
O O13 0.000000 0.500000 0.952486
O O14 0.250000 0.250000 0.037257
O O15 0.303701 0.000000 0.072575
#
# Coordination Sequence:
#
# PCOD9349286 Si02
#       6
#     4   8   8   8   4   8
#     4   7  12  25  48  71  94 124 158 196 244 291
#     4   9  17  32  52  75 101 132 169 211 253 300
#     4  11  21  33  52  80 108 137 171 211 256 307
#     4   9  19  34  53  74  99 132 171 210 255 306
#     4   9  17  33  54  75 102 138 172 210 256 303
#     4  10  20  36  54  74 101 137 176 216 261 310
#
# _framework density 17.576098000000002
#
# number of rings (size 3 to 8) (size 9 to 14) (size 15 to 20)
#    0.000    2.600    0.000    3.900    0.000    2.400 
#    0.000    3.000    0.000    3.600    0.000    2.800 
#    0.000    0.000    0.000    0.000    0.000    0.000 
#
# Total GULP energy -111483.504558 kJ/mol
# GULP energy per Si atom -5574.175228 kJ/mol
# Density = 1.753609 g / cm^3
# Si number density = 17.576098 Si / 1000 Ang^3
#
#
#
# Elastic Constant Matrix: (Units=GPa)
#
#
# Indices 1 2 3 4 5 6 
#
# 1 225.5327 51.9454 89.9262 0.0000 0.0000 0.0000
# 2 51.9454 60.1535 24.3405 0.0000 0.0000 0.0000
# 3 89.9262 24.3405 56.5854 0.0000 0.0000 0.0000
# 4 0.0000 0.0000 0.0000 14.8456 0.0000 0.0000
# 5 0.0000 0.0000 0.0000 0.0000 -47.9948 0.0000
# 6 0.0000 0.0000 0.0000 0.0000 0.0000 32.0926
#
#
#
# Elastic Compliance Matrix: (Units=1/GPa)
#
#
# Indices 1 2 3 4 5 6 
#
# 1 0.012645 -0.003376 -0.018644 0.000000 0.000000 0.000000
# 2 -0.003376 0.021029 -0.003681 0.000000 0.000000 0.000000
# 3 -0.018644 -0.003681 0.048885 0.000000 0.000000 0.000000
# 4 0.000000 0.000000 0.000000 0.067360 0.000000 0.000000
# 5 0.000000 0.000000 0.000000 0.000000 -0.020836 0.000000
# 6 0.000000 0.000000 0.000000 0.000000 0.000000 0.031160
#
#
# Mechanical properties :
#
#
# Convention : Reuss Voigt Hill
#
# Bulk Modulus (GPa) = 32.09456 74.96619 53.53037
# Shear Modulus (GPa) = 22.51937 11.52598 17.02268
#
# Velocity S-wave (km/s) = 3.58334 2.56359 3.11547
# Velocity P-wave (km/s) = 5.95150 7.17688 6.59272
#
# Compressibility (1/GPa) = 0.03115793
#
# Stress axis : x y z
#
# Youngs Moduli (GPa) = 79.08011 47.55418 20.45607
#
# Poissons Ratio (x) = 0.16053 0.38139
# Poissons Ratio (y) = 0.26695 0.07529
# Poissons Ratio (z) = 1.47438 0.17504
#
# Static dielectric constant tensor:
#      x y z
#    x 1.611920 0.000000 0.000000 
#    y 0.000000 1.600730 0.000000 
#    z 0.000000 0.000000 1.574960 
# 
# From -- ./inp_files/5012.got.cif
#   From: 2010.05.17/outbox.cif.g08.bks.cpg/sg35_3_cif.got.tgz:5012.got - 2010.06.03 17:29:28.
