data_PCOD9349153
_publ_section_title
;
Structure prediction by ZEFSAII (Michael W. Deem and Ramdas Pophale) SiO2 
 PCOD9349153
Probable space group: C M M 2
;
_chemical_formula_sum "Si O2"
_cell_formula_units_Z 58
_cell_length_a 31.086895
_cell_length_b 8.028892
_cell_length_c 12.746677
_cell_angle_alpha 90.000000
_cell_angle_beta 90.000000
_cell_angle_gamma 90.000000
_cell_volume 3181.485464
_symmetry_space_group_name_H-M "C M M 2"
_symmetry_group_IT_number 35
_symmetry_cell_setting 'orthorhombic'
loop_
_space_group_symop_operation_xyz
x,y,z
-x,-y,z
-x,y,z
x,-y,z
1/2+x,1/2+y,z
1/2-x,1/2-y,z
1/2-x,1/2+y,z
1/2+x,1/2-y,z
loop_
_atom_site_type_symbol
_atom_site_label
_atom_site_fract_x
_atom_site_fract_y
_atom_site_fract_z
Si Si1 0.700722 0.300818 0.586270
Si Si2 0.952711 0.799235 0.329393
Si Si3 0.299380 0.803198 0.823181
Si Si4 0.701870 0.811147 0.237903
Si Si5 0.438104 0.301831 0.080862
Si Si6 0.500000 0.000000 0.017982
Si Si7 0.137503 0.803858 0.407582
Si Si8 0.662541 0.690399 0.035591
O O1 0.700072 0.500000 0.582331
O O2 0.750000 0.250000 0.563165
O O3 0.689578 0.247177 0.704396
O O4 0.666654 0.233613 0.501680
O O5 0.947136 0.773966 0.204680
O O6 0.910162 0.732673 0.387323
O O7 0.000000 0.734565 0.360781
O O8 0.953267 0.000000 0.343841
O O9 0.250000 0.750000 0.839872
O O10 0.302507 0.000000 0.832496
O O11 0.327415 0.723166 0.914586
O O12 0.750000 0.750000 0.258082
O O13 0.665951 0.711647 0.302496
O O14 0.690916 0.798341 0.114976
O O15 0.698274 0.000000 0.273759
O O16 0.449048 0.500000 0.058596
O O17 0.387541 0.284326 0.059262
O O18 0.463186 0.152132 0.023747
O O19 0.131727 0.000000 0.429214
O O20 0.673761 0.500000 0.060869
#
# Coordination Sequence:
#
# PCOD9349153 Si02
#       8
#     8   8   8   8   8   2   8   8
#     4  10  20  35  56  79 107 143 189 235 285 336
#     4   9  16  32  54  78 109 146 185 227 282 335
#     4  11  22  37  58  81 110 144 190 237 285 336
#     4  12  24  35  51  76 113 154 189 223 276 343
#     4  10  21  35  55  82 115 153 188 238 288 341
#     4  12  22  32  60  78 120 146 206 232 288 342
#     4  10  20  35  55  80 111 146 187 233 281 336
#     4  11  22  38  57  80 115 148 187 232 283 339
#
# _framework density 18.230477
#
# number of rings (size 3 to 8) (size 9 to 14) (size 15 to 20)
#    0.000    1.517    2.069    5.172    1.931    2.207 
#    0.000    0.000    0.000    0.000    1.793    0.000 
#    0.000    0.000    0.000    0.000    0.000    0.000 
#
# Total GULP energy -161558.237966 kJ/mol
# GULP energy per Si atom -5570.973723 kJ/mol
# Density = 1.818898 g / cm^3
# Si number density = 18.230477 Si / 1000 Ang^3
#
#
#
# Elastic Constant Matrix: (Units=GPa)
#
#
# Indices 1 2 3 4 5 6 
#
# 1 130.4684 10.0747 55.7316 0.0000 0.0000 0.0000
# 2 10.0747 61.0302 -2.7702 0.0000 0.0000 0.0000
# 3 55.7316 -2.7702 71.3460 0.0000 0.0000 0.0000
# 4 0.0000 0.0000 0.0000 15.4130 0.0000 0.0000
# 5 0.0000 0.0000 0.0000 0.0000 137.6999 0.0000
# 6 0.0000 0.0000 0.0000 0.0000 0.0000 19.5889
#
#
#
# Elastic Compliance Matrix: (Units=1/GPa)
#
#
# Indices 1 2 3 4 5 6 
#
# 1 0.011838 -0.002378 -0.009339 0.000000 0.000000 0.000000
# 2 -0.002378 0.016892 0.002514 0.000000 0.000000 0.000000
# 3 -0.009339 0.002514 0.021409 0.000000 0.000000 0.000000
# 4 0.000000 0.000000 0.000000 0.064880 0.000000 0.000000
# 5 0.000000 0.000000 0.000000 0.000000 0.007262 0.000000
# 6 0.000000 0.000000 0.000000 0.000000 0.000000 0.051049
#
#
# Mechanical properties :
#
#
# Convention : Reuss Voigt Hill
#
# Bulk Modulus (GPa) = 31.51482 43.21296 37.36389
# Shear Modulus (GPa) = 24.71390 47.86094 36.28742
#
# Velocity S-wave (km/s) = 3.68589 5.12935 4.46632
# Velocity P-wave (km/s) = 5.95305 7.67043 6.86565
#
# Compressibility (1/GPa) = 0.03173111
#
# Stress axis : x y z
#
# Youngs Moduli (GPa) = 84.47535 59.19965 46.70891
#
# Poissons Ratio (x) = 0.14078 0.43623
# Poissons Ratio (y) = 0.20089 -0.11740
# Poissons Ratio (z) = 0.78895 -0.14880
#
# Static dielectric constant tensor:
#      x y z
#    x 1.648690 0.000000 0.000000 
#    y 0.000000 1.665650 0.000000 
#    z 0.000000 0.000000 1.627220 
# 
# From -- ./inp_files/14501.got.cif
#   From: 2010.05.17/outbox.cif.g08.bks.cpg/sg35_8_cif.got.tgz:14501.got - 2010.06.03 17:29:28.
