data_PCOD9349310
_publ_section_title
;
Structure prediction by ZEFSAII (Michael W. Deem and Ramdas Pophale) SiO2 
 PCOD9349310
Probable space group: C M M 2
;
_chemical_formula_sum "Si O2"
_cell_formula_units_Z 52
_cell_length_a 29.001886
_cell_length_b 13.085775
_cell_length_c 7.234545
_cell_angle_alpha 90.000000
_cell_angle_beta 90.000000
_cell_angle_gamma 90.000000
_cell_volume 2745.597762
_symmetry_space_group_name_H-M "C M M 2"
_symmetry_group_IT_number 35
_symmetry_cell_setting 'orthorhombic'
loop_
_space_group_symop_operation_xyz
x,y,z
-x,-y,z
-x,y,z
x,-y,z
1/2+x,1/2+y,z
1/2-x,1/2-y,z
1/2-x,1/2+y,z
1/2+x,1/2-y,z
loop_
_atom_site_type_symbol
_atom_site_label
_atom_site_fract_x
_atom_site_fract_y
_atom_site_fract_z
Si Si1 0.796571 0.802210 0.185590
Si Si2 0.651987 0.000000 0.880774
Si Si3 0.368598 0.776532 0.900030
Si Si4 0.052787 0.883495 0.917125
Si Si5 0.552923 0.386293 0.468982
Si Si6 0.240357 0.500000 0.142536
Si Si7 0.870421 0.728775 0.458123
Si Si8 0.161004 0.500000 0.441645
O O1 0.750000 0.750000 0.252627
O O2 0.832215 0.794314 0.351800
O O3 0.775675 0.908073 0.125207
O O4 0.822537 0.750365 0.013145
O O5 0.623955 0.897397 0.927072
O O6 0.664649 0.000000 0.663784
O O7 0.699752 0.000000 0.992347
O O8 0.409226 0.701080 0.967319
O O9 0.363425 0.763846 0.679109
O O10 0.052722 0.885567 0.692984
O O11 0.000000 0.860346 0.973422
O O12 0.064005 0.000000 0.977364
O O13 0.500000 0.379296 0.408018
O O14 0.570784 0.500000 0.414719
O O15 0.582266 0.287772 0.412531
O O16 0.209780 0.500000 0.332543
O O17 0.864346 0.609132 0.399701
#
# Coordination Sequence:
#
# PCOD9349310 Si02
#       8
#     8   4   8   8   8   4   8   4
#     4  12  24  38  57  79 109 145 184 228 271 324
#     4  10  20  36  57  78 108 145 182 223 271 319
#     4  10  21  37  57  82 110 144 183 223 269 323
#     4   8  15  31  55  81 110 143 177 219 272 322
#     4   8  15  31  55  81 110 143 177 219 272 322
#     4  12  24  40  52  78 110 142 182 232 278 314
#     4  10  21  37  57  82 110 144 183 223 269 323
#     4  10  20  36  57  78 108 145 182 223 271 319
#
# _framework density 18.939409000000001
#
# number of rings (size 3 to 8) (size 9 to 14) (size 15 to 20)
#    0.000    2.154    3.077    0.923    2.154    1.846 
#    0.000    1.538    0.000    6.462    0.000    3.231 
#    0.000    0.000    0.000    0.000    0.000    0.000 
#
# Total GULP energy -144819.790284 kJ/mol
# GULP energy per Si atom -5569.991934 kJ/mol
# Density = 1.889630 g / cm^3
# Si number density = 18.939409 Si / 1000 Ang^3
#
#
#
# Elastic Constant Matrix: (Units=GPa)
#
#
# Indices 1 2 3 4 5 6 
#
# 1 95.5315 59.4292 15.1179 0.0000 0.0000 0.0000
# 2 59.4292 116.7857 11.3542 0.0000 0.0000 0.0000
# 3 15.1179 11.3542 73.6668 0.0000 0.0000 0.0000
# 4 0.0000 0.0000 0.0000 6.1107 0.0000 0.0000
# 5 0.0000 0.0000 0.0000 0.0000 8.6801 0.0000
# 6 0.0000 0.0000 0.0000 0.0000 0.0000 37.8200
#
#
#
# Elastic Compliance Matrix: (Units=1/GPa)
#
#
# Indices 1 2 3 4 5 6 
#
# 1 0.015604 -0.007745 -0.002008 0.000000 0.000000 0.000000
# 2 -0.007745 0.012537 -0.000343 0.000000 0.000000 0.000000
# 3 -0.002008 -0.000343 0.014040 0.000000 0.000000 0.000000
# 4 0.000000 0.000000 0.000000 0.163647 0.000000 0.000000
# 5 0.000000 0.000000 0.000000 0.000000 0.115205 0.000000
# 6 0.000000 0.000000 0.000000 0.000000 0.000000 0.026441
#
#
# Mechanical properties :
#
#
# Convention : Reuss Voigt Hill
#
# Bulk Modulus (GPa) = 45.47977 50.86519 48.17248
# Shear Modulus (GPa) = 13.33345 23.86102 18.59724
#
# Velocity S-wave (km/s) = 2.65619 3.55330 3.13698
# Velocity P-wave (km/s) = 5.78555 6.61436 6.21379
#
# Compressibility (1/GPa) = 0.02198780
#
# Stress axis : x y z
#
# Youngs Moduli (GPa) = 64.08723 79.76201 71.22677
#
# Poissons Ratio (x) = 0.61776 0.14306
# Poissons Ratio (y) = 0.49636 0.02443
# Poissons Ratio (z) = 0.12872 0.02735
#
# Static dielectric constant tensor:
#      x y z
#    x 1.603810 0.000000 0.000000 
#    y 0.000000 1.638060 0.000000 
#    z 0.000000 0.000000 1.688700 
# 
# From -- ./inp_files/9846.got.cif
#   From: 2010.05.17/outbox.cif.g08.bks.cpg/sg35_5_cif.got.tgz:9846.got - 2010.06.03 17:29:28.
