data_PCOD9349030
_publ_section_title
;
Structure prediction by ZEFSAII (Michael W. Deem and Ramdas Pophale) SiO2 
 PCOD9349030
Probable space group: C M M 2
;
_chemical_formula_sum "Si O2"
_cell_formula_units_Z 64
_cell_length_a 23.837345
_cell_length_b 14.348941
_cell_length_c 9.116285
_cell_angle_alpha 90.000000
_cell_angle_beta 90.000000
_cell_angle_gamma 90.000000
_cell_volume 3118.140111
_symmetry_space_group_name_H-M "C M M 2"
_symmetry_group_IT_number 35
_symmetry_cell_setting 'orthorhombic'
loop_
_space_group_symop_operation_xyz
x,y,z
-x,-y,z
-x,y,z
x,-y,z
1/2+x,1/2+y,z
1/2-x,1/2-y,z
1/2-x,1/2+y,z
1/2+x,1/2-y,z
loop_
_atom_site_type_symbol
_atom_site_label
_atom_site_fract_x
_atom_site_fract_y
_atom_site_fract_z
Si Si1 0.567050 0.889079 0.672040
Si Si2 0.825733 0.394011 0.210548
Si Si3 0.228713 0.853690 0.419417
Si Si4 0.616239 0.248114 0.426709
Si Si5 0.234455 0.400137 0.737324
Si Si6 0.561575 0.604194 0.568227
Si Si7 0.639962 0.604746 0.852016
Si Si8 0.356435 0.192041 0.905597
O O1 0.500000 0.871722 0.657835
O O2 0.603070 0.825476 0.558828
O O3 0.590318 0.857928 0.831232
O O4 0.576182 0.000000 0.648572
O O5 0.845282 0.500000 0.228713
O O6 0.762294 0.389657 0.277278
O O7 0.864048 0.320587 0.299204
O O8 0.831054 0.361461 0.044092
O O9 0.250000 0.750000 0.436580
O O10 0.163038 0.832310 0.423451
O O11 0.250776 0.901589 0.565847
O O12 0.563907 0.316535 0.445103
O O13 0.206791 0.500000 0.774013
O O14 0.293720 0.395919 0.818980
O O15 0.193187 0.318018 0.784293
O O16 0.500000 0.607618 0.638386
O O17 0.570240 0.500000 0.509455
O O18 0.606288 0.619019 0.699062
O O19 0.625238 0.500000 0.906912
O O20 0.630271 0.700123 0.940521
#
# Coordination Sequence:
#
# PCOD9349030 Si02
#       8
#     8   8   8   8   8   8   8   8
#     4  11  23  40  66  97 127 165 222 284 336 391
#     4  11  25  41  58  87 133 177 213 257 323 396
#     4  10  20  34  54  85 119 164 209 259 311 376
#     4  11  21  39  62  92 123 167 216 271 323 384
#     4  11  20  33  59  89 122 161 210 266 320 386
#     4  10  20  37  63  94 124 154 200 266 333 387
#     4  10  21  36  60  93 122 156 210 272 328 384
#     4  12  23  40  61  89 128 175 218 263 325 392
#
# _framework density 20.525055999999999
#
# number of rings (size 3 to 8) (size 9 to 14) (size 15 to 20)
#    0.000    1.250    2.500    4.875    0.000    3.500 
#    0.000    1.875    0.000    4.500    0.000    1.750 
#    0.000    0.000    0.000    0.000    0.000    0.000 
#
# Total GULP energy -178135.805024 kJ/mol
# GULP energy per Si atom -5566.743907 kJ/mol
# Density = 2.047834 g / cm^3
# Si number density = 20.525056 Si / 1000 Ang^3
#
#
#
# Elastic Constant Matrix: (Units=GPa)
#
#
# Indices 1 2 3 4 5 6 
#
# 1 77.6932 13.4049 21.1020 0.0000 0.0000 0.0000
# 2 13.4049 144.7961 24.6676 0.0000 0.0000 0.0000
# 3 21.1020 24.6676 74.0606 0.0000 0.0000 0.0000
# 4 0.0000 0.0000 0.0000 18.5412 0.0000 0.0000
# 5 0.0000 0.0000 0.0000 0.0000 13.6678 0.0000
# 6 0.0000 0.0000 0.0000 0.0000 0.0000 26.4468
#
#
#
# Elastic Compliance Matrix: (Units=1/GPa)
#
#
# Indices 1 2 3 4 5 6 
#
# 1 0.014009 -0.000654 -0.003774 0.000000 0.000000 0.000000
# 2 -0.000654 0.007352 -0.002262 0.000000 0.000000 0.000000
# 3 -0.003774 -0.002262 0.015331 0.000000 0.000000 0.000000
# 4 0.000000 0.000000 0.000000 0.053934 0.000000 0.000000
# 5 0.000000 0.000000 0.000000 0.000000 0.073164 0.000000
# 6 0.000000 0.000000 0.000000 0.000000 0.000000 0.037812
#
#
# Mechanical properties :
#
#
# Convention : Reuss Voigt Hill
#
# Bulk Modulus (GPa) = 42.89631 46.09986 44.49808
# Shear Modulus (GPa) = 22.44634 27.55622 25.00128
#
# Velocity S-wave (km/s) = 3.31056 3.66808 3.49389
# Velocity P-wave (km/s) = 5.96305 6.35993 6.16469
#
# Compressibility (1/GPa) = 0.02331203
#
# Stress axis : x y z
#
# Youngs Moduli (GPa) = 71.38296 136.01280 65.22617
#
# Poissons Ratio (x) = 0.08896 0.24614
# Poissons Ratio (y) = 0.04669 0.14757
# Poissons Ratio (z) = 0.26938 0.30773
#
# Static dielectric constant tensor:
#      x y z
#    x 2.184100 0.000000 0.000000 
#    y 0.000000 1.977480 0.000000 
#    z 0.000000 0.000000 1.736240 
# 
# From -- ./inp_files/9893.got.cif
#   From: 2010.05.17/outbox.cif.g08.bks.cpg/sg35_5_cif.got.tgz:9893.got - 2010.06.03 17:29:28.
