data_PCOD9349342
_publ_section_title
;
Structure prediction by ZEFSAII (Michael W. Deem and Ramdas Pophale) SiO2 
 PCOD9349342
Probable space group: C M M 2
;
_chemical_formula_sum "Si O2"
_cell_formula_units_Z 58
_cell_length_a 9.266878
_cell_length_b 19.222161
_cell_length_c 17.722111
_cell_angle_alpha 90.000000
_cell_angle_beta 90.000000
_cell_angle_gamma 90.000000
_cell_volume 3156.829369
_symmetry_space_group_name_H-M "C M M 2"
_symmetry_group_IT_number 35
_symmetry_cell_setting 'orthorhombic'
loop_
_space_group_symop_operation_xyz
x,y,z
-x,-y,z
-x,y,z
x,-y,z
1/2+x,1/2+y,z
1/2-x,1/2-y,z
1/2-x,1/2+y,z
1/2+x,1/2-y,z
loop_
_atom_site_type_symbol
_atom_site_label
_atom_site_fract_x
_atom_site_fract_y
_atom_site_fract_z
Si Si1 0.332265 0.581662 0.248440
Si Si2 0.163748 0.917148 0.662788
Si Si3 0.664359 0.321708 0.974839
Si Si4 0.826644 0.324897 0.546956
Si Si5 0.171457 0.417723 0.094365
Si Si6 0.293280 0.577222 0.838411
Si Si7 0.500000 0.000000 0.849957
Si Si8 0.173377 0.175874 0.394633
O O1 0.500000 0.592131 0.225564
O O2 0.314504 0.500000 0.266392
O O3 0.229661 0.598158 0.178160
O O4 0.305284 0.627159 0.322369
O O5 0.278634 0.874677 0.614703
O O6 0.175970 0.903157 0.752018
O O7 0.000000 0.900077 0.637912
O O8 0.185847 0.000000 0.653571
O O9 0.500000 0.308238 0.999129
O O10 0.750000 0.250000 0.966787
O O11 0.744809 0.370675 0.035048
O O12 0.661970 0.364697 0.897038
O O13 0.750000 0.250000 0.558798
O O14 0.753700 0.352156 0.469326
O O15 0.000000 0.318669 0.540781
O O16 0.199642 0.500000 0.079511
O O17 0.000000 0.407099 0.089072
O O18 0.357123 0.500000 0.852799
O O19 0.125331 0.560083 0.848142
O O20 0.250000 0.250000 0.380348
O O21 0.000000 0.183543 0.407322
#
# Coordination Sequence:
#
# PCOD9349342 Si02
#       8
#     8   8   8   8   8   8   2   8
#     4   9  19  37  60  85 113 147 189 234 281 334
#     4  10  21  38  60  87 118 148 190 239 286 340
#     4  12  26  40  59  85 118 152 193 241 287 339
#     4  11  23  38  58  82 115 154 195 238 286 343
#     4  10  22  39  62  87 116 152 190 234 285 341
#     4   9  21  38  64  85 115 152 190 232 286 341
#     4   8  20  36  66  88 116 152 182 248 272 356
#     4  10  20  36  58  82 112 150 190 232 284 340
#
# _framework density 18.372865000000001
#
# number of rings (size 3 to 8) (size 9 to 14) (size 15 to 20)
#    0.414    1.517    0.000    4.138    2.897    5.241 
#    0.000    4.138    0.000    0.000    0.000    0.000 
#    0.000    0.000    0.000    0.000    0.000    0.000 
#
# Total GULP energy -161532.819226 kJ/mol
# GULP energy per Si atom -5570.097215 kJ/mol
# Density = 1.833105 g / cm^3
# Si number density = 18.372865 Si / 1000 Ang^3
#
#
#
# Elastic Constant Matrix: (Units=GPa)
#
#
# Indices 1 2 3 4 5 6 
#
# 1 164.5114 61.3074 64.8724 0.0000 0.0000 0.0000
# 2 61.3074 73.0193 76.4393 0.0000 0.0000 0.0000
# 3 64.8724 76.4393 109.0362 0.0000 0.0000 0.0000
# 4 0.0000 0.0000 0.0000 51.6807 0.0000 0.0000
# 5 0.0000 0.0000 0.0000 0.0000 41.0230 0.0000
# 6 0.0000 0.0000 0.0000 0.0000 0.0000 97.5947
#
#
#
# Elastic Compliance Matrix: (Units=1/GPa)
#
#
# Indices 1 2 3 4 5 6 
#
# 1 0.008848 -0.007207 -0.000211 0.000000 0.000000 0.000000
# 2 -0.007207 0.057333 -0.035905 0.000000 0.000000 0.000000
# 3 -0.000211 -0.035905 0.034468 0.000000 0.000000 0.000000
# 4 0.000000 0.000000 0.000000 0.019350 0.000000 0.000000
# 5 0.000000 0.000000 0.000000 0.000000 0.024377 0.000000
# 6 0.000000 0.000000 0.000000 0.000000 0.000000 0.010246
#
#
# Mechanical properties :
#
#
# Convention : Reuss Voigt Hill
#
# Bulk Modulus (GPa) = 71.42134 83.53390 77.47762
# Shear Modulus (GPa) = 20.33049 47.65617 33.99333
#
# Velocity S-wave (km/s) = 3.33009 5.09850 4.30605
# Velocity P-wave (km/s) = 7.33101 8.95679 8.18437
#
# Compressibility (1/GPa) = 0.01400142
#
# Stress axis : x y z
#
# Youngs Moduli (GPa) = 113.02070 17.44199 29.01241
#
# Poissons Ratio (x) = 0.12571 0.00613
# Poissons Ratio (y) = 0.81459 1.04169
# Poissons Ratio (z) = 0.02390 0.62625
#
# Static dielectric constant tensor:
#      x y z
#    x 1.634660 0.000000 0.000000 
#    y 0.000000 1.613300 0.000000 
#    z 0.000000 0.000000 1.627950 
# 
# From -- ./inp_files/18126.got.cif
#   From: 2010.05.17/outbox.cif.g08.bks.cpg/sg35_10_cif.got.tgz:18126.got - 2010.06.03 17:29:28.
