data_PCOD9349978
_publ_section_title
;
Structure prediction by ZEFSAII (Michael W. Deem and Ramdas Pophale) SiO2 
 PCOD9349978
Probable space group: C M M 2
;
_chemical_formula_sum "Si O2"
_cell_formula_units_Z 22
_cell_length_a 5.345483
_cell_length_b 13.529099
_cell_length_c 13.961282
_cell_angle_alpha 90.000000
_cell_angle_beta 90.000000
_cell_angle_gamma 90.000000
_cell_volume 1009.673893
_symmetry_space_group_name_H-M "C M M 2"
_symmetry_group_IT_number 35
_symmetry_cell_setting 'orthorhombic'
loop_
_space_group_symop_operation_xyz
x,y,z
-x,-y,z
-x,y,z
x,-y,z
1/2+x,1/2+y,z
1/2-x,1/2-y,z
1/2-x,1/2+y,z
1/2+x,1/2-y,z
loop_
_atom_site_type_symbol
_atom_site_label
_atom_site_fract_x
_atom_site_fract_y
_atom_site_fract_z
Si Si1 0.500000 0.195819 0.306770
Si Si2 0.000000 0.000000 0.068184
Si Si3 0.500000 0.185478 0.799601
Si Si4 0.000000 0.500000 0.939747
Si Si5 0.000000 0.779892 0.096453
Si Si6 0.500000 0.000000 0.425790
Si Si7 0.000000 0.683342 0.577141
O O1 0.250000 0.250000 0.341461
O O2 0.500000 0.212116 0.191823
O O3 0.500000 0.085523 0.341809
O O4 0.000000 0.104601 0.123217
O O5 0.749094 0.000000 0.004671
O O6 0.250000 0.250000 0.811914
O O7 0.500000 0.150901 0.688372
O O8 0.500000 0.094975 0.871953
O O9 0.750000 0.750000 0.042182
O O10 0.500000 0.089020 0.507449
O O11 0.750000 0.750000 0.562868
#
# Coordination Sequence:
#
# PCOD9349978 Si02
#       7
#     4   2   4   2   4   2   4
#     4  10  24  41  62  91 122 161 211 258 313 368
#     4  12  26  40  64  92 126 162 210 266 310 368
#     4  10  22  42  65  92 132 167 199 254 311 368
#     4  12  25  40  65 100 120 162 216 252 312 376
#     4  10  23  43  63  87 121 162 208 258 319 371
#     4  12  23  40  67  94 128 166 210 264 298 364
#     4  10  23  41  63  95 130 167 206 248 309 371
#
# _framework density 21.789211999999999
#
# number of rings (size 3 to 8) (size 9 to 14) (size 15 to 20)
#    0.000    1.455    0.000    3.818    0.000   13.091 
#    0.000    5.455    0.000    0.000    0.000    0.000 
#    0.000    0.000    0.000    0.000    0.000    0.000 
#
# Total GULP energy -61251.097735 kJ/mol
# GULP energy per Si atom -5568.281612 kJ/mol
# Density = 2.173962 g / cm^3
# Si number density = 21.789212 Si / 1000 Ang^3
#
#
#
# Elastic Constant Matrix: (Units=GPa)
#
#
# Indices 1 2 3 4 5 6 
#
# 1 200.5807 70.6635 24.0608 0.0000 0.0000 0.0000
# 2 70.6635 223.0567 66.0756 0.0000 0.0000 0.0000
# 3 24.0608 66.0756 136.6355 0.0000 0.0000 0.0000
# 4 0.0000 0.0000 0.0000 38.8325 0.0000 0.0000
# 5 0.0000 0.0000 0.0000 0.0000 -22.7356 0.0000
# 6 0.0000 0.0000 0.0000 0.0000 0.0000 -5.9027
#
#
#
# Elastic Compliance Matrix: (Units=1/GPa)
#
#
# Indices 1 2 3 4 5 6 
#
# 1 0.005614 -0.001734 -0.000150 0.000000 0.000000 0.000000
# 2 -0.001734 0.005768 -0.002484 0.000000 0.000000 0.000000
# 3 -0.000150 -0.002484 0.008546 0.000000 0.000000 0.000000
# 4 0.000000 0.000000 0.000000 0.025752 0.000000 0.000000
# 5 0.000000 0.000000 0.000000 0.000000 -0.043984 0.000000
# 6 0.000000 0.000000 0.000000 0.000000 0.000000 -0.169413
#
#
# Mechanical properties :
#
#
# Convention : Reuss Voigt Hill
#
# Bulk Modulus (GPa) = 89.34498 97.98584 93.66541
# Shear Modulus (GPa) = -32.20658 28.67036 -1.76811
#
# Velocity S-wave (km/s) = -3.84877 3.63134 -0.90179
# Velocity P-wave (km/s) = 4.61979 7.91515 6.48044
#
# Compressibility (1/GPa) = 0.01119257
#
# Stress axis : x y z
#
# Youngs Moduli (GPa) = 178.11119 173.35729 117.00714
#
# Poissons Ratio (x) = 0.30064 0.01756
# Poissons Ratio (y) = 0.30888 0.29067
# Poissons Ratio (z) = 0.02672 0.43065
#
# Static dielectric constant tensor:
#      x y z
#    x 1.870590 0.000000 0.000000 
#    y 0.000000 1.737160 0.000000 
#    z 0.000000 0.000000 1.808040 
# 
# From -- ./inp_files/14630.got.cif
#   From: 2010.05.17/outbox.cif.g08.bks.cpg/sg35_8_cif.got.tgz:14630.got - 2010.06.03 17:29:28.
