data_PCOD9349157
_publ_section_title
;
Structure prediction by ZEFSAII (Michael W. Deem and Ramdas Pophale) SiO2 
 PCOD9349157
Probable space group: C M M 2
;
_chemical_formula_sum "Si O2"
_cell_formula_units_Z 58
_cell_length_a 31.037160
_cell_length_b 8.043785
_cell_length_c 12.675705
_cell_angle_alpha 90.000000
_cell_angle_beta 90.000000
_cell_angle_gamma 90.000000
_cell_volume 3164.568876
_symmetry_space_group_name_H-M "C M M 2"
_symmetry_group_IT_number 35
_symmetry_cell_setting 'orthorhombic'
loop_
_space_group_symop_operation_xyz
x,y,z
-x,-y,z
-x,y,z
x,-y,z
1/2+x,1/2+y,z
1/2-x,1/2-y,z
1/2-x,1/2+y,z
1/2+x,1/2-y,z
loop_
_atom_site_type_symbol
_atom_site_label
_atom_site_fract_x
_atom_site_fract_y
_atom_site_fract_z
Si Si1 0.298155 0.803553 0.452080
Si Si2 0.938841 0.807757 0.943131
Si Si3 0.298973 0.307033 0.689169
Si Si4 0.360654 0.298309 0.265200
Si Si5 0.952422 0.199372 0.194111
Si Si6 0.847747 0.311386 0.884288
Si Si7 0.797648 0.198306 0.078709
Si Si8 0.500000 0.000000 0.884054
O O1 0.250000 0.750000 0.416675
O O2 0.307091 0.720758 0.565229
O O3 0.334133 0.757993 0.366945
O O4 0.297058 0.000000 0.468677
O O5 0.888699 0.798978 0.913525
O O6 0.963157 0.652244 0.889317
O O7 0.952928 0.000000 0.921742
O O8 0.945236 0.778631 0.068756
O O9 0.302605 0.500000 0.715010
O O10 0.250000 0.250000 0.708377
O O11 0.331244 0.212229 0.765862
O O12 0.361364 0.500000 0.264626
O O13 0.409949 0.237889 0.254281
O O14 0.333359 0.243675 0.162761
O O15 0.000000 0.267035 0.221556
O O16 0.953799 0.000000 0.211294
O O17 0.860559 0.500000 0.902981
O O18 0.809240 0.268457 0.964368
O O19 0.750000 0.250000 0.112542
O O20 0.799674 0.000000 0.073862
#
# Coordination Sequence:
#
# PCOD9349157 Si02
#       8
#     8   8   8   8   8   8   8   2
#     4  11  22  38  58  83 111 146 191 241 291 347
#     4  11  21  37  57  84 120 156 197 246 296 355
#     4  11  22  39  61  84 112 150 193 244 293 344
#     4  10  20  35  55  81 114 149 191 236 290 348
#     4   9  17  33  57  82 112 152 192 237 289 346
#     4  12  23  37  56  85 118 153 196 240 294 354
#     4  11  22  35  51  77 115 160 195 233 286 350
#     4  12  22  36  56  90 112 162 202 244 304 346
#
# _framework density 18.327932000000001
#
# number of rings (size 3 to 8) (size 9 to 14) (size 15 to 20)
#    0.000    1.241    2.759    6.000    0.000    2.207 
#    1.241    0.000    0.000    0.000    1.793    0.000 
#    0.000    0.000    0.000    0.000    0.000    0.000 
#
# Total GULP energy -161650.318338 kJ/mol
# GULP energy per Si atom -5574.148908 kJ/mol
# Density = 1.828622 g / cm^3
# Si number density = 18.327932 Si / 1000 Ang^3
#
#
#
# Elastic Constant Matrix: (Units=GPa)
#
#
# Indices 1 2 3 4 5 6 
#
# 1 132.4251 7.9665 41.8366 0.0000 0.0000 0.0000
# 2 7.9665 77.0373 -1.6876 0.0000 0.0000 0.0000
# 3 41.8366 -1.6876 52.3028 0.0000 0.0000 0.0000
# 4 0.0000 0.0000 0.0000 15.4090 0.0000 0.0000
# 5 0.0000 0.0000 0.0000 0.0000 -24.1372 0.0000
# 6 0.0000 0.0000 0.0000 0.0000 0.0000 14.2439
#
#
#
# Elastic Compliance Matrix: (Units=1/GPa)
#
#
# Indices 1 2 3 4 5 6 
#
# 1 0.010222 -0.001237 -0.008216 0.000000 0.000000 0.000000
# 2 -0.001237 0.013140 0.001413 0.000000 0.000000 0.000000
# 3 -0.008216 0.001413 0.025737 0.000000 0.000000 0.000000
# 4 0.000000 0.000000 0.000000 0.064897 0.000000 0.000000
# 5 0.000000 0.000000 0.000000 0.000000 -0.041430 0.000000
# 6 0.000000 0.000000 0.000000 0.000000 0.000000 0.070205
#
#
# Mechanical properties :
#
#
# Convention : Reuss Voigt Hill
#
# Bulk Modulus (GPa) = 30.28568 39.77736 35.03152
# Shear Modulus (GPa) = 29.43664 15.34646 22.39155
#
# Velocity S-wave (km/s) = 4.01198 2.89680 3.49910
# Velocity P-wave (km/s) = 6.16616 5.73924 5.95652
#
# Compressibility (1/GPa) = 0.03301891
#
# Stress axis : x y z
#
# Youngs Moduli (GPa) = 97.83290 76.10579 38.85465
#
# Poissons Ratio (x) = 0.09414 0.31923
# Poissons Ratio (y) = 0.12102 -0.05492
# Poissons Ratio (z) = 0.80380 -0.10757
#
# Static dielectric constant tensor:
#      x y z
#    x 1.706980 0.000000 0.000000 
#    y 0.000000 1.652480 0.000000 
#    z 0.000000 0.000000 1.601200 
# 
# From -- ./inp_files/14488.got.cif
#   From: 2010.05.17/outbox.cif.g08.bks.cpg/sg35_8_cif.got.tgz:14488.got - 2010.06.03 17:29:28.
