data_PCOD9349446
_publ_section_title
;
Structure prediction by ZEFSAII (Michael W. Deem and Ramdas Pophale) SiO2 
 PCOD9349446
Probable space group: C M M 2
;
_chemical_formula_sum "Si O2"
_cell_formula_units_Z 48
_cell_length_a 15.241393
_cell_length_b 8.752279
_cell_length_c 19.441623
_cell_angle_alpha 90.000000
_cell_angle_beta 90.000000
_cell_angle_gamma 90.000000
_cell_volume 2593.452704
_symmetry_space_group_name_H-M "C M M 2"
_symmetry_group_IT_number 35
_symmetry_cell_setting 'orthorhombic'
loop_
_space_group_symop_operation_xyz
x,y,z
-x,-y,z
-x,y,z
x,-y,z
1/2+x,1/2+y,z
1/2-x,1/2-y,z
1/2-x,1/2+y,z
1/2+x,1/2-y,z
loop_
_atom_site_type_symbol
_atom_site_label
_atom_site_fract_x
_atom_site_fract_y
_atom_site_fract_z
Si Si1 0.500000 0.818318 0.670531
Si Si2 0.605278 0.322460 0.911947
Si Si3 0.342660 0.316267 0.759013
Si Si4 0.150209 0.184092 0.408656
Si Si5 0.842224 0.318196 0.055930
Si Si6 0.000000 0.684724 0.311310
Si Si7 0.500000 0.813862 0.151958
Si Si8 0.500000 0.317304 0.519391
O O1 0.583125 0.749027 0.709931
O O2 0.500000 0.768314 0.591366
O O3 0.500000 0.000000 0.676316
O O4 0.500000 0.315665 0.909008
O O5 0.631393 0.500000 0.920817
O O6 0.640344 0.267994 0.838312
O O7 0.637111 0.231181 0.977968
O O8 0.344607 0.500000 0.757435
O O9 0.250000 0.250000 0.736922
O O10 0.250000 0.250000 0.410946
O O11 0.088064 0.251067 0.347981
O O12 0.088220 0.218500 0.475288
O O13 0.155463 0.000000 0.402282
O O14 0.839856 0.500000 0.058478
O O15 0.750000 0.250000 0.076598
O O16 0.916418 0.261987 0.108231
O O17 0.000000 0.500000 0.316829
O O18 0.000000 0.730961 0.231309
O O19 0.500000 0.000000 0.151251
O O20 0.500000 0.500000 0.530879
#
# Coordination Sequence:
#
# PCOD9349446 Si02
#       8
#     4   8   8   8   8   4   4   4
#     4  12  25  40  61  89 121 158 197 238 290 350
#     4  10  20  37  60  85 111 146 193 245 298 349
#     4  11  23  41  61  85 117 154 197 247 298 353
#     4  10  21  39  64  94 123 155 195 236 284 342
#     4  11  22  38  57  82 113 151 195 243 294 349
#     4  10  20  38  62  88 122 158 194 242 290 342
#     4   9  21  39  57  81 117 155 194 237 290 346
#     4   9  21  41  62  86 122 159 193 239 286 338
#
# _framework density 18.508144000000001
#
# number of rings (size 3 to 8) (size 9 to 14) (size 15 to 20)
#    0.000    1.667    1.667    3.500    0.000    6.000 
#    0.000    6.667    0.000    0.000    0.000    0.000 
#    0.000    0.000    0.000    0.000    0.000    0.000 
#
# Total GULP energy -134031.492132 kJ/mol
# GULP energy per Si atom -5584.645505 kJ/mol
# Density = 1.846602 g / cm^3
# Si number density = 18.508144 Si / 1000 Ang^3
#
#
#
# Elastic Constant Matrix: (Units=GPa)
#
#
# Indices 1 2 3 4 5 6 
#
# 1 190.1408 62.4971 96.2374 0.0000 0.0000 0.0000
# 2 62.4971 69.8545 62.5726 0.0000 0.0000 0.0000
# 3 96.2374 62.5726 153.6306 0.0000 0.0000 0.0000
# 4 0.0000 0.0000 0.0000 29.9419 0.0000 0.0000
# 5 0.0000 0.0000 0.0000 0.0000 104.5063 0.0000
# 6 0.0000 0.0000 0.0000 0.0000 0.0000 23.8247
#
#
#
# Elastic Compliance Matrix: (Units=1/GPa)
#
#
# Indices 1 2 3 4 5 6 
#
# 1 0.008502 -0.004465 -0.003507 0.000000 0.000000 0.000000
# 2 -0.004465 0.024883 -0.007338 0.000000 0.000000 0.000000
# 3 -0.003507 -0.007338 0.011695 0.000000 0.000000 0.000000
# 4 0.000000 0.000000 0.000000 0.033398 0.000000 0.000000
# 5 0.000000 0.000000 0.000000 0.000000 0.009569 0.000000
# 6 0.000000 0.000000 0.000000 0.000000 0.000000 0.041973
#
#
# Mechanical properties :
#
#
# Convention : Reuss Voigt Hill
#
# Bulk Modulus (GPa) = 69.15703 95.13779 82.14741
# Shear Modulus (GPa) = 30.21890 44.47584 37.34737
#
# Velocity S-wave (km/s) = 4.04510 4.90740 4.49696
# Velocity P-wave (km/s) = 7.69831 9.14467 8.45248
#
# Compressibility (1/GPa) = 0.01445985
#
# Stress axis : x y z
#
# Youngs Moduli (GPa) = 117.61957 40.18835 85.50803
#
# Poissons Ratio (x) = 0.17943 0.29991
# Poissons Ratio (y) = 0.52515 0.62744
# Poissons Ratio (z) = 0.41253 0.29489
#
# Static dielectric constant tensor:
#      x y z
#    x 1.617220 0.000000 0.000000 
#    y 0.000000 1.608550 0.000000 
#    z 0.000000 0.000000 1.622930 
# 
# From -- ./inp_files/17960.got.cif
#   From: 2010.05.17/outbox.cif.g08.bks.cpg/sg35_9_cif.got.tgz:17960.got - 2010.06.03 17:29:28.
