data_PCOD9349590
_publ_section_title
;
Structure prediction by ZEFSAII (Michael W. Deem and Ramdas Pophale) SiO2 
 PCOD9349590
Probable space group: C M M 2
;
_chemical_formula_sum "Si O2"
_cell_formula_units_Z 48
_cell_length_a 8.212463
_cell_length_b 18.387557
_cell_length_c 17.613987
_cell_angle_alpha 90.000000
_cell_angle_beta 90.000000
_cell_angle_gamma 90.000000
_cell_volume 2659.837652
_symmetry_space_group_name_H-M "C M M 2"
_symmetry_group_IT_number 35
_symmetry_cell_setting 'orthorhombic'
loop_
_space_group_symop_operation_xyz
x,y,z
-x,-y,z
-x,y,z
x,-y,z
1/2+x,1/2+y,z
1/2-x,1/2-y,z
1/2-x,1/2+y,z
1/2+x,1/2-y,z
loop_
_atom_site_type_symbol
_atom_site_label
_atom_site_fract_x
_atom_site_fract_y
_atom_site_fract_z
Si Si1 0.811000 0.332769 0.549630
Si Si2 0.192205 0.918217 0.405190
Si Si3 0.500000 0.585702 0.823518
Si Si4 0.699684 0.165315 0.088193
Si Si5 0.000000 0.912635 0.002974
Si Si6 0.683034 0.328977 0.705961
Si Si7 0.806068 0.583143 0.243640
O O1 0.750000 0.250000 0.551119
O O2 0.727513 0.375398 0.481678
O O3 0.779278 0.361627 0.634994
O O4 0.000000 0.334021 0.533533
O O5 0.256297 0.886633 0.325812
O O6 0.000000 0.923068 0.396852
O O7 0.262312 0.000000 0.411619
O O8 0.500000 0.500000 0.811414
O O9 0.346453 0.621185 0.779123
O O10 0.500000 0.600785 0.912395
O O11 0.500000 0.157086 0.073520
O O12 0.750000 0.250000 0.083872
O O13 0.734804 0.133332 0.172293
O O14 0.831861 0.121952 0.036226
O O15 0.000000 0.000000 0.016459
O O16 0.500000 0.316857 0.674951
O O17 0.750000 0.250000 0.727438
O O18 0.739016 0.500000 0.235656
O O19 0.000000 0.577249 0.243456
#
# Coordination Sequence:
#
# PCOD9349590 Si02
#       7
#     8   8   4   8   4   8   8
#     4  11  21  35  56  80 114 151 197 244 294 350
#     4  10  21  35  53  81 115 156 202 245 293 350
#     4   9  22  40  62  91 122 154 193 245 306 364
#     4  11  23  41  64  95 131 164 209 267 313 368
#     4  11  24  44  68  95 128 170 207 251 320 390
#     4   9  18  35  59  84 113 151 197 237 294 359
#     4   9  19  36  57  81 115 160 205 249 303 363
#
# _framework density 18.046215
#
# number of rings (size 3 to 8) (size 9 to 14) (size 15 to 20)
#    0.500    1.500    0.833    4.000    1.167    4.000 
#    0.000    2.500    0.000    3.500    0.000    0.000 
#    0.000    0.000    0.000    0.000    0.000    0.000 
#
# Total GULP energy -133620.375575 kJ/mol
# GULP energy per Si atom -5567.515649 kJ/mol
# Density = 1.800514 g / cm^3
# Si number density = 18.046215 Si / 1000 Ang^3
#
#
#
# Elastic Constant Matrix: (Units=GPa)
#
#
# Indices 1 2 3 4 5 6 
#
# 1 54.2282 26.7778 32.1201 0.0000 0.0000 0.0000
# 2 26.7778 79.1353 75.5748 0.0000 0.0000 0.0000
# 3 32.1201 75.5748 154.4830 0.0000 0.0000 0.0000
# 4 0.0000 0.0000 0.0000 11.7283 0.0000 0.0000
# 5 0.0000 0.0000 0.0000 0.0000 47.8315 0.0000
# 6 0.0000 0.0000 0.0000 0.0000 0.0000 23.3508
#
#
#
# Elastic Compliance Matrix: (Units=1/GPa)
#
#
# Indices 1 2 3 4 5 6 
#
# 1 0.022398 -0.005878 -0.001782 0.000000 0.000000 0.000000
# 2 -0.005878 0.025260 -0.011135 0.000000 0.000000 0.000000
# 3 -0.001782 -0.011135 0.012291 0.000000 0.000000 0.000000
# 4 0.000000 0.000000 0.000000 0.085264 0.000000 0.000000
# 5 0.000000 0.000000 0.000000 0.000000 0.020907 0.000000
# 6 0.000000 0.000000 0.000000 0.000000 0.000000 0.042825
#
#
# Mechanical properties :
#
#
# Convention : Reuss Voigt Hill
#
# Bulk Modulus (GPa) = 44.72265 61.86577 53.29421
# Shear Modulus (GPa) = 19.68604 26.80705 23.24654
#
# Velocity S-wave (km/s) = 3.30641 3.85836 3.59300
# Velocity P-wave (km/s) = 6.27794 7.36244 6.84171
#
# Compressibility (1/GPa) = 0.02236004
#
# Stress axis : x y z
#
# Youngs Moduli (GPa) = 44.64632 39.58872 81.35949
#
# Poissons Ratio (x) = 0.23269 0.14495
# Poissons Ratio (y) = 0.26242 0.90596
# Poissons Ratio (z) = 0.07954 0.44083
#
# Static dielectric constant tensor:
#      x y z
#    x 1.628430 0.000000 0.000000 
#    y 0.000000 1.645280 0.000000 
#    z 0.000000 0.000000 1.613950 
# 
# From -- ./inp_files/17943.got.cif
#   From: 2010.05.17/outbox.cif.g08.bks.cpg/sg35_9_cif.got.tgz:17943.got - 2010.06.03 17:29:28.
