data_PCOD9349156
_publ_section_title
;
Structure prediction by ZEFSAII (Michael W. Deem and Ramdas Pophale) SiO2 
 PCOD9349156
Probable space group: C M M 2
;
_chemical_formula_sum "Si O2"
_cell_formula_units_Z 64
_cell_length_a 28.774672
_cell_length_b 8.739002
_cell_length_c 13.320053
_cell_angle_alpha 90.000000
_cell_angle_beta 90.000000
_cell_angle_gamma 90.000000
_cell_volume 3349.486051
_symmetry_space_group_name_H-M "C M M 2"
_symmetry_group_IT_number 35
_symmetry_cell_setting 'orthorhombic'
loop_
_space_group_symop_operation_xyz
x,y,z
-x,-y,z
-x,y,z
x,-y,z
1/2+x,1/2+y,z
1/2-x,1/2-y,z
1/2-x,1/2+y,z
1/2+x,1/2-y,z
loop_
_atom_site_type_symbol
_atom_site_label
_atom_site_fract_x
_atom_site_fract_y
_atom_site_fract_z
Si Si1 0.052920 0.184298 0.128950
Si Si2 0.697940 0.315673 0.833989
Si Si3 0.145322 0.815637 0.036542
Si Si4 0.443584 0.826740 0.342437
Si Si5 0.697960 0.183667 0.227770
Si Si6 0.445865 0.682507 0.555875
Si Si7 0.801816 0.315881 0.449767
Si Si8 0.641542 0.183549 0.646744
O O1 0.091061 0.228062 0.046268
O O2 0.068565 0.249374 0.237003
O O3 0.000000 0.235778 0.108746
O O4 0.052209 0.000000 0.136425
O O5 0.700029 0.500000 0.831488
O O6 0.750000 0.250000 0.831402
O O7 0.668528 0.255615 0.739911
O O8 0.671793 0.266237 0.936234
O O9 0.169807 0.750212 0.135175
O O10 0.147934 0.000000 0.039854
O O11 0.500000 0.833027 0.341410
O O12 0.431918 0.737519 0.443863
O O13 0.425177 0.000000 0.347693
O O14 0.750000 0.250000 0.222263
O O15 0.679562 0.227141 0.339034
O O16 0.699180 0.000000 0.221136
O O17 0.500000 0.725343 0.571026
O O18 0.442256 0.500000 0.561541
O O19 0.411098 0.759605 0.634190
O O20 0.798932 0.500000 0.451858
O O21 0.750000 0.250000 0.459448
O O22 0.832394 0.267193 0.544066
O O23 0.642972 0.000000 0.653318
#
# Coordination Sequence:
#
# PCOD9349156 Si02
#       8
#     8   8   8   8   8   8   8   8
#     4   9  18  34  55  81 115 154 197 242 289 346
#     4  11  24  43  64  87 116 150 197 250 301 357
#     4  10  22  38  58  85 115 152 198 244 295 350
#     4   9  17  30  50  78 114 155 195 238 287 338
#     4  10  20  35  55  81 114 148 184 231 291 356
#     4  10  21  37  57  84 119 159 202 244 289 345
#     4   9  20  36  54  81 114 147 183 230 288 352
#     4  11  23  39  61  88 118 152 197 245 299 356
#
# _framework density 19.107408
#
# number of rings (size 3 to 8) (size 9 to 14) (size 15 to 20)
#    0.000    2.125    0.000    2.625    1.750    7.250 
#    0.000    0.625    0.000    2.250    0.000    0.000 
#    0.000    0.000    0.000    0.000    0.000    0.000 
#
# Total GULP energy -178704.776088 kJ/mol
# GULP energy per Si atom -5584.524253 kJ/mol
# Density = 1.906392 g / cm^3
# Si number density = 19.107408 Si / 1000 Ang^3
#
#
#
# Elastic Constant Matrix: (Units=GPa)
#
#
# Indices 1 2 3 4 5 6 
#
# 1 129.5827 37.9519 91.8627 0.0000 0.0000 0.0000
# 2 37.9519 32.8936 39.9771 0.0000 0.0000 0.0000
# 3 91.8627 39.9771 144.8715 0.0000 0.0000 0.0000
# 4 0.0000 0.0000 0.0000 25.8405 0.0000 0.0000
# 5 0.0000 0.0000 0.0000 0.0000 34.7344 0.0000
# 6 0.0000 0.0000 0.0000 0.0000 0.0000 22.7514
#
#
#
# Elastic Compliance Matrix: (Units=1/GPa)
#
#
# Indices 1 2 3 4 5 6 
#
# 1 0.015608 -0.008998 -0.007414 0.000000 0.000000 0.000000
# 2 -0.008998 0.050928 -0.008348 0.000000 0.000000 0.000000
# 3 -0.007414 -0.008348 0.013908 0.000000 0.000000 0.000000
# 4 0.000000 0.000000 0.000000 0.038699 0.000000 0.000000
# 5 0.000000 0.000000 0.000000 0.000000 0.028790 0.000000
# 6 0.000000 0.000000 0.000000 0.000000 0.000000 0.043953
#
#
# Mechanical properties :
#
#
# Convention : Reuss Voigt Hill
#
# Bulk Modulus (GPa) = 32.33733 71.88125 52.10929
# Shear Modulus (GPa) = 19.86373 25.83567 22.84970
#
# Velocity S-wave (km/s) = 3.22775 3.68112 3.46187
# Velocity P-wave (km/s) = 5.55445 7.46785 6.58106
#
# Compressibility (1/GPa) = 0.03092401
#
# Stress axis : x y z
#
# Youngs Moduli (GPa) = 64.06798 19.63548 71.90206
#
# Poissons Ratio (x) = 0.17667 0.53311
# Poissons Ratio (y) = 0.57646 0.60026
# Poissons Ratio (z) = 0.47503 0.16392
#
# Static dielectric constant tensor:
#      x y z
#    x 1.698610 0.000000 0.000000 
#    y 0.000000 1.643730 0.000000 
#    z 0.000000 0.000000 1.641350 
# 
# From -- ./inp_files/11892.got.cif
#   From: 2010.05.17/outbox.cif.g08.bks.cpg/sg35_6_cif.got.tgz:11892.got - 2010.06.03 17:29:28.
