data_PCOD9349397
_publ_section_title
;
Structure prediction by ZEFSAII (Michael W. Deem and Ramdas Pophale) SiO2 
 PCOD9349397
Probable space group: C M M 2
;
_chemical_formula_sum "Si O2"
_cell_formula_units_Z 40
_cell_length_a 7.881459
_cell_length_b 16.234821
_cell_length_c 14.873434
_cell_angle_alpha 90.000000
_cell_angle_beta 90.000000
_cell_angle_gamma 90.000000
_cell_volume 1903.116506
_symmetry_space_group_name_H-M "C M M 2"
_symmetry_group_IT_number 35
_symmetry_cell_setting 'orthorhombic'
loop_
_space_group_symop_operation_xyz
x,y,z
-x,-y,z
-x,y,z
x,-y,z
1/2+x,1/2+y,z
1/2-x,1/2-y,z
1/2-x,1/2+y,z
1/2+x,1/2-y,z
loop_
_atom_site_type_symbol
_atom_site_label
_atom_site_fract_x
_atom_site_fract_y
_atom_site_fract_z
Si Si1 0.206134 0.406861 0.868050
Si Si2 0.204298 0.661088 0.051746
Si Si3 0.296677 0.846038 0.476883
Si Si4 0.698328 0.000000 0.151864
Si Si5 0.303232 0.500000 0.353624
Si Si6 0.204217 0.654766 0.678054
O O1 0.246045 0.500000 0.894793
O O2 0.269314 0.389920 0.767380
O O3 0.000000 0.400050 0.864101
O O4 0.266663 0.348930 0.948648
O O5 0.250000 0.750000 0.089028
O O6 0.269882 0.583974 0.109415
O O7 0.000000 0.657291 0.049442
O O8 0.500000 0.849123 0.477587
O O9 0.250000 0.750000 0.457646
O O10 0.236077 0.916972 0.409673
O O11 0.233270 0.867627 0.578208
O O12 0.500000 0.000000 0.125991
O O13 0.708624 0.000000 0.258824
O O14 0.500000 0.500000 0.331475
O O15 0.250000 0.750000 0.690087
O O16 0.000000 0.644627 0.676077
#
# Coordination Sequence:
#
# PCOD9349397 Si02
#       6
#     8   8   8   4   4   8
#     4   9  16  29  52  82 115 152 194 229 267 333
#     4  10  20  36  60  86 114 151 190 233 284 340
#     4  10  21  39  62  90 122 158 199 243 293 350
#     4  10  22  42  61  82 112 148 193 240 293 358
#     4  12  26  42  63  88 116 152 195 250 307 358
#     4   9  18  31  53  81 114 152 191 232 275 332
#
# _framework density 21.018156000000001
#
# number of rings (size 3 to 8) (size 9 to 14) (size 15 to 20)
#    0.000    2.200    1.000    2.100    1.400    2.400 
#    0.000    2.000    0.000    1.200    0.000    0.000 
#    0.000    0.000    0.000    0.000    0.000    0.000 
#
# Total GULP energy -111583.631192 kJ/mol
# GULP energy per Si atom -5579.181560 kJ/mol
# Density = 2.097032 g / cm^3
# Si number density = 21.018156 Si / 1000 Ang^3
#
#
#
# Elastic Constant Matrix: (Units=GPa)
#
#
# Indices 1 2 3 4 5 6 
#
# 1 27.1197 -2.1378 -9.7411 0.0000 0.0000 0.0000
# 2 -2.1378 137.5726 73.8657 0.0000 0.0000 0.0000
# 3 -9.7411 73.8657 100.3077 0.0000 0.0000 0.0000
# 4 0.0000 0.0000 0.0000 18.0404 0.0000 0.0000
# 5 0.0000 0.0000 0.0000 0.0000 -6.3156 0.0000
# 6 0.0000 0.0000 0.0000 0.0000 0.0000 27.4050
#
#
#
# Elastic Compliance Matrix: (Units=1/GPa)
#
#
# Indices 1 2 3 4 5 6 
#
# 1 0.038657 -0.002340 0.005477 0.000000 0.000000 0.000000
# 2 -0.002340 0.012164 -0.009185 0.000000 0.000000 0.000000
# 3 0.005477 -0.009185 0.017265 0.000000 0.000000 0.000000
# 4 0.000000 0.000000 0.000000 0.055431 0.000000 0.000000
# 5 0.000000 0.000000 0.000000 0.000000 -0.158338 0.000000
# 6 0.000000 0.000000 0.000000 0.000000 0.000000 0.036490
#
#
# Mechanical properties :
#
#
# Convention : Reuss Voigt Hill
#
# Bulk Modulus (GPa) = 17.86029 43.21927 30.53978
# Shear Modulus (GPa) = 154.19201 21.36017 87.77609
#
# Velocity S-wave (km/s) = 8.57442 3.19136 6.46937
# Velocity P-wave (km/s) = 10.32199 5.84698 8.38840
#
# Compressibility (1/GPa) = 0.05599014
#
# Stress axis : x y z
#
# Youngs Moduli (GPa) = 25.86884 82.20986 57.92144
#
# Poissons Ratio (x) = 0.19239 -0.31725
# Poissons Ratio (y) = 0.06054 0.53199
# Poissons Ratio (z) = -0.14169 0.75507
#
# Static dielectric constant tensor:
#      x y z
#    x 1.780230 0.000000 0.000000 
#    y 0.000000 1.741200 0.000000 
#    z 0.000000 0.000000 1.775690 
# 
# From -- ./inp_files/14747.got.cif
#   From: 2010.05.17/outbox.cif.g08.bks.cpg/sg35_8_cif.got.tgz:14747.got - 2010.06.03 17:29:28.
