data_PCOD9349952
_publ_section_title
;
Structure prediction by ZEFSAII (Michael W. Deem and Ramdas Pophale) SiO2 
 PCOD9349952
Probable space group: C M M 2
;
_chemical_formula_sum "Si O2"
_cell_formula_units_Z 48
_cell_length_a 15.880893
_cell_length_b 7.740857
_cell_length_c 18.070570
_cell_angle_alpha 90.000000
_cell_angle_beta 90.000000
_cell_angle_gamma 90.000000
_cell_volume 2221.446283
_symmetry_space_group_name_H-M "C M M 2"
_symmetry_group_IT_number 35
_symmetry_cell_setting 'orthorhombic'
loop_
_space_group_symop_operation_xyz
x,y,z
-x,-y,z
-x,y,z
x,-y,z
1/2+x,1/2+y,z
1/2-x,1/2-y,z
1/2-x,1/2+y,z
1/2+x,1/2-y,z
loop_
_atom_site_type_symbol
_atom_site_label
_atom_site_fract_x
_atom_site_fract_y
_atom_site_fract_z
Si Si1 0.600791 0.801464 0.837290
Si Si2 0.842739 0.705511 0.153399
Si Si3 0.848332 0.292651 0.679084
Si Si4 0.000000 0.196104 0.254176
Si Si5 0.348477 0.791673 0.516408
Si Si6 0.000000 0.299379 0.419079
Si Si7 0.598787 0.211152 0.995803
O O1 0.500000 0.808977 0.844805
O O2 0.618636 0.721413 0.757271
O O3 0.632946 0.000000 0.834351
O O4 0.630705 0.724655 0.915663
O O5 0.851562 0.500000 0.150481
O O6 0.750000 0.750000 0.181298
O O7 0.917924 0.770544 0.204590
O O8 0.853881 0.771977 0.069124
O O9 0.863903 0.500000 0.680022
O O10 0.750000 0.250000 0.679280
O O11 0.877633 0.229950 0.598404
O O12 0.000000 0.296660 0.330897
O O13 0.000000 0.000000 0.278369
O O14 0.250000 0.750000 0.503961
O O15 0.414342 0.726488 0.455263
O O16 0.350119 0.000000 0.518331
O O17 0.000000 0.500000 0.441386
O O18 0.500000 0.256510 0.004972
O O19 0.602211 0.000000 0.992924
#
# Coordination Sequence:
#
# PCOD9349952 Si02
#       7
#     8   8   8   4   8   4   8
#     4   8  14  24  44  75 106 140 186 230 266 313
#     4  11  22  39  63  90 120 156 195 238 289 347
#     4   9  17  29  47  73 105 142 180 225 271 318
#     4  12  26  44  64  89 118 148 188 239 294 356
#     4   9  19  35  56  82 114 147 185 229 278 332
#     4  10  22  40  62  85 110 146 184 229 288 346
#     4   8  14  28  50  77 110 149 189 233 281 327
#
# _framework density 21.607544999999998
#
# number of rings (size 3 to 8) (size 9 to 14) (size 15 to 20)
#    0.000    2.667    0.833    2.250    1.167    2.000 
#    0.000    1.667    0.000    1.500    0.000    0.000 
#    0.000    0.000    0.000    0.000    0.000    0.000 
#
# Total GULP energy -133784.747914 kJ/mol
# GULP energy per Si atom -5574.364496 kJ/mol
# Density = 2.155837 g / cm^3
# Si number density = 21.607545 Si / 1000 Ang^3
#
#
#
# Elastic Constant Matrix: (Units=GPa)
#
#
# Indices 1 2 3 4 5 6 
#
# 1 96.1990 -3.9326 65.9230 0.0000 0.0000 0.0000
# 2 -3.9326 36.9409 -6.6421 0.0000 0.0000 0.0000
# 3 65.9230 -6.6421 152.6239 0.0000 0.0000 0.0000
# 4 0.0000 0.0000 0.0000 -5.8152 0.0000 0.0000
# 5 0.0000 0.0000 0.0000 0.0000 -25.6352 0.0000
# 6 0.0000 0.0000 0.0000 0.0000 0.0000 14.7275
#
#
#
# Elastic Compliance Matrix: (Units=1/GPa)
#
#
# Indices 1 2 3 4 5 6 
#
# 1 0.014772 0.000429 -0.006362 0.000000 0.000000 0.000000
# 2 0.000429 0.027296 0.001003 0.000000 0.000000 0.000000
# 3 -0.006362 0.001003 0.009344 0.000000 0.000000 0.000000
# 4 0.000000 0.000000 0.000000 -0.171962 0.000000 0.000000
# 5 0.000000 0.000000 0.000000 0.000000 -0.039009 0.000000
# 6 0.000000 0.000000 0.000000 0.000000 0.000000 0.067900
#
#
# Mechanical properties :
#
#
# Convention : Reuss Voigt Hill
#
# Bulk Modulus (GPa) = 24.06674 44.05116 34.05895
# Shear Modulus (GPa) = -73.58669 12.01645 -30.78512
#
# Velocity S-wave (km/s) = -5.84208 2.36078 -3.77867
# Velocity P-wave (km/s) = 5.86040 5.27847 1.80028
#
# Compressibility (1/GPa) = 0.04155111
#
# Stress axis : x y z
#
# Youngs Moduli (GPa) = 67.69398 36.63516 107.02482
#
# Poissons Ratio (x) = -0.01571 0.68089
# Poissons Ratio (y) = -0.02902 -0.10732
# Poissons Ratio (z) = 0.43067 -0.03674
#
# Static dielectric constant tensor:
#      x y z
#    x 1.762000 0.000000 0.000000 
#    y 0.000000 1.814530 0.000000 
#    z 0.000000 0.000000 1.835110 
# 
# From -- ./inp_files/18802.got.cif
#   From: 2010.05.17/outbox.cif.g08.bks.cpg/sg35_10_cif.got.tgz:18802.got - 2010.06.03 17:29:28.
