data_PCOD9349825
_publ_section_title
;
Structure prediction by ZEFSAII (Michael W. Deem and Ramdas Pophale) SiO2 
 PCOD9349825
Probable space group: C M M 2
;
_chemical_formula_sum "Si O2"
_cell_formula_units_Z 40
_cell_length_a 8.874743
_cell_length_b 31.017873
_cell_length_c 7.324257
_cell_angle_alpha 90.000000
_cell_angle_beta 90.000000
_cell_angle_gamma 90.000000
_cell_volume 2016.189616
_symmetry_space_group_name_H-M "C M M 2"
_symmetry_group_IT_number 35
_symmetry_cell_setting 'orthorhombic'
loop_
_space_group_symop_operation_xyz
x,y,z
-x,-y,z
-x,y,z
x,-y,z
1/2+x,1/2+y,z
1/2-x,1/2-y,z
1/2-x,1/2+y,z
1/2+x,1/2-y,z
loop_
_atom_site_type_symbol
_atom_site_label
_atom_site_fract_x
_atom_site_fract_y
_atom_site_fract_z
Si Si1 0.320282 0.452688 0.301770
Si Si2 0.321972 0.858954 0.874557
Si Si3 0.819878 0.453367 0.899961
Si Si4 0.821565 0.202804 0.588557
Si Si5 0.178024 0.363139 0.311313
O O1 0.500000 0.448207 0.318556
O O2 0.276081 0.500000 0.376534
O O3 0.272045 0.453954 0.088627
O O4 0.238973 0.409953 0.372073
O O5 0.500000 0.851711 0.840840
O O6 0.283362 0.907705 0.808904
O O7 0.297857 0.858401 0.093045
O O8 0.228404 0.823503 0.768264
O O9 0.793463 0.500000 0.808892
O O10 0.000000 0.451031 0.943106
O O11 0.750000 0.250000 0.587996
O O12 0.759805 0.174392 0.420888
O O13 0.000000 0.206209 0.579118
O O14 0.000000 0.361187 0.345366
#
# Coordination Sequence:
#
# PCOD9349825 Si02
#       5
#     8   8   8   8   8
#     4   9  16  27  48  81 119 155 191 232 279 333
#     4   9  19  37  61  88 118 152 191 235 282 337
#     4   8  14  27  50  80 114 153 193 230 273 330
#     4  12  26  43  63  85 113 148 189 242 297 350
#     4  10  21  39  63  88 117 154 195 238 285 342
#
# _framework density 19.839403999999998
#
# number of rings (size 3 to 8) (size 9 to 14) (size 15 to 20)
#    0.000    2.400    0.000    4.200    0.000    6.000 
#    0.000    1.000    0.000    3.600    0.000    0.000 
#    0.000    0.000    0.000    0.000    0.000    0.000 
#
# Total GULP energy -111593.302862 kJ/mol
# GULP energy per Si atom -5579.665143 kJ/mol
# Density = 1.979425 g / cm^3
# Si number density = 19.839404 Si / 1000 Ang^3
#
#
#
# Elastic Constant Matrix: (Units=GPa)
#
#
# Indices 1 2 3 4 5 6 
#
# 1 110.4618 105.5310 51.8956 0.0000 0.0000 0.0000
# 2 105.5310 228.0187 57.1386 0.0000 0.0000 0.0000
# 3 51.8956 57.1386 79.2713 0.0000 0.0000 0.0000
# 4 0.0000 0.0000 0.0000 33.0535 0.0000 0.0000
# 5 0.0000 0.0000 0.0000 0.0000 23.9374 0.0000
# 6 0.0000 0.0000 0.0000 0.0000 0.0000 35.0234
#
#
#
# Elastic Compliance Matrix: (Units=1/GPa)
#
#
# Indices 1 2 3 4 5 6 
#
# 1 0.019362 -0.007060 -0.007587 0.000000 0.000000 0.000000
# 2 -0.007060 0.007927 -0.001092 0.000000 0.000000 0.000000
# 3 -0.007587 -0.001092 0.018368 0.000000 0.000000 0.000000
# 4 0.000000 0.000000 0.000000 0.030254 0.000000 0.000000
# 5 0.000000 0.000000 0.000000 0.000000 0.041776 0.000000
# 6 0.000000 0.000000 0.000000 0.000000 0.000000 0.028552
#
#
# Mechanical properties :
#
#
# Convention : Reuss Voigt Hill
#
# Bulk Modulus (GPa) = 70.51935 94.09803 82.30869
# Shear Modulus (GPa) = 27.40592 31.94863 29.67728
#
# Velocity S-wave (km/s) = 3.72074 4.01729 3.87185
# Velocity P-wave (km/s) = 7.35396 8.30969 7.84639
#
# Compressibility (1/GPa) = 0.01418050
#
# Stress axis : x y z
#
# Youngs Moduli (GPa) = 51.64766 126.15722 54.44122
#
# Poissons Ratio (x) = 0.89066 0.41303
# Poissons Ratio (y) = 0.36463 0.05943
# Poissons Ratio (z) = 0.39183 0.13772
#
# Static dielectric constant tensor:
#      x y z
#    x 1.654450 0.000000 0.000000 
#    y 0.000000 1.712700 0.000000 
#    z 0.000000 0.000000 1.733350 
# 
# From -- ./inp_files/4851.got.cif
#   From: 2010.05.17/outbox.cif.g08.bks.cpg/sg35_3_cif.got.tgz:4851.got - 2010.06.03 17:29:28.
