data_PCOD9349697
_publ_section_title
;
Structure prediction by ZEFSAII (Michael W. Deem and Ramdas Pophale) SiO2 
 PCOD9349697
Probable space group: C M M 2
;
_chemical_formula_sum "Si O2"
_cell_formula_units_Z 28
_cell_length_a 9.870882
_cell_length_b 23.084029
_cell_length_c 6.461320
_cell_angle_alpha 90.000000
_cell_angle_beta 90.000000
_cell_angle_gamma 90.000000
_cell_volume 1472.274607
_symmetry_space_group_name_H-M "C M M 2"
_symmetry_group_IT_number 35
_symmetry_cell_setting 'orthorhombic'
loop_
_space_group_symop_operation_xyz
x,y,z
-x,-y,z
-x,y,z
x,-y,z
1/2+x,1/2+y,z
1/2-x,1/2-y,z
1/2-x,1/2+y,z
1/2+x,1/2-y,z
loop_
_atom_site_type_symbol
_atom_site_label
_atom_site_fract_x
_atom_site_fract_y
_atom_site_fract_z
Si Si1 0.349233 0.341302 0.824650
Si Si2 0.842732 0.068369 0.472250
Si Si3 0.343725 0.848494 0.206779
Si Si4 0.250000 0.750000 0.504871
O O1 0.500000 0.340625 0.917786
O O2 0.329494 0.400482 0.695059
O O3 0.337695 0.290773 0.654285
O O4 0.234627 0.334315 0.995640
O O5 0.740027 0.100281 0.318324
O O6 0.000000 0.077806 0.407196
O O7 0.818668 0.000000 0.483610
O O8 0.500000 0.863312 0.171806
O O9 0.333116 0.793194 0.358328
#
# Coordination Sequence:
#
# PCOD9349697 Si02
#       4
#     8   8   8   4
#     4  10  21  37  58  83 111 148 192 233 276 331
#     4   9  20  40  62  82 109 149 194 234 273 327
#     4  11  23  37  57  87 118 147 183 232 287 336
#     4  10  22  38  58  80 112 152 192 232 274 330
#
# _framework density 19.018191000000002
#
# number of rings (size 3 to 8) (size 9 to 14) (size 15 to 20)
#    0.000    2.000    0.000    2.571    0.000   13.143 
#    0.000    2.857    0.000    0.000    0.000    0.000 
#    0.000    0.000    0.000    0.000    0.000    0.000 
#
# Total GULP energy -78184.620203 kJ/mol
# GULP energy per Si atom -5584.615729 kJ/mol
# Density = 1.897490 g / cm^3
# Si number density = 19.018191 Si / 1000 Ang^3
#
#
#
# Elastic Constant Matrix: (Units=GPa)
#
#
# Indices 1 2 3 4 5 6 
#
# 1 157.9791 55.3624 76.0904 0.0000 0.0000 0.0000
# 2 55.3624 127.4097 49.0627 0.0000 0.0000 0.0000
# 3 76.0904 49.0627 99.9198 0.0000 0.0000 0.0000
# 4 0.0000 0.0000 0.0000 8.5586 0.0000 0.0000
# 5 0.0000 0.0000 0.0000 0.0000 22.6111 0.0000
# 6 0.0000 0.0000 0.0000 0.0000 0.0000 11.3687
#
#
#
# Elastic Compliance Matrix: (Units=1/GPa)
#
#
# Indices 1 2 3 4 5 6 
#
# 1 0.010320 -0.001798 -0.006976 0.000000 0.000000 0.000000
# 2 -0.001798 0.009992 -0.003537 0.000000 0.000000 0.000000
# 3 -0.006976 -0.003537 0.017057 0.000000 0.000000 0.000000
# 4 0.000000 0.000000 0.000000 0.116841 0.000000 0.000000
# 5 0.000000 0.000000 0.000000 0.000000 0.044226 0.000000
# 6 0.000000 0.000000 0.000000 0.000000 0.000000 0.087961
#
#
# Mechanical properties :
#
#
# Convention : Reuss Voigt Hill
#
# Bulk Modulus (GPa) = 78.44972 82.92662 80.68817
# Shear Modulus (GPa) = 15.85948 22.16054 19.01001
#
# Velocity S-wave (km/s) = 2.89089 3.41725 3.16503
# Velocity P-wave (km/s) = 7.24447 7.69861 7.47499
#
# Compressibility (1/GPa) = 0.01274702
#
# Stress axis : x y z
#
# Youngs Moduli (GPa) = 96.89902 100.07984 58.62640
#
# Poissons Ratio (x) = 0.17994 0.40898
# Poissons Ratio (y) = 0.17422 0.20737
# Poissons Ratio (z) = 0.67597 0.35399
#
# Static dielectric constant tensor:
#      x y z
#    x 1.646990 0.000000 0.000000 
#    y 0.000000 1.652350 0.000000 
#    z 0.000000 0.000000 1.652560 
# 
# From -- ./inp_files/476.got.cif
#   From: 2010.05.17/outbox.cif.g08.bks.cpg/sg35_1_cif.got.tgz:476.got - 2010.06.03 17:29:28.
