data_PCOD9349262
_publ_section_title
;
Structure prediction by ZEFSAII (Michael W. Deem and Ramdas Pophale) SiO2 
 PCOD9349262
Probable space group: C M M 2
;
_chemical_formula_sum "Si O2"
_cell_formula_units_Z 56
_cell_length_a 8.650508
_cell_length_b 22.459560
_cell_length_c 14.743012
_cell_angle_alpha 90.000000
_cell_angle_beta 90.000000
_cell_angle_gamma 90.000000
_cell_volume 2864.369726
_symmetry_space_group_name_H-M "C M M 2"
_symmetry_group_IT_number 35
_symmetry_cell_setting 'orthorhombic'
loop_
_space_group_symop_operation_xyz
x,y,z
-x,-y,z
-x,y,z
x,-y,z
1/2+x,1/2+y,z
1/2-x,1/2-y,z
1/2-x,1/2+y,z
1/2+x,1/2-y,z
loop_
_atom_site_type_symbol
_atom_site_label
_atom_site_fract_x
_atom_site_fract_y
_atom_site_fract_z
Si Si1 0.683872 0.931941 0.046240
Si Si2 0.685306 0.500000 0.537368
Si Si3 0.185829 0.387672 0.426905
Si Si4 0.180689 0.930664 0.245059
Si Si5 0.317320 0.314370 0.947947
Si Si6 0.813862 0.500000 0.740945
Si Si7 0.684971 0.186586 0.590572
Si Si8 0.185422 0.629556 0.776057
O O1 0.500000 0.930904 0.031360
O O2 0.724130 0.924509 0.152660
O O3 0.737963 0.000000 0.021694
O O4 0.754125 0.874028 0.997295
O O5 0.500000 0.500000 0.529095
O O6 0.757144 0.556289 0.485700
O O7 0.734544 0.500000 0.642607
O O8 0.258791 0.391297 0.327784
O O9 0.236207 0.333068 0.490680
O O10 0.000000 0.389161 0.419364
O O11 0.000000 0.919277 0.226661
O O12 0.195268 0.000000 0.274240
O O13 0.500000 0.312186 0.958549
O O14 0.250000 0.250000 0.977229
O O15 0.270096 0.326229 0.843583
O O16 0.776255 0.439505 0.793799
O O17 0.000000 0.500000 0.725380
O O18 0.500000 0.188073 0.588923
O O19 0.750000 0.250000 0.615392
O O20 0.727736 0.141940 0.671572
O O21 0.000000 0.637241 0.786609
#
# Coordination Sequence:
#
# PCOD9349262 Si02
#       8
#     8   4   8   8   8   4   8   8
#     4  10  22  42  68  96 126 164 205 251 312 380
#     4  12  22  32  52  85 118 151 192 242 296 346
#     4  11  21  36  57  82 116 160 202 242 293 358
#     4  10  20  35  58  92 126 154 193 249 305 359
#     4  12  26  44  66  93 125 163 208 260 313 374
#     4  10  20  38  60  85 122 161 198 244 302 366
#     4  10  22  38  57  80 112 156 204 250 295 349
#     4  10  21  39  62  89 120 160 203 248 304 367
#
# _framework density 19.550549
#
# number of rings (size 3 to 8) (size 9 to 14) (size 15 to 20)
#    0.000    1.429    2.143    3.643    1.000    4.857 
#    0.000    0.714    0.000    1.714    0.000    0.000 
#    0.000    0.000    0.000    0.000    0.000    0.000 
#
# Total GULP energy -156344.488309 kJ/mol
# GULP energy per Si atom -5583.731725 kJ/mol
# Density = 1.950605 g / cm^3
# Si number density = 19.550549 Si / 1000 Ang^3
#
#
#
# Elastic Constant Matrix: (Units=GPa)
#
#
# Indices 1 2 3 4 5 6 
#
# 1 57.6934 38.4481 19.5218 0.0000 0.0000 0.0000
# 2 38.4481 123.4118 37.4900 0.0000 0.0000 0.0000
# 3 19.5218 37.4900 71.9932 0.0000 0.0000 0.0000
# 4 0.0000 0.0000 0.0000 27.4388 0.0000 0.0000
# 5 0.0000 0.0000 0.0000 0.0000 32.3727 0.0000
# 6 0.0000 0.0000 0.0000 0.0000 0.0000 26.0727
#
#
#
# Elastic Compliance Matrix: (Units=1/GPa)
#
#
# Indices 1 2 3 4 5 6 
#
# 1 0.022371 -0.006090 -0.002895 0.000000 0.000000 0.000000
# 2 -0.006090 0.011284 -0.004224 0.000000 0.000000 0.000000
# 3 -0.002895 -0.004224 0.016875 0.000000 0.000000 0.000000
# 4 0.000000 0.000000 0.000000 0.036445 0.000000 0.000000
# 5 0.000000 0.000000 0.000000 0.000000 0.030890 0.000000
# 6 0.000000 0.000000 0.000000 0.000000 0.000000 0.038354
#
#
# Mechanical properties :
#
#
# Convention : Reuss Voigt Hill
#
# Bulk Modulus (GPa) = 41.47497 49.33536 45.40516
# Shear Modulus (GPa) = 26.22264 27.68606 26.95435
#
# Velocity S-wave (km/s) = 3.66631 3.76723 3.71711
# Velocity P-wave (km/s) = 6.25961 6.64923 6.45736
#
# Compressibility (1/GPa) = 0.02411093
#
# Stress axis : x y z
#
# Youngs Moduli (GPa) = 44.70043 88.62407 59.25927
#
# Poissons Ratio (x) = 0.53974 0.17154
# Poissons Ratio (y) = 0.27224 0.25034
# Poissons Ratio (z) = 0.12940 0.37439
#
# Static dielectric constant tensor:
#      x y z
#    x 1.659480 0.000000 0.000000 
#    y 0.000000 1.684330 0.000000 
#    z 0.000000 0.000000 1.678550 
# 
# From -- ./inp_files/15705.got.cif
#   From: 2010.05.17/outbox.cif.g08.bks.cpg/sg35_8_cif.got.tgz:15705.got - 2010.06.03 17:29:28.
