data_PCOD9349610
_publ_section_title
;
Structure prediction by ZEFSAII (Michael W. Deem and Ramdas Pophale) SiO2 
 PCOD9349610
Probable space group: C M M 2
;
_chemical_formula_sum "Si O2"
_cell_formula_units_Z 64
_cell_length_a 8.637961
_cell_length_b 19.416596
_cell_length_c 21.379035
_cell_angle_alpha 90.000000
_cell_angle_beta 90.000000
_cell_angle_gamma 90.000000
_cell_volume 3585.687453
_symmetry_space_group_name_H-M "C M M 2"
_symmetry_group_IT_number 35
_symmetry_cell_setting 'orthorhombic'
loop_
_space_group_symop_operation_xyz
x,y,z
-x,-y,z
-x,y,z
x,-y,z
1/2+x,1/2+y,z
1/2-x,1/2-y,z
1/2-x,1/2+y,z
1/2+x,1/2-y,z
loop_
_atom_site_type_symbol
_atom_site_label
_atom_site_fract_x
_atom_site_fract_y
_atom_site_fract_z
Si Si1 0.185570 0.672969 0.833230
Si Si2 0.687603 0.419835 0.581372
Si Si3 0.185853 0.172748 0.191354
Si Si4 0.814658 0.419856 0.079924
Si Si5 0.320752 0.416245 0.445158
Si Si6 0.814711 0.673099 0.692006
Si Si7 0.315542 0.580643 0.944102
Si Si8 0.810632 0.079761 0.308286
O O1 0.250000 0.750000 0.841212
O O2 0.228798 0.650091 0.762585
O O3 0.252750 0.624748 0.886797
O O4 0.000000 0.674295 0.837337
O O5 0.500000 0.416919 0.580177
O O6 0.731131 0.500000 0.589038
O O7 0.745555 0.395413 0.512555
O O8 0.749479 0.375390 0.638201
O O9 0.250000 0.250000 0.191041
O O10 0.242343 0.129749 0.131499
O O11 0.237349 0.130375 0.253052
O O12 0.000000 0.175104 0.191268
O O13 0.766753 0.500000 0.090274
O O14 0.000000 0.416702 0.083408
O O15 0.760299 0.399852 0.010349
O O16 0.500000 0.393334 0.444740
O O17 0.322508 0.500000 0.445873
O O18 0.253445 0.397746 0.377390
O O19 0.750000 0.750000 0.683848
O O20 0.000000 0.674902 0.688510
O O21 0.500000 0.588492 0.949099
O O22 0.280004 0.500000 0.933658
O O23 0.000000 0.079568 0.310467
O O24 0.764619 0.000000 0.296745
#
# Coordination Sequence:
#
# PCOD9349610 Si02
#       8
#     8   8   8   8   8   8   8   8
#     4  10  21  37  56  77 103 137 176 215 258 308
#     4   9  17  30  51  78 106 136 171 213 259 308
#     4  11  22  35  52  76 107 140 175 215 258 304
#     4  10  21  38  59  81 106 136 170 210 256 306
#     4   7  11  23  45  73 101 129 166 210 255 305
#     4  10  21  36  53  73 101 138 177 217 259 307
#     4  10  21  37  58  84 111 137 168 208 252 301
#     4   8  14  27  50  76  99 129 171 215 258 307
#
# _framework density 17.848741
#
# number of rings (size 3 to 8) (size 9 to 14) (size 15 to 20)
#    0.000    2.625    0.000    3.750    0.000    4.750 
#    0.000    5.625    0.000    3.000    0.000    3.500 
#    0.000    0.000    0.000    0.000    0.000    0.000 
#
# Total GULP energy -178418.933141 kJ/mol
# GULP energy per Si atom -5575.591661 kJ/mol
# Density = 1.780812 g / cm^3
# Si number density = 17.848741 Si / 1000 Ang^3
#
#
#
# Elastic Constant Matrix: (Units=GPa)
#
#
# Indices 1 2 3 4 5 6 
#
# 1 30.9591 31.1247 47.6116 0.0000 0.0000 0.0000
# 2 31.1247 87.7198 108.1541 0.0000 0.0000 0.0000
# 3 47.6116 108.1541 208.9830 0.0000 0.0000 0.0000
# 4 0.0000 0.0000 0.0000 -23.2898 0.0000 0.0000
# 5 0.0000 0.0000 0.0000 0.0000 18.1371 0.0000
# 6 0.0000 0.0000 0.0000 0.0000 0.0000 20.3576
#
#
#
# Elastic Compliance Matrix: (Units=1/GPa)
#
#
# Indices 1 2 3 4 5 6 
#
# 1 0.053227 -0.010872 -0.006500 0.000000 0.000000 0.000000
# 2 -0.010872 0.033719 -0.014974 0.000000 0.000000 0.000000
# 3 -0.006500 -0.014974 0.014015 0.000000 0.000000 0.000000
# 4 0.000000 0.000000 0.000000 -0.042937 0.000000 0.000000
# 5 0.000000 0.000000 0.000000 0.000000 0.055136 0.000000
# 6 0.000000 0.000000 0.000000 0.000000 0.000000 0.049122
#
#
# Mechanical properties :
#
#
# Convention : Reuss Voigt Hill
#
# Bulk Modulus (GPa) = 27.57070 77.93808 52.75439
# Shear Modulus (GPa) = 20.91501 12.42575 16.67038
#
# Velocity S-wave (km/s) = 3.42686 2.64136 3.05943
# Velocity P-wave (km/s) = 5.58016 7.28444 6.48850
#
# Compressibility (1/GPa) = 0.03627039
#
# Stress axis : x y z
#
# Youngs Moduli (GPa) = 18.78752 29.65654 71.35080
#
# Poissons Ratio (x) = 0.32242 0.46378
# Poissons Ratio (y) = 0.20425 1.06839
# Poissons Ratio (z) = 0.12212 0.44407
#
# Static dielectric constant tensor:
#      x y z
#    x 1.606430 0.000000 0.000000 
#    y 0.000000 1.571740 0.000000 
#    z 0.000000 0.000000 1.625990 
# 
# From -- ./inp_files/18375.got.cif
#   From: 2010.05.17/outbox.cif.g08.bks.cpg/sg35_10_cif.got.tgz:18375.got - 2010.06.03 17:29:28.
