data_PCOD9349666
_publ_section_title
;
Structure prediction by ZEFSAII (Michael W. Deem and Ramdas Pophale) SiO2 
 PCOD9349666
Probable space group: C M M 2
;
_chemical_formula_sum "Si O2"
_cell_formula_units_Z 56
_cell_length_a 7.886611
_cell_length_b 19.882612
_cell_length_c 18.529787
_cell_angle_alpha 90.000000
_cell_angle_beta 90.000000
_cell_angle_gamma 90.000000
_cell_volume 2905.589683
_symmetry_space_group_name_H-M "C M M 2"
_symmetry_group_IT_number 35
_symmetry_cell_setting 'orthorhombic'
loop_
_space_group_symop_operation_xyz
x,y,z
-x,-y,z
-x,y,z
x,-y,z
1/2+x,1/2+y,z
1/2-x,1/2-y,z
1/2-x,1/2+y,z
1/2+x,1/2-y,z
loop_
_atom_site_type_symbol
_atom_site_label
_atom_site_fract_x
_atom_site_fract_y
_atom_site_fract_z
Si Si1 0.795521 0.672389 0.162160
Si Si2 0.204691 0.576625 0.450779
Si Si3 0.298217 0.576535 0.613506
Si Si4 0.800318 0.672203 0.743929
Si Si5 0.795482 0.327623 0.323522
Si Si6 0.293068 0.077181 0.034430
Si Si7 0.792553 0.422582 0.870922
O O1 0.750000 0.750000 0.149976
O O2 0.734563 0.653666 0.242845
O O3 0.731441 0.625985 0.097379
O O4 0.000000 0.667021 0.163000
O O5 0.265014 0.500000 0.440180
O O6 0.252834 0.596965 0.531881
O O7 0.268413 0.625347 0.387871
O O8 0.000000 0.576016 0.447419
O O9 0.500000 0.573301 0.619044
O O10 0.230483 0.500000 0.625622
O O11 0.237068 0.629790 0.672017
O O12 0.750000 0.750000 0.739738
O O13 0.727706 0.629907 0.811689
O O14 0.000000 0.672237 0.754264
O O15 0.750000 0.250000 0.336064
O O16 0.000000 0.332629 0.322724
O O17 0.500000 0.079131 0.034714
O O18 0.243849 0.000000 0.048226
O O19 0.240151 0.094729 0.952776
O O20 0.741699 0.500000 0.855111
O O21 0.000000 0.422548 0.870171
#
# Coordination Sequence:
#
# PCOD9349666 Si02
#       7
#     8   8   8   8   8   8   8
#     4   9  17  29  46  69  97 129 162 197 240 287
#     4   9  18  33  52  73  97 126 162 203 245 289
#     4  10  21  37  56  77 101 129 163 203 248 300
#     4  11  22  35  52  75 103 133 167 206 248 294
#     4   9  18  31  47  69  97 129 163 198 239 288
#     4   8  14  26  46  72  98 124 160 204 243 281
#     4   8  15  29  49  72  97 127 163 201 243 292
#
# _framework density 19.273197
#
# number of rings (size 3 to 8) (size 9 to 14) (size 15 to 20)
#    0.000    2.857    0.000    2.143    0.000    3.714 
#    0.000    4.286    0.000    1.286    0.000    8.000 
#    0.000    0.000    0.000    0.000    0.000    0.000 
#
# Total GULP energy -156145.731894 kJ/mol
# GULP energy per Si atom -5576.633282 kJ/mol
# Density = 1.922933 g / cm^3
# Si number density = 19.273197 Si / 1000 Ang^3
#
#
#
# Elastic Constant Matrix: (Units=GPa)
#
#
# Indices 1 2 3 4 5 6 
#
# 1 19.9017 8.5237 6.6733 0.0000 0.0000 0.0000
# 2 8.5237 136.5388 147.6849 0.0000 0.0000 0.0000
# 3 6.6733 147.6849 199.6526 0.0000 0.0000 0.0000
# 4 0.0000 0.0000 0.0000 8.8523 0.0000 0.0000
# 5 0.0000 0.0000 0.0000 0.0000 4.8184 0.0000
# 6 0.0000 0.0000 0.0000 0.0000 0.0000 13.6115
#
#
#
# Elastic Compliance Matrix: (Units=1/GPa)
#
#
# Indices 1 2 3 4 5 6 
#
# 1 0.052064 -0.006843 0.003322 0.000000 0.000000 0.000000
# 2 -0.006843 0.037536 -0.027537 0.000000 0.000000 0.000000
# 3 0.003322 -0.027537 0.025267 0.000000 0.000000 0.000000
# 4 0.000000 0.000000 0.000000 0.112965 0.000000 0.000000
# 5 0.000000 0.000000 0.000000 0.000000 0.207540 0.000000
# 6 0.000000 0.000000 0.000000 0.000000 0.000000 0.073468
#
#
# Mechanical properties :
#
#
# Convention : Reuss Voigt Hill
#
# Bulk Modulus (GPa) = 18.95725 75.76186 47.35955
# Shear Modulus (GPa) = 8.49560 18.33717 13.41639
#
# Velocity S-wave (km/s) = 2.10180 3.08788 2.64126
# Velocity P-wave (km/s) = 3.96831 7.21859 5.82476
#
# Compressibility (1/GPa) = 0.05275028
#
# Stress axis : x y z
#
# Youngs Moduli (GPa) = 19.20716 26.64094 39.57705
#
# Poissons Ratio (x) = 0.18230 -0.13146
# Poissons Ratio (y) = 0.13143 1.08984
# Poissons Ratio (z) = -0.06380 0.73362
#
# Static dielectric constant tensor:
#      x y z
#    x 1.703180 0.000000 0.000000 
#    y 0.000000 1.657850 0.000000 
#    z 0.000000 0.000000 1.679000 
# 
# From -- ./inp_files/15629.got.cif
#   From: 2010.05.17/outbox.cif.g08.bks.cpg/sg35_8_cif.got.tgz:15629.got - 2010.06.03 17:29:28.
