data_PCOD9349261
_publ_section_title
;
Structure prediction by ZEFSAII (Michael W. Deem and Ramdas Pophale) SiO2 
 PCOD9349261
Probable space group: C M M 2
;
_chemical_formula_sum "Si O2"
_cell_formula_units_Z 40
_cell_length_a 15.717998
_cell_length_b 8.812747
_cell_length_c 14.735322
_cell_angle_alpha 90.000000
_cell_angle_beta 90.000000
_cell_angle_gamma 90.000000
_cell_volume 2041.118233
_symmetry_space_group_name_H-M "C M M 2"
_symmetry_group_IT_number 35
_symmetry_cell_setting 'orthorhombic'
loop_
_space_group_symop_operation_xyz
x,y,z
-x,-y,z
-x,y,z
x,-y,z
1/2+x,1/2+y,z
1/2-x,1/2-y,z
1/2-x,1/2+y,z
1/2+x,1/2-y,z
loop_
_atom_site_type_symbol
_atom_site_label
_atom_site_fract_x
_atom_site_fract_y
_atom_site_fract_z
Si Si1 0.659927 0.320096 0.232610
Si Si2 0.500000 0.818893 0.338587
Si Si3 0.396983 0.823768 0.049076
Si Si4 0.661197 0.317301 0.661637
Si Si5 0.897512 0.821205 0.859496
Si Si6 0.000000 0.183625 0.538661
O O1 0.659897 0.500000 0.244297
O O2 0.750000 0.250000 0.260822
O O3 0.582953 0.246740 0.288572
O O4 0.643688 0.276925 0.127531
O O5 0.500000 0.763591 0.442052
O O6 0.500000 0.000000 0.331831
O O7 0.500000 0.808772 0.054981
O O8 0.375480 0.000000 0.064061
O O9 0.371413 0.770341 0.948695
O O10 0.664897 0.500000 0.662980
O O11 0.750000 0.250000 0.629750
O O12 0.643059 0.267602 0.765304
O O13 0.582957 0.274822 0.597242
O O14 0.000000 0.808383 0.849687
O O15 0.878702 0.000000 0.872516
O O16 0.000000 0.000000 0.526704
#
# Coordination Sequence:
#
# PCOD9349261 Si02
#       6
#     8   4   8   8   8   4
#     4  12  25  43  68  96 127 167 210 258 314 373
#     4  12  26  46  69  96 127 160 205 260 318 382
#     4  10  20  35  58  90 129 168 209 257 306 365
#     4  10  21  38  62  90 122 160 205 256 307 367
#     4   9  17  33  57  84 118 165 214 252 299 364
#     4  10  22  44  67  88 119 162 205 250 314 378
#
# _framework density 19.597102
#
# number of rings (size 3 to 8) (size 9 to 14) (size 15 to 20)
#    0.000    1.600    2.000    3.300    0.000    4.000 
#    0.000    4.000    0.000    0.000    0.000    0.000 
#    0.000    0.000    0.000    0.000    0.000    0.000 
#
# Total GULP energy -111843.679521 kJ/mol
# GULP energy per Si atom -5592.183976 kJ/mol
# Density = 1.955250 g / cm^3
# Si number density = 19.597102 Si / 1000 Ang^3
#
#
#
# Elastic Constant Matrix: (Units=GPa)
#
#
# Indices 1 2 3 4 5 6 
#
# 1 142.5879 65.1325 77.3991 0.0000 0.0000 0.0000
# 2 65.1325 107.5377 55.6569 0.0000 0.0000 0.0000
# 3 77.3991 55.6569 130.1120 0.0000 0.0000 0.0000
# 4 0.0000 0.0000 0.0000 24.6017 0.0000 0.0000
# 5 0.0000 0.0000 0.0000 0.0000 -8.5916 0.0000
# 6 0.0000 0.0000 0.0000 0.0000 0.0000 29.6646
#
#
#
# Elastic Compliance Matrix: (Units=1/GPa)
#
#
# Indices 1 2 3 4 5 6 
#
# 1 0.011863 -0.004537 -0.005116 0.000000 0.000000 0.000000
# 2 -0.004537 0.013678 -0.003152 0.000000 0.000000 0.000000
# 3 -0.005116 -0.003152 0.012077 0.000000 0.000000 0.000000
# 4 0.000000 0.000000 0.000000 0.040648 0.000000 0.000000
# 5 0.000000 0.000000 0.000000 0.000000 -0.116393 0.000000
# 6 0.000000 0.000000 0.000000 0.000000 0.000000 0.033710
#
#
# Mechanical properties :
#
#
# Convention : Reuss Voigt Hill
#
# Bulk Modulus (GPa) = 83.27668 86.29050 84.78359
# Shear Modulus (GPa) = 198.43900 21.27156 109.85528
#
# Velocity S-wave (km/s) = 10.07369 3.29818 7.49524
# Velocity P-wave (km/s) = 13.33762 7.65715 10.87484
#
# Compressibility (1/GPa) = 0.01200816
#
# Stress axis : x y z
#
# Youngs Moduli (GPa) = 84.29764 73.10743 82.79983
#
# Poissons Ratio (x) = 0.33170 0.42360
# Poissons Ratio (y) = 0.38247 0.26100
# Poissons Ratio (z) = 0.43126 0.23044
#
# Static dielectric constant tensor:
#      x y z
#    x 1.687020 0.000000 0.000000 
#    y 0.000000 1.654810 0.000000 
#    z 0.000000 0.000000 1.663970 
# 
# From -- ./inp_files/14800.got.cif
#   From: 2010.05.17/outbox.cif.g08.bks.cpg/sg35_8_cif.got.tgz:14800.got - 2010.06.03 17:29:28.
