data_PCOD9349874
_publ_section_title
;
Structure prediction by ZEFSAII (Michael W. Deem and Ramdas Pophale) SiO2 
 PCOD9349874
Probable space group: C M M 2
;
_chemical_formula_sum "Si O2"
_cell_formula_units_Z 58
_cell_length_a 27.905006
_cell_length_b 17.756507
_cell_length_c 5.387178
_cell_angle_alpha 90.000000
_cell_angle_beta 90.000000
_cell_angle_gamma 90.000000
_cell_volume 2669.322103
_symmetry_space_group_name_H-M "C M M 2"
_symmetry_group_IT_number 35
_symmetry_cell_setting 'orthorhombic'
loop_
_space_group_symop_operation_xyz
x,y,z
-x,-y,z
-x,y,z
x,-y,z
1/2+x,1/2+y,z
1/2-x,1/2-y,z
1/2-x,1/2+y,z
1/2+x,1/2-y,z
loop_
_atom_site_type_symbol
_atom_site_label
_atom_site_fract_x
_atom_site_fract_y
_atom_site_fract_z
Si Si1 0.189341 0.584161 0.151570
Si Si2 0.800563 0.087726 0.102703
Si Si3 0.500000 0.500000 0.979997
Si Si4 0.867228 0.695634 0.452834
Si Si5 0.406400 0.913995 0.824747
Si Si6 0.949492 0.130735 0.737055
Si Si7 0.653255 0.350614 0.601535
Si Si8 0.052373 0.274144 0.086690
O O1 0.186036 0.500000 0.269258
O O2 0.243308 0.593485 0.062131
O O3 0.176695 0.652397 0.331366
O O4 0.146782 0.586485 0.948794
O O5 0.817831 0.130511 0.351171
O O6 0.811777 0.000000 0.143498
O O7 0.824981 0.115573 0.851321
O O8 0.458772 0.566643 0.943149
O O9 0.899243 0.629145 0.567442
O O10 0.849368 0.760155 0.634684
O O11 0.902204 0.738094 0.261859
O O12 0.422448 0.000000 0.806741
O O13 0.439818 0.858126 0.980624
O O14 0.901311 0.118997 0.586628
O O15 0.000000 0.125253 0.587193
O O16 0.946725 0.211681 0.870246
O O17 0.000000 0.269015 0.208585
#
# Coordination Sequence:
#
# PCOD9349874 Si02
#       8
#     8   8   2   8   8   8   8   8
#     4   9  22  45  66  97 131 183 233 279 344 419
#     4  11  27  45  71  99 142 184 231 293 358 410
#     4   8  20  36  76  98 122 186 236 270 332 422
#     4  11  23  40  67  96 135 180 231 282 348 414
#     4  10  21  40  68  94 132 181 232 281 341 423
#     4   9  20  40  68  96 133 176 226 280 339 410
#     4  12  25  45  68 105 139 180 229 297 352 412
#     4  10  21  41  65  98 138 179 221 289 350 411
#
# _framework density 21.728363999999999
#
# number of rings (size 3 to 8) (size 9 to 14) (size 15 to 20)
#    0.414    1.379    1.379    1.655    5.793    2.483 
#    0.000    0.690    0.000    4.138    0.000    0.000 
#    0.000    0.000    0.000    0.000    0.000    0.000 
#
# Total GULP energy -161556.048355 kJ/mol
# GULP energy per Si atom -5570.898219 kJ/mol
# Density = 2.167891 g / cm^3
# Si number density = 21.728364 Si / 1000 Ang^3
#
#
#
# Elastic Constant Matrix: (Units=GPa)
#
#
# Indices 1 2 3 4 5 6 
#
# 1 106.2090 25.1743 16.5151 0.0000 0.0000 0.0000
# 2 25.1743 90.8390 9.7795 0.0000 0.0000 0.0000
# 3 16.5151 9.7795 46.1272 0.0000 0.0000 0.0000
# 4 0.0000 0.0000 0.0000 24.4563 0.0000 0.0000
# 5 0.0000 0.0000 0.0000 0.0000 1.9672 0.0000
# 6 0.0000 0.0000 0.0000 0.0000 0.0000 32.1384
#
#
#
# Elastic Compliance Matrix: (Units=1/GPa)
#
#
# Indices 1 2 3 4 5 6 
#
# 1 0.010526 -0.002570 -0.003224 0.000000 0.000000 0.000000
# 2 -0.002570 0.011893 -0.001601 0.000000 0.000000 0.000000
# 3 -0.003224 -0.001601 0.023173 0.000000 0.000000 0.000000
# 4 0.000000 0.000000 0.000000 0.040889 0.000000 0.000000
# 5 0.000000 0.000000 0.000000 0.000000 0.508326 0.000000
# 6 0.000000 0.000000 0.000000 0.000000 0.000000 0.031115
#
#
# Mechanical properties :
#
#
# Convention : Reuss Voigt Hill
#
# Bulk Modulus (GPa) = 32.46572 38.45701 35.46136
# Shear Modulus (GPa) = 7.68073 24.49281 16.08677
#
# Velocity S-wave (km/s) = 1.88217 3.36106 2.72390
# Velocity P-wave (km/s) = 4.43818 5.72711 5.12334
#
# Compressibility (1/GPa) = 0.03080172
#
# Stress axis : x y z
#
# Youngs Moduli (GPa) = 95.00436 84.08237 43.15386
#
# Poissons Ratio (x) = 0.21609 0.13912
# Poissons Ratio (y) = 0.24416 0.06910
# Poissons Ratio (z) = 0.30627 0.13464
#
# Static dielectric constant tensor:
#      x y z
#    x 1.800670 0.000000 0.000000 
#    y 0.000000 1.786310 0.000000 
#    z 0.000000 0.000000 1.843490 
# 
# From -- ./inp_files/4074.got.cif
#   From: 2010.05.17/outbox.cif.g08.bks.cpg/sg35_3_cif.got.tgz:4074.got - 2010.06.03 17:29:28.
