data_PCOD9349524
_publ_section_title
;
Structure prediction by ZEFSAII (Michael W. Deem and Ramdas Pophale) SiO2 
 PCOD9349524
Probable space group: C M M 2
;
_chemical_formula_sum "Si O2"
_cell_formula_units_Z 56
_cell_length_a 22.769053
_cell_length_b 8.629735
_cell_length_c 15.118583
_cell_angle_alpha 90.000000
_cell_angle_beta 90.000000
_cell_angle_gamma 90.000000
_cell_volume 2970.663883
_symmetry_space_group_name_H-M "C M M 2"
_symmetry_group_IT_number 35
_symmetry_cell_setting 'orthorhombic'
loop_
_space_group_symop_operation_xyz
x,y,z
-x,-y,z
-x,y,z
x,-y,z
1/2+x,1/2+y,z
1/2-x,1/2-y,z
1/2-x,1/2+y,z
1/2+x,1/2-y,z
loop_
_atom_site_type_symbol
_atom_site_label
_atom_site_fract_x
_atom_site_fract_y
_atom_site_fract_z
Si Si1 0.000000 0.178838 0.723390
Si Si2 0.686767 0.682307 0.327397
Si Si3 0.371668 0.822822 0.494511
Si Si4 0.930599 0.311590 0.016589
Si Si5 0.889363 0.315788 0.819505
Si Si6 0.685317 0.315394 0.669892
Si Si7 0.500000 0.169321 0.547997
Si Si8 0.183213 0.685678 0.134754
O O1 0.055839 0.267931 0.759817
O O2 0.000000 0.194726 0.618589
O O3 0.000000 0.000000 0.751052
O O4 0.689663 0.500000 0.310654
O O5 0.750000 0.750000 0.350735
O O6 0.648891 0.720968 0.412817
O O7 0.670284 0.765786 0.235842
O O8 0.352821 0.757815 0.590275
O O9 0.441580 0.825572 0.492356
O O10 0.349300 0.000000 0.486083
O O11 0.932908 0.500000 0.020515
O O12 0.908213 0.267741 0.918220
O O13 0.000000 0.261216 0.030987
O O14 0.875264 0.263817 0.079333
O O15 0.879746 0.500000 0.819828
O O16 0.836295 0.235316 0.767435
O O17 0.683046 0.500000 0.662931
O O18 0.750000 0.250000 0.656141
O O19 0.500000 0.000000 0.595731
O O20 0.187454 0.500000 0.126748
O O21 0.250000 0.750000 0.113052
#
# Coordination Sequence:
#
# PCOD9349524 Si02
#       8
#     4   8   8   8   8   8   4   8
#     4  12  22  34  56  85 116 153 198 243 286 340
#     4  11  22  39  62  87 117 153 195 242 295 355
#     4  11  22  39  61  87 117 155 199 242 293 350
#     4   9  19  37  63  92 118 155 203 250 300 361
#     4  11  21  38  62  85 116 157 200 244 294 352
#     4  12  25  40  57  85 121 158 200 247 298 351
#     4  10  22  38  60  83 114 157 200 239 288 352
#     4  10  20  38  64  90 119 153 198 249 303 365
#
# _framework density 18.851004
#
# number of rings (size 3 to 8) (size 9 to 14) (size 15 to 20)
#    0.000    1.286    2.143    5.786    0.000    1.143 
#    1.286    4.286    0.000    0.000    0.000    0.000 
#    0.000    0.000    0.000    0.000    0.000    0.000 
#
# Total GULP energy -156116.420597 kJ/mol
# GULP energy per Si atom -5575.586450 kJ/mol
# Density = 1.880810 g / cm^3
# Si number density = 18.851004 Si / 1000 Ang^3
#
#
#
# Elastic Constant Matrix: (Units=GPa)
#
#
# Indices 1 2 3 4 5 6 
#
# 1 114.8419 20.2515 61.1317 0.0000 0.0000 0.0000
# 2 20.2515 68.2995 10.8040 0.0000 0.0000 0.0000
# 3 61.1317 10.8040 80.4109 0.0000 0.0000 0.0000
# 4 0.0000 0.0000 0.0000 18.6025 0.0000 0.0000
# 5 0.0000 0.0000 0.0000 0.0000 26.0349 0.0000
# 6 0.0000 0.0000 0.0000 0.0000 0.0000 8.5721
#
#
#
# Elastic Compliance Matrix: (Units=1/GPa)
#
#
# Indices 1 2 3 4 5 6 
#
# 1 0.015106 -0.002720 -0.011119 0.000000 0.000000 0.000000
# 2 -0.002720 0.015449 -0.000008 0.000000 0.000000 0.000000
# 3 -0.011119 -0.000008 0.020890 0.000000 0.000000 0.000000
# 4 0.000000 0.000000 0.000000 0.053756 0.000000 0.000000
# 5 0.000000 0.000000 0.000000 0.000000 0.038410 0.000000
# 6 0.000000 0.000000 0.000000 0.000000 0.000000 0.116658
#
#
# Mechanical properties :
#
#
# Convention : Reuss Voigt Hill
#
# Bulk Modulus (GPa) = 42.10182 49.76960 45.93571
# Shear Modulus (GPa) = 16.89878 22.06625 19.48251
#
# Velocity S-wave (km/s) = 2.99731 3.42506 3.21830
# Velocity P-wave (km/s) = 5.86182 6.48847 6.18309
#
# Compressibility (1/GPa) = 0.02375194
#
# Stress axis : x y z
#
# Youngs Moduli (GPa) = 66.19932 64.72825 47.86979
#
# Poissons Ratio (x) = 0.17608 0.53225
# Poissons Ratio (y) = 0.18008 0.00037
# Poissons Ratio (z) = 0.73605 0.00050
#
# Static dielectric constant tensor:
#      x y z
#    x 1.762530 0.000000 0.000000 
#    y 0.000000 1.662400 0.000000 
#    z 0.000000 0.000000 1.649380 
# 
# From -- ./inp_files/17441.got.cif
#   From: 2010.05.17/outbox.cif.g08.bks.cpg/sg35_9_cif.got.tgz:17441.got - 2010.06.03 17:29:28.
