data_PCOD9349972
_publ_section_title
;
Structure prediction by ZEFSAII (Michael W. Deem and Ramdas Pophale) SiO2 
 PCOD9349972
Probable space group: C M M 2
;
_chemical_formula_sum "Si O2"
_cell_formula_units_Z 24
_cell_length_a 18.132820
_cell_length_b 11.514377
_cell_length_c 4.881772
_cell_angle_alpha 90.000000
_cell_angle_beta 90.000000
_cell_angle_gamma 90.000000
_cell_volume 1019.256025
_symmetry_space_group_name_H-M "C M M 2"
_symmetry_group_IT_number 35
_symmetry_cell_setting 'orthorhombic'
loop_
_space_group_symop_operation_xyz
x,y,z
-x,-y,z
-x,y,z
x,-y,z
1/2+x,1/2+y,z
1/2-x,1/2-y,z
1/2-x,1/2+y,z
1/2+x,1/2-y,z
loop_
_atom_site_type_symbol
_atom_site_label
_atom_site_fract_x
_atom_site_fract_y
_atom_site_fract_z
Si Si1 0.917064 0.773125 0.970830
Si Si2 0.269053 0.626120 0.072545
Si Si3 0.132765 0.369780 0.453140
O O1 0.890650 0.722978 0.679658
O O2 0.000000 0.817351 0.955095
O O3 0.856953 0.863124 0.090627
O O4 0.911177 0.665306 0.179857
O O5 0.250837 0.500000 0.947030
O O6 0.250000 0.750000 0.933242
O O7 0.217976 0.631495 0.344763
O O8 0.115103 0.500000 0.543360
#
# Coordination Sequence:
#
# PCOD9349972 Si02
#       3
#     8   8   8
#     4  11  23  39  63  99 137 175 224 283 345 404
#     4   9  21  42  66  94 130 175 225 273 328 397
#     4  10  22  41  65  94 133 181 228 276 334 404
#
# _framework density 23.546585
#
# number of rings (size 3 to 8) (size 9 to 14) (size 15 to 20)
#    0.000    2.000    0.000    2.000    0.000   18.000 
#    0.000   20.000    0.000    8.000    0.000    0.000 
#    0.000    0.000    0.000    0.000    0.000    0.000 
#
# Total GULP energy -66871.392299 kJ/mol
# GULP energy per Si atom -5572.616025 kJ/mol
# Density = 2.349299 g / cm^3
# Si number density = 23.546585 Si / 1000 Ang^3
#
#
#
# Elastic Constant Matrix: (Units=GPa)
#
#
# Indices 1 2 3 4 5 6 
#
# 1 174.1239 23.3485 41.7896 0.0000 0.0000 0.0000
# 2 23.3485 135.0029 -4.4598 0.0000 0.0000 0.0000
# 3 41.7896 -4.4598 102.8366 0.0000 0.0000 0.0000
# 4 0.0000 0.0000 0.0000 5.5590 0.0000 0.0000
# 5 0.0000 0.0000 0.0000 0.0000 16.1186 0.0000
# 6 0.0000 0.0000 0.0000 0.0000 0.0000 -8.7294
#
#
#
# Elastic Compliance Matrix: (Units=1/GPa)
#
#
# Indices 1 2 3 4 5 6 
#
# 1 0.006560 -0.001224 -0.002719 0.000000 0.000000 0.000000
# 2 -0.001224 0.007646 0.000829 0.000000 0.000000 0.000000
# 3 -0.002719 0.000829 0.010865 0.000000 0.000000 0.000000
# 4 0.000000 0.000000 0.000000 0.179889 0.000000 0.000000
# 5 0.000000 0.000000 0.000000 0.000000 0.062040 0.000000
# 6 0.000000 0.000000 0.000000 0.000000 0.000000 -0.114556
#
#
# Mechanical properties :
#
#
# Convention : Reuss Voigt Hill
#
# Bulk Modulus (GPa) = 53.06967 59.25779 56.16373
# Shear Modulus (GPa) = 30.31167 26.00865 28.16016
#
# Velocity S-wave (km/s) = 3.59180 3.32710 3.46198
# Velocity P-wave (km/s) = 6.30781 6.32300 6.31541
#
# Compressibility (1/GPa) = 0.01884315
#
# Stress axis : x y z
#
# Youngs Moduli (GPa) = 152.44587 130.78087 92.03915
#
# Poissons Ratio (x) = 0.16012 0.25023
# Poissons Ratio (y) = 0.18664 -0.07631
# Poissons Ratio (z) = 0.41446 -0.10843
#
# Static dielectric constant tensor:
#      x y z
#    x 1.976170 0.000000 0.000000 
#    y 0.000000 1.910490 0.000000 
#    z 0.000000 0.000000 1.866410 
# 
# From -- ./inp_files/829.got.cif
#   From: 2010.05.17/outbox.cif.g08.bks.cpg/sg35_1_cif.got.tgz:829.got - 2010.06.03 17:29:28.
