data_PCOD9349580
_publ_section_title
;
Structure prediction by ZEFSAII (Michael W. Deem and Ramdas Pophale) SiO2 
 PCOD9349580
Probable space group: C M M 2
;
_chemical_formula_sum "Si O2"
_cell_formula_units_Z 64
_cell_length_a 8.676201
_cell_length_b 19.220729
_cell_length_c 21.439013
_cell_angle_alpha 90.000000
_cell_angle_beta 90.000000
_cell_angle_gamma 90.000000
_cell_volume 3575.232156
_symmetry_space_group_name_H-M "C M M 2"
_symmetry_group_IT_number 35
_symmetry_cell_setting 'orthorhombic'
loop_
_space_group_symop_operation_xyz
x,y,z
-x,-y,z
-x,y,z
x,-y,z
1/2+x,1/2+y,z
1/2-x,1/2-y,z
1/2-x,1/2+y,z
1/2+x,1/2-y,z
loop_
_atom_site_type_symbol
_atom_site_label
_atom_site_fract_x
_atom_site_fract_y
_atom_site_fract_z
Si Si1 0.183150 0.828182 0.016060
Si Si2 0.316259 0.081866 0.128022
Si Si3 0.814056 0.919295 0.499935
Si Si4 0.684850 0.171332 0.887573
Si Si5 0.313926 0.171997 0.750493
Si Si6 0.813451 0.172260 0.381825
Si Si7 0.685819 0.580982 0.263007
Si Si8 0.314008 0.080690 0.633573
O O1 0.250000 0.750000 0.021962
O O2 0.237236 0.873228 0.074522
O O3 0.000000 0.823878 0.013207
O O4 0.245793 0.859696 0.950750
O O5 0.500000 0.090184 0.124175
O O6 0.258831 0.101767 0.197061
O O7 0.278967 0.000000 0.119995
O O8 0.763506 0.870664 0.443082
O O9 0.751040 0.895757 0.566938
O O10 0.000000 0.918483 0.501749
O O11 0.766092 0.000000 0.490119
O O12 0.500000 0.172822 0.893056
O O13 0.750000 0.250000 0.886095
O O14 0.726749 0.142096 0.819229
O O15 0.500000 0.175496 0.748773
O O16 0.250000 0.250000 0.745434
O O17 0.261081 0.125972 0.692323
O O18 0.750000 0.250000 0.381916
O O19 0.765920 0.129870 0.320009
O O20 0.000000 0.174344 0.382206
O O21 0.500000 0.584291 0.257654
O O22 0.726351 0.500000 0.275551
O O23 0.500000 0.083606 0.631214
O O24 0.268768 0.000000 0.641830
#
# Coordination Sequence:
#
# PCOD9349580 Si02
#       8
#     8   8   8   8   8   8   8   8
#     4  11  21  34  54  78 105 137 174 215 258 306
#     4  10  21  37  56  79 107 137 171 212 256 304
#     4   9  18  34  54  73  95 129 171 207 242 291
#     4   9  16  29  48  71  99 131 169 209 252 302
#     4   9  18  31  49  72  98 130 167 207 251 300
#     4  10  21  35  52  76 105 133 162 204 253 298
#     4   9  18  35  57  76  97 132 174 209 246 297
#     4   9  18  33  51  72  99 130 165 205 249 297
#
# _framework density 17.900936000000002
#
# number of rings (size 3 to 8) (size 9 to 14) (size 15 to 20)
#    0.000    2.500    0.000    3.000    0.000    5.250 
#    0.000    4.375    0.000    6.000    0.000    0.000 
#    0.000    0.000    0.000    0.000    0.000    0.000 
#
# Total GULP energy -178461.396732 kJ/mol
# GULP energy per Si atom -5576.918648 kJ/mol
# Density = 1.786019 g / cm^3
# Si number density = 17.900936 Si / 1000 Ang^3
#
#
#
# Elastic Constant Matrix: (Units=GPa)
#
#
# Indices 1 2 3 4 5 6 
#
# 1 40.3168 30.1513 55.7765 0.0000 0.0000 0.0000
# 2 30.1513 70.5779 96.2557 0.0000 0.0000 0.0000
# 3 55.7765 96.2557 217.5381 0.0000 0.0000 0.0000
# 4 0.0000 0.0000 0.0000 34.6777 0.0000 0.0000
# 5 0.0000 0.0000 0.0000 0.0000 32.5117 0.0000
# 6 0.0000 0.0000 0.0000 0.0000 0.0000 23.6933
#
#
#
# Elastic Compliance Matrix: (Units=1/GPa)
#
#
# Indices 1 2 3 4 5 6 
#
# 1 0.040086 -0.007837 -0.006810 0.000000 0.000000 0.000000
# 2 -0.007837 0.037263 -0.014479 0.000000 0.000000 0.000000
# 3 -0.006810 -0.014479 0.012750 0.000000 0.000000 0.000000
# 4 0.000000 0.000000 0.000000 0.028837 0.000000 0.000000
# 5 0.000000 0.000000 0.000000 0.000000 0.030758 0.000000
# 6 0.000000 0.000000 0.000000 0.000000 0.000000 0.042206
#
#
# Mechanical properties :
#
#
# Convention : Reuss Voigt Hill
#
# Bulk Modulus (GPa) = 31.40016 76.97776 54.18896
# Shear Modulus (GPa) = 19.17412 27.92649 23.55031
#
# Velocity S-wave (km/s) = 3.27635 3.95404 3.63104
# Velocity P-wave (km/s) = 5.64728 7.99633 6.92218
#
# Compressibility (1/GPa) = 0.03184697
#
# Stress axis : x y z
#
# Youngs Moduli (GPa) = 24.94609 26.83617 78.43392
#
# Poissons Ratio (x) = 0.21031 0.53417
# Poissons Ratio (y) = 0.19550 1.13562
# Poissons Ratio (z) = 0.16989 0.38855
#
# Static dielectric constant tensor:
#      x y z
#    x 1.607220 0.000000 0.000000 
#    y 0.000000 1.599440 0.000000 
#    z 0.000000 0.000000 1.625210 
# 
# From -- ./inp_files/18437.got.cif
#   From: 2010.05.17/outbox.cif.g08.bks.cpg/sg35_10_cif.got.tgz:18437.got - 2010.06.03 17:29:28.
