data_PCOD9349167
_publ_section_title
;
Structure prediction by ZEFSAII (Michael W. Deem and Ramdas Pophale) SiO2 
 PCOD9349167
Probable space group: C M M 2
;
_chemical_formula_sum "Si O2"
_cell_formula_units_Z 32
_cell_length_a 13.653345
_cell_length_b 23.027060
_cell_length_c 4.832549
_cell_angle_alpha 90.000000
_cell_angle_beta 90.000000
_cell_angle_gamma 90.000000
_cell_volume 1519.335982
_symmetry_space_group_name_H-M "C M M 2"
_symmetry_group_IT_number 35
_symmetry_cell_setting 'orthorhombic'
loop_
_space_group_symop_operation_xyz
x,y,z
-x,-y,z
-x,y,z
x,-y,z
1/2+x,1/2+y,z
1/2-x,1/2-y,z
1/2-x,1/2+y,z
1/2+x,1/2-y,z
loop_
_atom_site_type_symbol
_atom_site_label
_atom_site_fract_x
_atom_site_fract_y
_atom_site_fract_z
Si Si1 0.389871 0.817930 0.559970
Si Si2 0.609970 0.734147 0.049635
Si Si3 0.202077 0.126061 0.362884
Si Si4 0.887625 0.066000 0.869495
O O1 0.500000 0.837452 0.642683
O O2 0.397677 0.785312 0.270436
O O3 0.307531 0.865996 0.507049
O O4 0.357601 0.767502 0.773969
O O5 0.500000 0.710586 0.999199
O O6 0.673749 0.684684 0.195613
O O7 0.131333 0.110217 0.617876
O O8 0.184920 0.078757 0.124052
O O9 0.000000 0.071393 0.968159
O O10 0.874159 0.000000 0.768173
#
# Coordination Sequence:
#
# PCOD9349167 Si02
#       4
#     8   8   8   8
#     4  10  22  38  57  85 122 157 191 236 288 349
#     4  10  20  35  55  84 119 153 192 236 287 351
#     4  12  22  37  63  88 118 162 204 241 296 360
#     4  11  24  41  61  88 120 154 199 256 310 355
#
# _framework density 21.061834000000001
#
# number of rings (size 3 to 8) (size 9 to 14) (size 15 to 20)
#    0.000    1.250    0.000    6.750    0.000    6.000 
#    0.000    0.000    0.000    6.000    0.000    0.000 
#    0.000    0.000    0.000    0.000    0.000    0.000 
#
# Total GULP energy -89346.850721 kJ/mol
# GULP energy per Si atom -5584.178170 kJ/mol
# Density = 2.101390 g / cm^3
# Si number density = 21.061834 Si / 1000 Ang^3
#
#
#
# Elastic Constant Matrix: (Units=GPa)
#
#
# Indices 1 2 3 4 5 6 
#
# 1 133.8125 45.3884 47.1387 0.0000 0.0000 0.0000
# 2 45.3884 53.8364 13.7136 0.0000 0.0000 0.0000
# 3 47.1387 13.7136 84.1200 0.0000 0.0000 0.0000
# 4 0.0000 0.0000 0.0000 29.5504 0.0000 0.0000
# 5 0.0000 0.0000 0.0000 0.0000 25.6359 0.0000
# 6 0.0000 0.0000 0.0000 0.0000 0.0000 27.1925
#
#
#
# Elastic Compliance Matrix: (Units=1/GPa)
#
#
# Indices 1 2 3 4 5 6 
#
# 1 0.012524 -0.009151 -0.005526 0.000000 0.000000 0.000000
# 2 -0.009151 0.026066 0.000879 0.000000 0.000000 0.000000
# 3 -0.005526 0.000879 0.014841 0.000000 0.000000 0.000000
# 4 0.000000 0.000000 0.000000 0.033840 0.000000 0.000000
# 5 0.000000 0.000000 0.000000 0.000000 0.039008 0.000000
# 6 0.000000 0.000000 0.000000 0.000000 0.000000 0.036775
#
#
# Mechanical properties :
#
#
# Convention : Reuss Voigt Hill
#
# Bulk Modulus (GPa) = 38.70872 53.80559 46.25715
# Shear Modulus (GPa) = 25.09252 27.51099 26.30175
#
# Velocity S-wave (km/s) = 3.45537 3.61806 3.53765
# Velocity P-wave (km/s) = 5.85986 6.56169 6.22068
#
# Compressibility (1/GPa) = 0.02583397
#
# Stress axis : x y z
#
# Youngs Moduli (GPa) = 79.84785 38.36417 67.37955
#
# Poissons Ratio (x) = 0.35107 0.37235
# Poissons Ratio (y) = 0.73068 -0.05920
# Poissons Ratio (z) = 0.44126 -0.03371
#
# Static dielectric constant tensor:
#      x y z
#    x 1.901610 0.000000 0.000000 
#    y 0.000000 1.742560 0.000000 
#    z 0.000000 0.000000 1.748580 
# 
# From -- ./inp_files/1677.got.cif
#   From: 2010.05.17/outbox.cif.g08.bks.cpg/sg35_1_cif.got.tgz:1677.got - 2010.06.03 17:29:28.
