data_PCOD9349234
_publ_section_title
;
Structure prediction by ZEFSAII (Michael W. Deem and Ramdas Pophale) SiO2 
 PCOD9349234
Probable space group: C M M 2
;
_chemical_formula_sum "Si O2"
_cell_formula_units_Z 40
_cell_length_a 15.876334
_cell_length_b 8.760039
_cell_length_c 14.667455
_cell_angle_alpha 90.000000
_cell_angle_beta 90.000000
_cell_angle_gamma 90.000000
_cell_volume 2039.910113
_symmetry_space_group_name_H-M "C M M 2"
_symmetry_group_IT_number 35
_symmetry_cell_setting 'orthorhombic'
loop_
_space_group_symop_operation_xyz
x,y,z
-x,-y,z
-x,y,z
x,-y,z
1/2+x,1/2+y,z
1/2-x,1/2-y,z
1/2-x,1/2+y,z
1/2+x,1/2-y,z
loop_
_atom_site_type_symbol
_atom_site_label
_atom_site_fract_x
_atom_site_fract_y
_atom_site_fract_z
Si Si1 0.500000 0.185525 0.140930
Si Si2 0.097666 0.824478 0.656912
Si Si3 0.661396 0.180906 0.835730
Si Si4 0.343185 0.183466 0.267164
Si Si5 0.156357 0.683216 0.474465
Si Si6 0.000000 0.817722 0.938537
O O1 0.416093 0.229716 0.197239
O O2 0.500000 0.000000 0.132411
O O3 0.500000 0.261368 0.042498
O O4 0.148561 0.726166 0.729851
O O5 0.104370 0.757315 0.555849
O O6 0.000000 0.822421 0.685104
O O7 0.127395 0.000000 0.658492
O O8 0.750000 0.250000 0.867416
O O9 0.583194 0.252803 0.889625
O O10 0.661105 0.000000 0.846225
O O11 0.250000 0.250000 0.249777
O O12 0.369879 0.223066 0.371087
O O13 0.336155 0.000000 0.263753
O O14 0.156124 0.500000 0.483171
O O15 0.250000 0.750000 0.485034
O O16 0.000000 0.000000 0.932332
#
# Coordination Sequence:
#
# PCOD9349234 Si02
#       6
#     4   8   8   8   8   4
#     4  10  22  42  65  90 121 162 205 254 318 376
#     4  11  23  38  58  88 128 167 208 258 307 365
#     4  12  25  44  70  96 126 167 209 257 315 374
#     4   9  20  38  62  89 123 162 206 257 307 366
#     4  10  20  35  57  85 121 163 209 254 303 363
#     4  12  26  46  67  96 129 160 207 262 316 380
#
# _framework density 19.608708
#
# number of rings (size 3 to 8) (size 9 to 14) (size 15 to 20)
#    0.000    1.400    1.000    4.500    1.400    3.600 
#    0.000    2.000    0.000    0.000    0.000    0.000 
#    0.000    0.000    0.000    0.000    0.000    0.000 
#
# Total GULP energy -111806.758787 kJ/mol
# GULP energy per Si atom -5590.337939 kJ/mol
# Density = 1.956408 g / cm^3
# Si number density = 19.608708 Si / 1000 Ang^3
#
#
#
# Elastic Constant Matrix: (Units=GPa)
#
#
# Indices 1 2 3 4 5 6 
#
# 1 135.9736 59.9883 81.9417 0.0000 0.0000 0.0000
# 2 59.9883 123.3609 56.5290 0.0000 0.0000 0.0000
# 3 81.9417 56.5290 127.8378 0.0000 0.0000 0.0000
# 4 0.0000 0.0000 0.0000 29.2296 0.0000 0.0000
# 5 0.0000 0.0000 0.0000 0.0000 16.4295 0.0000
# 6 0.0000 0.0000 0.0000 0.0000 0.0000 30.1431
#
#
#
# Elastic Compliance Matrix: (Units=1/GPa)
#
#
# Indices 1 2 3 4 5 6 
#
# 1 0.012868 -0.003107 -0.006874 0.000000 0.000000 0.000000
# 2 -0.003107 0.010917 -0.002835 0.000000 0.000000 0.000000
# 3 -0.006874 -0.002835 0.013482 0.000000 0.000000 0.000000
# 4 0.000000 0.000000 0.000000 0.034212 0.000000 0.000000
# 5 0.000000 0.000000 0.000000 0.000000 0.060866 0.000000
# 6 0.000000 0.000000 0.000000 0.000000 0.000000 0.033175
#
#
# Mechanical properties :
#
#
# Convention : Reuss Voigt Hill
#
# Bulk Modulus (GPa) = 85.96167 87.12114 86.54140
# Shear Modulus (GPa) = 25.63695 27.74133 26.68914
#
# Velocity S-wave (km/s) = 3.61976 3.76539 3.69329
# Velocity P-wave (km/s) = 7.83606 7.96433 7.90046
#
# Compressibility (1/GPa) = 0.01163309
#
# Stress axis : x y z
#
# Youngs Moduli (GPa) = 77.71403 91.60252 74.17149
#
# Poissons Ratio (x) = 0.28465 0.50984
# Poissons Ratio (y) = 0.24149 0.21031
# Poissons Ratio (z) = 0.53420 0.25974
#
# Static dielectric constant tensor:
#      x y z
#    x 1.647710 0.000000 0.000000 
#    y 0.000000 1.656870 0.000000 
#    z 0.000000 0.000000 1.683980 
# 
# From -- ./inp_files/14734.got.cif
#   From: 2010.05.17/outbox.cif.g08.bks.cpg/sg35_8_cif.got.tgz:14734.got - 2010.06.03 17:29:28.
