data_PCOD9349854
_publ_section_title
;
Structure prediction by ZEFSAII (Michael W. Deem and Ramdas Pophale) SiO2 
 PCOD9349854
Probable space group: C M M 2
;
_chemical_formula_sum "Si O2"
_cell_formula_units_Z 64
_cell_length_a 8.590296
_cell_length_b 31.847169
_cell_length_c 12.213614
_cell_angle_alpha 90.000000
_cell_angle_beta 90.000000
_cell_angle_gamma 90.000000
_cell_volume 3341.359095
_symmetry_space_group_name_H-M "C M M 2"
_symmetry_group_IT_number 35
_symmetry_cell_setting 'orthorhombic'
loop_
_space_group_symop_operation_xyz
x,y,z
-x,-y,z
-x,y,z
x,-y,z
1/2+x,1/2+y,z
1/2-x,1/2-y,z
1/2-x,1/2+y,z
1/2+x,1/2-y,z
loop_
_atom_site_type_symbol
_atom_site_label
_atom_site_fract_x
_atom_site_fract_y
_atom_site_fract_z
Si Si1 0.813581 0.047077 0.957740
Si Si2 0.310525 0.953159 0.491402
Si Si3 0.188563 0.626676 0.349990
Si Si4 0.813098 0.825243 0.729024
Si Si5 0.813622 0.294414 0.957745
Si Si6 0.688118 0.124396 0.096907
Si Si7 0.312770 0.920153 0.730143
Si Si8 0.686392 0.295284 0.488223
O O1 0.749955 0.056074 0.836220
O O2 0.000000 0.049409 0.955128
O O3 0.767098 0.000000 0.992053
O O4 0.750155 0.083136 0.036842
O O5 0.500000 0.953395 0.488051
O O6 0.258765 0.915664 0.412182
O O7 0.266984 0.942069 0.616197
O O8 0.256979 0.000000 0.461752
O O9 0.236600 0.626318 0.223344
O O10 0.251026 0.667183 0.413318
O O11 0.000000 0.627791 0.354010
O O12 0.745302 0.801971 0.834453
O O13 0.752481 0.872959 0.730927
O O14 0.764752 0.804637 0.613906
O O15 0.000000 0.825025 0.735290
O O16 0.750000 0.250000 0.998824
O O17 0.000000 0.293424 0.957592
O O18 0.761615 0.334028 0.030815
O O19 0.500000 0.123144 0.093305
O O20 0.500000 0.918489 0.735312
O O21 0.500000 0.295052 0.484555
O O22 0.750000 0.250000 0.454208
#
# Coordination Sequence:
#
# PCOD9349854 Si02
#       8
#     8   8   8   8   8   8   8   8
#     4  11  24  40  60  88 123 162 201 244 298 357
#     4   9  18  33  57  89 120 153 193 239 293 350
#     4  10  21  40  63  87 119 156 201 252 298 347
#     4  11  22  37  60  90 122 156 195 242 301 361
#     4  11  23  39  60  88 119 154 198 244 301 359
#     4  10  23  41  62  88 117 158 206 251 297 350
#     4  11  20  34  60  90 121 157 196 243 299 360
#     4  11  24  40  61  89 122 157 198 244 296 357
#
# _framework density 19.153881999999999
#
# number of rings (size 3 to 8) (size 9 to 14) (size 15 to 20)
#    0.000    1.500    2.500    2.625    0.000    6.000 
#    0.000    2.500    0.000    1.125    0.000    0.000 
#    0.000    0.000    0.000    0.000    0.000    0.000 
#
# Total GULP energy -178872.039992 kJ/mol
# GULP energy per Si atom -5589.751250 kJ/mol
# Density = 1.911029 g / cm^3
# Si number density = 19.153882 Si / 1000 Ang^3
#
#
#
# Elastic Constant Matrix: (Units=GPa)
#
#
# Indices 1 2 3 4 5 6 
#
# 1 25.3616 34.0816 33.1082 0.0000 0.0000 0.0000
# 2 34.0816 202.6791 93.0114 0.0000 0.0000 0.0000
# 3 33.1082 93.0114 159.0059 0.0000 0.0000 0.0000
# 4 0.0000 0.0000 0.0000 65.8980 0.0000 0.0000
# 5 0.0000 0.0000 0.0000 0.0000 13.4660 0.0000
# 6 0.0000 0.0000 0.0000 0.0000 0.0000 24.8777
#
#
#
# Elastic Compliance Matrix: (Units=1/GPa)
#
#
# Indices 1 2 3 4 5 6 
#
# 1 0.058798 -0.005835 -0.008830 0.000000 0.000000 0.000000
# 2 -0.005835 0.007323 -0.003069 0.000000 0.000000 0.000000
# 3 -0.008830 -0.003069 0.009923 0.000000 0.000000 0.000000
# 4 0.000000 0.000000 0.000000 0.015175 0.000000 0.000000
# 5 0.000000 0.000000 0.000000 0.000000 0.074261 0.000000
# 6 0.000000 0.000000 0.000000 0.000000 0.000000 0.040197
#
#
# Mechanical properties :
#
#
# Convention : Reuss Voigt Hill
#
# Bulk Modulus (GPa) = 24.64469 78.60544 51.62507
# Shear Modulus (GPa) = 19.63327 35.97135 27.80231
#
# Velocity S-wave (km/s) = 3.20508 4.33831 3.81402
# Velocity P-wave (km/s) = 5.15668 8.13773 6.81227
#
# Compressibility (1/GPa) = 0.04057669
#
# Stress axis : x y z
#
# Youngs Moduli (GPa) = 17.00745 136.54699 100.77876
#
# Poissons Ratio (x) = 0.79678 0.88983
# Poissons Ratio (y) = 0.09924 0.30928
# Poissons Ratio (z) = 0.15017 0.41905
#
# Static dielectric constant tensor:
#      x y z
#    x 1.651560 0.000000 0.000000 
#    y 0.000000 1.536320 0.000000 
#    z 0.000000 0.000000 1.645500 
# 
# From -- ./inp_files/11938.got.cif
#   From: 2010.05.17/outbox.cif.g08.bks.cpg/sg35_6_cif.got.tgz:11938.got - 2010.06.03 17:29:28.
