data_PCOD9349108
_publ_section_title
;
Structure prediction by ZEFSAII (Michael W. Deem and Ramdas Pophale) SiO2 
 PCOD9349108
Probable space group: C M M 2
;
_chemical_formula_sum "Si O2"
_cell_formula_units_Z 58
_cell_length_a 25.802418
_cell_length_b 8.868686
_cell_length_c 13.508754
_cell_angle_alpha 90.000000
_cell_angle_beta 90.000000
_cell_angle_gamma 90.000000
_cell_volume 3091.256043
_symmetry_space_group_name_H-M "C M M 2"
_symmetry_group_IT_number 35
_symmetry_cell_setting 'orthorhombic'
loop_
_space_group_symop_operation_xyz
x,y,z
-x,-y,z
-x,y,z
x,-y,z
1/2+x,1/2+y,z
1/2-x,1/2-y,z
1/2-x,1/2+y,z
1/2+x,1/2-y,z
loop_
_atom_site_type_symbol
_atom_site_label
_atom_site_fract_x
_atom_site_fract_y
_atom_site_fract_z
Si Si1 0.560008 0.174280 0.286770
Si Si2 0.896643 0.833118 0.096863
Si Si3 0.697888 0.321162 0.557585
Si Si4 0.441781 0.820289 0.704963
Si Si5 0.661897 0.318831 0.775875
Si Si6 0.084321 0.180403 0.494496
Si Si7 0.196009 0.679597 0.979455
Si Si8 0.000000 0.000000 0.038574
O O1 0.500000 0.178570 0.255231
O O2 0.592214 0.257858 0.202521
O O3 0.563302 0.256723 0.392173
O O4 0.575650 0.000000 0.297750
O O5 0.873122 0.000000 0.111155
O O6 0.855453 0.736445 0.035860
O O7 0.952744 0.870309 0.046686
O O8 0.703709 0.500000 0.559650
O O9 0.750000 0.250000 0.518068
O O10 0.687446 0.272839 0.671216
O O11 0.645775 0.286840 0.498380
O O12 0.500000 0.792058 0.742012
O O13 0.397808 0.733344 0.765760
O O14 0.438386 0.760321 0.591952
O O15 0.432055 0.000000 0.706362
O O16 0.664376 0.500000 0.786028
O O17 0.688533 0.238765 0.867450
O O18 0.076439 0.000000 0.502991
O O19 0.199207 0.500000 0.981650
O O20 0.250000 0.750000 0.018099
#
# Coordination Sequence:
#
# PCOD9349108 Si02
#       8
#     8   8   8   8   8   8   8   2
#     4  11  21  35  57  87 116 148 189 239 292 351
#     4  10  20  41  64  91 119 154 197 245 301 363
#     4   9  19  34  53  77 105 140 183 230 278 330
#     4  10  20  35  52  79 116 153 193 243 296 351
#     4  10  21  38  58  83 112 149 196 240 290 355
#     4  10  21  34  52  78 112 149 192 235 285 350
#     4  12  25  42  64  92 123 160 202 251 304 362
#     4   8  20  40  70  92 120 154 202 246 308 368
#
# _framework density 18.762598000000001
#
# number of rings (size 3 to 8) (size 9 to 14) (size 15 to 20)
#    0.414    1.379    0.690    4.966    0.000    8.000 
#    1.241    0.690    0.000    1.655    0.000    0.000 
#    0.000    0.000    0.000    0.000    0.000    0.000 
#
# Total GULP energy -161558.062743 kJ/mol
# GULP energy per Si atom -5570.967681 kJ/mol
# Density = 1.871989 g / cm^3
# Si number density = 18.762598 Si / 1000 Ang^3
#
#
#
# Elastic Constant Matrix: (Units=GPa)
#
#
# Indices 1 2 3 4 5 6 
#
# 1 104.6697 39.5766 15.3982 0.0000 0.0000 0.0000
# 2 39.5766 96.9212 19.7040 0.0000 0.0000 0.0000
# 3 15.3982 19.7040 42.5666 0.0000 0.0000 0.0000
# 4 0.0000 0.0000 0.0000 26.8797 0.0000 0.0000
# 5 0.0000 0.0000 0.0000 0.0000 7.8159 0.0000
# 6 0.0000 0.0000 0.0000 0.0000 0.0000 33.7984
#
#
#
# Elastic Compliance Matrix: (Units=1/GPa)
#
#
# Indices 1 2 3 4 5 6 
#
# 1 0.011480 -0.004243 -0.002189 0.000000 0.000000 0.000000
# 2 -0.004243 0.012958 -0.004463 0.000000 0.000000 0.000000
# 3 -0.002189 -0.004463 0.026350 0.000000 0.000000 0.000000
# 4 0.000000 0.000000 0.000000 0.037203 0.000000 0.000000
# 5 0.000000 0.000000 0.000000 0.000000 0.127945 0.000000
# 6 0.000000 0.000000 0.000000 0.000000 0.000000 0.029587
#
#
# Mechanical properties :
#
#
# Convention : Reuss Voigt Hill
#
# Bulk Modulus (GPa) = 34.48476 43.72392 39.10434
# Shear Modulus (GPa) = 18.05192 24.99736 21.52464
#
# Velocity S-wave (km/s) = 3.10517 3.65402 3.39072
# Velocity P-wave (km/s) = 5.59246 6.41536 6.01799
#
# Compressibility (1/GPa) = 0.02899832
#
# Stress axis : x y z
#
# Youngs Moduli (GPa) = 87.10723 77.17534 37.94999
#
# Poissons Ratio (x) = 0.32744 0.08307
# Poissons Ratio (y) = 0.36958 0.16938
# Poissons Ratio (z) = 0.19067 0.34445
#
# Static dielectric constant tensor:
#      x y z
#    x 1.693950 0.000000 0.000000 
#    y 0.000000 1.635350 0.000000 
#    z 0.000000 0.000000 1.627830 
# 
# From -- ./inp_files/14330.got.cif
#   From: 2010.05.17/outbox.cif.g08.bks.cpg/sg35_8_cif.got.tgz:14330.got - 2010.06.03 17:29:28.
