data_PCOD9349772
_publ_section_title
;
Structure prediction by ZEFSAII (Michael W. Deem and Ramdas Pophale) SiO2 
 PCOD9349772
Probable space group: C M M 2
;
_chemical_formula_sum "Si O2"
_cell_formula_units_Z 64
_cell_length_a 8.850834
_cell_length_b 18.605004
_cell_length_c 20.943295
_cell_angle_alpha 90.000000
_cell_angle_beta 90.000000
_cell_angle_gamma 90.000000
_cell_volume 3448.728240
_symmetry_space_group_name_H-M "C M M 2"
_symmetry_group_IT_number 35
_symmetry_cell_setting 'orthorhombic'
loop_
_space_group_symop_operation_xyz
x,y,z
-x,-y,z
-x,y,z
x,-y,z
1/2+x,1/2+y,z
1/2-x,1/2-y,z
1/2-x,1/2+y,z
1/2+x,1/2-y,z
loop_
_atom_site_type_symbol
_atom_site_label
_atom_site_fract_x
_atom_site_fract_y
_atom_site_fract_z
Si Si1 0.318178 0.583793 0.692640
Si Si2 0.180046 0.329176 0.194764
Si Si3 0.181003 0.584152 0.447954
Si Si4 0.318738 0.170715 0.574923
Si Si5 0.680351 0.915060 0.939163
Si Si6 0.181375 0.829270 0.821053
Si Si7 0.820619 0.085511 0.076682
Si Si8 0.821191 0.914394 0.311889
O O1 0.500000 0.587801 0.685103
O O2 0.275329 0.500000 0.695616
O O3 0.241018 0.623215 0.633437
O O4 0.279236 0.624294 0.758315
O O5 0.250000 0.250000 0.195791
O O6 0.242302 0.371131 0.133123
O O7 0.233854 0.371460 0.257655
O O8 0.000000 0.325431 0.192599
O O9 0.214921 0.500000 0.461216
O O10 0.224242 0.632340 0.508323
O O11 0.263794 0.604945 0.382632
O O12 0.000000 0.589875 0.438586
O O13 0.500000 0.174636 0.577680
O O14 0.250000 0.250000 0.578650
O O15 0.500000 0.905073 0.940635
O O16 0.753227 0.868623 0.883208
O O17 0.711279 0.000000 0.928083
O O18 0.750644 0.896102 0.007862
O O19 0.250000 0.750000 0.815331
O O20 0.000000 0.825158 0.825486
O O21 0.000000 0.099119 0.076634
O O22 0.797447 0.000000 0.086755
O O23 0.000000 0.901192 0.306091
O O24 0.795067 0.000000 0.303846
#
# Coordination Sequence:
#
# PCOD9349772 Si02
#       8
#     8   8   8   8   8   8   8   8
#     4  10  22  40  62  87 115 149 191 239 289 343
#     4  12  25  40  59  84 117 154 193 239 290 343
#     4   9  19  37  59  83 112 149 194 240 286 338
#     4  11  23  38  58  85 118 155 193 236 287 342
#     4  10  21  38  61  89 118 150 192 238 284 338
#     4  11  23  39  59  85 118 154 192 235 287 343
#     4  10  21  39  63  89 118 152 191 236 285 340
#     4  10  21  38  61  88 117 151 192 236 284 341
#
# _framework density 18.557566000000001
#
# number of rings (size 3 to 8) (size 9 to 14) (size 15 to 20)
#    0.000    1.625    0.000    4.500    0.000    9.000 
#    0.000    5.000    0.000    0.000    0.000    0.000 
#    0.000    0.000    0.000    0.000    0.000    0.000 
#
# Total GULP energy -178927.308514 kJ/mol
# GULP energy per Si atom -5591.478391 kJ/mol
# Density = 1.851533 g / cm^3
# Si number density = 18.557566 Si / 1000 Ang^3
#
#
#
# Elastic Constant Matrix: (Units=GPa)
#
#
# Indices 1 2 3 4 5 6 
#
# 1 97.2633 82.7658 95.2554 0.0000 0.0000 0.0000
# 2 82.7658 134.3082 122.2815 0.0000 0.0000 0.0000
# 3 95.2554 122.2815 194.1440 0.0000 0.0000 0.0000
# 4 0.0000 0.0000 0.0000 -60.7983 0.0000 0.0000
# 5 0.0000 0.0000 0.0000 0.0000 31.6561 0.0000
# 6 0.0000 0.0000 0.0000 0.0000 0.0000 28.2413
#
#
#
# Elastic Compliance Matrix: (Units=1/GPa)
#
#
# Indices 1 2 3 4 5 6 
#
# 1 0.024109 -0.009582 -0.005794 0.000000 0.000000 0.000000
# 2 -0.009582 0.021264 -0.008691 0.000000 0.000000 0.000000
# 3 -0.005794 -0.008691 0.013468 0.000000 0.000000 0.000000
# 4 0.000000 0.000000 0.000000 -0.016448 0.000000 0.000000
# 5 0.000000 0.000000 0.000000 0.000000 0.031590 0.000000
# 6 0.000000 0.000000 0.000000 0.000000 0.000000 0.035409
#
#
# Mechanical properties :
#
#
# Convention : Reuss Voigt Hill
#
# Bulk Modulus (GPa) = 93.40522 114.03565 103.72044
# Shear Modulus (GPa) = 31.03753 8.18068 19.60911
#
# Velocity S-wave (km/s) = 4.09406 2.10187 3.25416
# Velocity P-wave (km/s) = 8.53173 8.21423 8.37448
#
# Compressibility (1/GPa) = 0.01070604
#
# Stress axis : x y z
#
# Youngs Moduli (GPa) = 41.47747 47.02871 74.25093
#
# Poissons Ratio (x) = 0.45064 0.43020
# Poissons Ratio (y) = 0.39744 0.64535
# Poissons Ratio (z) = 0.24031 0.40875
#
# Static dielectric constant tensor:
#      x y z
#    x 1.616820 0.000000 0.000000 
#    y 0.000000 1.615700 0.000000 
#    z 0.000000 0.000000 1.602750 
# 
# From -- ./inp_files/18326.got.cif
#   From: 2010.05.17/outbox.cif.g08.bks.cpg/sg35_10_cif.got.tgz:18326.got - 2010.06.03 17:29:28.
