data_PCOD9349285
_publ_section_title
;
Structure prediction by ZEFSAII (Michael W. Deem and Ramdas Pophale) SiO2 
 PCOD9349285
Probable space group: C M M 2
;
_chemical_formula_sum "Si O2"
_cell_formula_units_Z 48
_cell_length_a 32.799592
_cell_length_b 8.619512
_cell_length_c 9.647464
_cell_angle_alpha 90.000000
_cell_angle_beta 90.000000
_cell_angle_gamma 90.000000
_cell_volume 2727.497033
_symmetry_space_group_name_H-M "C M M 2"
_symmetry_group_IT_number 35
_symmetry_cell_setting 'orthorhombic'
loop_
_space_group_symop_operation_xyz
x,y,z
-x,-y,z
-x,y,z
x,-y,z
1/2+x,1/2+y,z
1/2-x,1/2-y,z
1/2-x,1/2+y,z
1/2+x,1/2-y,z
loop_
_atom_site_type_symbol
_atom_site_label
_atom_site_fract_x
_atom_site_fract_y
_atom_site_fract_z
Si Si1 0.206033 0.686201 0.110840
Si Si2 0.044850 0.316692 0.278904
Si Si3 0.368765 0.684353 0.287908
Si Si4 0.706613 0.813242 0.788714
Si Si5 0.543471 0.184014 0.614690
Si Si6 0.131528 0.311079 0.600000
O O1 0.206540 0.500000 0.118466
O O2 0.250000 0.750000 0.159112
O O3 0.168092 0.749797 0.196935
O O4 0.201445 0.733625 0.949313
O O5 0.047826 0.500000 0.247719
O O6 0.086399 0.234996 0.233026
O O7 0.044109 0.302881 0.446943
O O8 0.000000 0.261178 0.229848
O O9 0.366793 0.500000 0.292792
O O10 0.364469 0.751587 0.443420
O O11 0.750000 0.750000 0.738946
O O12 0.669111 0.761029 0.694402
O O13 0.707738 0.000000 0.785145
O O14 0.500000 0.251219 0.663262
O O15 0.587640 0.243766 0.659519
O O16 0.542672 0.000000 0.646396
O O17 0.130675 0.500000 0.595404
#
# Coordination Sequence:
#
# PCOD9349285 Si02
#       6
#     8   8   8   8   8   8
#     4  10  20  36  54  71  93 125 165 206 248 296
#     4   8  14  27  47  69  95 129 165 201 242 285
#     4  11  21  31  47  75 105 133 164 199 242 289
#     4   9  19  34  53  72  92 122 160 200 243 292
#     4   7  10  19  39  65  90 117 149 184 225 273
#     4   9  17  31  49  71  98 126 158 200 245 285
#
# _framework density 17.598552000000002
#
# number of rings (size 3 to 8) (size 9 to 14) (size 15 to 20)
#    0.000    3.000    0.000    4.000    0.000    2.333 
#    0.000    1.667    0.000    1.000    0.000    4.667 
#    0.000    2.667    0.000    0.000    0.000    0.000 
#
# Total GULP energy -133614.651563 kJ/mol
# GULP energy per Si atom -5567.277148 kJ/mol
# Density = 1.755850 g / cm^3
# Si number density = 17.598552 Si / 1000 Ang^3
#
#
#
# Elastic Constant Matrix: (Units=GPa)
#
#
# Indices 1 2 3 4 5 6 
#
# 1 234.2349 43.4199 67.2645 0.0000 0.0000 0.0000
# 2 43.4199 34.9258 14.0802 0.0000 0.0000 0.0000
# 3 67.2645 14.0802 33.9269 0.0000 0.0000 0.0000
# 4 0.0000 0.0000 0.0000 11.1636 0.0000 0.0000
# 5 0.0000 0.0000 0.0000 0.0000 -14.5003 0.0000
# 6 0.0000 0.0000 0.0000 0.0000 0.0000 27.5891
#
#
#
# Elastic Compliance Matrix: (Units=1/GPa)
#
#
# Indices 1 2 3 4 5 6 
#
# 1 0.010798 -0.005757 -0.019020 0.000000 0.000000 0.000000
# 2 -0.005757 0.037454 -0.004131 0.000000 0.000000 0.000000
# 3 -0.019020 -0.004131 0.068898 0.000000 0.000000 0.000000
# 4 0.000000 0.000000 0.000000 0.089577 0.000000 0.000000
# 5 0.000000 0.000000 0.000000 0.000000 -0.068964 0.000000
# 6 0.000000 0.000000 0.000000 0.000000 0.000000 0.036246
#
#
# Mechanical properties :
#
#
# Convention : Reuss Voigt Hill
#
# Bulk Modulus (GPa) = 16.85299 61.40186 39.12743
# Shear Modulus (GPa) = 19.87261 16.73868 18.30564
#
# Velocity S-wave (km/s) = 3.36403 3.08740 3.22868
# Velocity P-wave (km/s) = 4.96851 6.90474 6.01504
#
# Compressibility (1/GPa) = 0.05933664
#
# Stress axis : x y z
#
# Youngs Moduli (GPa) = 92.60862 26.69931 14.51411
#
# Poissons Ratio (x) = 0.15370 0.27605
# Poissons Ratio (y) = 0.53311 0.05995
# Poissons Ratio (z) = 1.76138 0.11029
#
# Static dielectric constant tensor:
#      x y z
#    x 1.646680 0.000000 0.000000 
#    y 0.000000 1.600960 0.000000 
#    z 0.000000 0.000000 1.574360 
# 
# From -- ./inp_files/11631.got.cif
#   From: 2010.05.17/outbox.cif.g08.bks.cpg/sg35_6_cif.got.tgz:11631.got - 2010.06.03 17:29:28.
