data_PCOD9349047
_publ_section_title
;
Structure prediction by ZEFSAII (Michael W. Deem and Ramdas Pophale) SiO2 
 PCOD9349047
Probable space group: C M M 2
;
_chemical_formula_sum "Si O2"
_cell_formula_units_Z 56
_cell_length_a 23.861017
_cell_length_b 8.706697
_cell_length_c 15.849726
_cell_angle_alpha 90.000000
_cell_angle_beta 90.000000
_cell_angle_gamma 90.000000
_cell_volume 3292.790802
_symmetry_space_group_name_H-M "C M M 2"
_symmetry_group_IT_number 35
_symmetry_cell_setting 'orthorhombic'
loop_
_space_group_symop_operation_xyz
x,y,z
-x,-y,z
-x,y,z
x,-y,z
1/2+x,1/2+y,z
1/2-x,1/2-y,z
1/2-x,1/2+y,z
1/2+x,1/2-y,z
loop_
_atom_site_type_symbol
_atom_site_label
_atom_site_fract_x
_atom_site_fract_y
_atom_site_fract_z
Si Si1 0.813132 0.816077 0.059690
Si Si2 0.687956 0.816462 0.739102
Si Si3 0.500000 0.686540 0.646377
Si Si4 0.379107 0.315412 0.580627
Si Si5 0.000000 0.184320 0.842782
Si Si6 0.186652 0.683198 0.422044
Si Si7 0.115808 0.682973 0.906664
Si Si8 0.812941 0.816121 0.247673
O O1 0.750000 0.750000 0.050875
O O2 0.835549 0.779677 0.154302
O O3 0.809534 0.000000 0.052563
O O4 0.853082 0.749962 0.988041
O O5 0.750000 0.750000 0.746487
O O6 0.656923 0.737562 0.660977
O O7 0.653913 0.784523 0.824559
O O8 0.689801 0.000000 0.726076
O O9 0.500000 0.500000 0.648398
O O10 0.556920 0.733872 0.599582
O O11 0.500000 0.737581 0.744392
O O12 0.377402 0.500000 0.573518
O O13 0.351688 0.242147 0.497994
O O14 0.055456 0.244588 0.888516
O O15 0.000000 0.000000 0.842489
O O16 0.190490 0.500000 0.422073
O O17 0.250000 0.750000 0.431872
O O18 0.162618 0.741731 0.332153
O O19 0.110573 0.500000 0.915028
O O20 0.750000 0.750000 0.245178
O O21 0.811615 0.000000 0.257558
#
# Coordination Sequence:
#
# PCOD9349047 Si02
#       8
#     8   8   4   8   4   8   8   8
#     4  10  20  34  55  83 114 146 182 224 273 328
#     4  11  23  36  51  76 108 142 176 216 266 320
#     4   9  20  37  59  80  99 136 183 225 268 316
#     4  11  21  37  57  78 105 138 179 224 269 320
#     4  11  21  39  61  80 103 140 189 231 274 324
#     4  11  21  34  53  81 112 145 179 218 270 323
#     4  11  23  37  55  80 110 144 183 227 274 322
#     4   9  17  31  52  79 109 143 179 219 266 320
#
# _framework density 17.006851000000001
#
# number of rings (size 3 to 8) (size 9 to 14) (size 15 to 20)
#    0.000    1.571    1.429    5.357    0.000    4.571 
#    0.000    1.429    0.000    0.857    0.000    2.000 
#    0.000    0.000    0.000    0.000    0.000    0.000 
#
# Total GULP energy -156341.748300 kJ/mol
# GULP energy per Si atom -5583.633868 kJ/mol
# Density = 1.696814 g / cm^3
# Si number density = 17.006851 Si / 1000 Ang^3
#
#
#
# Elastic Constant Matrix: (Units=GPa)
#
#
# Indices 1 2 3 4 5 6 
#
# 1 131.3880 55.1363 81.7931 0.0000 0.0000 0.0000
# 2 55.1363 91.6073 80.8430 0.0000 0.0000 0.0000
# 3 81.7931 80.8430 180.8276 0.0000 0.0000 0.0000
# 4 0.0000 0.0000 0.0000 29.8757 0.0000 0.0000
# 5 0.0000 0.0000 0.0000 0.0000 -4.8774 0.0000
# 6 0.0000 0.0000 0.0000 0.0000 0.0000 11.3791
#
#
#
# Elastic Compliance Matrix: (Units=1/GPa)
#
#
# Indices 1 2 3 4 5 6 
#
# 1 0.011341 -0.003797 -0.003432 0.000000 0.000000 0.000000
# 2 -0.003797 0.019301 -0.006911 0.000000 0.000000 0.000000
# 3 -0.003432 -0.006911 0.010173 0.000000 0.000000 0.000000
# 4 0.000000 0.000000 0.000000 0.033472 0.000000 0.000000
# 5 0.000000 0.000000 0.000000 0.000000 -0.205028 0.000000
# 6 0.000000 0.000000 0.000000 0.000000 0.000000 0.087881
#
#
# Mechanical properties :
#
#
# Convention : Reuss Voigt Hill
#
# Bulk Modulus (GPa) = 79.78887 93.26308 86.52597
# Shear Modulus (GPa) = -480.70084 19.67884 -230.51100
#
# Velocity S-wave (km/s) = -16.83048 3.40533 -11.65480
# Velocity P-wave (km/s) = 18.18431 8.39162 11.40723
#
# Compressibility (1/GPa) = 0.01253308
#
# Stress axis : x y z
#
# Youngs Moduli (GPa) = 88.17425 51.81167 98.30334
#
# Poissons Ratio (x) = 0.19672 0.33742
# Poissons Ratio (y) = 0.33479 0.67941
# Poissons Ratio (z) = 0.30265 0.35809
#
# Static dielectric constant tensor:
#      x y z
#    x 1.543840 0.000000 0.000000 
#    y 0.000000 1.564250 0.000000 
#    z 0.000000 0.000000 1.588150 
# 
# From -- ./inp_files/15670.got.cif
#   From: 2010.05.17/outbox.cif.g08.bks.cpg/sg35_8_cif.got.tgz:15670.got - 2010.06.03 17:29:28.
