data_PCOD9349769
_publ_section_title
;
Structure prediction by ZEFSAII (Michael W. Deem and Ramdas Pophale) SiO2 
 PCOD9349769
Probable space group: C M M 2
;
_chemical_formula_sum "Si O2"
_cell_formula_units_Z 40
_cell_length_a 18.339358
_cell_length_b 15.352121
_cell_length_c 7.216302
_cell_angle_alpha 90.000000
_cell_angle_beta 90.000000
_cell_angle_gamma 90.000000
_cell_volume 2031.735706
_symmetry_space_group_name_H-M "C M M 2"
_symmetry_group_IT_number 35
_symmetry_cell_setting 'orthorhombic'
loop_
_space_group_symop_operation_xyz
x,y,z
-x,-y,z
-x,y,z
x,-y,z
1/2+x,1/2+y,z
1/2-x,1/2-y,z
1/2-x,1/2+y,z
1/2+x,1/2-y,z
loop_
_atom_site_type_symbol
_atom_site_label
_atom_site_fract_x
_atom_site_fract_y
_atom_site_fract_z
Si Si1 0.584430 0.094122 0.375000
Si Si2 0.834620 0.231219 0.928053
Si Si3 0.084430 0.405878 0.925739
Si Si4 0.587677 0.395542 0.650369
Si Si5 0.334620 0.731219 0.372685
O O1 0.500000 0.098000 0.429393
O O2 0.586483 0.094317 0.150370
O O3 0.624621 0.180672 0.433261
O O4 0.614741 0.000000 0.434362
O O5 0.750000 0.250000 0.886732
O O6 0.875379 0.319328 0.867478
O O7 0.841492 0.220035 0.150369
O O8 0.872209 0.150770 0.823902
O O9 0.114742 0.500000 0.866378
O O10 0.000000 0.402001 0.871345
O O11 0.500000 0.377788 0.650369
O O12 0.597050 0.500000 0.650369
O O13 0.627791 0.349230 0.476837
O O14 0.250000 0.750000 0.414006
#
# Coordination Sequence:
#
# PCOD9349769 Si02
#       5
#     8   8   8   8   8
#     4   8  14  27  50  79 108 138 175 223 282 348
#     4  10  21  38  61  87 116 152 194 246 307 361
#     4   8  14  27  50  79 108 138 175 223 282 348
#     4  11  25  42  59  83 119 165 214 255 288 338
#     4  10  21  38  61  87 116 152 194 246 307 361
#
# _framework density 19.687598999999999
#
# number of rings (size 3 to 8) (size 9 to 14) (size 15 to 20)
#    0.000    2.600    0.000    3.000    0.000    4.800 
#    0.000    7.000    0.000    3.600    0.000    0.000 
#    0.000    0.000    0.000    0.000    0.000    0.000 
#
# Total GULP energy -111589.307572 kJ/mol
# GULP energy per Si atom -5579.465379 kJ/mol
# Density = 1.964279 g / cm^3
# Si number density = 19.687599 Si / 1000 Ang^3
#
#
#
# Elastic Constant Matrix: (Units=GPa)
#
#
# Indices 1 2 3 4 5 6 
#
# 1 121.2336 99.1375 46.7343 0.0000 0.0000 0.0000
# 2 99.1375 195.1532 50.6602 0.0000 0.0000 0.0000
# 3 46.7343 50.6602 119.7488 0.0000 0.0000 0.0000
# 4 0.0000 0.0000 0.0000 26.8488 0.0000 0.0000
# 5 0.0000 0.0000 0.0000 0.0000 -653.9606 0.0000
# 6 0.0000 0.0000 0.0000 0.0000 0.0000 -5.2976
#
#
#
# Elastic Compliance Matrix: (Units=1/GPa)
#
#
# Indices 1 2 3 4 5 6 
#
# 1 0.014985 -0.006846 -0.002952 0.000000 0.000000 0.000000
# 2 -0.006846 0.008884 -0.001087 0.000000 0.000000 0.000000
# 3 -0.002952 -0.001087 0.009963 0.000000 0.000000 0.000000
# 4 0.000000 0.000000 0.000000 0.037246 0.000000 0.000000
# 5 0.000000 0.000000 0.000000 0.000000 -0.001529 0.000000
# 6 0.000000 0.000000 0.000000 0.000000 0.000000 -0.188765
#
#
# Mechanical properties :
#
#
# Convention : Reuss Voigt Hill
#
# Bulk Modulus (GPa) = 82.90273 92.13329 87.51801
# Shear Modulus (GPa) = -53.51695 -110.50831 -82.01263
#
# Velocity S-wave (km/s) = -5.21940 -7.50019 -6.46123
# Velocity P-wave (km/s) = 2.42441 5.30137 3.33367
#
# Compressibility (1/GPa) = 0.01206233
#
# Stress axis : x y z
#
# Youngs Moduli (GPa) = 66.73521 112.56236 100.37595
#
# Poissons Ratio (x) = 0.77059 0.29629
# Poissons Ratio (y) = 0.45686 0.10907
# Poissons Ratio (z) = 0.19699 0.12232
#
# Static dielectric constant tensor:
#      x y z
#    x 1.503480 0.000000 0.000000 
#    y 0.000000 1.670950 0.000000 
#    z 0.000000 0.000000 1.758220 
# 
# From -- ./inp_files/7153.got.cif
#   From: 2010.05.17/outbox.cif.g08.bks.cpg/sg35_4_cif.got.tgz:7153.got - 2010.06.03 17:29:28.
