data_PCOD9349380
_publ_section_title
;
Structure prediction by ZEFSAII (Michael W. Deem and Ramdas Pophale) SiO2 
 PCOD9349380
Probable space group: C M M 2
;
_chemical_formula_sum "Si O2"
_cell_formula_units_Z 48
_cell_length_a 8.819357
_cell_length_b 29.013909
_cell_length_c 10.469018
_cell_angle_alpha 90.000000
_cell_angle_beta 90.000000
_cell_angle_gamma 90.000000
_cell_volume 2678.854426
_symmetry_space_group_name_H-M "C M M 2"
_symmetry_group_IT_number 35
_symmetry_cell_setting 'orthorhombic'
loop_
_space_group_symop_operation_xyz
x,y,z
-x,-y,z
-x,y,z
x,-y,z
1/2+x,1/2+y,z
1/2-x,1/2-y,z
1/2-x,1/2+y,z
1/2+x,1/2-y,z
loop_
_atom_site_type_symbol
_atom_site_label
_atom_site_fract_x
_atom_site_fract_y
_atom_site_fract_z
Si Si1 0.182445 0.447224 0.423860
Si Si2 0.817487 0.646450 0.010720
Si Si3 0.315559 0.051522 0.125689
Si Si4 0.818822 0.699170 0.274972
Si Si5 0.318677 0.355878 0.512859
Si Si6 0.818303 0.801207 0.769282
O O1 0.220139 0.500000 0.458220
O O2 0.226274 0.440517 0.274358
O O3 0.259505 0.408161 0.507908
O O4 0.000000 0.442288 0.430479
O O5 0.766492 0.593914 0.038028
O O6 0.784948 0.674683 0.140285
O O7 0.000000 0.646664 0.992590
O O8 0.740146 0.670694 0.891426
O O9 0.500000 0.051541 0.124229
O O10 0.265243 0.000000 0.088688
O O11 0.750000 0.750000 0.276826
O O12 0.751621 0.669838 0.390987
O O13 0.000000 0.701252 0.288702
O O14 0.500000 0.355319 0.503494
O O15 0.274090 0.328667 0.640893
O O16 0.750000 0.750000 0.768778
O O17 0.000000 0.797810 0.773281
#
# Coordination Sequence:
#
# PCOD9349380 Si02
#       6
#     8   8   8   8   8   8
#     4   9  17  33  59  88 117 149 187 233 282 334
#     4  10  20  36  59  86 113 147 186 231 285 336
#     4   8  14  29  55  86 116 144 179 225 275 326
#     4  11  22  36  56  84 113 143 186 238 290 341
#     4  11  23  38  57  83 115 152 191 233 285 339
#     4  11  25  42  58  79 110 152 194 236 284 339
#
# _framework density 17.918106999999999
#
# number of rings (size 3 to 8) (size 9 to 14) (size 15 to 20)
#    0.000    2.000    1.667    3.500    0.000    7.000 
#    0.000    0.833    0.000    3.500    0.000    0.000 
#    0.000    0.000    0.000    0.000    0.000    0.000 
#
# Total GULP energy -133999.562839 kJ/mol
# GULP energy per Si atom -5583.315118 kJ/mol
# Density = 1.787732 g / cm^3
# Si number density = 17.918107 Si / 1000 Ang^3
#
#
#
# Elastic Constant Matrix: (Units=GPa)
#
#
# Indices 1 2 3 4 5 6 
#
# 1 32.5313 48.9937 51.5395 0.0000 0.0000 0.0000
# 2 48.9937 184.3144 88.7200 0.0000 0.0000 0.0000
# 3 51.5395 88.7200 129.3092 0.0000 0.0000 0.0000
# 4 0.0000 0.0000 0.0000 29.3097 0.0000 0.0000
# 5 0.0000 0.0000 0.0000 0.0000 104.6746 0.0000
# 6 0.0000 0.0000 0.0000 0.0000 0.0000 28.9310
#
#
#
# Elastic Compliance Matrix: (Units=1/GPa)
#
#
# Indices 1 2 3 4 5 6 
#
# 1 0.095388 -0.010534 -0.030792 0.000000 0.000000 0.000000
# 2 -0.010534 0.009264 -0.002158 0.000000 0.000000 0.000000
# 3 -0.030792 -0.002158 0.021487 0.000000 0.000000 0.000000
# 4 0.000000 0.000000 0.000000 0.034118 0.000000 0.000000
# 5 0.000000 0.000000 0.000000 0.000000 0.009553 0.000000
# 6 0.000000 0.000000 0.000000 0.000000 0.000000 0.034565
#
#
# Mechanical properties :
#
#
# Convention : Reuss Voigt Hill
#
# Bulk Modulus (GPa) = 25.52857 80.51791 53.02324
# Shear Modulus (GPa) = 16.42578 43.04317 29.73448
#
# Velocity S-wave (km/s) = 3.03101 4.90656 4.07807
# Velocity P-wave (km/s) = 5.15050 8.78255 7.19934
#
# Compressibility (1/GPa) = 0.03917180
#
# Stress axis : x y z
#
# Youngs Moduli (GPa) = 10.48352 107.94250 46.54046
#
# Poissons Ratio (x) = 1.13705 1.43307
# Poissons Ratio (y) = 0.11043 0.10042
# Poissons Ratio (z) = 0.32281 0.23291
#
# Static dielectric constant tensor:
#      x y z
#    x 1.599530 0.000000 0.000000 
#    y 0.000000 1.623850 0.000000 
#    z 0.000000 0.000000 1.584340 
# 
# From -- ./inp_files/5307.got.cif
#   From: 2010.05.17/outbox.cif.g08.bks.cpg/sg35_3_cif.got.tgz:5307.got - 2010.06.03 17:29:28.
