data_PCOD9349885
_publ_section_title
;
Structure prediction by ZEFSAII (Michael W. Deem and Ramdas Pophale) SiO2 
 PCOD9349885
Probable space group: C M M 2
;
_chemical_formula_sum "Si O2"
_cell_formula_units_Z 42
_cell_length_a 32.659381
_cell_length_b 7.676280
_cell_length_c 7.110475
_cell_angle_alpha 90.000000
_cell_angle_beta 90.000000
_cell_angle_gamma 90.000000
_cell_volume 1782.614237
_symmetry_space_group_name_H-M "C M M 2"
_symmetry_group_IT_number 35
_symmetry_cell_setting 'orthorhombic'
loop_
_space_group_symop_operation_xyz
x,y,z
-x,-y,z
-x,y,z
x,-y,z
1/2+x,1/2+y,z
1/2-x,1/2-y,z
1/2-x,1/2+y,z
1/2+x,1/2-y,z
loop_
_atom_site_type_symbol
_atom_site_label
_atom_site_fract_x
_atom_site_fract_y
_atom_site_fract_z
Si Si1 0.296484 0.802049 0.848610
Si Si2 0.955429 0.789412 0.532273
Si Si3 0.000000 0.000000 0.950273
Si Si4 0.131864 0.797053 0.584839
Si Si5 0.060152 0.297085 0.089065
Si Si6 0.651018 0.709809 0.172269
O O1 0.250000 0.750000 0.813802
O O2 0.332233 0.708186 0.734290
O O3 0.301013 0.000000 0.792808
O O4 0.309338 0.776836 0.064447
O O5 0.913396 0.721462 0.624881
O O6 0.950196 0.751758 0.308559
O O7 0.000000 0.718766 0.588845
O O8 0.958660 0.000000 0.558491
O O9 0.035522 0.845532 0.970409
O O10 0.148056 0.726080 0.386316
O O11 0.123245 0.000000 0.548902
O O12 0.049946 0.500000 0.057037
O O13 0.109041 0.271316 0.073890
O O14 0.651816 0.500000 0.166884
#
# Coordination Sequence:
#
# PCOD9349885 Si02
#       6
#     8   8   2   8   8   8
#     4  12  26  44  67  93 124 164 212 268 332 398
#     4   9  15  30  54  85 125 167 210 255 309 371
#     4  12  18  32  48  86 130 172 218 270 316 370
#     4   9  20  38  65  95 128 168 208 259 317 378
#     4  11  19  30  54  87 124 170 220 265 315 380
#     4  10  21  42  67  94 129 167 212 268 327 386
#
# _framework density 23.560903
#
# number of rings (size 3 to 8) (size 9 to 14) (size 15 to 20)
#    0.000    1.714    2.857    3.714    0.000    4.571 
#    0.000    0.000    2.095    0.000    0.000    0.000 
#    0.000    0.000    0.000    0.000    0.000    0.000 
#
# Total GULP energy -117155.234254 kJ/mol
# GULP energy per Si atom -5578.820679 kJ/mol
# Density = 2.350728 g / cm^3
# Si number density = 23.560903 Si / 1000 Ang^3
#
#
#
# Elastic Constant Matrix: (Units=GPa)
#
#
# Indices 1 2 3 4 5 6 
#
# 1 169.2880 -12.2470 47.8742 0.0000 0.0000 0.0000
# 2 -12.2470 78.2871 -12.2045 0.0000 0.0000 0.0000
# 3 47.8742 -12.2045 71.2082 0.0000 0.0000 0.0000
# 4 0.0000 0.0000 0.0000 -75.2547 0.0000 0.0000
# 5 0.0000 0.0000 0.0000 0.0000 -63.5164 0.0000
# 6 0.0000 0.0000 0.0000 0.0000 0.0000 3.1029
#
#
#
# Elastic Compliance Matrix: (Units=1/GPa)
#
#
# Indices 1 2 3 4 5 6 
#
# 1 0.007305 0.000388 -0.004845 0.000000 0.000000 0.000000
# 2 0.000388 0.013145 0.001992 0.000000 0.000000 0.000000
# 3 -0.004845 0.001992 0.017642 0.000000 0.000000 0.000000
# 4 0.000000 0.000000 0.000000 -0.013288 0.000000 0.000000
# 5 0.000000 0.000000 0.000000 0.000000 -0.015744 0.000000
# 6 0.000000 0.000000 0.000000 0.000000 0.000000 0.322283
#
#
# Mechanical properties :
#
#
# Convention : Reuss Voigt Hill
#
# Bulk Modulus (GPa) = 30.15509 40.62541 35.39025
# Shear Modulus (GPa) = 14.39565 -7.44294 3.47636
#
# Velocity S-wave (km/s) = 2.47452 -1.77929 1.21601
# Velocity P-wave (km/s) = 4.58158 3.61372 4.12613
#
# Compressibility (1/GPa) = 0.03316190
#
# Stress axis : x y z
#
# Youngs Moduli (GPa) = 136.88712 76.07618 56.68236
#
# Poissons Ratio (x) = -0.02948 0.27463
# Poissons Ratio (y) = -0.05304 -0.11293
# Poissons Ratio (z) = 0.66322 -0.15157
#
# Static dielectric constant tensor:
#      x y z
#    x 1.786450 0.000000 0.000000 
#    y 0.000000 1.907780 0.000000 
#    z 0.000000 0.000000 1.974930 
# 
# From -- ./inp_files/10084.got.cif
#   From: 2010.05.17/outbox.cif.g08.bks.cpg/sg35_6_cif.got.tgz:10084.got - 2010.06.03 17:29:28.
