data_PCOD9349337
_publ_section_title
;
Structure prediction by ZEFSAII (Michael W. Deem and Ramdas Pophale) SiO2 
 PCOD9349337
Probable space group: C M M 2
;
_chemical_formula_sum "Si O2"
_cell_formula_units_Z 56
_cell_length_a 8.801911
_cell_length_b 22.675635
_cell_length_c 15.129933
_cell_angle_alpha 90.000000
_cell_angle_beta 90.000000
_cell_angle_gamma 90.000000
_cell_volume 3019.767004
_symmetry_space_group_name_H-M "C M M 2"
_symmetry_group_IT_number 35
_symmetry_cell_setting 'orthorhombic'
loop_
_space_group_symop_operation_xyz
x,y,z
-x,-y,z
-x,y,z
x,-y,z
1/2+x,1/2+y,z
1/2-x,1/2-y,z
1/2-x,1/2+y,z
1/2+x,1/2-y,z
loop_
_atom_site_type_symbol
_atom_site_label
_atom_site_fract_x
_atom_site_fract_y
_atom_site_fract_z
Si Si1 0.675506 0.000000 0.161400
Si Si2 0.816751 0.569244 0.649377
Si Si3 0.334306 0.500000 0.335766
Si Si4 0.174171 0.889148 0.465239
Si Si5 0.316931 0.817380 0.773172
Si Si6 0.181780 0.185639 0.960521
Si Si7 0.180864 0.314341 0.315861
Si Si8 0.319970 0.622716 0.144830
O O1 0.698250 0.000000 0.267308
O O2 0.762196 0.057224 0.130009
O O3 0.500000 0.000000 0.137375
O O4 0.769282 0.500000 0.670309
O O5 0.752941 0.587405 0.553543
O O6 0.774538 0.626265 0.710898
O O7 0.000000 0.568051 0.647855
O O8 0.500000 0.500000 0.288542
O O9 0.329398 0.556450 0.397401
O O10 0.261181 0.839510 0.409617
O O11 0.000000 0.871130 0.483700
O O12 0.500000 0.811311 0.771558
O O13 0.250000 0.750000 0.754834
O O14 0.259334 0.836394 0.870514
O O15 0.250000 0.250000 0.970101
O O16 0.000000 0.186313 0.948069
O O17 0.215661 0.155124 0.053420
O O18 0.250000 0.250000 0.303364
O O19 0.239174 0.352295 0.232314
O O20 0.000000 0.313151 0.314907
O O21 0.500000 0.625962 0.160443
#
# Coordination Sequence:
#
# PCOD9349337 Si02
#       8
#     4   8   4   8   8   8   8   8
#     4  12  24  36  58  87 116 159 204 245 294 350
#     4  10  22  40  62  89 122 159 203 253 307 364
#     4  10  20  36  58  81 114 153 194 239 286 342
#     4  11  22  38  61  87 117 156 197 241 295 351
#     4  10  21  39  64  90 120 156 197 250 307 366
#     4  10  21  38  63  89 116 153 195 242 296 356
#     4  12  25  40  59  86 120 158 202 248 298 352
#     4  11  23  40  60  85 121 159 197 246 299 352
#
# _framework density 18.544477000000001
#
# number of rings (size 3 to 8) (size 9 to 14) (size 15 to 20)
#    0.000    1.286    2.143    4.929    0.000    5.714 
#    1.286    1.429    0.000    0.000    0.000    0.000 
#    0.000    0.000    0.000    0.000    0.000    0.000 
#
# Total GULP energy -156151.576683 kJ/mol
# GULP energy per Si atom -5576.842024 kJ/mol
# Density = 1.850227 g / cm^3
# Si number density = 18.544477 Si / 1000 Ang^3
#
#
#
# Elastic Constant Matrix: (Units=GPa)
#
#
# Indices 1 2 3 4 5 6 
#
# 1 51.8605 27.8099 35.7387 0.0000 0.0000 0.0000
# 2 27.8099 91.0397 52.3404 0.0000 0.0000 0.0000
# 3 35.7387 52.3404 98.7677 0.0000 0.0000 0.0000
# 4 0.0000 0.0000 0.0000 35.8001 0.0000 0.0000
# 5 0.0000 0.0000 0.0000 0.0000 30.6442 0.0000
# 6 0.0000 0.0000 0.0000 0.0000 0.0000 23.7660
#
#
#
# Elastic Compliance Matrix: (Units=1/GPa)
#
#
# Indices 1 2 3 4 5 6 
#
# 1 0.026535 -0.003718 -0.007631 0.000000 0.000000 0.000000
# 2 -0.003718 0.016318 -0.007302 0.000000 0.000000 0.000000
# 3 -0.007631 -0.007302 0.016756 0.000000 0.000000 0.000000
# 4 0.000000 0.000000 0.000000 0.027933 0.000000 0.000000
# 5 0.000000 0.000000 0.000000 0.000000 0.032633 0.000000
# 6 0.000000 0.000000 0.000000 0.000000 0.000000 0.042077
#
#
# Mechanical properties :
#
#
# Convention : Reuss Voigt Hill
#
# Bulk Modulus (GPa) = 44.83124 52.60510 48.71817
# Shear Modulus (GPa) = 24.15572 26.42734 25.29153
#
# Velocity S-wave (km/s) = 3.61305 3.77912 3.69701
# Velocity P-wave (km/s) = 6.45236 6.88991 6.67472
#
# Compressibility (1/GPa) = 0.02230587
#
# Stress axis : x y z
#
# Youngs Moduli (GPa) = 37.68549 61.28133 59.68113
#
# Poissons Ratio (x) = 0.22787 0.45544
# Poissons Ratio (y) = 0.14013 0.43580
# Poissons Ratio (z) = 0.28759 0.44748
#
# Static dielectric constant tensor:
#      x y z
#    x 1.636590 0.000000 0.000000 
#    y 0.000000 1.645900 0.000000 
#    z 0.000000 0.000000 1.643310 
# 
# From -- ./inp_files/15681.got.cif
#   From: 2010.05.17/outbox.cif.g08.bks.cpg/sg35_8_cif.got.tgz:15681.got - 2010.06.03 17:29:28.
