data_PCOD9349453
_publ_section_title
;
Structure prediction by ZEFSAII (Michael W. Deem and Ramdas Pophale) SiO2 
 PCOD9349453
Probable space group: C M M 2
;
_chemical_formula_sum "Si O2"
_cell_formula_units_Z 56
_cell_length_a 8.727003
_cell_length_b 22.777760
_cell_length_c 15.181610
_cell_angle_alpha 90.000000
_cell_angle_beta 90.000000
_cell_angle_gamma 90.000000
_cell_volume 3017.824421
_symmetry_space_group_name_H-M "C M M 2"
_symmetry_group_IT_number 35
_symmetry_cell_setting 'orthorhombic'
loop_
_space_group_symop_operation_xyz
x,y,z
-x,-y,z
-x,y,z
x,-y,z
1/2+x,1/2+y,z
1/2-x,1/2-y,z
1/2-x,1/2+y,z
1/2+x,1/2-y,z
loop_
_atom_site_type_symbol
_atom_site_label
_atom_site_fract_x
_atom_site_fract_y
_atom_site_fract_z
Si Si1 0.817699 0.109388 0.471660
Si Si2 0.316751 0.814176 0.619805
Si Si3 0.817331 0.313654 0.961591
Si Si4 0.676695 0.000000 0.568034
Si Si5 0.174871 0.871570 0.793283
Si Si6 0.332828 0.500000 0.739467
Si Si7 0.814647 0.569883 0.283335
Si Si8 0.685146 0.816082 0.164160
O O1 0.746263 0.163634 0.525376
O O2 0.749627 0.092125 0.376997
O O3 0.000000 0.115447 0.466284
O O4 0.765926 0.055741 0.532633
O O5 0.500000 0.815315 0.618358
O O6 0.250000 0.750000 0.635546
O O7 0.257042 0.852148 0.702800
O O8 0.750000 0.250000 0.943433
O O9 0.755873 0.352057 0.882086
O O10 0.000000 0.312827 0.959491
O O11 0.771054 0.327906 0.062128
O O12 0.693615 0.000000 0.672088
O O13 0.500000 0.000000 0.539144
O O14 0.000000 0.848760 0.790217
O O15 0.171234 0.941439 0.794258
O O16 0.500000 0.500000 0.691054
O O17 0.768398 0.500000 0.267452
O O18 0.770381 0.624400 0.217921
O O19 0.000000 0.568819 0.285521
O O20 0.500000 0.811157 0.170548
O O21 0.750000 0.750000 0.188074
#
# Coordination Sequence:
#
# PCOD9349453 Si02
#       8
#     8   8   8   4   8   4   8   8
#     4  12  24  39  60  87 120 156 197 243 294 352
#     4  12  25  41  60  86 119 157 201 247 298 351
#     4  10  20  37  60  87 116 152 198 243 294 356
#     4  12  22  36  60  85 112 153 200 241 284 342
#     4  11  22  38  59  85 118 157 197 243 296 351
#     4  10  22  38  58  81 116 157 198 241 294 350
#     4  10  21  39  63  89 120 158 204 251 305 368
#     4   9  20  39  63  90 118 155 199 249 307 365
#
# _framework density 18.556414
#
# number of rings (size 3 to 8) (size 9 to 14) (size 15 to 20)
#    0.000    1.286    2.143    4.500    0.000    2.286 
#    1.286    1.429    0.000    0.000    0.000    0.000 
#    0.000    0.000    0.000    0.000    0.000    0.000 
#
# Total GULP energy -156094.922230 kJ/mol
# GULP energy per Si atom -5574.818651 kJ/mol
# Density = 1.851418 g / cm^3
# Si number density = 18.556414 Si / 1000 Ang^3
#
#
#
# Elastic Constant Matrix: (Units=GPa)
#
#
# Indices 1 2 3 4 5 6 
#
# 1 80.1292 39.6805 36.2568 0.0000 0.0000 0.0000
# 2 39.6805 136.9556 77.3994 0.0000 0.0000 0.0000
# 3 36.2568 77.3994 102.3530 0.0000 0.0000 0.0000
# 4 0.0000 0.0000 0.0000 29.6267 0.0000 0.0000
# 5 0.0000 0.0000 0.0000 0.0000 23.4394 0.0000
# 6 0.0000 0.0000 0.0000 0.0000 0.0000 21.5599
#
#
#
# Elastic Compliance Matrix: (Units=1/GPa)
#
#
# Indices 1 2 3 4 5 6 
#
# 1 0.015298 -0.002392 -0.003610 0.000000 0.000000 0.000000
# 2 -0.002392 0.013125 -0.009078 0.000000 0.000000 0.000000
# 3 -0.003610 -0.009078 0.017914 0.000000 0.000000 0.000000
# 4 0.000000 0.000000 0.000000 0.033753 0.000000 0.000000
# 5 0.000000 0.000000 0.000000 0.000000 0.042663 0.000000
# 6 0.000000 0.000000 0.000000 0.000000 0.000000 0.046382
#
#
# Mechanical properties :
#
#
# Convention : Reuss Voigt Hill
#
# Bulk Modulus (GPa) = 61.81807 69.56790 65.69298
# Shear Modulus (GPa) = 24.42751 25.99861 25.21306
#
# Velocity S-wave (km/s) = 3.63215 3.74713 3.69009
# Velocity P-wave (km/s) = 7.13974 7.50284 7.32354
#
# Compressibility (1/GPa) = 0.01617650
#
# Stress axis : x y z
#
# Youngs Moduli (GPa) = 65.36832 76.19111 55.82379
#
# Poissons Ratio (x) = 0.18225 0.20153
# Poissons Ratio (y) = 0.15636 0.50675
# Poissons Ratio (z) = 0.23599 0.69164
#
# Static dielectric constant tensor:
#      x y z
#    x 1.659210 0.000000 0.000000 
#    y 0.000000 1.655810 0.000000 
#    z 0.000000 0.000000 1.641580 
# 
# From -- ./inp_files/15660.got.cif
#   From: 2010.05.17/outbox.cif.g08.bks.cpg/sg35_8_cif.got.tgz:15660.got - 2010.06.03 17:29:28.
