data_PCOD9349683
_publ_section_title
;
Structure prediction by ZEFSAII (Michael W. Deem and Ramdas Pophale) SiO2 
 PCOD9349683
Probable space group: C M M 2
;
_chemical_formula_sum "Si O2"
_cell_formula_units_Z 64
_cell_length_a 29.649395
_cell_length_b 9.027198
_cell_length_c 12.754385
_cell_angle_alpha 90.000000
_cell_angle_beta 90.000000
_cell_angle_gamma 90.000000
_cell_volume 3413.723380
_symmetry_space_group_name_H-M "C M M 2"
_symmetry_group_IT_number 35
_symmetry_cell_setting 'orthorhombic'
loop_
_space_group_symop_operation_xyz
x,y,z
-x,-y,z
-x,y,z
x,-y,z
1/2+x,1/2+y,z
1/2-x,1/2-y,z
1/2-x,1/2+y,z
1/2+x,1/2-y,z
loop_
_atom_site_type_symbol
_atom_site_label
_atom_site_fract_x
_atom_site_fract_y
_atom_site_fract_z
Si Si1 0.554897 0.668273 0.694820
Si Si2 0.299515 0.322089 0.694820
Si Si3 0.946081 0.674572 0.478552
Si Si4 0.700740 0.678403 0.924543
Si Si5 0.619778 0.678839 0.316453
Si Si6 0.799260 0.821597 0.465095
Si Si7 0.946082 0.325426 0.911089
Si Si8 0.619779 0.678838 0.073186
O O1 0.500000 0.663691 0.694820
O O2 0.572221 0.500000 0.694821
O O3 0.567963 0.750948 0.588514
O O4 0.567962 0.750953 0.801124
O O5 0.295831 0.500000 0.694820
O O6 0.250000 0.250000 0.694820
O O7 0.318879 0.280899 0.808749
O O8 0.318879 0.280900 0.580889
O O9 0.936771 0.500000 0.481872
O O10 0.920343 0.750092 0.382898
O O11 0.000000 0.694779 0.467891
O O12 0.705575 0.500000 0.927670
O O13 0.750000 0.750000 0.935916
O O14 0.666091 0.722705 0.014870
O O15 0.616327 0.500000 0.322308
O O16 0.666090 0.722705 0.374770
O O17 0.619292 0.721996 0.194820
O O18 0.750000 0.750000 0.453721
O O19 0.794425 0.000000 0.461967
O O20 0.936774 0.500000 0.907771
O O21 0.000000 0.305208 0.921751
O O22 0.920342 0.249906 0.006739
O O23 0.616329 0.500000 0.067332
#
# Coordination Sequence:
#
# PCOD9349683 Si02
#       8
#     8   8   8   8   8   8   8   8
#     4   9  17  32  57  86 113 142 176 214 265 330
#     4   8  14  27  48  73 100 129 163 206 260 320
#     4  10  21  37  57  82 112 143 178 225 277 326
#     4   9  18  33  53  77 105 137 174 221 276 330
#     4  10  22  38  54  76 107 144 190 236 274 322
#     4   9  18  33  53  77 105 137 174 221 276 330
#     4  10  21  37  57  82 112 143 178 225 277 326
#     4  10  22  38  54  76 107 144 190 236 274 322
#
# _framework density 18.747858000000001
#
# number of rings (size 3 to 8) (size 9 to 14) (size 15 to 20)
#    0.000    2.625    0.000    1.125    0.000    6.500 
#    0.000    5.000    0.000    3.000    0.000    0.000 
#    0.000    0.000    0.000    0.000    0.000    0.000 
#
# Total GULP energy -178504.565848 kJ/mol
# GULP energy per Si atom -5578.267683 kJ/mol
# Density = 1.870519 g / cm^3
# Si number density = 18.747858 Si / 1000 Ang^3
#
#
#
# Elastic Constant Matrix: (Units=GPa)
#
#
# Indices 1 2 3 4 5 6 
#
# 1 64.7265 42.6933 71.6085 0.0000 0.0000 0.0000
# 2 42.6933 41.0340 69.2116 0.0000 0.0000 0.0000
# 3 71.6085 69.2116 222.7117 0.0000 0.0000 0.0000
# 4 0.0000 0.0000 0.0000 21.6337 0.0000 0.0000
# 5 0.0000 0.0000 0.0000 0.0000 33.4233 0.0000
# 6 0.0000 0.0000 0.0000 0.0000 0.0000 24.6661
#
#
#
# Elastic Compliance Matrix: (Units=1/GPa)
#
#
# Indices 1 2 3 4 5 6 
#
# 1 0.049248 -0.051554 0.000187 0.000000 0.000000 0.000000
# 2 -0.051554 0.105184 -0.016112 0.000000 0.000000 0.000000
# 3 0.000187 -0.016112 0.009437 0.000000 0.000000 0.000000
# 4 0.000000 0.000000 0.000000 0.046224 0.000000 0.000000
# 5 0.000000 0.000000 0.000000 0.000000 0.029919 0.000000
# 6 0.000000 0.000000 0.000000 0.000000 0.000000 0.040542
#
#
# Mechanical properties :
#
#
# Convention : Reuss Voigt Hill
#
# Bulk Modulus (GPa) = 34.58909 77.27766 55.93338
# Shear Modulus (GPa) = 11.76057 25.60855 18.68456
#
# Velocity S-wave (km/s) = 2.50732 3.69988 3.16036
# Velocity P-wave (km/s) = 5.18381 7.71758 6.57392
#
# Compressibility (1/GPa) = 0.02891085
#
# Stress axis : x y z
#
# Youngs Moduli (GPa) = 20.30537 9.50713 105.96549
#
# Poissons Ratio (x) = 0.49013 -0.01978
# Poissons Ratio (y) = 1.04683 1.70727
# Poissons Ratio (z) = -0.00379 0.15317
#
# Static dielectric constant tensor:
#      x y z
#    x 1.636090 0.000000 0.000000 
#    y 0.000000 1.626450 0.000000 
#    z 0.000000 0.000000 1.647510 
# 
# From -- ./inp_files/14514.got.cif
#   From: 2010.05.17/outbox.cif.g08.bks.cpg/sg35_8_cif.got.tgz:14514.got - 2010.06.03 17:29:28.
