data_PCOD9349777
_publ_section_title
;
Structure prediction by ZEFSAII (Michael W. Deem and Ramdas Pophale) SiO2 
 PCOD9349777
Probable space group: C M M 2
;
_chemical_formula_sum "Si O2"
_cell_formula_units_Z 40
_cell_length_a 18.490670
_cell_length_b 8.775123
_cell_length_c 13.076355
_cell_angle_alpha 90.000000
_cell_angle_beta 90.000000
_cell_angle_gamma 90.000000
_cell_volume 2121.741949
_symmetry_space_group_name_H-M "C M M 2"
_symmetry_group_IT_number 35
_symmetry_cell_setting 'orthorhombic'
loop_
_space_group_symop_operation_xyz
x,y,z
-x,-y,z
-x,y,z
x,-y,z
1/2+x,1/2+y,z
1/2-x,1/2-y,z
1/2-x,1/2+y,z
1/2+x,1/2-y,z
loop_
_atom_site_type_symbol
_atom_site_label
_atom_site_fract_x
_atom_site_fract_y
_atom_site_fract_z
Si Si1 0.085728 0.319040 0.391790
Si Si2 0.330237 0.681594 0.581589
Si Si3 0.330268 0.316749 0.967565
Si Si4 0.084615 0.182370 0.172805
Si Si5 0.914726 0.682525 0.774653
O O1 0.096230 0.500000 0.402909
O O2 0.131554 0.232337 0.476657
O O3 0.105234 0.266230 0.277393
O O4 0.000000 0.286413 0.405574
O O5 0.326962 0.500000 0.588573
O O6 0.250000 0.750000 0.586184
O O7 0.376513 0.747882 0.675360
O O8 0.328219 0.500000 0.960289
O O9 0.250000 0.250000 0.961447
O O10 0.377613 0.250945 0.875185
O O11 0.367207 0.275173 0.075647
O O12 0.000000 0.216353 0.151375
O O13 0.090489 0.000000 0.188502
O O14 0.905839 0.500000 0.773699
O O15 0.000000 0.717251 0.773694
#
# Coordination Sequence:
#
# PCOD9349777 Si02
#       5
#     8   8   8   8   8
#     4  10  21  38  61  89 121 156 196 242 291 346
#     4  12  25  41  62  87 119 156 195 241 293 349
#     4  11  23  39  60  87 121 158 197 242 292 347
#     4   9  19  37  60  85 115 155 202 247 291 343
#     4  11  24  42  64  89 118 152 193 241 292 349
#
# _framework density 18.852433999999999
#
# number of rings (size 3 to 8) (size 9 to 14) (size 15 to 20)
#    0.000    1.400    0.000    5.400    0.000    8.400 
#    0.000    4.000    0.000    0.000    0.000    0.000 
#    0.000    0.000    0.000    0.000    0.000    0.000 
#
# Total GULP energy -111875.891093 kJ/mol
# GULP energy per Si atom -5593.794555 kJ/mol
# Density = 1.880952 g / cm^3
# Si number density = 18.852434 Si / 1000 Ang^3
#
#
#
# Elastic Constant Matrix: (Units=GPa)
#
#
# Indices 1 2 3 4 5 6 
#
# 1 150.3043 91.6943 116.7390 0.0000 0.0000 0.0000
# 2 91.6943 100.7521 84.7491 0.0000 0.0000 0.0000
# 3 116.7390 84.7491 170.4648 0.0000 0.0000 0.0000
# 4 0.0000 0.0000 0.0000 52.6662 0.0000 0.0000
# 5 0.0000 0.0000 0.0000 0.0000 196.7459 0.0000
# 6 0.0000 0.0000 0.0000 0.0000 0.0000 8.5464
#
#
#
# Elastic Compliance Matrix: (Units=1/GPa)
#
#
# Indices 1 2 3 4 5 6 
#
# 1 0.019595 -0.011250 -0.007826 0.000000 0.000000 0.000000
# 2 -0.011250 0.023519 -0.003988 0.000000 0.000000 0.000000
# 3 -0.007826 -0.003988 0.013208 0.000000 0.000000 0.000000
# 4 0.000000 0.000000 0.000000 0.018988 0.000000 0.000000
# 5 0.000000 0.000000 0.000000 0.000000 0.005083 0.000000
# 6 0.000000 0.000000 0.000000 0.000000 0.000000 0.117008
#
#
# Mechanical properties :
#
#
# Convention : Reuss Voigt Hill
#
# Bulk Modulus (GPa) = 98.10217 111.98735 105.04476
# Shear Modulus (GPa) = 20.24895 60.14763 40.19829
#
# Velocity S-wave (km/s) = 3.28087 5.65453 4.62265
# Velocity P-wave (km/s) = 8.15487 10.10755 9.18326
#
# Compressibility (1/GPa) = 0.01019345
#
# Stress axis : x y z
#
# Youngs Moduli (GPa) = 51.03456 42.51870 75.70948
#
# Poissons Ratio (x) = 0.47835 0.59248
# Poissons Ratio (y) = 0.57416 0.30195
# Poissons Ratio (z) = 0.39938 0.16958
#
# Static dielectric constant tensor:
#      x y z
#    x 1.624620 0.000000 0.000000 
#    y 0.000000 1.630020 0.000000 
#    z 0.000000 0.000000 1.617580 
# 
# From -- ./inp_files/10998.got.cif
#   From: 2010.05.17/outbox.cif.g08.bks.cpg/sg35_6_cif.got.tgz:10998.got - 2010.06.03 17:29:28.
