data_PCOD9349032
_publ_section_title
;
Structure prediction by ZEFSAII (Michael W. Deem and Ramdas Pophale) SiO2 
 PCOD9349032
Probable space group: C M M 2
;
_chemical_formula_sum "Si O2"
_cell_formula_units_Z 56
_cell_length_a 14.765645
_cell_length_b 15.895386
_cell_length_c 10.330060
_cell_angle_alpha 90.000000
_cell_angle_beta 90.000000
_cell_angle_gamma 90.000000
_cell_volume 2424.523207
_symmetry_space_group_name_H-M "C M M 2"
_symmetry_group_IT_number 35
_symmetry_cell_setting 'orthorhombic'
loop_
_space_group_symop_operation_xyz
x,y,z
-x,-y,z
-x,y,z
x,-y,z
1/2+x,1/2+y,z
1/2-x,1/2-y,z
1/2-x,1/2+y,z
1/2+x,1/2-y,z
loop_
_atom_site_type_symbol
_atom_site_label
_atom_site_fract_x
_atom_site_fract_y
_atom_site_fract_z
Si Si1 0.132572 0.849692 0.501490
Si Si2 0.142199 0.262206 0.099564
Si Si3 0.651589 0.160922 0.544911
Si Si4 0.639306 0.909377 0.279862
Si Si5 0.893118 0.720988 0.813313
Si Si6 0.857950 0.907309 0.220816
Si Si7 0.103552 0.091195 0.778556
O O1 0.241402 0.843646 0.516854
O O2 0.107893 0.751749 0.513583
O O3 0.106621 0.887085 0.364383
O O4 0.099953 0.903008 0.622651
O O5 0.250000 0.250000 0.110934
O O6 0.121534 0.302745 0.961354
O O7 0.107135 0.325741 0.208227
O O8 0.110674 0.166894 0.125926
O O9 0.617997 0.098767 0.432912
O O10 0.641201 0.158962 0.700470
O O11 0.748213 0.907736 0.246874
O O12 0.606624 0.000000 0.232801
O O13 0.853117 0.817171 0.809253
O O14 0.000000 0.728972 0.789166
O O15 0.883451 0.000000 0.175919
O O16 0.000000 0.092066 0.827785
O O17 0.144710 0.000000 0.815410
#
# Coordination Sequence:
#
# PCOD9349032 Si02
#       7
#     8   8   8   8   8   8   8
#     4   9  15  27  52  79 106 139 178 225 272 311
#     4  10  20  34  55  79 109 149 180 225 272 329
#     4   9  17  31  55  78 104 136 183 233 271 321
#     4   9  17  33  56  82 106 134 178 233 292 334
#     4  10  22  37  54  77 110 151 185 225 281 333
#     4   9  16  28  50  82 114 141 176 224 270 320
#     4   9  18  31  47  73 112 149 179 215 263 325
#
# _framework density 23.097325000000001
#
# number of rings (size 3 to 8) (size 9 to 14) (size 15 to 20)
#    0.000    2.714    1.429    0.429    4.000    1.143 
#    0.000    2.143    0.000    3.429    0.000    0.000 
#    0.000    0.000    0.000    0.000    0.000    0.000 
#
# Total GULP energy -156010.771515 kJ/mol
# GULP energy per Si atom -5571.813268 kJ/mol
# Density = 2.304475 g / cm^3
# Si number density = 23.097325 Si / 1000 Ang^3
#
#
#
# Elastic Constant Matrix: (Units=GPa)
#
#
# Indices 1 2 3 4 5 6 
#
# 1 69.3024 8.8284 -0.8936 0.0000 0.0000 0.0000
# 2 8.8284 108.4068 39.4547 0.0000 0.0000 0.0000
# 3 -0.8936 39.4547 123.6512 0.0000 0.0000 0.0000
# 4 0.0000 0.0000 0.0000 1.4059 0.0000 0.0000
# 5 0.0000 0.0000 0.0000 0.0000 116.4295 0.0000
# 6 0.0000 0.0000 0.0000 0.0000 0.0000 -4.2677
#
#
#
# Elastic Compliance Matrix: (Units=1/GPa)
#
#
# Indices 1 2 3 4 5 6 
#
# 1 0.014614 -0.001390 0.000549 0.000000 0.000000 0.000000
# 2 -0.001390 0.010569 -0.003382 0.000000 0.000000 0.000000
# 3 0.000549 -0.003382 0.009170 0.000000 0.000000 0.000000
# 4 0.000000 0.000000 0.000000 0.711278 0.000000 0.000000
# 5 0.000000 0.000000 0.000000 0.000000 0.008589 0.000000
# 6 0.000000 0.000000 0.000000 0.000000 0.000000 -0.234319
#
#
# Mechanical properties :
#
#
# Convention : Reuss Voigt Hill
#
# Bulk Modulus (GPa) = 38.60032 44.01549 41.30790
# Shear Modulus (GPa) = 9.31129 39.64494 24.47812
#
# Velocity S-wave (km/s) = 2.00999 4.14748 3.25896
# Velocity P-wave (km/s) = 4.70479 6.48331 5.66429
#
# Compressibility (1/GPa) = 0.02590652
#
# Stress axis : x y z
#
# Youngs Moduli (GPa) = 68.42912 94.61896 109.04575
#
# Poissons Ratio (x) = 0.13152 -0.05988
# Poissons Ratio (y) = 0.09511 0.36883
# Poissons Ratio (z) = -0.03758 0.32003
#
# Static dielectric constant tensor:
#      x y z
#    x 1.901940 0.000000 0.000000 
#    y 0.000000 1.868940 0.000000 
#    z 0.000000 0.000000 1.871080 
# 
# From -- ./inp_files/7668.got.cif
#   From: 2010.05.17/outbox.cif.g08.bks.cpg/sg35_4_cif.got.tgz:7668.got - 2010.06.03 17:29:28.
