data_PCOD9349290
_publ_section_title
;
Structure prediction by ZEFSAII (Michael W. Deem and Ramdas Pophale) SiO2 
 PCOD9349290
Probable space group: C M M 2
;
_chemical_formula_sum "Si O2"
_cell_formula_units_Z 64
_cell_length_a 7.494940
_cell_length_b 28.758385
_cell_length_c 13.637232
_cell_angle_alpha 90.000000
_cell_angle_beta 90.000000
_cell_angle_gamma 90.000000
_cell_volume 2939.401307
_symmetry_space_group_name_H-M "C M M 2"
_symmetry_group_IT_number 35
_symmetry_cell_setting 'orthorhombic'
loop_
_space_group_symop_operation_xyz
x,y,z
-x,-y,z
-x,y,z
x,-y,z
1/2+x,1/2+y,z
1/2-x,1/2-y,z
1/2-x,1/2+y,z
1/2+x,1/2-y,z
loop_
_atom_site_type_symbol
_atom_site_label
_atom_site_fract_x
_atom_site_fract_y
_atom_site_fract_z
Si Si1 0.787381 0.553862 0.334850
Si Si2 0.286534 0.305019 0.228385
Si Si3 0.290150 0.447630 0.551207
Si Si4 0.209850 0.052370 0.118493
Si Si5 0.286534 0.694981 0.441315
Si Si6 0.286370 0.304803 0.834850
Si Si7 0.219368 0.855396 0.031644
Si Si8 0.219368 0.855396 0.638056
O O1 0.722915 0.500000 0.334850
O O2 0.726784 0.572213 0.440066
O O3 0.726784 0.572213 0.229634
O O4 0.000000 0.554214 0.334850
O O5 0.500000 0.311550 0.229699
O O6 0.250000 0.250000 0.222893
O O7 0.216984 0.321730 0.334850
O O8 0.219614 0.328895 0.129781
O O9 0.500000 0.451975 0.569900
O O10 0.212753 0.500000 0.554491
O O11 0.221219 0.408793 0.625357
O O12 0.278781 0.091207 0.044343
O O13 0.000000 0.048025 0.099800
O O14 0.287247 0.000000 0.115210
O O15 0.500000 0.688450 0.440001
O O16 0.250000 0.750000 0.446807
O O17 0.219614 0.671105 0.539919
O O18 0.500000 0.310228 0.834850
O O19 0.250000 0.250000 0.834850
O O20 0.220159 0.329644 0.736054
O O21 0.220159 0.329644 0.933646
O O22 0.000000 0.854907 0.031513
O O23 0.000000 0.854907 0.638188
#
# Coordination Sequence:
#
# PCOD9349290 Si02
#       8
#     8   8   8   8   8   8   8   8
#     4   9  17  29  45  69 102 135 164 201 248 287
#     4   9  17  29  45  65  91 122 153 192 241 292
#     4   9  17  30  49  72  98 132 172 204 236 292
#     4   9  17  30  49  72  98 132 172 204 236 292
#     4   9  17  29  45  65  91 122 153 192 241 292
#     4  10  20  36  55  75  99 129 166 210 255 298
#     4   9  18  31  50  73  97 127 164 204 249 291
#     4   9  18  31  50  73  97 127 164 204 249 291
#
# _framework density 21.773140000000001
#
# number of rings (size 3 to 8) (size 9 to 14) (size 15 to 20)
#    0.000    2.875    0.000    1.125    1.750    1.500 
#    0.000    3.125    0.000    3.750    0.000    0.000 
#    0.000    5.000    0.000    0.000    0.000    0.000 
#
# Total GULP energy -178578.519784 kJ/mol
# GULP energy per Si atom -5580.578743 kJ/mol
# Density = 2.172358 g / cm^3
# Si number density = 21.773140 Si / 1000 Ang^3
#
#
#
# Elastic Constant Matrix: (Units=GPa)
#
#
# Indices 1 2 3 4 5 6 
#
# 1 63.6881 -0.4833 7.8627 0.0000 0.0000 0.0000
# 2 -0.4833 145.0480 115.7558 0.0000 0.0000 0.0000
# 3 7.8627 115.7558 195.6834 0.0000 0.0000 0.0000
# 4 0.0000 0.0000 0.0000 43.9075 0.0000 0.0000
# 5 0.0000 0.0000 0.0000 0.0000 -6.5139 0.0000
# 6 0.0000 0.0000 0.0000 0.0000 0.0000 12.7884
#
#
#
# Elastic Compliance Matrix: (Units=1/GPa)
#
#
# Indices 1 2 3 4 5 6 
#
# 1 0.015866 0.001064 -0.001267 0.000000 0.000000 0.000000
# 2 0.001064 0.013131 -0.007810 0.000000 0.000000 0.000000
# 3 -0.001267 -0.007810 0.009781 0.000000 0.000000 0.000000
# 4 0.000000 0.000000 0.000000 0.022775 0.000000 0.000000
# 5 0.000000 0.000000 0.000000 0.000000 -0.153519 0.000000
# 6 0.000000 0.000000 0.000000 0.000000 0.000000 0.078196
#
#
# Mechanical properties :
#
#
# Convention : Reuss Voigt Hill
#
# Bulk Modulus (GPa) = 43.95272 72.29886 58.12579
# Shear Modulus (GPa) = 508.10833 28.78869 268.44851
#
# Velocity S-wave (km/s) = 15.29285 3.64017 11.11580
# Velocity P-wave (km/s) = 18.22249 7.13760 13.83843
#
# Compressibility (1/GPa) = 0.02275172
#
# Stress axis : x y z
#
# Youngs Moduli (GPa) = 63.02784 76.15717 102.23608
#
# Poissons Ratio (x) = -0.08102 0.12952
# Poissons Ratio (y) = -0.06705 0.79848
# Poissons Ratio (z) = 0.07985 0.59480
#
# Static dielectric constant tensor:
#      x y z
#    x 1.887440 0.000000 0.000000 
#    y 0.000000 1.821210 0.000000 
#    z 0.000000 0.000000 1.781800 
# 
# From -- ./inp_files/11998.got.cif
#   From: 2010.05.17/outbox.cif.g08.bks.cpg/sg35_6_cif.got.tgz:11998.got - 2010.06.03 17:29:28.
