data_PCOD9349104
_publ_section_title
;
Structure prediction by ZEFSAII (Michael W. Deem and Ramdas Pophale) SiO2 
 PCOD9349104
Probable space group: C M M 2
;
_chemical_formula_sum "Si O2"
_cell_formula_units_Z 48
_cell_length_a 13.547029
_cell_length_b 19.690530
_cell_length_c 9.151419
_cell_angle_alpha 90.000000
_cell_angle_beta 90.000000
_cell_angle_gamma 90.000000
_cell_volume 2441.124371
_symmetry_space_group_name_H-M "C M M 2"
_symmetry_group_IT_number 35
_symmetry_cell_setting 'orthorhombic'
loop_
_space_group_symop_operation_xyz
x,y,z
-x,-y,z
-x,y,z
x,-y,z
1/2+x,1/2+y,z
1/2-x,1/2-y,z
1/2-x,1/2+y,z
1/2+x,1/2-y,z
loop_
_atom_site_type_symbol
_atom_site_label
_atom_site_fract_x
_atom_site_fract_y
_atom_site_fract_z
Si Si1 0.796633 0.426154 0.824170
Si Si2 0.612852 0.203737 0.955165
Si Si3 0.246847 0.675133 0.232966
Si Si4 0.383523 0.580357 0.041388
Si Si5 0.790306 0.641515 0.537060
Si Si6 0.613391 0.728274 0.660255
O O1 0.829180 0.500000 0.873280
O O2 0.869676 0.368225 0.878257
O O3 0.796435 0.420044 0.649678
O O4 0.689049 0.414275 0.899954
O O5 0.500000 0.216219 0.992255
O O6 0.640587 0.258990 0.831304
O O7 0.675539 0.195504 0.100198
O O8 0.250000 0.750000 0.307788
O O9 0.338227 0.634677 0.157981
O O10 0.207649 0.628671 0.364979
O O11 0.500000 0.593745 0.013638
O O12 0.376069 0.500000 0.087905
O O13 0.686073 0.676071 0.583626
O O14 0.869885 0.698892 0.582655
O O15 0.500000 0.708076 0.652126
#
# Coordination Sequence:
#
# PCOD9349104 Si02
#       6
#     8   8   8   8   8   8
#     4   9  19  36  60  81 105 143 189 236 276 326
#     4   9  20  35  56  80 105 141 184 229 275 327
#     4  11  22  35  53  85 121 151 185 232 284 342
#     4   9  20  39  60  83 113 151 195 238 282 338
#     4  10  20  35  51  79 115 142 181 224 275 339
#     4   9  18  34  53  73 103 143 181 224 269 316
#
# _framework density 19.663069
#
# number of rings (size 3 to 8) (size 9 to 14) (size 15 to 20)
#    0.000    2.500    1.667    0.000    7.000    3.667 
#    0.000    0.000    0.000    2.000    0.000    4.667 
#    0.000    0.000    0.000    0.000    0.000    0.000 
#
# Total GULP energy -133608.507024 kJ/mol
# GULP energy per Si atom -5567.021126 kJ/mol
# Density = 1.961831 g / cm^3
# Si number density = 19.663069 Si / 1000 Ang^3
#
#
#
# Elastic Constant Matrix: (Units=GPa)
#
#
# Indices 1 2 3 4 5 6 
#
# 1 65.9242 -5.3062 1.5751 0.0000 0.0000 0.0000
# 2 -5.3062 64.8018 -7.3643 0.0000 0.0000 0.0000
# 3 1.5751 -7.3643 101.3514 0.0000 0.0000 0.0000
# 4 0.0000 0.0000 0.0000 19.1278 0.0000 0.0000
# 5 0.0000 0.0000 0.0000 0.0000 9.6348 0.0000
# 6 0.0000 0.0000 0.0000 0.0000 0.0000 17.3191
#
#
#
# Elastic Compliance Matrix: (Units=1/GPa)
#
#
# Indices 1 2 3 4 5 6 
#
# 1 0.015272 0.001234 -0.000148 0.000000 0.000000 0.000000
# 2 0.001234 0.015660 0.001119 0.000000 0.000000 0.000000
# 3 -0.000148 0.001119 0.009950 0.000000 0.000000 0.000000
# 4 0.000000 0.000000 0.000000 0.052280 0.000000 0.000000
# 5 0.000000 0.000000 0.000000 0.000000 0.103790 0.000000
# 6 0.000000 0.000000 0.000000 0.000000 0.000000 0.057740
#
#
# Mechanical properties :
#
#
# Convention : Reuss Voigt Hill
#
# Bulk Modulus (GPa) = 22.07933 23.32074 22.70003
# Shear Modulus (GPa) = 18.84095 25.42786 22.13440
#
# Velocity S-wave (km/s) = 3.09882 3.59998 3.35876
# Velocity P-wave (km/s) = 4.90477 5.40053 5.15861
#
# Compressibility (1/GPa) = 0.04529124
#
# Stress axis : x y z
#
# Youngs Moduli (GPa) = 65.48030 63.85771 100.50004
#
# Poissons Ratio (x) = -0.07878 0.01484
# Poissons Ratio (y) = -0.08078 -0.11243
# Poissons Ratio (z) = 0.00967 -0.07144
#
# Static dielectric constant tensor:
#      x y z
#    x 1.683530 0.000000 0.000000 
#    y 0.000000 1.713640 0.000000 
#    z 0.000000 0.000000 1.738990 
# 
# From -- ./inp_files/6230.got.cif
#   From: 2010.05.17/outbox.cif.g08.bks.cpg/sg35_4_cif.got.tgz:6230.got - 2010.06.03 17:29:28.
