data_PCOD9349387
_publ_section_title
;
Structure prediction by ZEFSAII (Michael W. Deem and Ramdas Pophale) SiO2 
 PCOD9349387
Probable space group: C M M 2
;
_chemical_formula_sum "Si O2"
_cell_formula_units_Z 56
_cell_length_a 8.537670
_cell_length_b 22.937899
_cell_length_c 15.204285
_cell_angle_alpha 90.000000
_cell_angle_beta 90.000000
_cell_angle_gamma 90.000000
_cell_volume 2977.549583
_symmetry_space_group_name_H-M "C M M 2"
_symmetry_group_IT_number 35
_symmetry_cell_setting 'orthorhombic'
loop_
_space_group_symop_operation_xyz
x,y,z
-x,-y,z
-x,y,z
x,-y,z
1/2+x,1/2+y,z
1/2-x,1/2-y,z
1/2-x,1/2+y,z
1/2+x,1/2-y,z
loop_
_atom_site_type_symbol
_atom_site_label
_atom_site_fract_x
_atom_site_fract_y
_atom_site_fract_z
Si Si1 0.818491 0.000000 0.106010
Si Si2 0.687815 0.816776 0.512674
Si Si3 0.186543 0.185929 0.053189
Si Si4 0.824781 0.500000 0.923962
Si Si5 0.187485 0.314817 0.717102
Si Si6 0.191066 0.430801 0.397687
Si Si7 0.685535 0.614106 0.878271
Si Si8 0.314629 0.109997 0.203045
O O1 0.731060 0.944294 0.142787
O O2 0.000000 0.000000 0.131685
O O3 0.800605 0.000000 0.002100
O O4 0.500000 0.812750 0.501083
O O5 0.750000 0.750000 0.492205
O O6 0.721392 0.829865 0.615310
O O7 0.739792 0.875510 0.459551
O O8 0.250000 0.250000 0.036675
O O9 0.243693 0.163406 0.148255
O O10 0.000000 0.185948 0.054235
O O11 0.233653 0.145789 0.969844
O O12 0.790004 0.557046 0.869724
O O13 0.000000 0.500000 0.960566
O O14 0.250000 0.250000 0.727412
O O15 0.277583 0.349638 0.791758
O O16 0.000000 0.318520 0.730290
O O17 0.239843 0.500000 0.412303
O O18 0.239792 0.408838 0.300225
O O19 0.000000 0.432718 0.400659
O O20 0.500000 0.601871 0.884025
O O21 0.500000 0.118423 0.208013
#
# Coordination Sequence:
#
# PCOD9349387 Si02
#       8
#     4   8   8   4   8   8   8   8
#     4  12  22  36  56  81 114 151 192 235 280 334
#     4   9  19  37  61  87 117 153 194 246 301 359
#     4  11  24  39  56  81 116 154 193 239 290 342
#     4  12  24  38  60  85 114 153 198 239 280 342
#     4  10  20  36  59  87 114 151 198 240 291 350
#     4   9  18  35  60  89 116 149 197 249 302 355
#     4  11  23  39  59  84 118 154 190 240 293 341
#     4  11  21  36  60  85 111 150 197 240 286 344
#
# _framework density 18.807410000000001
#
# number of rings (size 3 to 8) (size 9 to 14) (size 15 to 20)
#    0.000    1.571    2.143    3.429    0.000    4.000 
#    1.286    2.857    0.000    0.000    0.000    0.000 
#    0.000    0.000    0.000    0.000    0.000    0.000 
#
# Total GULP energy -156032.888115 kJ/mol
# GULP energy per Si atom -5572.603147 kJ/mol
# Density = 1.876460 g / cm^3
# Si number density = 18.807410 Si / 1000 Ang^3
#
#
#
# Elastic Constant Matrix: (Units=GPa)
#
#
# Indices 1 2 3 4 5 6 
#
# 1 35.7575 29.3593 21.9612 0.0000 0.0000 0.0000
# 2 29.3593 123.0206 67.3266 0.0000 0.0000 0.0000
# 3 21.9612 67.3266 91.7730 0.0000 0.0000 0.0000
# 4 0.0000 0.0000 0.0000 -80.4547 0.0000 0.0000
# 5 0.0000 0.0000 0.0000 0.0000 12.7444 0.0000
# 6 0.0000 0.0000 0.0000 0.0000 0.0000 13.5572
#
#
#
# Elastic Compliance Matrix: (Units=1/GPa)
#
#
# Indices 1 2 3 4 5 6 
#
# 1 0.035564 -0.006399 -0.003816 0.000000 0.000000 0.000000
# 2 -0.006399 0.014733 -0.009277 0.000000 0.000000 0.000000
# 3 -0.003816 -0.009277 0.018616 0.000000 0.000000 0.000000
# 4 0.000000 0.000000 0.000000 -0.012429 0.000000 0.000000
# 5 0.000000 0.000000 0.000000 0.000000 0.078466 0.000000
# 6 0.000000 0.000000 0.000000 0.000000 0.000000 0.073762
#
#
# Mechanical properties :
#
#
# Convention : Reuss Voigt Hill
#
# Bulk Modulus (GPa) = 33.41342 54.20503 43.80922
# Shear Modulus (GPa) = 19.40455 -2.03703 8.68376
#
# Velocity S-wave (km/s) = 3.21557 -1.04185 2.15110
# Velocity P-wave (km/s) = 5.62060 5.23798 5.43266
#
# Compressibility (1/GPa) = 0.02992809
#
# Stress axis : x y z
#
# Youngs Moduli (GPa) = 28.11851 67.87429 53.71845
#
# Poissons Ratio (x) = 0.43433 0.20498
# Poissons Ratio (y) = 0.17993 0.49836
# Poissons Ratio (z) = 0.10730 0.62969
#
# Static dielectric constant tensor:
#      x y z
#    x 1.639940 0.000000 0.000000 
#    y 0.000000 1.669110 0.000000 
#    z 0.000000 0.000000 1.655280 
# 
# From -- ./inp_files/15688.got.cif
#   From: 2010.05.17/outbox.cif.g08.bks.cpg/sg35_8_cif.got.tgz:15688.got - 2010.06.03 17:29:28.
