data_PCOD9349794
_publ_section_title
;
Structure prediction by ZEFSAII (Michael W. Deem and Ramdas Pophale) SiO2 
 PCOD9349794
Probable space group: C M M 2
;
_chemical_formula_sum "Si O2"
_cell_formula_units_Z 32
_cell_length_a 16.567444
_cell_length_b 10.230644
_cell_length_c 10.408613
_cell_angle_alpha 90.000000
_cell_angle_beta 90.000000
_cell_angle_gamma 90.000000
_cell_volume 1764.214330
_symmetry_space_group_name_H-M "C M M 2"
_symmetry_group_IT_number 35
_symmetry_cell_setting 'orthorhombic'
loop_
_space_group_symop_operation_xyz
x,y,z
-x,-y,z
-x,y,z
x,-y,z
1/2+x,1/2+y,z
1/2-x,1/2-y,z
1/2-x,1/2+y,z
1/2+x,1/2-y,z
loop_
_atom_site_type_symbol
_atom_site_label
_atom_site_fract_x
_atom_site_fract_y
_atom_site_fract_z
Si Si1 0.783786 0.500000 0.054330
Si Si2 0.750000 0.750000 0.227473
Si Si3 0.807571 0.000000 0.805297
Si Si4 0.405669 0.342040 0.392608
Si Si5 0.372313 0.000000 0.797475
Si Si6 0.911008 0.776069 0.685760
O O1 0.778264 0.628472 0.140136
O O2 0.707345 0.500000 0.957378
O O3 0.858129 0.500000 0.952035
O O4 0.670002 0.706541 0.307440
O O5 0.718979 0.000000 0.744488
O O6 0.850782 0.869844 0.759964
O O7 0.500000 0.312597 0.351786
O O8 0.400734 0.500000 0.403236
O O9 0.394234 0.279916 0.533956
O O10 0.409917 0.132171 0.745126
O O11 0.000000 0.833647 0.701193
#
# Coordination Sequence:
#
# PCOD9349794 Si02
#       6
#     4   4   4   8   4   8
#     4  10  24  40  60  90 124 160 218 248 282 380
#     4  12  22  42  68  88 120 180 204 250 312 350
#     4  10  21  38  63  82 121 162 200 252 290 364
#     4  10  23  41  64  95 126 158 209 258 302 377
#     4  10  23  38  61  86 131 154 194 258 306 354
#     4  11  21  38  62  95 125 153 196 256 320 366
#
# _framework density 18.138386000000001
#
# number of rings (size 3 to 8) (size 9 to 14) (size 15 to 20)
#    0.750    0.750    2.500    3.000    3.500    1.000 
#    0.000    9.375    0.000    0.000    0.000    0.000 
#    0.000    0.000    0.000    0.000    0.000    0.000 
#
# Total GULP energy -89143.113340 kJ/mol
# GULP energy per Si atom -5571.444584 kJ/mol
# Density = 1.809710 g / cm^3
# Si number density = 18.138386 Si / 1000 Ang^3
#
#
#
# Elastic Constant Matrix: (Units=GPa)
#
#
# Indices 1 2 3 4 5 6 
#
# 1 102.5479 42.6871 66.8028 0.0000 0.0000 0.0000
# 2 42.6871 120.9691 57.3079 0.0000 0.0000 0.0000
# 3 66.8028 57.3079 105.5499 0.0000 0.0000 0.0000
# 4 0.0000 0.0000 0.0000 17.6394 0.0000 0.0000
# 5 0.0000 0.0000 0.0000 0.0000 451.1435 0.0000
# 6 0.0000 0.0000 0.0000 0.0000 0.0000 38.6027
#
#
#
# Elastic Compliance Matrix: (Units=1/GPa)
#
#
# Indices 1 2 3 4 5 6 
#
# 1 0.016720 -0.001194 -0.009934 0.000000 0.000000 0.000000
# 2 -0.001194 0.011214 -0.005333 0.000000 0.000000 0.000000
# 3 -0.009934 -0.005333 0.018657 0.000000 0.000000 0.000000
# 4 0.000000 0.000000 0.000000 0.056691 0.000000 0.000000
# 5 0.000000 0.000000 0.000000 0.000000 0.002217 0.000000
# 6 0.000000 0.000000 0.000000 0.000000 0.000000 0.025905
#
#
# Mechanical properties :
#
#
# Convention : Reuss Voigt Hill
#
# Bulk Modulus (GPa) = 73.15640 73.62917 73.39278
# Shear Modulus (GPa) = 29.60653 112.29504 70.95079
#
# Velocity S-wave (km/s) = 4.04450 7.87684 6.26109
# Velocity P-wave (km/s) = 7.88864 11.10888 9.63426
#
# Compressibility (1/GPa) = 0.01366934
#
# Stress axis : x y z
#
# Youngs Moduli (GPa) = 59.81001 89.17075 53.59981
#
# Poissons Ratio (x) = 0.10647 0.53244
# Poissons Ratio (y) = 0.07141 0.28586
# Poissons Ratio (z) = 0.59413 0.47556
#
# Static dielectric constant tensor:
#      x y z
#    x -11.687040 0.000000 0.000000 
#    y 0.000000 1.592550 0.000000 
#    z 0.000000 0.000000 1.611700 
# 
# From -- ./inp_files/12740.got.cif
#   From: 2010.05.17/outbox.cif.g08.bks.cpg/sg35_7_cif.got.tgz:12740.got - 2010.06.03 17:29:28.
