data_PCOD9349758
_publ_section_title
;
Structure prediction by ZEFSAII (Michael W. Deem and Ramdas Pophale) SiO2 
 PCOD9349758
Probable space group: C M M 2
;
_chemical_formula_sum "Si O2"
_cell_formula_units_Z 48
_cell_length_a 8.711705
_cell_length_b 18.606118
_cell_length_c 15.758858
_cell_angle_alpha 90.000000
_cell_angle_beta 90.000000
_cell_angle_gamma 90.000000
_cell_volume 2554.369229
_symmetry_space_group_name_H-M "C M M 2"
_symmetry_group_IT_number 35
_symmetry_cell_setting 'orthorhombic'
loop_
_space_group_symop_operation_xyz
x,y,z
-x,-y,z
-x,y,z
x,-y,z
1/2+x,1/2+y,z
1/2-x,1/2-y,z
1/2-x,1/2+y,z
1/2+x,1/2-y,z
loop_
_atom_site_type_symbol
_atom_site_label
_atom_site_fract_x
_atom_site_fract_y
_atom_site_fract_z
Si Si1 0.683079 0.670115 0.599670
Si Si2 0.316629 0.169741 0.100022
Si Si3 0.320397 0.086235 0.442409
Si Si4 0.316170 0.415140 0.939106
Si Si5 0.683300 0.585281 0.259450
Si Si6 0.816260 0.669434 0.779899
O O1 0.500000 0.673270 0.607127
O O2 0.750000 0.750000 0.586917
O O3 0.734002 0.622477 0.520477
O O4 0.754383 0.643545 0.688571
O O5 0.500000 0.172128 0.095898
O O6 0.250000 0.250000 0.097289
O O7 0.262372 0.130552 0.185757
O O8 0.251350 0.125103 0.020690
O O9 0.500000 0.106221 0.443888
O O10 0.246708 0.106127 0.351967
O O11 0.309300 0.000000 0.449820
O O12 0.500000 0.405530 0.937216
O O13 0.283280 0.500000 0.943761
O O14 0.243533 0.380429 0.855248
O O15 0.500000 0.595247 0.256341
O O16 0.714912 0.500000 0.247254
O O17 0.750000 0.750000 0.792327
O O18 0.000000 0.672567 0.779055
#
# Coordination Sequence:
#
# PCOD9349758 Si02
#       6
#     8   8   8   8   8   8
#     4  11  22  38  60  86 118 155 197 242 292 347
#     4  12  25  41  62  88 119 154 195 240 289 345
#     4  10  21  38  60  87 119 155 196 241 290 345
#     4  11  24  42  63  88 119 154 193 238 289 345
#     4  10  21  39  62  88 119 154 193 239 292 347
#     4  11  22  39  62  87 118 154 195 241 291 346
#
# _framework density 18.791331
#
# number of rings (size 3 to 8) (size 9 to 14) (size 15 to 20)
#    0.000    1.167    0.000    8.000    0.000    6.667 
#    0.000    3.333    0.000    0.000    0.000    0.000 
#    0.000    0.000    0.000    0.000    0.000    0.000 
#
# Total GULP energy -134269.920661 kJ/mol
# GULP energy per Si atom -5594.580028 kJ/mol
# Density = 1.874856 g / cm^3
# Si number density = 18.791331 Si / 1000 Ang^3
#
#
#
# Elastic Constant Matrix: (Units=GPa)
#
#
# Indices 1 2 3 4 5 6 
#
# 1 180.9802 85.5945 101.6985 0.0000 0.0000 0.0000
# 2 85.5945 90.5500 99.7712 0.0000 0.0000 0.0000
# 3 101.6985 99.7712 200.6524 0.0000 0.0000 0.0000
# 4 0.0000 0.0000 0.0000 33.1093 0.0000 0.0000
# 5 0.0000 0.0000 0.0000 0.0000 43.4013 0.0000
# 6 0.0000 0.0000 0.0000 0.0000 0.0000 30.5934
#
#
#
# Elastic Compliance Matrix: (Units=1/GPa)
#
#
# Indices 1 2 3 4 5 6 
#
# 1 0.010053 -0.008601 -0.000819 0.000000 0.000000 0.000000
# 2 -0.008601 0.031785 -0.011445 0.000000 0.000000 0.000000
# 3 -0.000819 -0.011445 0.011089 0.000000 0.000000 0.000000
# 4 0.000000 0.000000 0.000000 0.030203 0.000000 0.000000
# 5 0.000000 0.000000 0.000000 0.000000 0.023041 0.000000
# 6 0.000000 0.000000 0.000000 0.000000 0.000000 0.032687
#
#
# Mechanical properties :
#
#
# Convention : Reuss Voigt Hill
#
# Bulk Modulus (GPa) = 89.30280 116.25678 102.77979
# Shear Modulus (GPa) = 27.12670 33.76203 30.44436
#
# Velocity S-wave (km/s) = 3.80356 4.24333 4.02945
# Velocity P-wave (km/s) = 8.18022 9.27412 8.74429
#
# Compressibility (1/GPa) = 0.01119786
#
# Stress axis : x y z
#
# Youngs Moduli (GPa) = 99.46844 31.46182 90.17559
#
# Poissons Ratio (x) = 0.27061 0.07382
# Poissons Ratio (y) = 0.85555 1.03205
# Poissons Ratio (z) = 0.08143 0.36008
#
# Static dielectric constant tensor:
#      x y z
#    x 1.626880 0.000000 0.000000 
#    y 0.000000 1.625430 0.000000 
#    z 0.000000 0.000000 1.622030 
# 
# From -- ./inp_files/15116.got.cif
#   From: 2010.05.17/outbox.cif.g08.bks.cpg/sg35_8_cif.got.tgz:15116.got - 2010.06.03 17:29:28.
