data_PCOD9349510
_publ_section_title
;
Structure prediction by ZEFSAII (Michael W. Deem and Ramdas Pophale) SiO2 
 PCOD9349510
Probable space group: C M M 2
;
_chemical_formula_sum "Si O2"
_cell_formula_units_Z 40
_cell_length_a 7.495904
_cell_length_b 18.532101
_cell_length_c 15.515702
_cell_angle_alpha 90.000000
_cell_angle_beta 90.000000
_cell_angle_gamma 90.000000
_cell_volume 2155.361416
_symmetry_space_group_name_H-M "C M M 2"
_symmetry_group_IT_number 35
_symmetry_cell_setting 'orthorhombic'
loop_
_space_group_symop_operation_xyz
x,y,z
-x,-y,z
-x,y,z
x,-y,z
1/2+x,1/2+y,z
1/2-x,1/2-y,z
1/2-x,1/2+y,z
1/2+x,1/2-y,z
loop_
_atom_site_type_symbol
_atom_site_label
_atom_site_fract_x
_atom_site_fract_y
_atom_site_fract_z
Si Si1 0.500000 0.913049 0.129490
Si Si2 0.712734 0.335850 0.013680
Si Si3 0.295135 0.588129 0.462883
Si Si4 0.500000 0.912224 0.328986
Si Si5 0.287223 0.334472 0.820465
Si Si6 0.781985 0.916707 0.652309
O O1 0.327980 0.880236 0.081541
O O2 0.500000 0.890424 0.229784
O O3 0.500000 0.000000 0.124480
O O4 0.500000 0.347378 0.022019
O O5 0.750000 0.250000 0.022678
O O6 0.772947 0.356668 0.916188
O O7 0.500000 0.610347 0.451161
O O8 0.293175 0.500000 0.465853
O O9 0.170936 0.611199 0.384582
O O10 0.228614 0.611499 0.557774
O O11 0.500000 0.000000 0.328992
O O12 0.500000 0.345140 0.821183
O O13 0.250000 0.250000 0.811755
O O14 0.217321 0.374837 0.736299
O O15 0.000000 0.915020 0.651104
O O16 0.728547 0.000000 0.659504
#
# Coordination Sequence:
#
# PCOD9349510 Si02
#       6
#     4   8   8   4   8   8
#     4  11  24  38  57  91 120 138 187 260 299 323
#     4  10  20  38  62  82 109 156 199 227 278 356
#     4   8  14  27  48  71 100 140 178 210 259 329
#     4   9  18  32  49  75 109 138 173 226 282 329
#     4   9  18  31  51  76 103 139 181 215 258 326
#     4   8  14  27  48  74 102 135 174 214 256 308
#
# _framework density 18.558371999999999
#
# number of rings (size 3 to 8) (size 9 to 14) (size 15 to 20)
#    0.000    3.000    1.000    1.200    1.400    2.000 
#    1.800    4.000    0.000    1.200    0.000    0.000 
#    0.000    0.000    0.000    0.000    0.000    0.000 
#
# Total GULP energy -111467.084302 kJ/mol
# GULP energy per Si atom -5573.354215 kJ/mol
# Density = 1.851613 g / cm^3
# Si number density = 18.558372 Si / 1000 Ang^3
#
#
#
# Elastic Constant Matrix: (Units=GPa)
#
#
# Indices 1 2 3 4 5 6 
#
# 1 99.9353 20.8224 77.7561 0.0000 0.0000 0.0000
# 2 20.8224 30.5317 61.0321 0.0000 0.0000 0.0000
# 3 77.7561 61.0321 229.3306 0.0000 0.0000 0.0000
# 4 0.0000 0.0000 0.0000 -20.8152 0.0000 0.0000
# 5 0.0000 0.0000 0.0000 0.0000 40.6441 0.0000
# 6 0.0000 0.0000 0.0000 0.0000 0.0000 13.2939
#
#
#
# Elastic Compliance Matrix: (Units=1/GPa)
#
#
# Indices 1 2 3 4 5 6 
#
# 1 0.013592 -0.000123 -0.004576 0.000000 0.000000 0.000000
# 2 -0.000123 0.069985 -0.018583 0.000000 0.000000 0.000000
# 3 -0.004576 -0.018583 0.010858 0.000000 0.000000 0.000000
# 4 0.000000 0.000000 0.000000 -0.048042 0.000000 0.000000
# 5 0.000000 0.000000 0.000000 0.000000 0.024604 0.000000
# 6 0.000000 0.000000 0.000000 0.000000 0.000000 0.075223
#
#
# Mechanical properties :
#
#
# Convention : Reuss Voigt Hill
#
# Bulk Modulus (GPa) = 20.88980 75.44655 48.16817
# Shear Modulus (GPa) = 23.95320 19.97036 21.96178
#
# Velocity S-wave (km/s) = 3.59652 3.28393 3.44377
# Velocity P-wave (km/s) = 5.34110 7.42434 6.46715
#
# Compressibility (1/GPa) = 0.04787026
#
# Stress axis : x y z
#
# Youngs Moduli (GPa) = 73.57047 14.28887 92.10084
#
# Poissons Ratio (x) = 0.00175 0.42145
# Poissons Ratio (y) = 0.00903 1.71155
# Poissons Ratio (z) = 0.33665 0.26554
#
# Static dielectric constant tensor:
#      x y z
#    x 1.668330 0.000000 0.000000 
#    y 0.000000 1.608260 0.000000 
#    z 0.000000 0.000000 1.654640 
# 
# From -- ./inp_files/11187.got.cif
#   From: 2010.05.17/outbox.cif.g08.bks.cpg/sg35_6_cif.got.tgz:11187.got - 2010.06.03 17:29:28.
