data_PCOD9349483
_publ_section_title
;
Structure prediction by ZEFSAII (Michael W. Deem and Ramdas Pophale) SiO2 
 PCOD9349483
Probable space group: C M M 2
;
_chemical_formula_sum "Si O2"
_cell_formula_units_Z 52
_cell_length_a 14.232068
_cell_length_b 18.861554
_cell_length_c 9.320341
_cell_angle_alpha 90.000000
_cell_angle_beta 90.000000
_cell_angle_gamma 90.000000
_cell_volume 2501.942264
_symmetry_space_group_name_H-M "C M M 2"
_symmetry_group_IT_number 35
_symmetry_cell_setting 'orthorhombic'
loop_
_space_group_symop_operation_xyz
x,y,z
-x,-y,z
-x,y,z
x,-y,z
1/2+x,1/2+y,z
1/2-x,1/2-y,z
1/2-x,1/2+y,z
1/2+x,1/2-y,z
loop_
_atom_site_type_symbol
_atom_site_label
_atom_site_fract_x
_atom_site_fract_y
_atom_site_fract_z
Si Si1 0.398340 0.500000 0.934490
Si Si2 0.105059 0.286615 0.115821
Si Si3 0.142927 0.267327 0.788884
Si Si4 0.101222 0.112071 0.686097
Si Si5 0.784409 0.000000 0.201930
Si Si6 0.108268 0.500000 0.386720
Si Si7 0.294909 0.872697 0.546175
Si Si8 0.784928 0.156237 0.253393
O O1 0.500000 0.500000 0.012657
O O2 0.396859 0.431462 0.833621
O O3 0.309883 0.500000 0.036429
O O4 0.142331 0.212215 0.185493
O O5 0.189746 0.339373 0.157886
O O6 0.000000 0.303304 0.170899
O O7 0.099689 0.283494 0.943267
O O8 0.250000 0.250000 0.826909
O O9 0.103529 0.195726 0.718948
O O10 0.151512 0.327979 0.668035
O O11 0.198776 0.094127 0.609343
O O12 0.000000 0.094880 0.615399
O O13 0.676515 0.000000 0.249877
O O14 0.822609 0.075741 0.257471
O O15 0.137895 0.568416 0.479207
O O16 0.000000 0.500000 0.350385
O O17 0.253487 0.827574 0.412816
#
# Coordination Sequence:
#
# PCOD9349483 Si02
#       8
#     4   8   8   8   4   4   8   8
#     4  10  21  37  63 100 134 166 204 255 333 404
#     4  11  23  40  62  92 130 167 209 267 324 387
#     4  10  20  37  62  90 125 164 210 261 312 375
#     4  10  21  36  62  96 127 165 209 257 318 388
#     4  10  22  40  68  88 126 168 212 264 322 388
#     4  10  23  45  65  88 124 172 224 271 321 376
#     4  10  23  41  66  91 126 172 217 271 320 378
#     4  10  23  42  61  93 127 167 216 259 326 388
#
# _framework density 20.783852
#
# number of rings (size 3 to 8) (size 9 to 14) (size 15 to 20)
#    0.000    1.846    1.538    1.846    8.615    6.154 
#    0.000    2.308    0.000    0.000    0.000    0.000 
#    0.000    0.000    0.000    0.000    0.000    0.000 
#
# Total GULP energy -144936.496008 kJ/mol
# GULP energy per Si atom -5574.480616 kJ/mol
# Density = 2.073655 g / cm^3
# Si number density = 20.783852 Si / 1000 Ang^3
#
#
#
# Elastic Constant Matrix: (Units=GPa)
#
#
# Indices 1 2 3 4 5 6 
#
# 1 104.8835 7.0008 27.3138 0.0000 0.0000 0.0000
# 2 7.0008 102.6384 26.8159 0.0000 0.0000 0.0000
# 3 27.3138 26.8159 99.0726 0.0000 0.0000 0.0000
# 4 0.0000 0.0000 0.0000 27.9550 0.0000 0.0000
# 5 0.0000 0.0000 0.0000 0.0000 12.4832 0.0000
# 6 0.0000 0.0000 0.0000 0.0000 0.0000 7.7323
#
#
#
# Elastic Compliance Matrix: (Units=1/GPa)
#
#
# Indices 1 2 3 4 5 6 
#
# 1 0.010272 0.000042 -0.002843 0.000000 0.000000 0.000000
# 2 0.000042 0.010485 -0.002849 0.000000 0.000000 0.000000
# 3 -0.002843 -0.002849 0.011649 0.000000 0.000000 0.000000
# 4 0.000000 0.000000 0.000000 0.035772 0.000000 0.000000
# 5 0.000000 0.000000 0.000000 0.000000 0.080108 0.000000
# 6 0.000000 0.000000 0.000000 0.000000 0.000000 0.129328
#
#
# Mechanical properties :
#
#
# Convention : Reuss Voigt Hill
#
# Bulk Modulus (GPa) = 47.38416 47.65062 47.51739
# Shear Modulus (GPa) = 16.89483 25.99837 21.44660
#
# Velocity S-wave (km/s) = 2.85420 3.54063 3.21579
# Velocity P-wave (km/s) = 5.80603 6.30010 6.05811
#
# Compressibility (1/GPa) = 0.02110410
#
# Stress axis : x y z
#
# Youngs Moduli (GPa) = 97.35162 95.37859 85.84593
#
# Poissons Ratio (x) = -0.00403 0.24409
# Poissons Ratio (y) = -0.00411 0.24462
# Poissons Ratio (z) = 0.27681 0.27178
#
# Static dielectric constant tensor:
#      x y z
#    x 1.851730 0.000000 0.000000 
#    y 0.000000 1.794440 0.000000 
#    z 0.000000 0.000000 1.763790 
# 
# From -- ./inp_files/7576.got.cif
#   From: 2010.05.17/outbox.cif.g08.bks.cpg/sg35_4_cif.got.tgz:7576.got - 2010.06.03 17:29:28.
