data_PCOD9349278
_publ_section_title
;
Structure prediction by ZEFSAII (Michael W. Deem and Ramdas Pophale) SiO2 
 PCOD9349278
Probable space group: C M M 2
;
_chemical_formula_sum "Si O2"
_cell_formula_units_Z 64
_cell_length_a 28.840587
_cell_length_b 18.282373
_cell_length_c 6.071511
_cell_angle_alpha 90.000000
_cell_angle_beta 90.000000
_cell_angle_gamma 90.000000
_cell_volume 3201.352132
_symmetry_space_group_name_H-M "C M M 2"
_symmetry_group_IT_number 35
_symmetry_cell_setting 'orthorhombic'
loop_
_space_group_symop_operation_xyz
x,y,z
-x,-y,z
-x,y,z
x,-y,z
1/2+x,1/2+y,z
1/2-x,1/2-y,z
1/2-x,1/2+y,z
1/2+x,1/2-y,z
loop_
_atom_site_type_symbol
_atom_site_label
_atom_site_fract_x
_atom_site_fract_y
_atom_site_fract_z
Si Si1 0.635794 0.419336 0.958260
Si Si2 0.639818 0.194224 0.242080
Si Si3 0.773183 0.916441 0.203565
Si Si4 0.606701 0.305873 0.610440
Si Si5 0.304224 0.085278 0.525211
Si Si6 0.784649 0.691368 0.900710
Si Si7 0.552181 0.224250 0.984762
Si Si8 0.448460 0.622025 0.240548
O O1 0.644916 0.500000 0.860613
O O2 0.636896 0.355015 0.778038
O O3 0.672684 0.408413 0.156106
O O4 0.585964 0.418399 0.075411
O O5 0.632957 0.254739 0.433719
O O6 0.662488 0.121036 0.341787
O O7 0.676431 0.223957 0.062199
O O8 0.591361 0.179536 0.117080
O O9 0.749235 0.907275 0.440664
O O10 0.760797 0.000000 0.138119
O O11 0.748177 0.858955 0.048945
O O12 0.574090 0.252180 0.755207
O O13 0.575220 0.363410 0.475345
O O14 0.309371 0.137475 0.732603
O O15 0.313494 0.000000 0.563819
O O16 0.750000 0.750000 0.793848
O O17 0.500000 0.193868 0.960412
O O18 0.548357 0.297457 0.131911
O O19 0.500000 0.591361 0.258476
#
# Coordination Sequence:
#
# PCOD9349278 Si02
#       8
#     8   8   8   8   8   8   8   8
#     4  10  22  38  56  80 113 157 206 257 303 350
#     4  10  22  39  58  93 123 155 200 250 305 359
#     4   9  21  40  57  79 113 154 200 245 297 354
#     4  10  20  35  61  82 121 154 206 247 305 368
#     4  10  22  42  65  87 119 162 203 242 299 369
#     4  11  24  37  60  88 122 158 199 253 302 352
#     4   9  18  35  59  87 119 152 192 246 303 361
#     4   9  19  34  53  77 111 154 199 250 306 357
#
# _framework density 19.991551999999999
#
# number of rings (size 3 to 8) (size 9 to 14) (size 15 to 20)
#    0.000    2.250    0.000    1.500    7.000    5.250 
#    0.000    2.500    0.000    0.375    0.000    0.000 
#    0.000    0.000    0.000    0.000    0.000    0.000 
#
# Total GULP energy -178475.753809 kJ/mol
# GULP energy per Si atom -5577.367307 kJ/mol
# Density = 1.994605 g / cm^3
# Si number density = 19.991552 Si / 1000 Ang^3
#
#
#
# Elastic Constant Matrix: (Units=GPa)
#
#
# Indices 1 2 3 4 5 6 
#
# 1 110.8379 34.8664 34.2403 0.0000 0.0000 0.0000
# 2 34.8664 75.5610 36.5987 0.0000 0.0000 0.0000
# 3 34.2403 36.5987 80.9346 0.0000 0.0000 0.0000
# 4 0.0000 0.0000 0.0000 12.1596 0.0000 0.0000
# 5 0.0000 0.0000 0.0000 0.0000 21.5327 0.0000
# 6 0.0000 0.0000 0.0000 0.0000 0.0000 14.8643
#
#
#
# Elastic Compliance Matrix: (Units=1/GPa)
#
#
# Indices 1 2 3 4 5 6 
#
# 1 0.011113 -0.003650 -0.003051 0.000000 0.000000 0.000000
# 2 -0.003650 0.018145 -0.006661 0.000000 0.000000 0.000000
# 3 -0.003051 -0.006661 0.016658 0.000000 0.000000 0.000000
# 4 0.000000 0.000000 0.000000 0.082240 0.000000 0.000000
# 5 0.000000 0.000000 0.000000 0.000000 0.046441 0.000000
# 6 0.000000 0.000000 0.000000 0.000000 0.000000 0.067275
#
#
# Mechanical properties :
#
#
# Convention : Reuss Voigt Hill
#
# Bulk Modulus (GPa) = 52.10389 53.19381 52.64885
# Shear Modulus (GPa) = 18.18226 20.48654 19.33440
#
# Velocity S-wave (km/s) = 3.01906 3.20466 3.11324
# Velocity P-wave (km/s) = 6.18648 6.35288 6.27023
#
# Compressibility (1/GPa) = 0.01919243
#
# Stress axis : x y z
#
# Youngs Moduli (GPa) = 89.98562 55.11184 60.02979
#
# Poissons Ratio (x) = 0.20117 0.18314
# Poissons Ratio (y) = 0.32846 0.39985
# Poissons Ratio (z) = 0.27453 0.36709
#
# Static dielectric constant tensor:
#      x y z
#    x 1.753570 0.000000 0.000000 
#    y 0.000000 1.701310 0.000000 
#    z 0.000000 0.000000 1.730260 
# 
# From -- ./inp_files/4089.got.cif
#   From: 2010.05.17/outbox.cif.g08.bks.cpg/sg35_3_cif.got.tgz:4089.got - 2010.06.03 17:29:28.
