data_PCOD9349608
_publ_section_title
;
Structure prediction by ZEFSAII (Michael W. Deem and Ramdas Pophale) SiO2 
 PCOD9349608
Probable space group: C M M 2
;
_chemical_formula_sum "Si O2"
_cell_formula_units_Z 64
_cell_length_a 26.286640
_cell_length_b 18.842374
_cell_length_c 7.407933
_cell_angle_alpha 90.000000
_cell_angle_beta 90.000000
_cell_angle_gamma 90.000000
_cell_volume 3669.169232
_symmetry_space_group_name_H-M "C M M 2"
_symmetry_group_IT_number 35
_symmetry_cell_setting 'orthorhombic'
loop_
_space_group_symop_operation_xyz
x,y,z
-x,-y,z
-x,y,z
x,-y,z
1/2+x,1/2+y,z
1/2-x,1/2-y,z
1/2-x,1/2+y,z
1/2+x,1/2-y,z
loop_
_atom_site_type_symbol
_atom_site_label
_atom_site_fract_x
_atom_site_fract_y
_atom_site_fract_z
Si Si1 0.886078 0.220492 0.813500
Si Si2 0.558689 0.421220 0.819286
Si Si3 0.058689 0.078780 0.379796
Si Si4 0.862766 0.420235 0.099541
Si Si5 0.058295 0.634365 0.812989
Si Si6 0.941705 0.634365 0.386094
Si Si7 0.807773 0.274762 0.099541
Si Si8 0.613922 0.279508 0.385583
O O1 0.907601 0.144974 0.876076
O O2 0.928129 0.282388 0.840523
O O3 0.875518 0.217550 0.599541
O O4 0.837336 0.243661 0.926388
O O5 0.500000 0.412005 0.875129
O O6 0.575662 0.500000 0.875451
O O7 0.558639 0.420292 0.599541
O O8 0.092400 0.144974 0.323007
O O9 0.000000 0.087996 0.323953
O O10 0.075661 0.000000 0.323631
O O11 0.842826 0.500000 0.099542
O O12 0.900227 0.407257 0.269814
O O13 0.819887 0.359128 0.099541
O O14 0.900227 0.407257 0.929268
O O15 0.063267 0.619573 0.599541
O O16 0.000000 0.619963 0.866197
O O17 0.928129 0.717612 0.358560
O O18 0.000000 0.619963 0.332885
O O19 0.750000 0.250000 0.099541
O O20 0.837336 0.243661 0.272694
#
# Coordination Sequence:
#
# PCOD9349608 Si02
#       8
#     8   8   8   8   8   8   8   8
#     4   9  17  31  51  72  97 129 163 200 239 282
#     4   8  13  23  43  72 105 137 162 187 228 282
#     4   8  13  23  43  72 105 137 162 187 228 282
#     4  10  21  36  52  71  98 128 156 194 243 287
#     4   9  17  29  48  75 104 134 164 189 221 277
#     4   9  17  29  48  75 104 134 164 189 221 277
#     4  10  22  39  55  71  89 117 164 211 249 289
#     4   9  17  31  51  72  97 129 163 200 239 282
#
# _framework density 17.442640999999998
#
# number of rings (size 3 to 8) (size 9 to 14) (size 15 to 20)
#    0.000    3.000    0.000    1.875    0.000    5.000 
#    0.000    5.000    0.000    1.500    0.000    0.000 
#    0.000    0.000    0.000    0.000    0.000    0.000 
#
# Total GULP energy -178433.427543 kJ/mol
# GULP energy per Si atom -5576.044611 kJ/mol
# Density = 1.740294 g / cm^3
# Si number density = 17.442641 Si / 1000 Ang^3
#
#
#
# Elastic Constant Matrix: (Units=GPa)
#
#
# Indices 1 2 3 4 5 6 
#
# 1 90.0245 51.7754 22.9453 0.0000 0.0000 0.0000
# 2 51.7754 146.1494 29.1061 0.0000 0.0000 0.0000
# 3 22.9453 29.1061 58.2490 0.0000 0.0000 0.0000
# 4 0.0000 0.0000 0.0000 5.9014 0.0000 0.0000
# 5 0.0000 0.0000 0.0000 0.0000 15.5271 0.0000
# 6 0.0000 0.0000 0.0000 0.0000 0.0000 8.3975
#
#
#
# Elastic Compliance Matrix: (Units=1/GPa)
#
#
# Indices 1 2 3 4 5 6 
#
# 1 0.014569 -0.004462 -0.003509 0.000000 0.000000 0.000000
# 2 -0.004462 0.008965 -0.002722 0.000000 0.000000 0.000000
# 3 -0.003509 -0.002722 0.019910 0.000000 0.000000 0.000000
# 4 0.000000 0.000000 0.000000 0.169450 0.000000 0.000000
# 5 0.000000 0.000000 0.000000 0.000000 0.064403 0.000000
# 6 0.000000 0.000000 0.000000 0.000000 0.000000 0.119083
#
#
# Mechanical properties :
#
#
# Convention : Reuss Voigt Hill
#
# Bulk Modulus (GPa) = 45.33658 55.78628 50.56143
# Shear Modulus (GPa) = 11.76138 18.67162 15.21650
#
# Velocity S-wave (km/s) = 2.59952 3.27534 2.95680
# Velocity P-wave (km/s) = 5.92100 6.80852 6.38021
#
# Compressibility (1/GPa) = 0.02205724
#
# Stress axis : x y z
#
# Youngs Moduli (GPa) = 68.63919 111.54161 50.22568
#
# Poissons Ratio (x) = 0.49774 0.17625
# Poissons Ratio (y) = 0.30629 0.13671
# Poissons Ratio (z) = 0.24087 0.30361
#
# Static dielectric constant tensor:
#      x y z
#    x 1.537650 0.000000 0.000000 
#    y 0.000000 1.613140 0.000000 
#    z 0.000000 0.000000 1.634920 
# 
# From -- ./inp_files/9429.got.cif
#   From: 2010.05.17/outbox.cif.g08.bks.cpg/sg35_5_cif.got.tgz:9429.got - 2010.06.03 17:29:28.
