data_PCOD9349414
_publ_section_title
;
Structure prediction by ZEFSAII (Michael W. Deem and Ramdas Pophale) SiO2 
 PCOD9349414
Probable space group: C M M 2
;
_chemical_formula_sum "Si O2"
_cell_formula_units_Z 40
_cell_length_a 11.915775
_cell_length_b 24.445875
_cell_length_c 7.548208
_cell_angle_alpha 90.000000
_cell_angle_beta 90.000000
_cell_angle_gamma 90.000000
_cell_volume 2198.729179
_symmetry_space_group_name_H-M "C M M 2"
_symmetry_group_IT_number 35
_symmetry_cell_setting 'orthorhombic'
loop_
_space_group_symop_operation_xyz
x,y,z
-x,-y,z
-x,y,z
x,-y,z
1/2+x,1/2+y,z
1/2-x,1/2-y,z
1/2-x,1/2+y,z
1/2+x,1/2-y,z
loop_
_atom_site_type_symbol
_atom_site_label
_atom_site_fract_x
_atom_site_fract_y
_atom_site_fract_z
Si Si1 0.250000 0.250000 0.446651
Si Si2 0.366885 0.062206 0.871395
Si Si3 0.773128 0.935479 0.219288
Si Si4 0.000000 0.850943 0.708065
Si Si5 0.239344 0.128458 0.581449
Si Si6 0.000000 0.776309 0.384957
Si Si7 0.500000 0.376590 0.113734
O O1 0.252215 0.193420 0.554868
O O2 0.125110 0.249435 0.352133
O O3 0.500000 0.064140 0.876137
O O4 0.320176 0.104094 0.728457
O O5 0.331597 0.000000 0.822507
O O6 0.317402 0.073297 0.065127
O O7 0.744522 0.901439 0.394488
O O8 0.890277 0.913303 0.141865
O O9 0.779835 0.000000 0.259173
O O10 0.112155 0.881448 0.646337
O O11 0.000000 0.794773 0.592803
O O12 0.000000 0.848446 0.920300
O O13 0.000000 0.830803 0.266140
#
# Coordination Sequence:
#
# PCOD9349414 Si02
#       7
#     4   8   8   4   8   4   4
#     4  10  22  40  68  86 122 166 206 260 310 368
#     4  10  23  41  60  89 126 162 206 255 302 369
#     4  11  22  38  62  91 124 162 199 249 312 374
#     4  10  20  36  63  88 122 157 192 257 304 363
#     4  11  21  41  64  90 122 158 209 251 314 366
#     4  10  22  43  60  92 127 160 206 265 306 369
#     4  12  19  39  63  90 130 153 198 254 314 358
#
# _framework density 18.192328
#
# number of rings (size 3 to 8) (size 9 to 14) (size 15 to 20)
#    0.000    1.400    6.000    0.900    1.400    0.800 
#    0.000   12.500    0.000    0.000    0.000    0.000 
#    0.000    0.000    0.000    0.000    0.000    0.000 
#
# Total GULP energy -111480.706319 kJ/mol
# GULP energy per Si atom -5574.035316 kJ/mol
# Density = 1.815092 g / cm^3
# Si number density = 18.192328 Si / 1000 Ang^3
#
#
#
# Elastic Constant Matrix: (Units=GPa)
#
#
# Indices 1 2 3 4 5 6 
#
# 1 112.6566 43.1971 26.7483 0.0000 0.0000 0.0000
# 2 43.1971 104.6521 65.1059 0.0000 0.0000 0.0000
# 3 26.7483 65.1059 96.1613 0.0000 0.0000 0.0000
# 4 0.0000 0.0000 0.0000 15.5898 0.0000 0.0000
# 5 0.0000 0.0000 0.0000 0.0000 -11.2501 0.0000
# 6 0.0000 0.0000 0.0000 0.0000 0.0000 31.3266
#
#
#
# Elastic Compliance Matrix: (Units=1/GPa)
#
#
# Indices 1 2 3 4 5 6 
#
# 1 0.010546 -0.004368 0.000024 0.000000 0.000000 0.000000
# 2 -0.004368 0.018318 -0.011187 0.000000 0.000000 0.000000
# 3 0.000024 -0.011187 0.017967 0.000000 0.000000 0.000000
# 4 0.000000 0.000000 0.000000 0.064145 0.000000 0.000000
# 5 0.000000 0.000000 0.000000 0.000000 -0.088888 0.000000
# 6 0.000000 0.000000 0.000000 0.000000 0.000000 0.031922
#
#
# Mechanical properties :
#
#
# Convention : Reuss Voigt Hill
#
# Bulk Modulus (GPa) = 63.41887 64.84140 64.13014
# Shear Modulus (GPa) = 55.35408 19.02784 37.19096
#
# Velocity S-wave (km/s) = 5.52207 3.23759 4.52632
# Velocity P-wave (km/s) = 8.69445 7.04950 7.91483
#
# Compressibility (1/GPa) = 0.01576818
#
# Stress axis : x y z
#
# Youngs Moduli (GPa) = 94.82595 54.59063 55.65767
#
# Poissons Ratio (x) = 0.23843 -0.00132
# Poissons Ratio (y) = 0.41417 0.62266
# Poissons Ratio (z) = -0.00225 0.61073
#
# Static dielectric constant tensor:
#      x y z
#    x 1.655200 0.000000 0.000000 
#    y 0.000000 1.610100 0.000000 
#    z 0.000000 0.000000 1.602520 
# 
# From -- ./inp_files/6123.got.cif
#   From: 2010.05.17/outbox.cif.g08.bks.cpg/sg35_4_cif.got.tgz:6123.got - 2010.06.03 17:29:28.
