data_PCOD9349431
_publ_section_title
;
Structure prediction by ZEFSAII (Michael W. Deem and Ramdas Pophale) SiO2 
 PCOD9349431
Probable space group: C M M 2
;
_chemical_formula_sum "Si O2"
_cell_formula_units_Z 40
_cell_length_a 26.392443
_cell_length_b 8.587670
_cell_length_c 9.343599
_cell_angle_alpha 90.000000
_cell_angle_beta 90.000000
_cell_angle_gamma 90.000000
_cell_volume 2117.722892
_symmetry_space_group_name_H-M "C M M 2"
_symmetry_group_IT_number 35
_symmetry_cell_setting 'orthorhombic'
loop_
_space_group_symop_operation_xyz
x,y,z
-x,-y,z
-x,y,z
x,-y,z
1/2+x,1/2+y,z
1/2-x,1/2-y,z
1/2-x,1/2+y,z
1/2+x,1/2-y,z
loop_
_atom_site_type_symbol
_atom_site_label
_atom_site_fract_x
_atom_site_fract_y
_atom_site_fract_z
Si Si1 0.401954 0.310947 0.750000
Si Si2 0.097587 0.685577 0.428870
Si Si3 0.500000 0.310578 0.931612
Si Si4 0.805364 0.187181 0.263377
Si Si5 0.804718 0.812667 0.930796
Si Si6 0.000000 0.812436 0.261672
O O1 0.402150 0.500000 0.741370
O O2 0.405544 0.243724 0.591747
O O3 0.449901 0.262541 0.846020
O O4 0.350436 0.261508 0.829612
O O5 0.096199 0.500000 0.424267
O O6 0.149532 0.746082 0.358289
O O7 0.050030 0.752783 0.341222
O O8 0.500000 0.500000 0.934116
O O9 0.500000 0.259661 0.096204
O O10 0.750000 0.250000 0.305993
O O11 0.805651 0.000000 0.271498
O O12 0.813442 0.233637 0.096586
O O13 0.750000 0.750000 0.885787
O O14 0.803300 0.000000 0.928286
O O15 0.000000 0.000000 0.264465
#
# Coordination Sequence:
#
# PCOD9349431 Si02
#       6
#     8   8   4   8   8   4
#     4  10  20  37  59  84 113 149 189 234 286 343
#     4  12  25  39  56  86 122 156 193 236 284 342
#     4   9  19  37  64  88 106 137 188 239 288 342
#     4  10  20  38  62  88 116 152 194 240 289 341
#     4   9  19  35  58  85 113 146 191 237 283 338
#     4  11  22  41  66  88 112 149 192 239 290 344
#
# _framework density 18.888213
#
# number of rings (size 3 to 8) (size 9 to 14) (size 15 to 20)
#    0.000    1.800    0.000    4.500    0.000    6.400 
#    0.000    6.000    0.000    0.000    0.000    0.000 
#    0.000    0.000    0.000    0.000    0.000    0.000 
#
# Total GULP energy -111780.007954 kJ/mol
# GULP energy per Si atom -5589.000398 kJ/mol
# Density = 1.884522 g / cm^3
# Si number density = 18.888213 Si / 1000 Ang^3
#
#
#
# Elastic Constant Matrix: (Units=GPa)
#
#
# Indices 1 2 3 4 5 6 
#
# 1 208.7536 54.0184 140.8195 0.0000 0.0000 0.0000
# 2 54.0184 62.9894 48.3794 0.0000 0.0000 0.0000
# 3 140.8195 48.3794 175.7354 0.0000 0.0000 0.0000
# 4 0.0000 0.0000 0.0000 14.7157 0.0000 0.0000
# 5 0.0000 0.0000 0.0000 0.0000 -143.5039 0.0000
# 6 0.0000 0.0000 0.0000 0.0000 0.0000 34.5344
#
#
#
# Elastic Compliance Matrix: (Units=1/GPa)
#
#
# Indices 1 2 3 4 5 6 
#
# 1 0.010961 -0.003366 -0.007857 0.000000 0.000000 0.000000
# 2 -0.003366 0.021166 -0.003130 0.000000 0.000000 0.000000
# 3 -0.007857 -0.003130 0.012848 0.000000 0.000000 0.000000
# 4 0.000000 0.000000 0.000000 0.067955 0.000000 0.000000
# 5 0.000000 0.000000 0.000000 0.000000 -0.006968 0.000000
# 6 0.000000 0.000000 0.000000 0.000000 0.000000 0.028957
#
#
# Mechanical properties :
#
#
# Convention : Reuss Voigt Hill
#
# Bulk Modulus (GPa) = 61.46230 103.76811 82.61520
# Shear Modulus (GPa) = 29.57765 -5.23336 12.17214
#
# Velocity S-wave (km/s) = 3.96148 -1.66635 2.54132
# Velocity P-wave (km/s) = 7.31677 7.16624 7.24189
#
# Compressibility (1/GPa) = 0.01627014
#
# Stress axis : x y z
#
# Youngs Moduli (GPa) = 91.22982 47.24555 77.83351
#
# Poissons Ratio (x) = 0.15901 0.61153
# Poissons Ratio (y) = 0.30705 0.24362
# Poissons Ratio (z) = 0.71679 0.14788
#
# Static dielectric constant tensor:
#      x y z
#    x 1.624930 0.000000 0.000000 
#    y 0.000000 1.640140 0.000000 
#    z 0.000000 0.000000 1.629230 
# 
# From -- ./inp_files/9664.got.cif
#   From: 2010.05.17/outbox.cif.g08.bks.cpg/sg35_5_cif.got.tgz:9664.got - 2010.06.03 17:29:28.
