data_PCOD9349770
_publ_section_title
;
Structure prediction by ZEFSAII (Michael W. Deem and Ramdas Pophale) SiO2 
 PCOD9349770
Probable space group: C M M 2
;
_chemical_formula_sum "Si O2"
_cell_formula_units_Z 40
_cell_length_a 31.084944
_cell_length_b 8.666180
_cell_length_c 7.400297
_cell_angle_alpha 90.000000
_cell_angle_beta 90.000000
_cell_angle_gamma 90.000000
_cell_volume 1993.549136
_symmetry_space_group_name_H-M "C M M 2"
_symmetry_group_IT_number 35
_symmetry_cell_setting 'orthorhombic'
loop_
_space_group_symop_operation_xyz
x,y,z
-x,-y,z
-x,y,z
x,-y,z
1/2+x,1/2+y,z
1/2-x,1/2-y,z
1/2-x,1/2+y,z
1/2+x,1/2-y,z
loop_
_atom_site_type_symbol
_atom_site_label
_atom_site_fract_x
_atom_site_fract_y
_atom_site_fract_z
Si Si1 0.797884 0.815163 0.780750
Si Si2 0.864311 0.815603 0.090415
Si Si3 0.453106 0.685326 0.491724
Si Si4 0.453109 0.185262 0.081565
Si Si5 0.863557 0.316341 0.495022
O O1 0.750000 0.750000 0.786743
O O2 0.824752 0.748624 0.613257
O O3 0.796670 0.000000 0.767491
O O4 0.825089 0.773831 0.959884
O O5 0.909589 0.758510 0.006395
O O6 0.859549 0.741454 0.288297
O O7 0.866210 0.000000 0.110283
O O8 0.500000 0.725381 0.572353
O O9 0.449655 0.500000 0.485265
O O10 0.454038 0.752405 0.287756
O O11 0.409348 0.754186 0.570053
O O12 0.500000 0.226904 0.002442
O O13 0.449419 0.000000 0.082531
O O14 0.864074 0.500000 0.498204
#
# Coordination Sequence:
#
# PCOD9349770 Si02
#       5
#     8   8   8   8   8
#     4  11  25  44  64  86 113 147 191 243 295 347
#     4  10  21  38  61  87 117 153 193 238 286 342
#     4   9  16  28  50  80 115 154 194 235 279 332
#     4   9  16  27  48  80 116 152 190 231 277 334
#     4  11  22  37  61  89 120 156 192 236 287 344
#
# _framework density 20.064717999999999
#
# number of rings (size 3 to 8) (size 9 to 14) (size 15 to 20)
#    0.000    2.000    0.000    6.600    0.000    6.400 
#    0.000    3.000    0.000    1.200    0.000    0.000 
#    0.000    0.000    0.000    0.000    0.000    0.000 
#
# Total GULP energy -111683.228721 kJ/mol
# GULP energy per Si atom -5584.161436 kJ/mol
# Density = 2.001905 g / cm^3
# Si number density = 20.064718 Si / 1000 Ang^3
#
#
#
# Elastic Constant Matrix: (Units=GPa)
#
#
# Indices 1 2 3 4 5 6 
#
# 1 241.7585 74.7142 74.1986 0.0000 0.0000 0.0000
# 2 74.7142 85.8950 38.8480 0.0000 0.0000 0.0000
# 3 74.1986 38.8480 96.3932 0.0000 0.0000 0.0000
# 4 0.0000 0.0000 0.0000 -1.5251 0.0000 0.0000
# 5 0.0000 0.0000 0.0000 0.0000 45.1353 0.0000
# 6 0.0000 0.0000 0.0000 0.0000 0.0000 46.0009
#
#
#
# Elastic Compliance Matrix: (Units=1/GPa)
#
#
# Indices 1 2 3 4 5 6 
#
# 1 0.006408 -0.004088 -0.003285 0.000000 0.000000 0.000000
# 2 -0.004088 0.016845 -0.003642 0.000000 0.000000 0.000000
# 3 -0.003285 -0.003642 0.014371 0.000000 0.000000 0.000000
# 4 0.000000 0.000000 0.000000 -0.655684 0.000000 0.000000
# 5 0.000000 0.000000 0.000000 0.000000 0.022156 0.000000
# 6 0.000000 0.000000 0.000000 0.000000 0.000000 0.021739
#
#
# Mechanical properties :
#
#
# Convention : Reuss Voigt Hill
#
# Bulk Modulus (GPa) = 64.12916 88.84092 76.48504
# Shear Modulus (GPa) = -9.14181 33.67461 12.26640
#
# Velocity S-wave (km/s) = -2.13683 4.10115 2.47522
# Velocity P-wave (km/s) = 5.09338 8.17308 6.80961
#
# Compressibility (1/GPa) = 0.01559353
#
# Stress axis : x y z
#
# Youngs Moduli (GPa) = 156.05558 59.36348 69.58672
#
# Poissons Ratio (x) = 0.24269 0.22859
# Poissons Ratio (y) = 0.63798 0.25344
# Poissons Ratio (z) = 0.51263 0.21621
#
# Static dielectric constant tensor:
#      x y z
#    x 1.731260 0.000000 0.000000 
#    y 0.000000 1.666100 0.000000 
#    z 0.000000 0.000000 1.751590 
# 
# From -- ./inp_files/9645.got.cif
#   From: 2010.05.17/outbox.cif.g08.bks.cpg/sg35_5_cif.got.tgz:9645.got - 2010.06.03 17:29:28.
