data_PCOD9349149
_publ_section_title
;
Structure prediction by ZEFSAII (Michael W. Deem and Ramdas Pophale) SiO2 
 PCOD9349149
Probable space group: C M M 2
;
_chemical_formula_sum "Si O2"
_cell_formula_units_Z 64
_cell_length_a 8.545892
_cell_length_b 28.905385
_cell_length_c 13.399016
_cell_angle_alpha 90.000000
_cell_angle_beta 90.000000
_cell_angle_gamma 90.000000
_cell_volume 3309.855729
_symmetry_space_group_name_H-M "C M M 2"
_symmetry_group_IT_number 35
_symmetry_cell_setting 'orthorhombic'
loop_
_space_group_symop_operation_xyz
x,y,z
-x,-y,z
-x,y,z
x,-y,z
1/2+x,1/2+y,z
1/2-x,1/2-y,z
1/2-x,1/2+y,z
1/2+x,1/2-y,z
loop_
_atom_site_type_symbol
_atom_site_label
_atom_site_fract_x
_atom_site_fract_y
_atom_site_fract_z
Si Si1 0.677863 0.443830 0.846450
Si Si2 0.190942 0.947504 0.626153
Si Si3 0.188245 0.143238 0.140255
Si Si4 0.314437 0.052720 0.059564
Si Si5 0.810775 0.145448 0.537534
Si Si6 0.687944 0.302437 0.942347
Si Si7 0.189625 0.197752 0.337245
Si Si8 0.686655 0.802509 0.732010
O O1 0.500000 0.425948 0.857441
O O2 0.669728 0.500000 0.842365
O O3 0.742481 0.431594 0.737309
O O4 0.771261 0.432883 0.946107
O O5 0.235474 0.908419 0.547313
O O6 0.000000 0.948843 0.631338
O O7 0.243862 0.000000 0.606445
O O8 0.242785 0.090504 0.132762
O O9 0.242301 0.170442 0.238323
O O10 0.000000 0.143866 0.140391
O O11 0.240563 0.169348 0.039443
O O12 0.500000 0.052426 0.069795
O O13 0.255726 0.000000 0.074302
O O14 0.758798 0.170853 0.436994
O O15 0.747002 0.170838 0.635351
O O16 0.000000 0.147509 0.540484
O O17 0.500000 0.301604 0.939254
O O18 0.750000 0.250000 0.950775
O O19 0.749455 0.321996 0.837146
O O20 0.250000 0.250000 0.337186
O O21 0.000000 0.198702 0.336913
O O22 0.500000 0.801859 0.734629
O O23 0.750000 0.750000 0.725673
#
# Coordination Sequence:
#
# PCOD9349149 Si02
#       8
#     8   8   8   8   8   8   8   8
#     4   8  14  27  48  73 103 143 186 224 266 319
#     4   8  15  29  51  79 110 146 187 226 267 319
#     4  10  22  38  57  81 109 145 190 233 280 335
#     4  10  21  35  52  79 114 149 187 231 278 328
#     4  10  20  35  57  84 115 147 186 231 278 330
#     4  10  20  35  55  79 109 142 179 226 282 342
#     4  10  22  40  61  85 111 143 186 237 285 333
#     4  11  22  36  54  79 112 145 181 224 278 341
#
# _framework density 19.336190999999999
#
# number of rings (size 3 to 8) (size 9 to 14) (size 15 to 20)
#    0.000    2.375    0.000    4.125    1.750    3.750 
#    0.000    0.625    0.000    2.625    0.000    0.000 
#    0.000    0.000    0.000    0.000    0.000    0.000 
#
# Total GULP energy -178639.037480 kJ/mol
# GULP energy per Si atom -5582.469921 kJ/mol
# Density = 1.929218 g / cm^3
# Si number density = 19.336191 Si / 1000 Ang^3
#
#
#
# Elastic Constant Matrix: (Units=GPa)
#
#
# Indices 1 2 3 4 5 6 
#
# 1 22.3429 18.3246 28.3205 0.0000 0.0000 0.0000
# 2 18.3246 139.3803 98.0803 0.0000 0.0000 0.0000
# 3 28.3205 98.0803 159.9447 0.0000 0.0000 0.0000
# 4 0.0000 0.0000 0.0000 37.1129 0.0000 0.0000
# 5 0.0000 0.0000 0.0000 0.0000 10.6798 0.0000
# 6 0.0000 0.0000 0.0000 0.0000 0.0000 22.5437
#
#
#
# Elastic Compliance Matrix: (Units=1/GPa)
#
#
# Indices 1 2 3 4 5 6 
#
# 1 0.057748 -0.000698 -0.009797 0.000000 0.000000 0.000000
# 2 -0.000698 0.012629 -0.007621 0.000000 0.000000 0.000000
# 3 -0.009797 -0.007621 0.012660 0.000000 0.000000 0.000000
# 4 0.000000 0.000000 0.000000 0.026945 0.000000 0.000000
# 5 0.000000 0.000000 0.000000 0.000000 0.093634 0.000000
# 6 0.000000 0.000000 0.000000 0.000000 0.000000 0.044358
#
#
# Mechanical properties :
#
#
# Convention : Reuss Voigt Hill
#
# Bulk Modulus (GPa) = 21.36523 67.90207 44.63365
# Shear Modulus (GPa) = 16.67739 25.86345 21.27042
#
# Velocity S-wave (km/s) = 2.94001 3.66124 3.32027
# Velocity P-wave (km/s) = 4.75376 7.28462 6.15077
#
# Compressibility (1/GPa) = 0.04680503
#
# Stress axis : x y z
#
# Youngs Moduli (GPa) = 17.31672 79.18310 78.98961
#
# Poissons Ratio (x) = 0.05529 0.77385
# Poissons Ratio (y) = 0.01209 0.60195
# Poissons Ratio (z) = 0.16965 0.60342
#
# Static dielectric constant tensor:
#      x y z
#    x 1.659530 0.000000 0.000000 
#    y 0.000000 1.702570 0.000000 
#    z 0.000000 0.000000 1.668580 
# 
# From -- ./inp_files/11881.got.cif
#   From: 2010.05.17/outbox.cif.g08.bks.cpg/sg35_6_cif.got.tgz:11881.got - 2010.06.03 17:29:28.
