data_PCOD9349091
_publ_section_title
;
Structure prediction by ZEFSAII (Michael W. Deem and Ramdas Pophale) SiO2 
 PCOD9349091
Probable space group: C M M 2
;
_chemical_formula_sum "Si O2"
_cell_formula_units_Z 64
_cell_length_a 29.087855
_cell_length_b 8.168463
_cell_length_c 13.444108
_cell_angle_alpha 90.000000
_cell_angle_beta 90.000000
_cell_angle_gamma 90.000000
_cell_volume 3194.361298
_symmetry_space_group_name_H-M "C M M 2"
_symmetry_group_IT_number 35
_symmetry_cell_setting 'orthorhombic'
loop_
_space_group_symop_operation_xyz
x,y,z
-x,-y,z
-x,y,z
x,-y,z
1/2+x,1/2+y,z
1/2-x,1/2-y,z
1/2-x,1/2+y,z
1/2+x,1/2-y,z
loop_
_atom_site_type_symbol
_atom_site_label
_atom_site_fract_x
_atom_site_fract_y
_atom_site_fract_z
Si Si1 0.696845 0.803683 0.969260
Si Si2 0.555927 0.813761 0.857402
Si Si3 0.144745 0.697874 0.552018
Si Si4 0.802694 0.805017 0.354838
Si Si5 0.052189 0.700703 0.638361
Si Si6 0.303015 0.802473 0.749875
Si Si7 0.447910 0.197390 0.074249
Si Si8 0.857689 0.805518 0.163649
O O1 0.750000 0.750000 0.977933
O O2 0.680100 0.748103 0.859403
O O3 0.694592 0.000000 0.971871
O O4 0.668638 0.738361 0.062173
O O5 0.500000 0.824568 0.858201
O O6 0.566557 0.741407 0.749537
O O7 0.574871 0.000000 0.856969
O O8 0.567120 0.738278 0.964386
O O9 0.146156 0.500000 0.551828
O O10 0.171061 0.756700 0.455135
O O11 0.091429 0.748436 0.561123
O O12 0.169565 0.755508 0.653414
O O13 0.750000 0.750000 0.356692
O O14 0.829676 0.738468 0.258191
O O15 0.802427 0.000000 0.347965
O O16 0.051454 0.500000 0.643576
O O17 0.000000 0.753143 0.617163
O O18 0.250000 0.750000 0.741252
O O19 0.305030 0.000000 0.749738
O O20 0.500000 0.253079 0.095509
O O21 0.409536 0.241928 0.153357
O O22 0.449375 0.000000 0.065183
O O23 0.859644 0.000000 0.172216
#
# Coordination Sequence:
#
# PCOD9349091 Si02
#       8
#     8   8   8   8   8   8   8   8
#     4  10  20  35  56  82 115 148 182 228 284 347
#     4   7  11  22  44  75 110 146 181 219 264 313
#     4  10  20  34  57  86 114 145 187 231 280 335
#     4  11  25  44  63  82 107 141 187 239 291 341
#     4   8  14  26  48  80 116 150 185 225 267 317
#     4   9  19  33  51  79 112 144 177 221 280 344
#     4   9  18  33  56  86 117 151 192 236 280 329
#     4  11  24  39  57  82 112 150 194 235 285 342
#
# _framework density 20.035304
#
# number of rings (size 3 to 8) (size 9 to 14) (size 15 to 20)
#    0.000    2.625    0.000    3.375    1.750    5.250 
#    0.000    0.625    0.000    2.625    0.000    0.000 
#    0.000    0.000    0.000    0.000    0.000    0.000 
#
# Total GULP energy -178528.415674 kJ/mol
# GULP energy per Si atom -5579.012990 kJ/mol
# Density = 1.998970 g / cm^3
# Si number density = 20.035304 Si / 1000 Ang^3
#
#
#
# Elastic Constant Matrix: (Units=GPa)
#
#
# Indices 1 2 3 4 5 6 
#
# 1 149.8012 15.8240 104.5136 0.0000 0.0000 0.0000
# 2 15.8240 15.5416 15.3964 0.0000 0.0000 0.0000
# 3 104.5136 15.3964 149.0692 0.0000 0.0000 0.0000
# 4 0.0000 0.0000 0.0000 13.3282 0.0000 0.0000
# 5 0.0000 0.0000 0.0000 0.0000 37.9736 0.0000
# 6 0.0000 0.0000 0.0000 0.0000 0.0000 19.2943
#
#
#
# Elastic Compliance Matrix: (Units=1/GPa)
#
#
# Indices 1 2 3 4 5 6 
#
# 1 0.013385 -0.004825 -0.008886 0.000000 0.000000 0.000000
# 2 -0.004825 0.073417 -0.004200 0.000000 0.000000 0.000000
# 3 -0.008886 -0.004200 0.013372 0.000000 0.000000 0.000000
# 4 0.000000 0.000000 0.000000 0.075029 0.000000 0.000000
# 5 0.000000 0.000000 0.000000 0.000000 0.026334 0.000000
# 6 0.000000 0.000000 0.000000 0.000000 0.000000 0.051829
#
#
# Mechanical properties :
#
#
# Convention : Reuss Voigt Hill
#
# Bulk Modulus (GPa) = 15.53956 65.09778 40.31867
# Shear Modulus (GPa) = 16.09597 26.03109 21.06353
#
# Velocity S-wave (km/s) = 2.83747 3.60844 3.24593
# Velocity P-wave (km/s) = 4.30208 7.06563 5.84941
#
# Compressibility (1/GPa) = 0.06435189
#
# Stress axis : x y z
#
# Youngs Moduli (GPa) = 74.71282 13.62089 74.78371
#
# Poissons Ratio (x) = 0.06572 0.66450
# Poissons Ratio (y) = 0.36049 0.31408
# Poissons Ratio (z) = 0.66387 0.05721
#
# Static dielectric constant tensor:
#      x y z
#    x 1.722100 0.000000 0.000000 
#    y 0.000000 1.716790 0.000000 
#    z 0.000000 0.000000 1.719240 
# 
# From -- ./inp_files/14575.got.cif
#   From: 2010.05.17/outbox.cif.g08.bks.cpg/sg35_8_cif.got.tgz:14575.got - 2010.06.03 17:29:28.
