data_PCOD9349418
_publ_section_title
;
Structure prediction by ZEFSAII (Michael W. Deem and Ramdas Pophale) SiO2 
 PCOD9349418
Probable space group: C M M 2
;
_chemical_formula_sum "Si O2"
_cell_formula_units_Z 56
_cell_length_a 7.968172
_cell_length_b 22.873224
_cell_length_c 15.407231
_cell_angle_alpha 90.000000
_cell_angle_beta 90.000000
_cell_angle_gamma 90.000000
_cell_volume 2808.087765
_symmetry_space_group_name_H-M "C M M 2"
_symmetry_group_IT_number 35
_symmetry_cell_setting 'orthorhombic'
loop_
_space_group_symop_operation_xyz
x,y,z
-x,-y,z
-x,y,z
x,-y,z
1/2+x,1/2+y,z
1/2-x,1/2-y,z
1/2-x,1/2+y,z
1/2+x,1/2-y,z
loop_
_atom_site_type_symbol
_atom_site_label
_atom_site_fract_x
_atom_site_fract_y
_atom_site_fract_z
Si Si1 0.806537 0.000000 0.185490
Si Si2 0.695797 0.567826 0.681927
Si Si3 0.695187 0.500000 0.392357
Si Si4 0.306430 0.890750 0.494712
Si Si5 0.300423 0.817820 0.793121
Si Si6 0.297487 0.183219 0.987803
Si Si7 0.797326 0.316723 0.340551
Si Si8 0.195894 0.626806 0.162525
O O1 0.806390 0.000000 0.289583
O O2 0.714266 0.057943 0.156972
O O3 0.000000 0.000000 0.156170
O O4 0.500000 0.563422 0.701771
O O5 0.765159 0.500000 0.692989
O O6 0.719059 0.587537 0.581949
O O7 0.759433 0.624815 0.735441
O O8 0.500000 0.500000 0.422608
O O9 0.791369 0.444326 0.428341
O O10 0.500000 0.878368 0.517671
O O11 0.234078 0.838934 0.434650
O O12 0.500000 0.814699 0.796722
O O13 0.250000 0.750000 0.768185
O O14 0.234045 0.830869 0.890801
O O15 0.500000 0.175350 0.985960
O O16 0.250000 0.250000 0.000888
O O17 0.229601 0.151389 0.073298
O O18 0.750000 0.250000 0.327879
O O19 0.732911 0.351310 0.255224
O O20 0.000000 0.323888 0.344312
O O21 0.000000 0.644192 0.164520
#
# Coordination Sequence:
#
# PCOD9349418 Si02
#       8
#     4   8   4   8   8   8   8   8
#     4  11  23  35  53  82 113 152 197 239 284 332
#     4  11  24  41  62  90 122 158 199 250 306 359
#     4  11  21  35  55  80 109 146 191 237 278 328
#     4  11  22  37  59  84 112 152 194 234 284 345
#     4  10  21  40  65  92 120 155 199 248 304 365
#     4   9  19  36  61  88 114 149 192 237 289 347
#     4  10  22  36  54  82 114 151 191 232 282 333
#     4  10  20  37  57  81 115 153 191 234 284 341
#
# _framework density 19.942397
#
# number of rings (size 3 to 8) (size 9 to 14) (size 15 to 20)
#    0.000    1.714    2.143    2.143    0.000    4.857 
#    1.286    1.429    0.000    0.000    0.000    0.000 
#    0.000    0.000    0.000    0.000    0.000    0.000 
#
# Total GULP energy -155974.435935 kJ/mol
# GULP energy per Si atom -5570.515569 kJ/mol
# Density = 1.989701 g / cm^3
# Si number density = 19.942397 Si / 1000 Ang^3
#
#
#
# Elastic Constant Matrix: (Units=GPa)
#
#
# Indices 1 2 3 4 5 6 
#
# 1 27.6021 -3.5756 7.4693 0.0000 0.0000 0.0000
# 2 -3.5756 127.8176 73.8300 0.0000 0.0000 0.0000
# 3 7.4693 73.8300 107.0335 0.0000 0.0000 0.0000
# 4 0.0000 0.0000 0.0000 29.0102 0.0000 0.0000
# 5 0.0000 0.0000 0.0000 0.0000 5.2126 0.0000
# 6 0.0000 0.0000 0.0000 0.0000 0.0000 27.9957
#
#
#
# Elastic Compliance Matrix: (Units=1/GPa)
#
#
# Indices 1 2 3 4 5 6 
#
# 1 0.038329 0.004351 -0.005676 0.000000 0.000000 0.000000
# 2 0.004351 0.013499 -0.009615 0.000000 0.000000 0.000000
# 3 -0.005676 -0.009615 0.016371 0.000000 0.000000 0.000000
# 4 0.000000 0.000000 0.000000 0.034471 0.000000 0.000000
# 5 0.000000 0.000000 0.000000 0.000000 0.191845 0.000000
# 6 0.000000 0.000000 0.000000 0.000000 0.000000 0.035720
#
#
# Mechanical properties :
#
#
# Convention : Reuss Voigt Hill
#
# Bulk Modulus (GPa) = 21.58954 46.43340 34.01147
# Shear Modulus (GPa) = 13.60342 24.75900 19.18121
#
# Velocity S-wave (km/s) = 2.61461 3.52735 3.10470
# Velocity P-wave (km/s) = 4.46815 6.31854 5.47212
#
# Compressibility (1/GPa) = 0.04631872
#
# Stress axis : x y z
#
# Youngs Moduli (GPa) = 26.09011 74.07796 61.08224
#
# Poissons Ratio (x) = -0.32229 0.34669
# Poissons Ratio (y) = -0.11351 0.58732
# Poissons Ratio (z) = 0.14808 0.71228
#
# Static dielectric constant tensor:
#      x y z
#    x 1.739790 0.000000 0.000000 
#    y 0.000000 1.742340 0.000000 
#    z 0.000000 0.000000 1.735290 
# 
# From -- ./inp_files/15680.got.cif
#   From: 2010.05.17/outbox.cif.g08.bks.cpg/sg35_8_cif.got.tgz:15680.got - 2010.06.03 17:29:28.
