data_PCOD9349784
_publ_section_title
;
Structure prediction by ZEFSAII (Michael W. Deem and Ramdas Pophale) SiO2 
 PCOD9349784
Probable space group: C M M 2
;
_chemical_formula_sum "Si O2"
_cell_formula_units_Z 64
_cell_length_a 9.483613
_cell_length_b 27.356010
_cell_length_c 12.291880
_cell_angle_alpha 90.000000
_cell_angle_beta 90.000000
_cell_angle_gamma 90.000000
_cell_volume 3188.929286
_symmetry_space_group_name_H-M "C M M 2"
_symmetry_group_IT_number 35
_symmetry_cell_setting 'orthorhombic'
loop_
_space_group_symop_operation_xyz
x,y,z
-x,-y,z
-x,y,z
x,-y,z
1/2+x,1/2+y,z
1/2-x,1/2-y,z
1/2-x,1/2+y,z
1/2+x,1/2-y,z
loop_
_atom_site_type_symbol
_atom_site_label
_atom_site_fract_x
_atom_site_fract_y
_atom_site_fract_z
Si Si1 0.278565 0.192427 0.986450
Si Si2 0.656629 0.157402 0.748395
Si Si3 0.836218 0.558381 0.249452
Si Si4 0.839142 0.907997 0.038756
Si Si5 0.333087 0.372989 0.374145
Si Si6 0.165059 0.797231 0.565554
Si Si7 0.342516 0.798480 0.230237
Si Si8 0.166048 0.444979 0.834009
O O1 0.250000 0.250000 0.969889
O O2 0.345212 0.173934 0.874277
O O3 0.162611 0.150170 0.010327
O O4 0.356335 0.191050 0.101965
O O5 0.500000 0.164933 0.701850
O O6 0.769213 0.187942 0.681150
O O7 0.690341 0.099591 0.750976
O O8 0.836450 0.500000 0.243245
O O9 0.754072 0.578770 0.143776
O O10 0.750024 0.576733 0.355201
O O11 0.000000 0.575373 0.250796
O O12 0.000000 0.923669 0.054764
O O13 0.764575 0.934737 0.937364
O O14 0.500000 0.377442 0.350275
O O15 0.318076 0.344077 0.487158
O O16 0.250782 0.338830 0.288845
O O17 0.250000 0.750000 0.523372
O O18 0.000000 0.785710 0.573011
O O19 0.500000 0.793579 0.276962
O O20 0.250000 0.750000 0.240243
O O21 0.188917 0.500000 0.792910
O O22 0.000000 0.441088 0.866477
#
# Coordination Sequence:
#
# PCOD9349784 Si02
#       8
#     8   8   8   8   8   8   8   8
#     4  10  22  36  56  87 127 167 207 249 305 360
#     4  10  21  38  62  90 123 164 209 256 307 361
#     4  11  24  41  62  88 120 160 204 251 307 369
#     4  11  22  35  56  88 126 166 209 252 300 364
#     4  11  24  42  64  90 120 155 203 256 310 366
#     4  11  25  44  66  92 122 160 205 254 305 362
#     4  11  22  36  58  87 124 162 199 244 300 363
#     4   9  19  37  60  87 122 163 207 254 306 362
#
# _framework density 20.069433
#
# number of rings (size 3 to 8) (size 9 to 14) (size 15 to 20)
#    0.000    1.500    1.250    3.375    0.000   11.250 
#    0.000    0.625    0.000    2.250    0.000    0.000 
#    0.000    0.000    0.000    0.000    0.000    0.000 
#
# Total GULP energy -178489.398942 kJ/mol
# GULP energy per Si atom -5577.793717 kJ/mol
# Density = 2.002375 g / cm^3
# Si number density = 20.069433 Si / 1000 Ang^3
#
#
#
# Elastic Constant Matrix: (Units=GPa)
#
#
# Indices 1 2 3 4 5 6 
#
# 1 143.6743 34.4759 34.3743 0.0000 0.0000 0.0000
# 2 34.4759 99.6282 13.5806 0.0000 0.0000 0.0000
# 3 34.3743 13.5806 51.7332 0.0000 0.0000 0.0000
# 4 0.0000 0.0000 0.0000 21.3195 0.0000 0.0000
# 5 0.0000 0.0000 0.0000 0.0000 17.1168 0.0000
# 6 0.0000 0.0000 0.0000 0.0000 0.0000 13.0846
#
#
#
# Elastic Compliance Matrix: (Units=1/GPa)
#
#
# Indices 1 2 3 4 5 6 
#
# 1 0.008765 -0.002322 -0.005214 0.000000 0.000000 0.000000
# 2 -0.002322 0.011025 -0.001351 0.000000 0.000000 0.000000
# 3 -0.005214 -0.001351 0.023149 0.000000 0.000000 0.000000
# 4 0.000000 0.000000 0.000000 0.046905 0.000000 0.000000
# 5 0.000000 0.000000 0.000000 0.000000 0.058422 0.000000
# 6 0.000000 0.000000 0.000000 0.000000 0.000000 0.076425
#
#
# Mechanical properties :
#
#
# Convention : Reuss Voigt Hill
#
# Bulk Modulus (GPa) = 39.73952 51.09972 45.41962
# Shear Modulus (GPa) = 19.93178 24.47786 22.20482
#
# Velocity S-wave (km/s) = 3.15483 3.49615 3.32987
# Velocity P-wave (km/s) = 5.75453 6.46639 6.12082
#
# Compressibility (1/GPa) = 0.02516387
#
# Stress axis : x y z
#
# Youngs Moduli (GPa) = 114.09052 90.70192 43.19789
#
# Poissons Ratio (x) = 0.21064 0.22525
# Poissons Ratio (y) = 0.26495 0.05837
# Poissons Ratio (z) = 0.59490 0.12255
#
# Static dielectric constant tensor:
#      x y z
#    x 1.691610 0.000000 0.000000 
#    y 0.000000 1.807450 0.000000 
#    z 0.000000 0.000000 1.697660 
# 
# From -- ./inp_files/11894.got.cif
#   From: 2010.05.17/outbox.cif.g08.bks.cpg/sg35_6_cif.got.tgz:11894.got - 2010.06.03 17:29:28.
