data_PCOD9349893
_publ_section_title
;
Structure prediction by ZEFSAII (Michael W. Deem and Ramdas Pophale) SiO2 
 PCOD9349893
Probable space group: C M M 2
;
_chemical_formula_sum "Si O2"
_cell_formula_units_Z 48
_cell_length_a 21.768244
_cell_length_b 20.499636
_cell_length_c 5.210186
_cell_angle_alpha 90.000000
_cell_angle_beta 90.000000
_cell_angle_gamma 90.000000
_cell_volume 2324.999019
_symmetry_space_group_name_H-M "C M M 2"
_symmetry_group_IT_number 35
_symmetry_cell_setting 'orthorhombic'
loop_
_space_group_symop_operation_xyz
x,y,z
-x,-y,z
-x,y,z
x,-y,z
1/2+x,1/2+y,z
1/2-x,1/2-y,z
1/2-x,1/2+y,z
1/2+x,1/2-y,z
loop_
_atom_site_type_symbol
_atom_site_label
_atom_site_fract_x
_atom_site_fract_y
_atom_site_fract_z
Si Si1 0.565696 0.070140 0.535150
Si Si2 0.865050 0.813198 0.737977
Si Si3 0.500000 0.776312 0.253239
Si Si4 0.000000 0.812705 0.754246
Si Si5 0.395694 0.830809 0.930633
Si Si6 0.687587 0.925072 0.192141
Si Si7 0.285597 0.679794 0.232377
O O1 0.500000 0.069923 0.391681
O O2 0.564722 0.128420 0.733033
O O3 0.627016 0.071822 0.368962
O O4 0.568348 0.000000 0.677658
O O5 0.932965 0.845697 0.732755
O O6 0.875990 0.737726 0.814880
O O7 0.834819 0.814354 0.459600
O O8 0.819446 0.836424 0.963571
O O9 0.500000 0.741914 0.527572
O O10 0.500000 0.720382 0.033997
O O11 0.437391 0.814884 0.180845
O O12 0.337283 0.877586 0.968987
O O13 0.741348 0.880499 0.305834
O O14 0.704273 0.000000 0.128158
O O15 0.250000 0.750000 0.212379
#
# Coordination Sequence:
#
# PCOD9349893 Si02
#       7
#     8   8   4   4   8   8   8
#     4  10  22  38  56  83 123 175 227 265 306 361
#     4  11  24  40  67  94 125 165 205 271 324 386
#     4  10  22  32  59  88 134 162 207 260 312 363
#     4  10  22  40  60 100 126 156 208 266 334 383
#     4  11  21  36  57  87 123 168 215 264 314 373
#     4  11  26  41  60  88 128 177 223 271 317 383
#     4  12  24  43  64  93 127 171 218 259 321 385
#
# _framework density 20.645171000000001
#
# number of rings (size 3 to 8) (size 9 to 14) (size 15 to 20)
#    0.000    1.167    2.500    4.000    8.167    0.000 
#    0.000    0.000    0.000    0.000    0.000    3.500 
#    0.000    0.000    0.000    0.000    0.000    0.000 
#
# Total GULP energy -133929.828994 kJ/mol
# GULP energy per Si atom -5580.409541 kJ/mol
# Density = 2.059818 g / cm^3
# Si number density = 20.645171 Si / 1000 Ang^3
#
#
#
# Elastic Constant Matrix: (Units=GPa)
#
#
# Indices 1 2 3 4 5 6 
#
# 1 110.2254 17.2655 5.0744 0.0000 0.0000 0.0000
# 2 17.2655 61.5687 -17.3189 0.0000 0.0000 0.0000
# 3 5.0744 -17.3189 50.6356 0.0000 0.0000 0.0000
# 4 0.0000 0.0000 0.0000 15.5888 0.0000 0.0000
# 5 0.0000 0.0000 0.0000 0.0000 41.4012 0.0000
# 6 0.0000 0.0000 0.0000 0.0000 0.0000 25.8112
#
#
#
# Elastic Compliance Matrix: (Units=1/GPa)
#
#
# Indices 1 2 3 4 5 6 
#
# 1 0.009687 -0.003308 -0.002102 0.000000 0.000000 0.000000
# 2 -0.003308 0.019101 0.006864 0.000000 0.000000 0.000000
# 3 -0.002102 0.006864 0.022307 0.000000 0.000000 0.000000
# 4 0.000000 0.000000 0.000000 0.064149 0.000000 0.000000
# 5 0.000000 0.000000 0.000000 0.000000 0.024154 0.000000
# 6 0.000000 0.000000 0.000000 0.000000 0.000000 0.038743
#
#
# Mechanical properties :
#
#
# Convention : Reuss Voigt Hill
#
# Bulk Modulus (GPa) = 18.51713 25.83018 22.17366
# Shear Modulus (GPa) = 25.87545 31.05415 28.46480
#
# Velocity S-wave (km/s) = 3.54410 3.88259 3.71720
# Velocity P-wave (km/s) = 5.07309 5.71297 5.40251
#
# Compressibility (1/GPa) = 0.05400405
#
# Stress axis : x y z
#
# Youngs Moduli (GPa) = 103.22856 52.35443 44.82800
#
# Poissons Ratio (x) = 0.17318 0.09424
# Poissons Ratio (y) = 0.34147 -0.30772
# Poissons Ratio (z) = 0.21701 -0.35939
#
# Static dielectric constant tensor:
#      x y z
#    x 1.845970 0.000000 0.000000 
#    y 0.000000 1.761960 0.000000 
#    z 0.000000 0.000000 1.782680 
# 
# From -- ./inp_files/3019.got.cif
#   From: 2010.05.17/outbox.cif.g08.bks.cpg/sg35_2_cif.got.tgz:3019.got - 2010.06.03 17:29:28.
