data_PCOD9349196
_publ_section_title
;
Structure prediction by ZEFSAII (Michael W. Deem and Ramdas Pophale) SiO2 
 PCOD9349196
Probable space group: C M M 2
;
_chemical_formula_sum "Si O2"
_cell_formula_units_Z 64
_cell_length_a 8.846398
_cell_length_b 28.601327
_cell_length_c 13.253729
_cell_angle_alpha 90.000000
_cell_angle_beta 90.000000
_cell_angle_gamma 90.000000
_cell_volume 3353.441573
_symmetry_space_group_name_H-M "C M M 2"
_symmetry_group_IT_number 35
_symmetry_cell_setting 'orthorhombic'
loop_
_space_group_symop_operation_xyz
x,y,z
-x,-y,z
-x,y,z
x,-y,z
1/2+x,1/2+y,z
1/2-x,1/2-y,z
1/2-x,1/2+y,z
1/2+x,1/2-y,z
loop_
_atom_site_type_symbol
_atom_site_label
_atom_site_fract_x
_atom_site_fract_y
_atom_site_fract_z
Si Si1 0.671694 0.443249 0.846450
Si Si2 0.182846 0.945650 0.621066
Si Si3 0.181391 0.141992 0.141343
Si Si4 0.320149 0.053656 0.057405
Si Si5 0.680251 0.141869 0.528046
Si Si6 0.681480 0.301978 0.939881
Si Si7 0.181707 0.198198 0.341971
Si Si8 0.680805 0.801865 0.732943
O O1 0.500000 0.425256 0.859714
O O2 0.662963 0.500000 0.843546
O O3 0.730427 0.431114 0.735181
O O4 0.767819 0.431901 0.944654
O O5 0.255912 0.910170 0.542973
O O6 0.000000 0.942507 0.618891
O O7 0.223242 0.000000 0.604898
O O8 0.251031 0.090596 0.134493
O O9 0.226726 0.171470 0.239202
O O10 0.000000 0.138028 0.141826
O O11 0.224840 0.169264 0.039092
O O12 0.500000 0.054680 0.062383
O O13 0.268888 0.000000 0.073857
O O14 0.500000 0.141352 0.514106
O O15 0.758112 0.168971 0.436744
O O16 0.713911 0.169097 0.632514
O O17 0.500000 0.299373 0.933971
O O18 0.750000 0.250000 0.948683
O O19 0.746096 0.322208 0.835150
O O20 0.250000 0.250000 0.343585
O O21 0.000000 0.201129 0.345445
O O22 0.500000 0.798651 0.745654
O O23 0.750000 0.750000 0.720972
#
# Coordination Sequence:
#
# PCOD9349196 Si02
#       8
#     8   8   8   8   8   8   8   8
#     4   8  15  30  52  78 112 155 197 237 284 340
#     4   9  19  36  58  85 118 158 203 247 294 350
#     4  10  23  40  60  87 115 151 197 241 292 354
#     4  10  21  35  54  84 120 157 198 244 292 343
#     4  11  24  39  59  88 120 155 199 245 297 355
#     4  10  20  35  56  83 115 148 185 231 287 350
#     4  11  24  44  68  91 117 150 196 249 301 357
#     4  10  21  36  54  81 116 151 188 232 286 349
#
# _framework density 19.084871
#
# number of rings (size 3 to 8) (size 9 to 14) (size 15 to 20)
#    0.000    2.125    0.000    4.125    1.750    6.500 
#    0.000    1.875    0.000    0.750    0.000    0.000 
#    0.000    0.000    0.000    0.000    0.000    0.000 
#
# Total GULP energy -178763.495511 kJ/mol
# GULP energy per Si atom -5586.359235 kJ/mol
# Density = 1.904143 g / cm^3
# Si number density = 19.084871 Si / 1000 Ang^3
#
#
#
# Elastic Constant Matrix: (Units=GPa)
#
#
# Indices 1 2 3 4 5 6 
#
# 1 43.2396 45.4040 55.1448 0.0000 0.0000 0.0000
# 2 45.4040 134.3272 85.6062 0.0000 0.0000 0.0000
# 3 55.1448 85.6062 138.3166 0.0000 0.0000 0.0000
# 4 0.0000 0.0000 0.0000 37.2980 0.0000 0.0000
# 5 0.0000 0.0000 0.0000 0.0000 21.6793 0.0000
# 6 0.0000 0.0000 0.0000 0.0000 0.0000 23.6735
#
#
#
# Elastic Compliance Matrix: (Units=1/GPa)
#
#
# Indices 1 2 3 4 5 6 
#
# 1 0.050783 -0.007038 -0.015890 0.000000 0.000000 0.000000
# 2 -0.007038 0.013269 -0.005406 0.000000 0.000000 0.000000
# 3 -0.015890 -0.005406 0.016911 0.000000 0.000000 0.000000
# 4 0.000000 0.000000 0.000000 0.026811 0.000000 0.000000
# 5 0.000000 0.000000 0.000000 0.000000 0.046127 0.000000
# 6 0.000000 0.000000 0.000000 0.000000 0.000000 0.042241
#
#
# Mechanical properties :
#
#
# Convention : Reuss Voigt Hill
#
# Bulk Modulus (GPa) = 41.16384 76.46592 58.81488
# Shear Modulus (GPa) = 19.16370 25.17871 22.17121
#
# Velocity S-wave (km/s) = 3.17224 3.63616 3.41209
# Velocity P-wave (km/s) = 5.91888 7.60145 6.81231
#
# Compressibility (1/GPa) = 0.02429317
#
# Stress axis : x y z
#
# Youngs Moduli (GPa) = 19.69163 75.36400 59.13308
#
# Poissons Ratio (x) = 0.53044 0.93964
# Poissons Ratio (y) = 0.13860 0.31969
# Poissons Ratio (z) = 0.31291 0.40744
#
# Static dielectric constant tensor:
#      x y z
#    x 1.642080 0.000000 0.000000 
#    y 0.000000 1.681080 0.000000 
#    z 0.000000 0.000000 1.653280 
# 
# From -- ./inp_files/11882.got.cif
#   From: 2010.05.17/outbox.cif.g08.bks.cpg/sg35_6_cif.got.tgz:11882.got - 2010.06.03 17:29:28.
