data_PCOD9349354
_publ_section_title
;
Structure prediction by ZEFSAII (Michael W. Deem and Ramdas Pophale) SiO2 
 PCOD9349354
Probable space group: C M M 2
;
_chemical_formula_sum "Si O2"
_cell_formula_units_Z 56
_cell_length_a 20.451855
_cell_length_b 9.532463
_cell_length_c 14.608987
_cell_angle_alpha 90.000000
_cell_angle_beta 90.000000
_cell_angle_gamma 90.000000
_cell_volume 2848.117720
_symmetry_space_group_name_H-M "C M M 2"
_symmetry_group_IT_number 35
_symmetry_cell_setting 'orthorhombic'
loop_
_space_group_symop_operation_xyz
x,y,z
-x,-y,z
-x,y,z
x,-y,z
1/2+x,1/2+y,z
1/2-x,1/2-y,z
1/2-x,1/2+y,z
1/2+x,1/2-y,z
loop_
_atom_site_type_symbol
_atom_site_label
_atom_site_fract_x
_atom_site_fract_y
_atom_site_fract_z
Si Si1 0.000000 0.330924 0.902061
Si Si2 0.360540 0.831573 0.824179
Si Si3 0.804682 0.157919 0.989655
Si Si4 0.386812 0.653396 0.166289
Si Si5 0.684055 0.834108 0.618245
Si Si6 0.684193 0.335521 0.347709
Si Si7 0.421860 0.167359 0.461181
Si Si8 0.000000 0.665313 0.115163
O O1 0.064440 0.292209 0.845780
O O2 0.000000 0.500000 0.907550
O O3 0.000000 0.282737 0.008428
O O4 0.321992 0.742954 0.899105
O O5 0.336438 0.799611 0.722372
O O6 0.353875 0.000000 0.838260
O O7 0.750000 0.250000 0.038207
O O8 0.783484 0.000000 0.968911
O O9 0.862485 0.151636 0.062159
O O10 0.416825 0.500000 0.186104
O O11 0.328843 0.669404 0.238747
O O12 0.438084 0.776926 0.169201
O O13 0.750000 0.750000 0.593096
O O14 0.620567 0.810265 0.554241
O O15 0.698935 0.000000 0.613158
O O16 0.689627 0.500000 0.374790
O O17 0.750000 0.250000 0.371108
O O18 0.619907 0.261956 0.390879
O O19 0.500000 0.200026 0.467395
O O20 0.417092 0.000000 0.439395
O O21 0.000000 0.500000 0.111944
#
# Coordination Sequence:
#
# PCOD9349354 Si02
#       8
#     4   8   8   8   8   8   8   4
#     4   9  18  33  55  84 115 152 200 247 291 343
#     4  10  20  36  58  85 118 156 200 245 295 355
#     4  11  22  36  55  80 114 155 197 245 296 349
#     4  10  23  40  58  84 121 160 198 245 303 361
#     4  10  22  39  63  90 121 161 200 249 305 363
#     4  11  24  43  67  93 123 162 205 252 310 368
#     4  10  23  43  66  95 126 158 202 252 307 369
#     4  11  21  35  59  88 117 158 208 253 297 351
#
# _framework density 19.662108
#
# number of rings (size 3 to 8) (size 9 to 14) (size 15 to 20)
#    0.000    1.714    1.429    2.357    2.000    5.429 
#    0.000    0.357    0.000    0.000    0.000    0.000 
#    0.000    0.000    0.000    0.000    0.000    0.000 
#
# Total GULP energy -156144.211891 kJ/mol
# GULP energy per Si atom -5576.578996 kJ/mol
# Density = 1.961736 g / cm^3
# Si number density = 19.662108 Si / 1000 Ang^3
#
#
#
# Elastic Constant Matrix: (Units=GPa)
#
#
# Indices 1 2 3 4 5 6 
#
# 1 147.7897 67.0179 30.9739 0.0000 0.0000 0.0000
# 2 67.0179 99.9805 42.3314 0.0000 0.0000 0.0000
# 3 30.9739 42.3314 86.9528 0.0000 0.0000 0.0000
# 4 0.0000 0.0000 0.0000 18.8586 0.0000 0.0000
# 5 0.0000 0.0000 0.0000 0.0000 25.7721 0.0000
# 6 0.0000 0.0000 0.0000 0.0000 0.0000 33.0912
#
#
#
# Elastic Compliance Matrix: (Units=1/GPa)
#
#
# Indices 1 2 3 4 5 6 
#
# 1 0.009731 -0.006367 -0.000366 0.000000 0.000000 0.000000
# 2 -0.006367 0.016766 -0.005894 0.000000 0.000000 0.000000
# 3 -0.000366 -0.005894 0.014500 0.000000 0.000000 0.000000
# 4 0.000000 0.000000 0.000000 0.053026 0.000000 0.000000
# 5 0.000000 0.000000 0.000000 0.000000 0.038802 0.000000
# 6 0.000000 0.000000 0.000000 0.000000 0.000000 0.030219
#
#
# Mechanical properties :
#
#
# Convention : Reuss Voigt Hill
#
# Bulk Modulus (GPa) = 63.52729 68.37440 65.95085
# Shear Modulus (GPa) = 25.83367 28.50437 27.16902
#
# Velocity S-wave (km/s) = 3.62868 3.81164 3.72128
# Velocity P-wave (km/s) = 7.06655 7.36353 7.21657
#
# Compressibility (1/GPa) = 0.01574127
#
# Stress axis : x y z
#
# Youngs Moduli (GPa) = 102.76907 59.64627 68.96414
#
# Poissons Ratio (x) = 0.37979 0.02526
# Poissons Ratio (y) = 0.65437 0.40646
# Poissons Ratio (z) = 0.03765 0.35154
#
# Static dielectric constant tensor:
#      x y z
#    x 1.799750 0.000000 0.000000 
#    y 0.000000 1.688890 0.000000 
#    z 0.000000 0.000000 1.703900 
# 
# From -- ./inp_files/17462.got.cif
#   From: 2010.05.17/outbox.cif.g08.bks.cpg/sg35_9_cif.got.tgz:17462.got - 2010.06.03 17:29:28.
