data_PCOD9349106
_publ_section_title
;
Structure prediction by ZEFSAII (Michael W. Deem and Ramdas Pophale) SiO2 
 PCOD9349106
Probable space group: C M M 2
;
_chemical_formula_sum "Si O2"
_cell_formula_units_Z 58
_cell_length_a 31.207999
_cell_length_b 8.095445
_cell_length_c 12.856457
_cell_angle_alpha 90.000000
_cell_angle_beta 90.000000
_cell_angle_gamma 90.000000
_cell_volume 3248.089231
_symmetry_space_group_name_H-M "C M M 2"
_symmetry_group_IT_number 35
_symmetry_cell_setting 'orthorhombic'
loop_
_space_group_symop_operation_xyz
x,y,z
-x,-y,z
-x,y,z
x,-y,z
1/2+x,1/2+y,z
1/2-x,1/2-y,z
1/2-x,1/2+y,z
1/2+x,1/2-y,z
loop_
_atom_site_type_symbol
_atom_site_label
_atom_site_fract_x
_atom_site_fract_y
_atom_site_fract_z
Si Si1 0.702278 0.691321 0.239410
Si Si2 0.701830 0.697190 0.648649
Si Si3 0.500000 0.500000 0.442127
Si Si4 0.438195 0.197713 0.382683
Si Si5 0.047265 0.303538 0.136374
Si Si6 0.861428 0.199225 0.065424
Si Si7 0.701709 0.300545 0.884990
Si Si8 0.160798 0.691082 0.442281
O O1 0.702363 0.500000 0.215135
O O2 0.750000 0.750000 0.217132
O O3 0.665065 0.765186 0.165791
O O4 0.689963 0.714609 0.359296
O O5 0.699787 0.500000 0.650353
O O6 0.750000 0.750000 0.619835
O O7 0.694121 0.758544 0.766560
O O8 0.670218 0.760629 0.560389
O O9 0.463474 0.348390 0.436838
O O10 0.445423 0.227619 0.259344
O O11 0.388513 0.214396 0.411794
O O12 0.449627 0.000000 0.402075
O O13 0.045581 0.500000 0.123888
O O14 0.088856 0.244649 0.074491
O O15 0.000000 0.235074 0.108268
O O16 0.860560 0.000000 0.064693
O O17 0.834587 0.257129 0.965049
O O18 0.700867 0.500000 0.884041
O O19 0.750000 0.250000 0.916237
O O20 0.171818 0.500000 0.428543
#
# Coordination Sequence:
#
# PCOD9349106 Si02
#       8
#     8   8   2   8   8   8   8   8
#     4  11  22  33  49  74 109 148 184 215 264 337
#     4  10  20  35  56  78 107 141 186 232 277 329
#     4  12  22  32  64  78 112 154 194 228 296 330
#     4  10  22  36  53  83 115 147 189 236 280 343
#     4  10  20  35  52  76 109 142 180 228 277 326
#     4  10  21  34  53  79 108 139 182 223 271 336
#     4   9  19  36  55  80 108 140 181 232 274 326
#     4  11  22  36  53  76 112 145 181 229 277 326
#
# _framework density 17.856653000000001
#
# number of rings (size 3 to 8) (size 9 to 14) (size 15 to 20)
#    0.000    1.793    2.069    2.276    2.897    1.931 
#    0.000    0.000    0.000    0.000    1.793    0.000 
#    0.000    0.000    0.000    0.000    0.000    0.000 
#
# Total GULP energy -161440.315744 kJ/mol
# GULP energy per Si atom -5566.907439 kJ/mol
# Density = 1.781601 g / cm^3
# Si number density = 17.856653 Si / 1000 Ang^3
#
#
#
# Elastic Constant Matrix: (Units=GPa)
#
#
# Indices 1 2 3 4 5 6 
#
# 1 151.2583 27.5036 64.2800 0.0000 0.0000 0.0000
# 2 27.5036 43.6612 3.9085 0.0000 0.0000 0.0000
# 3 64.2800 3.9085 66.6635 0.0000 0.0000 0.0000
# 4 0.0000 0.0000 0.0000 9.3394 0.0000 0.0000
# 5 0.0000 0.0000 0.0000 0.0000 44.4193 0.0000
# 6 0.0000 0.0000 0.0000 0.0000 0.0000 38.2038
#
#
#
# Elastic Compliance Matrix: (Units=1/GPa)
#
#
# Indices 1 2 3 4 5 6 
#
# 1 0.013105 -0.007162 -0.012217 0.000000 0.000000 0.000000
# 2 -0.007162 0.026938 0.005326 0.000000 0.000000 0.000000
# 3 -0.012217 0.005326 0.026468 0.000000 0.000000 0.000000
# 4 0.000000 0.000000 0.000000 0.107073 0.000000 0.000000
# 5 0.000000 0.000000 0.000000 0.000000 0.022513 0.000000
# 6 0.000000 0.000000 0.000000 0.000000 0.000000 0.026175
#
#
# Mechanical properties :
#
#
# Convention : Reuss Voigt Hill
#
# Bulk Modulus (GPa) = 26.03663 50.32970 38.18316
# Shear Modulus (GPa) = 18.99842 29.45191 24.22516
#
# Velocity S-wave (km/s) = 3.26535 4.06563 3.68726
# Velocity P-wave (km/s) = 5.36929 7.09124 6.28947
#
# Compressibility (1/GPa) = 0.03840744
#
# Stress axis : x y z
#
# Youngs Moduli (GPa) = 76.30584 37.12192 37.78099
#
# Poissons Ratio (x) = 0.26586 0.46156
# Poissons Ratio (y) = 0.54648 -0.20123
# Poissons Ratio (z) = 0.93221 -0.19772
#
# Static dielectric constant tensor:
#      x y z
#    x 1.623730 0.000000 0.000000 
#    y 0.000000 1.634530 0.000000 
#    z 0.000000 0.000000 1.618020 
# 
# From -- ./inp_files/11773.got.cif
#   From: 2010.05.17/outbox.cif.g08.bks.cpg/sg35_6_cif.got.tgz:11773.got - 2010.06.03 17:29:28.
