data_PCOD9349891
_publ_section_title
;
Structure prediction by ZEFSAII (Michael W. Deem and Ramdas Pophale) SiO2 
 PCOD9349891
Probable space group: C M M 2
;
_chemical_formula_sum "Si O2"
_cell_formula_units_Z 32
_cell_length_a 10.651129
_cell_length_b 24.101738
_cell_length_c 5.439138
_cell_angle_alpha 90.000000
_cell_angle_beta 90.000000
_cell_angle_gamma 90.000000
_cell_volume 1396.285035
_symmetry_space_group_name_H-M "C M M 2"
_symmetry_group_IT_number 35
_symmetry_cell_setting 'orthorhombic'
loop_
_space_group_symop_operation_xyz
x,y,z
-x,-y,z
-x,y,z
x,-y,z
1/2+x,1/2+y,z
1/2-x,1/2-y,z
1/2-x,1/2+y,z
1/2+x,1/2-y,z
loop_
_atom_site_type_symbol
_atom_site_label
_atom_site_fract_x
_atom_site_fract_y
_atom_site_fract_z
Si Si1 0.633412 0.500000 0.392030
Si Si2 0.762619 0.406865 0.127925
Si Si3 0.855744 0.211973 0.107361
Si Si4 0.358240 0.000000 0.766976
Si Si5 0.500000 0.211412 0.815004
Si Si6 0.500000 0.140445 0.327187
O O1 0.500000 0.500000 0.521289
O O2 0.652167 0.445562 0.228597
O O3 0.751056 0.500000 0.567754
O O4 0.871446 0.393930 0.326196
O O5 0.702579 0.348030 0.057569
O O6 0.833257 0.444734 0.928283
O O7 0.750000 0.250000 0.242306
O O8 0.884453 0.247314 0.861500
O O9 0.000000 0.207436 0.215008
O O10 0.500000 0.000000 0.674928
O O11 0.500000 0.179868 0.561903
O O12 0.500000 0.171482 0.058994
#
# Coordination Sequence:
#
# PCOD9349891 Si02
#       6
#     4   8   8   4   4   4
#     4  11  28  46  69 109 151 210 263 339 400 493
#     4  11  24  45  76 105 152 200 263 332 399 480
#     4  10  21  45  69 106 148 199 249 315 383 470
#     4  11  26  46  73 107 151 196 273 331 420 461
#     4  10  26  46  70 114 150 196 246 311 386 465
#     4  12  24  47  78 114 150 195 260 321 390 473
#
# _framework density 22.917954999999999
#
# number of rings (size 3 to 8) (size 9 to 14) (size 15 to 20)
#    0.750    0.500    3.750    0.750    5.250    3.000 
#    9.000    0.000    0.000    0.000    0.000    0.000 
#    0.000    0.000    0.000    0.000    0.000    0.000 
#
# Total GULP energy -89263.918025 kJ/mol
# GULP energy per Si atom -5578.994877 kJ/mol
# Density = 2.286579 g / cm^3
# Si number density = 22.917955 Si / 1000 Ang^3
#
#
#
# Elastic Constant Matrix: (Units=GPa)
#
#
# Indices 1 2 3 4 5 6 
#
# 1 201.9638 59.3604 28.9214 0.0000 0.0000 0.0000
# 2 59.3604 176.5824 39.7164 0.0000 0.0000 0.0000
# 3 28.9214 39.7164 73.3330 0.0000 0.0000 0.0000
# 4 0.0000 0.0000 0.0000 39.7942 0.0000 0.0000
# 5 0.0000 0.0000 0.0000 0.0000 -13.1907 0.0000
# 6 0.0000 0.0000 0.0000 0.0000 0.0000 8.8545
#
#
#
# Elastic Compliance Matrix: (Units=1/GPa)
#
#
# Indices 1 2 3 4 5 6 
#
# 1 0.005610 -0.001581 -0.001356 0.000000 0.000000 0.000000
# 2 -0.001581 0.006894 -0.003110 0.000000 0.000000 0.000000
# 3 -0.001356 -0.003110 0.015856 0.000000 0.000000 0.000000
# 4 0.000000 0.000000 0.000000 0.025129 0.000000 0.000000
# 5 0.000000 0.000000 0.000000 0.000000 -0.075811 0.000000
# 6 0.000000 0.000000 0.000000 0.000000 0.000000 0.112937
#
#
# Mechanical properties :
#
#
# Convention : Reuss Voigt Hill
#
# Bulk Modulus (GPa) = 61.48151 78.65286 70.06719
# Shear Modulus (GPa) = 46.23942 28.68365 37.46154
#
# Velocity S-wave (km/s) = 4.49665 3.54161 4.04740
# Velocity P-wave (km/s) = 7.33791 7.14967 7.24440
#
# Compressibility (1/GPa) = 0.01626505
#
# Stress axis : x y z
#
# Youngs Moduli (GPa) = 178.24454 145.05225 63.06808
#
# Poissons Ratio (x) = 0.22931 0.08555
# Poissons Ratio (y) = 0.28178 0.19616
# Poissons Ratio (z) = 0.24177 0.45115
#
# Static dielectric constant tensor:
#      x y z
#    x 1.938790 0.000000 0.000000 
#    y 0.000000 1.893340 0.000000 
#    z 0.000000 0.000000 1.884630 
# 
# From -- ./inp_files/1137.got.cif
#   From: 2010.05.17/outbox.cif.g08.bks.cpg/sg35_1_cif.got.tgz:1137.got - 2010.06.03 17:29:28.
