data_PCOD9349469
_publ_section_title
;
Structure prediction by ZEFSAII (Michael W. Deem and Ramdas Pophale) SiO2 
 PCOD9349469
Probable space group: C M M 2
;
_chemical_formula_sum "Si O2"
_cell_formula_units_Z 58
_cell_length_a 29.177561
_cell_length_b 7.579952
_cell_length_c 12.377396
_cell_angle_alpha 90.000000
_cell_angle_beta 90.000000
_cell_angle_gamma 90.000000
_cell_volume 2737.440744
_symmetry_space_group_name_H-M "C M M 2"
_symmetry_group_IT_number 35
_symmetry_cell_setting 'orthorhombic'
loop_
_space_group_symop_operation_xyz
x,y,z
-x,-y,z
-x,y,z
x,-y,z
1/2+x,1/2+y,z
1/2-x,1/2-y,z
1/2-x,1/2+y,z
1/2+x,1/2-y,z
loop_
_atom_site_type_symbol
_atom_site_label
_atom_site_fract_x
_atom_site_fract_y
_atom_site_fract_z
Si Si1 0.860744 0.303181 0.398120
Si Si2 0.303770 0.210179 0.596354
Si Si3 0.553803 0.789714 0.761279
Si Si4 0.583742 0.780282 0.201125
Si Si5 0.389915 0.798785 0.960402
Si Si6 0.803637 0.797626 0.841003
Si Si7 0.051800 0.796884 0.518101
Si Si8 0.000000 0.000000 0.236244
O O1 0.841901 0.500000 0.381556
O O2 0.829658 0.215708 0.491040
O O3 0.873903 0.232832 0.280896
O O4 0.910580 0.308293 0.454086
O O5 0.250000 0.250000 0.587020
O O6 0.318502 0.272174 0.715671
O O7 0.311112 0.000000 0.598137
O O8 0.500000 0.766512 0.784624
O O9 0.582889 0.715159 0.860058
O O10 0.563180 0.707477 0.644860
O O11 0.562643 0.000000 0.747927
O O12 0.540342 0.658642 0.231729
O O13 0.576907 0.000000 0.208953
O O14 0.598268 0.732374 0.078775
O O15 0.337196 0.799133 0.923417
O O16 0.406726 0.000000 0.963010
O O17 0.750000 0.750000 0.846525
O O18 0.808276 0.000000 0.868651
O O19 0.000000 0.729575 0.505713
O O20 0.052260 0.000000 0.480426
#
# Coordination Sequence:
#
# PCOD9349469 Si02
#       8
#     8   8   8   8   8   8   8   2
#     4  10  22  39  59  82 116 158 200 250 307 371
#     4  10  20  37  61  91 122 158 202 250 313 381
#     4   9  18  33  53  78 108 150 193 231 293 367
#     4  10  25  45  65  92 127 168 216 265 319 367
#     4  10  21  39  61  84 119 159 201 257 310 369
#     4  11  22  37  61  92 124 159 202 253 313 381
#     4  10  21  33  49  78 113 147 187 242 299 354
#     4  12  26  44  68  94 122 172 226 272 300 380
#
# _framework density 21.187674000000001
#
# number of rings (size 3 to 8) (size 9 to 14) (size 15 to 20)
#    0.000    1.931    0.000    3.931    3.862    5.793 
#    0.000    0.690    0.000    1.655    0.000    0.000 
#    0.000    0.000    0.000    0.000    0.000    0.000 
#
# Total GULP energy -161522.757338 kJ/mol
# GULP energy per Si atom -5569.750253 kJ/mol
# Density = 2.113945 g / cm^3
# Si number density = 21.187674 Si / 1000 Ang^3
#
#
#
# Elastic Constant Matrix: (Units=GPa)
#
#
# Indices 1 2 3 4 5 6 
#
# 1 39.6258 0.5803 26.8557 0.0000 0.0000 0.0000
# 2 0.5803 75.7138 4.2581 0.0000 0.0000 0.0000
# 3 26.8557 4.2581 91.9377 0.0000 0.0000 0.0000
# 4 0.0000 0.0000 0.0000 13.0293 0.0000 0.0000
# 5 0.0000 0.0000 0.0000 0.0000 -1.7949 0.0000
# 6 0.0000 0.0000 0.0000 0.0000 0.0000 16.3731
#
#
#
# Elastic Compliance Matrix: (Units=1/GPa)
#
#
# Indices 1 2 3 4 5 6 
#
# 1 0.031471 0.000277 -0.009206 0.000000 0.000000 0.000000
# 2 0.000277 0.013245 -0.000694 0.000000 0.000000 0.000000
# 3 -0.009206 -0.000694 0.013598 0.000000 0.000000 0.000000
# 4 0.000000 0.000000 0.000000 0.076750 0.000000 0.000000
# 5 0.000000 0.000000 0.000000 0.000000 -0.557147 0.000000
# 6 0.000000 0.000000 0.000000 0.000000 0.000000 0.061076
#
#
# Mechanical properties :
#
#
# Convention : Reuss Voigt Hill
#
# Bulk Modulus (GPa) = 25.59710 30.07394 27.83552
# Shear Modulus (GPa) = -15.20967 17.22706 1.00870
#
# Velocity S-wave (km/s) = -2.68219 2.85453 0.69073
# Velocity P-wave (km/s) = 1.58593 5.00893 3.71514
#
# Compressibility (1/GPa) = 0.03906693
#
# Stress axis : x y z
#
# Youngs Moduli (GPa) = 31.77522 75.50273 73.53934
#
# Poissons Ratio (x) = -0.02088 0.67699
# Poissons Ratio (y) = -0.00879 0.05105
# Poissons Ratio (z) = 0.29252 0.05241
#
# Static dielectric constant tensor:
#      x y z
#    x 1.844840 0.000000 0.000000 
#    y 0.000000 1.789870 0.000000 
#    z 0.000000 0.000000 1.801570 
# 
# From -- ./inp_files/14486.got.cif
#   From: 2010.05.17/outbox.cif.g08.bks.cpg/sg35_8_cif.got.tgz:14486.got - 2010.06.03 17:29:28.
