data_PCOD9349906
_publ_section_title
;
Structure prediction by ZEFSAII (Michael W. Deem and Ramdas Pophale) SiO2 
 PCOD9349906
Probable space group: C M M 2
;
_chemical_formula_sum "Si O2"
_cell_formula_units_Z 48
_cell_length_a 14.029084
_cell_length_b 23.157263
_cell_length_c 7.682628
_cell_angle_alpha 90.000000
_cell_angle_beta 90.000000
_cell_angle_gamma 90.000000
_cell_volume 2495.895215
_symmetry_space_group_name_H-M "C M M 2"
_symmetry_group_IT_number 35
_symmetry_cell_setting 'orthorhombic'
loop_
_space_group_symop_operation_xyz
x,y,z
-x,-y,z
-x,y,z
x,-y,z
1/2+x,1/2+y,z
1/2-x,1/2-y,z
1/2-x,1/2+y,z
1/2+x,1/2-y,z
loop_
_atom_site_type_symbol
_atom_site_label
_atom_site_fract_x
_atom_site_fract_y
_atom_site_fract_z
Si Si1 0.386555 0.328385 0.532260
Si Si2 0.615191 0.759571 0.234786
Si Si3 0.751718 0.434380 0.938747
Si Si4 0.113983 0.606689 0.234786
Si Si5 0.113445 0.171615 0.937311
Si Si6 0.751718 0.434380 0.530824
O O1 0.500000 0.338040 0.509277
O O2 0.356604 0.277048 0.404097
O O3 0.370386 0.313320 0.734786
O O4 0.328730 0.386639 0.492872
O O5 0.500000 0.761191 0.234786
O O6 0.644650 0.825911 0.234786
O O7 0.643396 0.722952 0.065474
O O8 0.717576 0.500000 0.966306
O O9 0.671270 0.386639 0.976699
O O10 0.777593 0.428535 0.734786
O O11 0.839855 0.422130 0.065062
O O12 0.160145 0.577870 0.404509
O O13 0.000000 0.602606 0.234786
O O14 0.000000 0.161960 0.960294
O O15 0.717576 0.500000 0.503265
#
# Coordination Sequence:
#
# PCOD9349906 Si02
#       6
#     8   8   8   8   8   8
#     4   9  18  34  57  84 114 144 170 207 266 329
#     4   9  19  35  54  79 109 140 180 224 263 315
#     4  10  22  38  56  82 111 139 180 226 264 316
#     4  11  24  40  57  76 104 145 187 230 276 311
#     4   9  18  34  57  84 114 144 170 207 266 329
#     4  10  22  38  56  82 111 139 180 226 264 316
#
# _framework density 19.231577000000001
#
# number of rings (size 3 to 8) (size 9 to 14) (size 15 to 20)
#    0.000    2.333    0.000    1.500    0.000    6.667 
#    0.000   11.667    0.000    5.000    0.000    0.000 
#    0.000    0.000    0.000    0.000    0.000    0.000 
#
# Total GULP energy -134022.061854 kJ/mol
# GULP energy per Si atom -5584.252577 kJ/mol
# Density = 1.918780 g / cm^3
# Si number density = 19.231577 Si / 1000 Ang^3
#
#
#
# Elastic Constant Matrix: (Units=GPa)
#
#
# Indices 1 2 3 4 5 6 
#
# 1 58.4861 4.7608 26.8328 0.0000 0.0000 0.0000
# 2 4.7608 92.6267 39.5962 0.0000 0.0000 0.0000
# 3 26.8328 39.5962 63.4612 0.0000 0.0000 0.0000
# 4 0.0000 0.0000 0.0000 36.4873 0.0000 0.0000
# 5 0.0000 0.0000 0.0000 0.0000 18.8243 0.0000
# 6 0.0000 0.0000 0.0000 0.0000 0.0000 25.1518
#
#
#
# Elastic Compliance Matrix: (Units=1/GPa)
#
#
# Indices 1 2 3 4 5 6 
#
# 1 0.022209 0.003918 -0.011835 0.000000 0.000000 0.000000
# 2 0.003918 0.015414 -0.011274 0.000000 0.000000 0.000000
# 3 -0.011835 -0.011274 0.027796 0.000000 0.000000 0.000000
# 4 0.000000 0.000000 0.000000 0.027407 0.000000 0.000000
# 5 0.000000 0.000000 0.000000 0.000000 0.053123 0.000000
# 6 0.000000 0.000000 0.000000 0.000000 0.000000 0.039759
#
#
# Mechanical properties :
#
#
# Convention : Reuss Voigt Hill
#
# Bulk Modulus (GPa) = 36.98676 39.66151 38.32413
# Shear Modulus (GPa) = 21.44987 25.65162 23.55074
#
# Velocity S-wave (km/s) = 3.34330 3.65612 3.50321
# Velocity P-wave (km/s) = 5.84616 6.20410 6.02779
#
# Compressibility (1/GPa) = 0.02703670
#
# Stress axis : x y z
#
# Youngs Moduli (GPa) = 45.02712 64.87571 35.97636
#
# Poissons Ratio (x) = -0.25416 0.42577
# Poissons Ratio (y) = -0.17640 0.40560
# Poissons Ratio (z) = 0.53289 0.73141
#
# Static dielectric constant tensor:
#      x y z
#    x 1.657410 0.000000 0.000000 
#    y 0.000000 1.647600 0.000000 
#    z 0.000000 0.000000 1.664920 
# 
# From -- ./inp_files/7461.got.cif
#   From: 2010.05.17/outbox.cif.g08.bks.cpg/sg35_4_cif.got.tgz:7461.got - 2010.06.03 17:29:28.
