data_PCOD9349594
_publ_section_title
;
Structure prediction by ZEFSAII (Michael W. Deem and Ramdas Pophale) SiO2 
 PCOD9349594
Probable space group: C M M 2
;
_chemical_formula_sum "Si O2"
_cell_formula_units_Z 48
_cell_length_a 11.198369
_cell_length_b 19.625137
_cell_length_c 10.625227
_cell_angle_alpha 90.000000
_cell_angle_beta 90.000000
_cell_angle_gamma 90.000000
_cell_volume 2335.101099
_symmetry_space_group_name_H-M "C M M 2"
_symmetry_group_IT_number 35
_symmetry_cell_setting 'orthorhombic'
loop_
_space_group_symop_operation_xyz
x,y,z
-x,-y,z
-x,y,z
x,-y,z
1/2+x,1/2+y,z
1/2-x,1/2-y,z
1/2-x,1/2+y,z
1/2+x,1/2-y,z
loop_
_atom_site_type_symbol
_atom_site_label
_atom_site_fract_x
_atom_site_fract_y
_atom_site_fract_z
Si Si1 0.794592 0.821129 0.519580
Si Si2 0.226179 0.076524 0.138145
Si Si3 0.629386 0.291289 0.235149
Si Si4 0.637314 0.926804 0.402019
Si Si5 0.365935 0.918308 0.888880
Si Si6 0.130896 0.081376 0.731619
O O1 0.750000 0.750000 0.575900
O O2 0.857994 0.806156 0.385414
O O3 0.677579 0.864691 0.485567
O O4 0.867516 0.870892 0.609134
O O5 0.135865 0.138588 0.156353
O O6 0.289156 0.073797 0.273745
O O7 0.178197 0.000000 0.110129
O O8 0.324712 0.092784 0.032636
O O9 0.500000 0.257658 0.214021
O O10 0.750000 0.250000 0.203002
O O11 0.500000 0.922286 0.369812
O O12 0.658903 0.000000 0.466682
O O13 0.500000 0.890935 0.862473
O O14 0.249881 0.897289 0.807875
O O15 0.373373 0.000000 0.871781
O O16 0.000000 0.090464 0.795173
O O17 0.139830 0.000000 0.704168
#
# Coordination Sequence:
#
# PCOD9349594 Si02
#       6
#     8   8   8   8   8   8
#     4  10  21  35  54  78 107 144 187 230 275 327
#     4   9  18  33  56  85 113 141 177 223 274 327
#     4  10  22  38  57  82 114 151 185 222 272 330
#     4   9  17  30  51  81 113 141 172 216 272 332
#     4   9  18  34  57  84 112 143 182 228 276 325
#     4  10  21  37  56  78 108 146 186 230 279 329
#
# _framework density 20.555855000000001
#
# number of rings (size 3 to 8) (size 9 to 14) (size 15 to 20)
#    0.000    2.500    0.000    1.500    0.000   11.667 
#    0.000    4.167    0.000    0.000    0.000    0.000 
#    0.000    0.000    0.000    0.000    0.000    0.000 
#
# Total GULP energy -133669.286047 kJ/mol
# GULP energy per Si atom -5569.553585 kJ/mol
# Density = 2.050907 g / cm^3
# Si number density = 20.555855 Si / 1000 Ang^3
#
#
#
# Elastic Constant Matrix: (Units=GPa)
#
#
# Indices 1 2 3 4 5 6 
#
# 1 142.5542 39.8532 19.1784 0.0000 0.0000 0.0000
# 2 39.8532 87.1082 19.8372 0.0000 0.0000 0.0000
# 3 19.1784 19.8372 23.5859 0.0000 0.0000 0.0000
# 4 0.0000 0.0000 0.0000 71.3266 0.0000 0.0000
# 5 0.0000 0.0000 0.0000 0.0000 12.0312 0.0000
# 6 0.0000 0.0000 0.0000 0.0000 0.0000 -8.3181
#
#
#
# Elastic Compliance Matrix: (Units=1/GPa)
#
#
# Indices 1 2 3 4 5 6 
#
# 1 0.008406 -0.002832 -0.004453 0.000000 0.000000 0.000000
# 2 -0.002832 0.015154 -0.010443 0.000000 0.000000 0.000000
# 3 -0.004453 -0.010443 0.054802 0.000000 0.000000 0.000000
# 4 0.000000 0.000000 0.000000 0.014020 0.000000 0.000000
# 5 0.000000 0.000000 0.000000 0.000000 0.083117 0.000000
# 6 0.000000 0.000000 0.000000 0.000000 0.000000 -0.120220
#
#
# Mechanical properties :
#
#
# Convention : Reuss Voigt Hill
#
# Bulk Modulus (GPa) = 23.30655 45.66509 34.48582
# Shear Modulus (GPa) = 47.60276 26.63326 37.11801
#
# Velocity S-wave (km/s) = 4.81747 3.60342 4.25398
# Velocity P-wave (km/s) = 6.50437 6.29096 6.39856
#
# Compressibility (1/GPa) = 0.04290638
#
# Stress axis : x y z
#
# Youngs Moduli (GPa) = 118.96834 65.99121 18.24739
#
# Poissons Ratio (x) = 0.18685 0.08126
# Poissons Ratio (y) = 0.33686 0.19055
# Poissons Ratio (z) = 0.52981 0.68912
#
# Static dielectric constant tensor:
#      x y z
#    x 1.767560 0.000000 0.000000 
#    y 0.000000 1.475410 0.000000 
#    z 0.000000 0.000000 1.735660 
# 
# From -- ./inp_files/12356.got.cif
#   From: 2010.05.17/outbox.cif.g08.bks.cpg/sg35_7_cif.got.tgz:12356.got - 2010.06.03 17:29:28.
