data_PCOD9349270
_publ_section_title
;
Structure prediction by ZEFSAII (Michael W. Deem and Ramdas Pophale) SiO2 
 PCOD9349270
Probable space group: C M M 2
;
_chemical_formula_sum "Si O2"
_cell_formula_units_Z 64
_cell_length_a 17.773075
_cell_length_b 15.991038
_cell_length_c 10.624599
_cell_angle_alpha 90.000000
_cell_angle_beta 90.000000
_cell_angle_gamma 90.000000
_cell_volume 3019.616407
_symmetry_space_group_name_H-M "C M M 2"
_symmetry_group_IT_number 35
_symmetry_cell_setting 'orthorhombic'
loop_
_space_group_symop_operation_xyz
x,y,z
-x,-y,z
-x,y,z
x,-y,z
1/2+x,1/2+y,z
1/2-x,1/2-y,z
1/2-x,1/2+y,z
1/2+x,1/2-y,z
loop_
_atom_site_type_symbol
_atom_site_label
_atom_site_fract_x
_atom_site_fract_y
_atom_site_fract_z
Si Si1 0.590191 0.096193 0.238390
Si Si2 0.795283 0.594468 0.768646
Si Si3 0.674449 0.265709 0.279099
Si Si4 0.589418 0.157464 0.956259
Si Si5 0.580577 0.598558 0.668863
Si Si6 0.088203 0.908200 0.143824
Si Si7 0.152667 0.164080 0.907842
Si Si8 0.271308 0.659133 0.538698
O O1 0.500000 0.103891 0.260848
O O2 0.633798 0.175585 0.300987
O O3 0.612659 0.000000 0.272434
O O4 0.602333 0.108926 0.087728
O O5 0.772798 0.500000 0.796142
O O6 0.874197 0.613313 0.834776
O O7 0.732245 0.650516 0.839348
O O8 0.789589 0.605491 0.617026
O O9 0.750000 0.250000 0.196128
O O10 0.613273 0.329283 0.225533
O O11 0.712773 0.319835 0.393202
O O12 0.500000 0.169026 0.943608
O O13 0.632124 0.245876 0.962967
O O14 0.500000 0.618417 0.610624
O O15 0.584162 0.500000 0.694379
O O16 0.592075 0.646423 0.798788
O O17 0.649546 0.623794 0.583392
O O18 0.000000 0.900769 0.111217
O O19 0.099404 0.000000 0.203557
O O20 0.138540 0.900980 0.019175
O O21 0.250000 0.750000 0.591605
#
# Coordination Sequence:
#
# PCOD9349270 Si02
#       8
#     8   8   8   8   8   8   8   8
#     4  10  22  42  66  94 132 175 222 278 339 402
#     4  11  23  39  64  95 133 173 215 269 329 397
#     4  11  25  42  64  90 124 170 222 276 324 387
#     4  11  22  37  63  97 136 176 218 271 332 398
#     4  10  20  35  59  90 122 160 206 256 315 385
#     4  11  23  38  59  92 132 169 210 265 327 394
#     4  11  20  35  58  91 133 172 208 255 322 391
#     4  10  22  42  60  84 118 163 214 261 318 379
#
# _framework density 21.194745999999999
#
# number of rings (size 3 to 8) (size 9 to 14) (size 15 to 20)
#    0.000    1.375    1.250    6.000    1.750    4.250 
#    0.000    5.000    0.000    1.500    0.000    0.000 
#    0.000    0.000    0.000    0.000    0.000    0.000 
#
# Total GULP energy -178257.377035 kJ/mol
# GULP energy per Si atom -5570.543032 kJ/mol
# Density = 2.114651 g / cm^3
# Si number density = 21.194746 Si / 1000 Ang^3
#
#
#
# Elastic Constant Matrix: (Units=GPa)
#
#
# Indices 1 2 3 4 5 6 
#
# 1 49.0065 22.8622 16.6512 0.0000 0.0000 0.0000
# 2 22.8622 107.9003 16.5815 0.0000 0.0000 0.0000
# 3 16.6512 16.5815 63.3639 0.0000 0.0000 0.0000
# 4 0.0000 0.0000 0.0000 20.5263 0.0000 0.0000
# 5 0.0000 0.0000 0.0000 0.0000 15.4496 0.0000
# 6 0.0000 0.0000 0.0000 0.0000 0.0000 40.5396
#
#
#
# Elastic Compliance Matrix: (Units=1/GPa)
#
#
# Indices 1 2 3 4 5 6 
#
# 1 0.024199 -0.004324 -0.005228 0.000000 0.000000 0.000000
# 2 -0.004324 0.010429 -0.001593 0.000000 0.000000 0.000000
# 3 -0.005228 -0.001593 0.017572 0.000000 0.000000 0.000000
# 4 0.000000 0.000000 0.000000 0.048718 0.000000 0.000000
# 5 0.000000 0.000000 0.000000 0.000000 0.064727 0.000000
# 6 0.000000 0.000000 0.000000 0.000000 0.000000 0.024667
#
#
# Mechanical properties :
#
#
# Convention : Reuss Voigt Hill
#
# Bulk Modulus (GPa) = 33.43220 36.94005 35.18613
# Shear Modulus (GPa) = 22.46476 26.24817 24.35646
#
# Velocity S-wave (km/s) = 3.25917 3.52295 3.39363
# Velocity P-wave (km/s) = 5.47458 5.83223 5.65623
#
# Compressibility (1/GPa) = 0.02991128
#
# Stress axis : x y z
#
# Youngs Moduli (GPa) = 41.32429 95.88869 56.90733
#
# Poissons Ratio (x) = 0.41462 0.29749
# Poissons Ratio (y) = 0.17868 0.09064
# Poissons Ratio (z) = 0.21603 0.15273
#
# Static dielectric constant tensor:
#      x y z
#    x 1.767530 0.000000 0.000000 
#    y 0.000000 1.788290 0.000000 
#    z 0.000000 0.000000 1.844850 
# 
# From -- ./inp_files/13588.got.cif
#   From: 2010.05.17/outbox.cif.g08.bks.cpg/sg35_7_cif.got.tgz:13588.got - 2010.06.03 17:29:28.
