data_PCOD9349323
_publ_section_title
;
Structure prediction by ZEFSAII (Michael W. Deem and Ramdas Pophale) SiO2 
 PCOD9349323
Probable space group: C M M 2
;
_chemical_formula_sum "Si O2"
_cell_formula_units_Z 48
_cell_length_a 8.727480
_cell_length_b 15.688209
_cell_length_c 17.651843
_cell_angle_alpha 90.000000
_cell_angle_beta 90.000000
_cell_angle_gamma 90.000000
_cell_volume 2416.864400
_symmetry_space_group_name_H-M "C M M 2"
_symmetry_group_IT_number 35
_symmetry_cell_setting 'orthorhombic'
loop_
_space_group_symop_operation_xyz
x,y,z
-x,-y,z
-x,y,z
x,-y,z
1/2+x,1/2+y,z
1/2-x,1/2-y,z
1/2-x,1/2+y,z
1/2+x,1/2-y,z
loop_
_atom_site_type_symbol
_atom_site_label
_atom_site_fract_x
_atom_site_fract_y
_atom_site_fract_z
Si Si1 0.315066 0.846434 0.298600
Si Si2 0.683273 0.000000 0.042355
Si Si3 0.315302 0.154696 0.463039
Si Si4 0.181609 0.500000 0.863027
Si Si5 0.320901 0.099421 0.628036
Si Si6 0.183623 0.153335 0.139696
Si Si7 0.319693 0.661662 0.777964
O O1 0.500000 0.845991 0.290724
O O2 0.250000 0.750000 0.302440
O O3 0.273830 0.884779 0.381032
O O4 0.240671 0.880603 0.221972
O O5 0.754844 0.914878 0.079343
O O6 0.500000 0.000000 0.055544
O O7 0.711700 0.000000 0.952561
O O8 0.500000 0.158175 0.462942
O O9 0.250000 0.250000 0.466153
O O10 0.268953 0.110411 0.541196
O O11 0.250563 0.583082 0.823714
O O12 0.000000 0.500000 0.850513
O O13 0.500000 0.125648 0.633141
O O14 0.225162 0.149801 0.689800
O O15 0.312485 0.000000 0.647686
O O16 0.250000 0.250000 0.129573
O O17 0.000000 0.158235 0.138424
O O18 0.500000 0.662455 0.785857
O O19 0.250000 0.750000 0.805801
#
# Coordination Sequence:
#
# PCOD9349323 Si02
#       7
#     8   4   8   4   8   8   8
#     4   9  16  30  52  80 115 157 207 256 305 357
#     4  11  25  45  69  96 125 160 201 249 310 373
#     4   9  18  31  50  79 111 155 206 255 306 357
#     4  11  25  47  71  96 127 158 197 253 310 369
#     4  10  20  36  57  82 121 164 207 257 308 360
#     4  11  22  39  64  93 128 167 209 254 307 366
#     4  12  25  42  67  96 127 165 208 250 305 368
#
# _framework density 19.860444999999999
#
# number of rings (size 3 to 8) (size 9 to 14) (size 15 to 20)
#    0.000    1.667    0.833    5.500    0.000    4.667 
#    1.500    0.000    0.000    0.000    0.000    0.000 
#    0.000    0.000    0.000    0.000    0.000    0.000 
#
# Total GULP energy -134020.924335 kJ/mol
# GULP energy per Si atom -5584.205181 kJ/mol
# Density = 1.981524 g / cm^3
# Si number density = 19.860445 Si / 1000 Ang^3
#
#
#
# Elastic Constant Matrix: (Units=GPa)
#
#
# Indices 1 2 3 4 5 6 
#
# 1 112.2731 57.5388 89.3791 0.0000 0.0000 0.0000
# 2 57.5388 113.7667 73.0619 0.0000 0.0000 0.0000
# 3 89.3791 73.0619 130.7541 0.0000 0.0000 0.0000
# 4 0.0000 0.0000 0.0000 76.1089 0.0000 0.0000
# 5 0.0000 0.0000 0.0000 0.0000 23.1525 0.0000
# 6 0.0000 0.0000 0.0000 0.0000 0.0000 26.2087
#
#
#
# Elastic Compliance Matrix: (Units=1/GPa)
#
#
# Indices 1 2 3 4 5 6 
#
# 1 0.019847 -0.002067 -0.012412 0.000000 0.000000 0.000000
# 2 -0.002067 0.013925 -0.006368 0.000000 0.000000 0.000000
# 3 -0.012412 -0.006368 0.019690 0.000000 0.000000 0.000000
# 4 0.000000 0.000000 0.000000 0.013139 0.000000 0.000000
# 5 0.000000 0.000000 0.000000 0.000000 0.043192 0.000000
# 6 0.000000 0.000000 0.000000 0.000000 0.000000 0.038155
#
#
# Mechanical properties :
#
#
# Convention : Reuss Voigt Hill
#
# Bulk Modulus (GPa) = 84.96912 88.52814 86.74863
# Shear Modulus (GPa) = 25.83114 34.21496 30.02305
#
# Velocity S-wave (km/s) = 3.61034 4.15513 3.89228
# Velocity P-wave (km/s) = 7.76243 8.22751 7.99836
#
# Compressibility (1/GPa) = 0.01176898
#
# Stress axis : x y z
#
# Youngs Moduli (GPa) = 50.38551 71.81423 50.78595
#
# Poissons Ratio (x) = 0.14843 0.63035
# Poissons Ratio (y) = 0.10414 0.32340
# Poissons Ratio (z) = 0.62538 0.45731
#
# Static dielectric constant tensor:
#      x y z
#    x 1.666110 0.000000 0.000000 
#    y 0.000000 1.684410 0.000000 
#    z 0.000000 0.000000 1.732840 
# 
# From -- ./inp_files/17900.got.cif
#   From: 2010.05.17/outbox.cif.g08.bks.cpg/sg35_9_cif.got.tgz:17900.got - 2010.06.03 17:29:28.
