data_PCOD9349366
_publ_section_title
;
Structure prediction by ZEFSAII (Michael W. Deem and Ramdas Pophale) SiO2 
 PCOD9349366
Probable space group: C M M 2
;
_chemical_formula_sum "Si O2"
_cell_formula_units_Z 56
_cell_length_a 18.776599
_cell_length_b 8.863507
_cell_length_c 18.616358
_cell_angle_alpha 90.000000
_cell_angle_beta 90.000000
_cell_angle_gamma 90.000000
_cell_volume 3098.255615
_symmetry_space_group_name_H-M "C M M 2"
_symmetry_group_IT_number 35
_symmetry_cell_setting 'orthorhombic'
loop_
_space_group_symop_operation_xyz
x,y,z
-x,-y,z
-x,y,z
x,-y,z
1/2+x,1/2+y,z
1/2-x,1/2-y,z
1/2-x,1/2+y,z
1/2+x,1/2-y,z
loop_
_atom_site_type_symbol
_atom_site_label
_atom_site_fract_x
_atom_site_fract_y
_atom_site_fract_z
Si Si1 0.328233 0.182132 0.260900
Si Si2 0.086587 0.173380 0.548232
Si Si3 0.671248 0.679972 0.828727
Si Si4 0.671587 0.181640 0.099964
Si Si5 0.584761 0.820871 0.698176
Si Si6 0.083290 0.682275 0.960298
Si Si7 0.415905 0.180717 0.399749
O O1 0.250000 0.250000 0.269767
O O2 0.353130 0.225051 0.180439
O O3 0.376883 0.230850 0.327259
O O4 0.324653 0.000000 0.262768
O O5 0.106638 0.268573 0.618346
O O6 0.111259 0.241275 0.472474
O O7 0.000000 0.177179 0.545914
O O8 0.108752 0.000000 0.556269
O O9 0.675800 0.500000 0.830711
O O10 0.750000 0.750000 0.829845
O O11 0.629592 0.734293 0.757832
O O12 0.627108 0.740818 0.896778
O O13 0.750000 0.250000 0.088132
O O14 0.677890 0.000000 0.098495
O O15 0.618212 0.225291 0.036565
O O16 0.500000 0.788746 0.706805
O O17 0.594474 0.000000 0.706270
O O18 0.088806 0.500000 0.952758
O O19 0.000000 0.721704 0.957105
O O20 0.500000 0.211685 0.392883
O O21 0.407625 0.000000 0.407427
#
# Coordination Sequence:
#
# PCOD9349366 Si02
#       7
#     8   8   8   8   8   8   8
#     4   9  18  32  50  73 102 137 176 217 262 313
#     4   9  17  30  50  77 107 138 174 216 263 314
#     4  12  25  40  58  80 109 143 179 218 263 316
#     4   9  18  33  53  76 103 138 177 217 263 314
#     4  10  20  36  59  84 110 140 176 219 266 316
#     4  10  21  37  57  82 111 141 176 219 266 316
#     4   9  17  30  49  73 101 134 174 219 265 313
#
# _framework density 18.074687999999998
#
# number of rings (size 3 to 8) (size 9 to 14) (size 15 to 20)
#    0.000    2.286    0.000    3.000    0.000    7.429 
#    0.000    3.571    0.000    1.714    0.000    6.000 
#    0.000    0.000    0.000    0.000    0.000    0.000 
#
# Total GULP energy -156252.556871 kJ/mol
# GULP energy per Si atom -5580.448460 kJ/mol
# Density = 1.803355 g / cm^3
# Si number density = 18.074688 Si / 1000 Ang^3
#
#
#
# Elastic Constant Matrix: (Units=GPa)
#
#
# Indices 1 2 3 4 5 6 
#
# 1 84.8191 49.2795 86.1169 0.0000 0.0000 0.0000
# 2 49.2795 55.1664 62.6227 0.0000 0.0000 0.0000
# 3 86.1169 62.6227 178.7786 0.0000 0.0000 0.0000
# 4 0.0000 0.0000 0.0000 4.1415 0.0000 0.0000
# 5 0.0000 0.0000 0.0000 0.0000 185.6491 0.0000
# 6 0.0000 0.0000 0.0000 0.0000 0.0000 24.4839
#
#
#
# Elastic Compliance Matrix: (Units=1/GPa)
#
#
# Indices 1 2 3 4 5 6 
#
# 1 0.030919 -0.017785 -0.008664 0.000000 0.000000 0.000000
# 2 -0.017785 0.040322 -0.005557 0.000000 0.000000 0.000000
# 3 -0.008664 -0.005557 0.011714 0.000000 0.000000 0.000000
# 4 0.000000 0.000000 0.000000 0.241459 0.000000 0.000000
# 5 0.000000 0.000000 0.000000 0.000000 0.005387 0.000000
# 6 0.000000 0.000000 0.000000 0.000000 0.000000 0.040843
#
#
# Mechanical properties :
#
#
# Convention : Reuss Voigt Hill
#
# Bulk Modulus (GPa) = 52.79005 79.42247 66.10626
# Shear Modulus (GPa) = 11.33864 50.90457 31.12161
#
# Velocity S-wave (km/s) = 2.50736 5.31268 4.15400
# Velocity P-wave (km/s) = 6.13616 9.03712 7.72405
#
# Compressibility (1/GPa) = 0.01894296
#
# Stress axis : x y z
#
# Youngs Moduli (GPa) = 32.34243 24.80028 85.37133
#
# Poissons Ratio (x) = 0.44106 0.73966
# Poissons Ratio (y) = 0.57520 0.47443
# Poissons Ratio (z) = 0.28022 0.13782
#
# Static dielectric constant tensor:
#      x y z
#    x 1.585960 0.000000 0.000000 
#    y 0.000000 1.608440 0.000000 
#    z 0.000000 0.000000 1.622120 
# 
# From -- ./inp_files/17407.got.cif
#   From: 2010.05.17/outbox.cif.g08.bks.cpg/sg35_9_cif.got.tgz:17407.got - 2010.06.03 17:29:28.
