data_PCOD9349145
_publ_section_title
;
Structure prediction by ZEFSAII (Michael W. Deem and Ramdas Pophale) SiO2 
 PCOD9349145
Probable space group: C M M 2
;
_chemical_formula_sum "Si O2"
_cell_formula_units_Z 64
_cell_length_a 18.191570
_cell_length_b 32.381888
_cell_length_c 5.271466
_cell_angle_alpha 90.000000
_cell_angle_beta 90.000000
_cell_angle_gamma 90.000000
_cell_volume 3105.301392
_symmetry_space_group_name_H-M "C M M 2"
_symmetry_group_IT_number 35
_symmetry_cell_setting 'orthorhombic'
loop_
_space_group_symop_operation_xyz
x,y,z
-x,-y,z
-x,y,z
x,-y,z
1/2+x,1/2+y,z
1/2-x,1/2-y,z
1/2-x,1/2+y,z
1/2+x,1/2-y,z
loop_
_atom_site_type_symbol
_atom_site_label
_atom_site_fract_x
_atom_site_fract_y
_atom_site_fract_z
Si Si1 0.175208 0.265852 0.618450
Si Si2 0.790903 0.911391 0.127360
Si Si3 0.776959 0.549013 0.628930
Si Si4 0.311244 0.160968 0.269674
Si Si5 0.912615 0.193515 0.413167
Si Si6 0.078472 0.685436 0.913794
Si Si7 0.415088 0.360104 0.909406
Si Si8 0.583383 0.894652 0.559356
O O1 0.250000 0.250000 0.751113
O O2 0.201659 0.310176 0.507482
O O3 0.147900 0.229692 0.429446
O O4 0.093840 0.277459 0.723263
O O5 0.773915 0.933011 0.398674
O O6 0.752649 0.866702 0.163318
O O7 0.869899 0.899299 0.015081
O O8 0.752713 0.937092 0.902974
O O9 0.780348 0.500000 0.606941
O O10 0.858124 0.569525 0.611977
O O11 0.347510 0.190627 0.068959
O O12 0.379076 0.129922 0.328825
O O13 0.908938 0.173355 0.134938
O O14 0.000000 0.204042 0.451489
O O15 0.892668 0.160685 0.640153
O O16 0.000000 0.689773 0.045682
O O17 0.080497 0.640996 0.774944
O O18 0.500000 0.371737 0.880224
O O19 0.500000 0.908237 0.511317
#
# Coordination Sequence:
#
# PCOD9349145 Si02
#       8
#     8   8   8   8   8   8   8   8
#     4  11  24  35  51  79 116 155 203 257 304 354
#     4  11  22  41  67  88 125 158 202 249 294 367
#     4  11  23  40  64  97 126 158 191 240 309 363
#     4  10  21  35  57  83 110 160 205 248 295 354
#     4  10  22  39  56  85 121 157 201 259 311 351
#     4  10  20  35  55  78 107 151 202 244 294 350
#     4  10  22  40  65  88 115 158 207 249 302 365
#     4   9  19  37  57  84 117 154 199 243 285 355
#
# _framework density 20.609915000000001
#
# number of rings (size 3 to 8) (size 9 to 14) (size 15 to 20)
#    0.000    1.750    1.250    2.625    3.500    2.250 
#    0.000    0.000    0.000    3.750    0.000    0.000 
#    0.000    0.000    0.000    0.000    0.000    0.000 
#
# Total GULP energy -178169.010613 kJ/mol
# GULP energy per Si atom -5567.781582 kJ/mol
# Density = 2.056301 g / cm^3
# Si number density = 20.609915 Si / 1000 Ang^3
#
#
#
# Elastic Constant Matrix: (Units=GPa)
#
#
# Indices 1 2 3 4 5 6 
#
# 1 73.8443 33.1619 -0.8723 0.0000 0.0000 0.0000
# 2 33.1619 66.6263 -0.7489 0.0000 0.0000 0.0000
# 3 -0.8723 -0.7489 62.6550 0.0000 0.0000 0.0000
# 4 0.0000 0.0000 0.0000 5.9835 0.0000 0.0000
# 5 0.0000 0.0000 0.0000 0.0000 9.2264 0.0000
# 6 0.0000 0.0000 0.0000 0.0000 0.0000 11.8245
#
#
#
# Elastic Compliance Matrix: (Units=1/GPa)
#
#
# Indices 1 2 3 4 5 6 
#
# 1 0.017441 -0.008680 0.000139 0.000000 0.000000 0.000000
# 2 -0.008680 0.019330 0.000110 0.000000 0.000000 0.000000
# 3 0.000139 0.000110 0.015964 0.000000 0.000000 0.000000
# 4 0.000000 0.000000 0.000000 0.167127 0.000000 0.000000
# 5 0.000000 0.000000 0.000000 0.000000 0.108385 0.000000
# 6 0.000000 0.000000 0.000000 0.000000 0.000000 0.084570
#
#
# Mechanical properties :
#
#
# Convention : Reuss Voigt Hill
#
# Bulk Modulus (GPa) = 27.87460 29.57857 28.72658
# Shear Modulus (GPa) = 11.32152 16.84586 14.08369
#
# Velocity S-wave (km/s) = 2.34631 2.86206 2.61692
# Velocity P-wave (km/s) = 4.57104 5.03037 4.80620
#
# Compressibility (1/GPa) = 0.03587496
#
# Stress axis : x y z
#
# Youngs Moduli (GPa) = 57.33456 51.73191 62.64227
#
# Poissons Ratio (x) = 0.44901 -0.00871
# Poissons Ratio (y) = 0.49764 -0.00690
# Poissons Ratio (z) = -0.00797 -0.00570
#
# Static dielectric constant tensor:
#      x y z
#    x 1.873520 0.000000 0.000000 
#    y 0.000000 1.746170 0.000000 
#    z 0.000000 0.000000 1.986890 
# 
# From -- ./inp_files/2733.got.cif
#   From: 2010.05.17/outbox.cif.g08.bks.cpg/sg35_2_cif.got.tgz:2733.got - 2010.06.03 17:29:28.
