data_PCOD9349127
_publ_section_title
;
Structure prediction by ZEFSAII (Michael W. Deem and Ramdas Pophale) SiO2 
 PCOD9349127
Probable space group: C M M 2
;
_chemical_formula_sum "Si O2"
_cell_formula_units_Z 64
_cell_length_a 8.993440
_cell_length_b 19.175517
_cell_length_c 21.262298
_cell_angle_alpha 90.000000
_cell_angle_beta 90.000000
_cell_angle_gamma 90.000000
_cell_volume 3666.765397
_symmetry_space_group_name_H-M "C M M 2"
_symmetry_group_IT_number 35
_symmetry_cell_setting 'orthorhombic'
loop_
_space_group_symop_operation_xyz
x,y,z
-x,-y,z
-x,y,z
x,-y,z
1/2+x,1/2+y,z
1/2-x,1/2-y,z
1/2-x,1/2+y,z
1/2+x,1/2-y,z
loop_
_atom_site_type_symbol
_atom_site_label
_atom_site_fract_x
_atom_site_fract_y
_atom_site_fract_z
Si Si1 0.819991 0.582304 0.066700
Si Si2 0.321063 0.674184 0.451879
Si Si3 0.321976 0.673650 0.593778
Si Si4 0.671829 0.915278 0.207319
Si Si5 0.321217 0.326526 0.956468
Si Si6 0.675370 0.916906 0.702153
Si Si7 0.678834 0.419268 0.335214
Si Si8 0.821944 0.918787 0.834851
O O1 0.783533 0.500000 0.058386
O O2 0.775307 0.604943 0.137585
O O3 0.000000 0.587937 0.062919
O O4 0.742685 0.629193 0.014605
O O5 0.500000 0.680179 0.448446
O O6 0.250000 0.750000 0.444479
O O7 0.285631 0.648710 0.522611
O O8 0.270723 0.624387 0.395534
O O9 0.500000 0.678680 0.599259
O O10 0.250000 0.750000 0.600780
O O11 0.257552 0.623658 0.646856
O O12 0.500000 0.894395 0.214028
O O13 0.761234 0.891910 0.268480
O O14 0.676144 0.000000 0.206710
O O15 0.500000 0.321729 0.960796
O O16 0.250000 0.250000 0.955382
O O17 0.283426 0.369140 0.892900
O O18 0.500000 0.902040 0.700308
O O19 0.741176 0.898183 0.770439
O O20 0.697089 0.000000 0.694657
O O21 0.500000 0.417935 0.333558
O O22 0.725731 0.500000 0.341828
O O23 0.000000 0.915517 0.825286
O O24 0.784258 0.000000 0.849002
#
# Coordination Sequence:
#
# PCOD9349127 Si02
#       8
#     8   8   8   8   8   8   8   8
#     4   9  18  34  56  79 104 136 173 213 258 309
#     4   9  19  34  51  72  99 133 171 209 252 303
#     4  10  20  35  55  76 102 138 176 215 259 308
#     4   8  15  29  49  74 102 131 165 205 251 303
#     4  11  23  37  54  78 108 139 173 214 257 303
#     4  10  21  36  55  81 110 137 169 211 255 302
#     4   9  17  30  49  74 102 130 165 210 254 297
#     4   9  19  37  58  78 102 135 174 213 255 305
#
# _framework density 17.454075
#
# number of rings (size 3 to 8) (size 9 to 14) (size 15 to 20)
#    0.000    2.625    0.000    2.250    0.000    5.000 
#    0.000    5.625    0.000    3.000    0.000    0.000 
#    0.000    0.000    0.000    0.000    0.000    0.000 
#
# Total GULP energy -178444.192366 kJ/mol
# GULP energy per Si atom -5576.381011 kJ/mol
# Density = 1.741435 g / cm^3
# Si number density = 17.454075 Si / 1000 Ang^3
#
#
#
# Elastic Constant Matrix: (Units=GPa)
#
#
# Indices 1 2 3 4 5 6 
#
# 1 44.4983 43.9665 74.3646 0.0000 0.0000 0.0000
# 2 43.9665 74.6329 96.1129 0.0000 0.0000 0.0000
# 3 74.3646 96.1129 206.4279 0.0000 0.0000 0.0000
# 4 0.0000 0.0000 0.0000 -28.4451 0.0000 0.0000
# 5 0.0000 0.0000 0.0000 0.0000 28.5402 0.0000
# 6 0.0000 0.0000 0.0000 0.0000 0.0000 24.4874
#
#
#
# Elastic Compliance Matrix: (Units=1/GPa)
#
#
# Indices 1 2 3 4 5 6 
#
# 1 0.067622 -0.021141 -0.014517 0.000000 0.000000 0.000000
# 2 -0.021141 0.040074 -0.011042 0.000000 0.000000 0.000000
# 3 -0.014517 -0.011042 0.015215 0.000000 0.000000 0.000000
# 4 0.000000 0.000000 0.000000 -0.035155 0.000000 0.000000
# 5 0.000000 0.000000 0.000000 0.000000 0.035038 0.000000
# 6 0.000000 0.000000 0.000000 0.000000 0.000000 0.040837
#
#
# Mechanical properties :
#
#
# Convention : Reuss Voigt Hill
#
# Bulk Modulus (GPa) = 33.88696 83.82745 58.85721
# Shear Modulus (GPa) = 18.73581 12.32416 15.52998
#
# Velocity S-wave (km/s) = 3.27989 2.66012 2.98612
# Velocity P-wave (km/s) = 5.81383 7.58727 6.75897
#
# Compressibility (1/GPa) = 0.02950987
#
# Stress axis : x y z
#
# Youngs Moduli (GPa) = 14.78811 24.95412 65.72285
#
# Poissons Ratio (x) = 0.52755 0.95412
# Poissons Ratio (y) = 0.31263 0.72574
# Poissons Ratio (z) = 0.21468 0.27555
#
# Static dielectric constant tensor:
#      x y z
#    x 1.585170 0.000000 0.000000 
#    y 0.000000 1.570710 0.000000 
#    z 0.000000 0.000000 1.592500 
# 
# From -- ./inp_files/18351.got.cif
#   From: 2010.05.17/outbox.cif.g08.bks.cpg/sg35_10_cif.got.tgz:18351.got - 2010.06.03 17:29:28.
