data_PCOD9349491
_publ_section_title
;
Structure prediction by ZEFSAII (Michael W. Deem and Ramdas Pophale) SiO2 
 PCOD9349491
Probable space group: C M M 2
;
_chemical_formula_sum "Si O2"
_cell_formula_units_Z 56
_cell_length_a 19.457159
_cell_length_b 14.640142
_cell_length_c 9.665942
_cell_angle_alpha 90.000000
_cell_angle_beta 90.000000
_cell_angle_gamma 90.000000
_cell_volume 2753.397425
_symmetry_space_group_name_H-M "C M M 2"
_symmetry_group_IT_number 35
_symmetry_cell_setting 'orthorhombic'
loop_
_space_group_symop_operation_xyz
x,y,z
-x,-y,z
-x,y,z
x,-y,z
1/2+x,1/2+y,z
1/2-x,1/2-y,z
1/2-x,1/2+y,z
1/2+x,1/2-y,z
loop_
_atom_site_type_symbol
_atom_site_label
_atom_site_fract_x
_atom_site_fract_y
_atom_site_fract_z
Si Si1 0.078227 0.891364 0.581050
Si Si2 0.138321 0.276697 0.092968
Si Si3 0.837424 0.399089 0.622557
Si Si4 0.269176 0.396590 0.137682
Si Si5 0.781690 0.850467 0.447487
Si Si6 0.077679 0.261723 0.797264
Si Si7 0.419383 0.103871 0.335938
O O1 0.137660 0.854697 0.479682
O O2 0.084499 0.837573 0.726226
O O3 0.000000 0.874139 0.530178
O O4 0.086830 0.000000 0.595939
O O5 0.202333 0.347076 0.073624
O O6 0.169882 0.176286 0.116749
O O7 0.100821 0.319742 0.225391
O O8 0.090766 0.268554 0.959528
O O9 0.852387 0.500000 0.676590
O O10 0.758135 0.391006 0.579361
O O11 0.865050 0.323594 0.724883
O O12 0.877777 0.386306 0.477777
O O13 0.279208 0.500000 0.087174
O O14 0.262379 0.399515 0.304796
O O15 0.750000 0.750000 0.431401
O O16 0.000000 0.294038 0.764905
O O17 0.500000 0.109484 0.366369
O O18 0.405293 0.000000 0.282010
#
# Coordination Sequence:
#
# PCOD9349491 Si02
#       7
#     8   8   8   8   8   8   8
#     4  10  23  43  67  95 132 178 221 266 325 391
#     4  11  23  40  62  91 125 171 213 265 326 388
#     4  11  22  38  64  96 128 166 210 267 328 385
#     4  11  23  41  64  93 127 164 214 277 330 385
#     4  12  20  40  70 101 132 165 213 275 334 381
#     4  11  25  43  62  91 133 174 217 269 323 388
#     4  10  20  37  63  93 126 169 218 263 320 393
#
# _framework density 20.338511
#
# number of rings (size 3 to 8) (size 9 to 14) (size 15 to 20)
#    0.000    1.143    4.286    2.571    0.000    4.857 
#    0.000    0.714    0.000    2.143    0.000    0.000 
#    0.000    0.000    0.000    0.000    0.000    0.000 
#
# Total GULP energy -156421.203622 kJ/mol
# GULP energy per Si atom -5586.471558 kJ/mol
# Density = 2.029222 g / cm^3
# Si number density = 20.338511 Si / 1000 Ang^3
#
#
#
# Elastic Constant Matrix: (Units=GPa)
#
#
# Indices 1 2 3 4 5 6 
#
# 1 100.2660 30.9173 12.2902 0.0000 0.0000 0.0000
# 2 30.9173 128.4034 8.2946 0.0000 0.0000 0.0000
# 3 12.2902 8.2946 29.6570 0.0000 0.0000 0.0000
# 4 0.0000 0.0000 0.0000 2.5970 0.0000 0.0000
# 5 0.0000 0.0000 0.0000 0.0000 30.8717 0.0000
# 6 0.0000 0.0000 0.0000 0.0000 0.0000 25.6890
#
#
#
# Elastic Compliance Matrix: (Units=1/GPa)
#
#
# Indices 1 2 3 4 5 6 
#
# 1 0.011213 -0.002444 -0.003963 0.000000 0.000000 0.000000
# 2 -0.002444 0.008464 -0.001354 0.000000 0.000000 0.000000
# 3 -0.003963 -0.001354 0.035740 0.000000 0.000000 0.000000
# 4 0.000000 0.000000 0.000000 0.385060 0.000000 0.000000
# 5 0.000000 0.000000 0.000000 0.000000 0.032392 0.000000
# 6 0.000000 0.000000 0.000000 0.000000 0.000000 0.038927
#
#
# Mechanical properties :
#
#
# Convention : Reuss Voigt Hill
#
# Bulk Modulus (GPa) = 25.06658 40.14784 32.60721
# Shear Modulus (GPa) = 9.24869 25.61983 17.43426
#
# Velocity S-wave (km/s) = 2.13477 3.55303 2.93098
# Velocity P-wave (km/s) = 4.29276 6.05101 5.24607
#
# Compressibility (1/GPa) = 0.03989375
#
# Stress axis : x y z
#
# Youngs Moduli (GPa) = 89.18353 118.14902 27.97980
#
# Poissons Ratio (x) = 0.28874 0.11089
# Poissons Ratio (y) = 0.21795 0.03790
# Poissons Ratio (z) = 0.35345 0.16003
#
# Static dielectric constant tensor:
#      x y z
#    x 1.749210 0.000000 0.000000 
#    y 0.000000 1.746120 0.000000 
#    z 0.000000 0.000000 1.691150 
# 
# From -- ./inp_files/7664.got.cif
#   From: 2010.05.17/outbox.cif.g08.bks.cpg/sg35_4_cif.got.tgz:7664.got - 2010.06.03 17:29:28.
