data_PCOD9349394
_publ_section_title
;
Structure prediction by ZEFSAII (Michael W. Deem and Ramdas Pophale) SiO2 
 PCOD9349394
Probable space group: C M M 2
;
_chemical_formula_sum "Si O2"
_cell_formula_units_Z 56
_cell_length_a 20.559398
_cell_length_b 17.272032
_cell_length_c 7.628728
_cell_angle_alpha 90.000000
_cell_angle_beta 90.000000
_cell_angle_gamma 90.000000
_cell_volume 2708.980996
_symmetry_space_group_name_H-M "C M M 2"
_symmetry_group_IT_number 35
_symmetry_cell_setting 'orthorhombic'
loop_
_space_group_symop_operation_xyz
x,y,z
-x,-y,z
-x,y,z
x,-y,z
1/2+x,1/2+y,z
1/2-x,1/2-y,z
1/2-x,1/2+y,z
1/2+x,1/2-y,z
loop_
_atom_site_type_symbol
_atom_site_label
_atom_site_fract_x
_atom_site_fract_y
_atom_site_fract_z
Si Si1 0.363448 0.410855 0.978150
Si Si2 0.840556 0.282364 0.548696
Si Si3 0.233715 0.412828 0.750742
Si Si4 0.277920 0.676554 0.242933
Si Si5 0.150549 0.371021 0.085752
Si Si6 0.575574 0.738981 0.882536
Si Si7 0.076153 0.582157 0.387255
O O1 0.382304 0.500000 0.991021
O O2 0.305434 0.403944 0.833877
O O3 0.419646 0.350469 0.936783
O O4 0.329424 0.378829 0.153997
O O5 0.785461 0.340121 0.629464
O O6 0.812126 0.221150 0.406242
O O7 0.881397 0.245513 0.706532
O O8 0.891495 0.341672 0.463780
O O9 0.230613 0.500000 0.674263
O O10 0.183472 0.406780 0.913762
O O11 0.250000 0.750000 0.128073
O O12 0.209436 0.630526 0.231551
O O13 0.094326 0.416963 0.182845
O O14 0.115050 0.291721 0.023252
O O15 0.500000 0.763029 0.864559
O O16 0.099407 0.500000 0.464791
O O17 0.000000 0.586476 0.413994
#
# Coordination Sequence:
#
# PCOD9349394 Si02
#       7
#     8   8   8   8   8   8   8
#     4  10  22  40  62  88 116 147 195 253 301 348
#     4  11  23  36  58  86 121 154 191 239 298 363
#     4   9  20  36  57  87 117 148 188 241 300 354
#     4  11  20  38  61  92 115 148 186 243 308 356
#     4  10  20  36  60  83 112 151 202 247 291 344
#     4  11  23  39  61  84 114 159 205 246 291 354
#     4  11  22  34  50  78 118 159 195 233 281 344
#
# _framework density 20.671979
#
# number of rings (size 3 to 8) (size 9 to 14) (size 15 to 20)
#    0.000    1.571    2.857    1.714    2.000    0.857 
#    0.000    1.429    0.000    6.857    0.000    0.000 
#    0.000    0.000    0.000    0.000    0.000    0.000 
#
# Total GULP energy -155927.840124 kJ/mol
# GULP energy per Si atom -5568.851433 kJ/mol
# Density = 2.062493 g / cm^3
# Si number density = 20.671979 Si / 1000 Ang^3
#
#
#
# Elastic Constant Matrix: (Units=GPa)
#
#
# Indices 1 2 3 4 5 6 
#
# 1 94.2670 43.2829 38.6364 0.0000 0.0000 0.0000
# 2 43.2829 124.8376 52.4942 0.0000 0.0000 0.0000
# 3 38.6364 52.4942 84.9218 0.0000 0.0000 0.0000
# 4 0.0000 0.0000 0.0000 12.4830 0.0000 0.0000
# 5 0.0000 0.0000 0.0000 0.0000 21.9542 0.0000
# 6 0.0000 0.0000 0.0000 0.0000 0.0000 21.9608
#
#
#
# Elastic Compliance Matrix: (Units=1/GPa)
#
#
# Indices 1 2 3 4 5 6 
#
# 1 0.013771 -0.002892 -0.004478 0.000000 0.000000 0.000000
# 2 -0.002892 0.011431 -0.005750 0.000000 0.000000 0.000000
# 3 -0.004478 -0.005750 0.017367 0.000000 0.000000 0.000000
# 4 0.000000 0.000000 0.000000 0.080109 0.000000 0.000000
# 5 0.000000 0.000000 0.000000 0.000000 0.045549 0.000000
# 6 0.000000 0.000000 0.000000 0.000000 0.000000 0.045536
#
#
# Mechanical properties :
#
#
# Convention : Reuss Voigt Hill
#
# Bulk Modulus (GPa) = 61.23852 63.65037 62.44445
# Shear Modulus (GPa) = 20.37096 22.58711 21.47903
#
# Velocity S-wave (km/s) = 3.14257 3.30910 3.22691
# Velocity P-wave (km/s) = 6.54644 6.74223 6.64506
#
# Compressibility (1/GPa) = 0.01632959
#
# Stress axis : x y z
#
# Youngs Moduli (GPa) = 72.61517 87.48093 57.57891
#
# Poissons Ratio (x) = 0.25297 0.25783
# Poissons Ratio (y) = 0.20998 0.33111
# Poissons Ratio (z) = 0.32517 0.50306
#
# Static dielectric constant tensor:
#      x y z
#    x 1.746560 0.000000 0.000000 
#    y 0.000000 1.811850 0.000000 
#    z 0.000000 0.000000 1.834650 
# 
# From -- ./inp_files/9384.got.cif
#   From: 2010.05.17/outbox.cif.g08.bks.cpg/sg35_5_cif.got.tgz:9384.got - 2010.06.03 17:29:28.
