data_PCOD9349247
_publ_section_title
;
Structure prediction by ZEFSAII (Michael W. Deem and Ramdas Pophale) SiO2 
 PCOD9349247
Probable space group: C M M 2
;
_chemical_formula_sum "Si O2"
_cell_formula_units_Z 48
_cell_length_a 8.767434
_cell_length_b 18.381174
_cell_length_c 16.000284
_cell_angle_alpha 90.000000
_cell_angle_beta 90.000000
_cell_angle_gamma 90.000000
_cell_volume 2578.537446
_symmetry_space_group_name_H-M "C M M 2"
_symmetry_group_IT_number 35
_symmetry_cell_setting 'orthorhombic'
loop_
_space_group_symop_operation_xyz
x,y,z
-x,-y,z
-x,y,z
x,-y,z
1/2+x,1/2+y,z
1/2-x,1/2-y,z
1/2-x,1/2+y,z
1/2+x,1/2-y,z
loop_
_atom_site_type_symbol
_atom_site_label
_atom_site_fract_x
_atom_site_fract_y
_atom_site_fract_z
Si Si1 0.183025 0.830797 0.592220
Si Si2 0.682554 0.085294 0.433368
Si Si3 0.183127 0.085251 0.762536
Si Si4 0.317123 0.331659 0.275831
Si Si5 0.817522 0.168393 0.090152
Si Si6 0.318483 0.831537 0.919677
O O1 0.250000 0.750000 0.595032
O O2 0.247552 0.872698 0.512111
O O3 0.224275 0.873625 0.676962
O O4 0.000000 0.827592 0.586609
O O5 0.500000 0.093282 0.434279
O O6 0.747913 0.119808 0.348698
O O7 0.720615 0.000000 0.438344
O O8 0.265052 0.121814 0.840967
O O9 0.000000 0.092296 0.773693
O O10 0.219675 0.000000 0.756044
O O11 0.500000 0.327437 0.283948
O O12 0.250000 0.250000 0.282288
O O13 0.282561 0.361848 0.182441
O O14 0.750000 0.250000 0.092546
O O15 0.000000 0.171212 0.080520
O O16 0.744732 0.135370 0.006801
O O17 0.500000 0.826210 0.923622
O O18 0.250000 0.750000 0.911095
#
# Coordination Sequence:
#
# PCOD9349247 Si02
#       6
#     8   8   8   8   8   8
#     4  11  23  40  63  88 113 144 184 229 276 329
#     4  11  24  40  58  82 114 150 186 229 280 331
#     4  10  22  40  60  83 113 148 185 228 279 332
#     4  10  20  35  58  85 113 147 188 233 279 330
#     4   9  17  31  53  81 111 145 186 233 281 326
#     4  11  21  34  56  84 114 149 189 233 279 329
#
# _framework density 18.615203000000001
#
# number of rings (size 3 to 8) (size 9 to 14) (size 15 to 20)
#    0.000    1.667    0.000    6.000    0.000    7.000 
#    0.000    0.833    0.000    1.000    0.000    0.000 
#    0.000    0.000    0.000    0.000    0.000    0.000 
#
# Total GULP energy -134076.563011 kJ/mol
# GULP energy per Si atom -5586.523459 kJ/mol
# Density = 1.857283 g / cm^3
# Si number density = 18.615203 Si / 1000 Ang^3
#
#
#
# Elastic Constant Matrix: (Units=GPa)
#
#
# Indices 1 2 3 4 5 6 
#
# 1 89.9054 65.1608 91.5299 0.0000 0.0000 0.0000
# 2 65.1608 117.0875 100.4622 0.0000 0.0000 0.0000
# 3 91.5299 100.4622 224.0005 0.0000 0.0000 0.0000
# 4 0.0000 0.0000 0.0000 -15.1860 0.0000 0.0000
# 5 0.0000 0.0000 0.0000 0.0000 25.3560 0.0000
# 6 0.0000 0.0000 0.0000 0.0000 0.0000 17.3455
#
#
#
# Elastic Compliance Matrix: (Units=1/GPa)
#
#
# Indices 1 2 3 4 5 6 
#
# 1 0.022505 -0.007533 -0.005817 0.000000 0.000000 0.000000
# 2 -0.007533 0.016404 -0.004279 0.000000 0.000000 0.000000
# 3 -0.005817 -0.004279 0.008761 0.000000 0.000000 0.000000
# 4 0.000000 0.000000 0.000000 -0.065850 0.000000 0.000000
# 5 0.000000 0.000000 0.000000 0.000000 0.039438 0.000000
# 6 0.000000 0.000000 0.000000 0.000000 0.000000 0.057652
#
#
# Mechanical properties :
#
#
# Convention : Reuss Voigt Hill
#
# Bulk Modulus (GPa) = 80.57453 105.03324 92.80388
# Shear Modulus (GPa) = 42.26325 17.09245 29.67785
#
# Velocity S-wave (km/s) = 4.77000 3.03347 3.99718
# Velocity P-wave (km/s) = 8.58577 8.29549 8.44188
#
# Compressibility (1/GPa) = 0.01241087
#
# Stress axis : x y z
#
# Youngs Moduli (GPa) = 44.43470 60.95956 114.14872
#
# Poissons Ratio (x) = 0.45920 0.66405
# Poissons Ratio (y) = 0.33472 0.48846
# Poissons Ratio (z) = 0.25849 0.26085
#
# Static dielectric constant tensor:
#      x y z
#    x 1.621550 0.000000 0.000000 
#    y 0.000000 1.602730 0.000000 
#    z 0.000000 0.000000 1.652170 
# 
# From -- ./inp_files/15130.got.cif
#   From: 2010.05.17/outbox.cif.g08.bks.cpg/sg35_8_cif.got.tgz:15130.got - 2010.06.03 17:29:28.
