data_PCOD9349535
_publ_section_title
;
Structure prediction by ZEFSAII (Michael W. Deem and Ramdas Pophale) SiO2 
 PCOD9349535
Probable space group: C M M 2
;
_chemical_formula_sum "Si O2"
_cell_formula_units_Z 40
_cell_length_a 8.676587
_cell_length_b 15.820161
_cell_length_c 14.788547
_cell_angle_alpha 90.000000
_cell_angle_beta 90.000000
_cell_angle_gamma 90.000000
_cell_volume 2029.949952
_symmetry_space_group_name_H-M "C M M 2"
_symmetry_group_IT_number 35
_symmetry_cell_setting 'orthorhombic'
loop_
_space_group_symop_operation_xyz
x,y,z
-x,-y,z
-x,y,z
x,-y,z
1/2+x,1/2+y,z
1/2-x,1/2-y,z
1/2-x,1/2+y,z
1/2+x,1/2-y,z
loop_
_atom_site_type_symbol
_atom_site_label
_atom_site_fract_x
_atom_site_fract_y
_atom_site_fract_z
Si Si1 0.677709 0.598214 0.152420
Si Si2 0.685782 0.655145 0.530727
Si Si3 0.317057 0.161099 0.970935
Si Si4 0.315660 0.155445 0.336985
Si Si5 0.812853 0.000000 0.656916
Si Si6 0.814558 0.000000 0.865866
O O1 0.500000 0.627021 0.157968
O O2 0.678214 0.500000 0.125099
O O3 0.756226 0.606085 0.249764
O O4 0.766107 0.648726 0.075111
O O5 0.500000 0.659849 0.527869
O O6 0.750000 0.750000 0.547239
O O7 0.747373 0.625737 0.432687
O O8 0.734360 0.585200 0.604136
O O9 0.500000 0.160749 0.964651
O O10 0.250000 0.250000 0.937853
O O11 0.247837 0.083132 0.915382
O O12 0.500000 0.156097 0.340907
O O13 0.250000 0.250000 0.325586
O O14 0.764854 0.000000 0.761065
O O15 0.000000 0.000000 0.655647
O O16 0.000000 0.000000 0.870591
#
# Coordination Sequence:
#
# PCOD9349535 Si02
#       6
#     8   8   8   8   4   4
#     4  11  23  39  61  89 125 167 208 254 309 368
#     4  10  20  39  62  90 123 163 207 253 307 366
#     4  12  25  43  67  95 128 167 210 258 313 374
#     4  11  22  37  57  86 123 163 207 254 302 361
#     4   9  22  41  66  91 122 161 201 252 316 377
#     4  11  23  45  68  95 128 161 207 262 320 379
#
# _framework density 19.704920000000001
#
# number of rings (size 3 to 8) (size 9 to 14) (size 15 to 20)
#    0.000    1.200    1.000    6.900    1.400    2.000 
#    0.000    7.500    0.000    0.000    0.000    0.000 
#    0.000    0.000    0.000    0.000    0.000    0.000 
#
# Total GULP energy -111844.594825 kJ/mol
# GULP energy per Si atom -5592.229741 kJ/mol
# Density = 1.966007 g / cm^3
# Si number density = 19.704920 Si / 1000 Ang^3
#
#
#
# Elastic Constant Matrix: (Units=GPa)
#
#
# Indices 1 2 3 4 5 6 
#
# 1 153.7900 54.6296 54.5531 0.0000 0.0000 0.0000
# 2 54.6296 130.1264 82.9289 0.0000 0.0000 0.0000
# 3 54.5531 82.9289 144.4040 0.0000 0.0000 0.0000
# 4 0.0000 0.0000 0.0000 0.3890 0.0000 0.0000
# 5 0.0000 0.0000 0.0000 0.0000 19.3180 0.0000
# 6 0.0000 0.0000 0.0000 0.0000 0.0000 32.3876
#
#
#
# Elastic Compliance Matrix: (Units=1/GPa)
#
#
# Indices 1 2 3 4 5 6 
#
# 1 0.007899 -0.002231 -0.001703 0.000000 0.000000 0.000000
# 2 -0.002231 0.012751 -0.006480 0.000000 0.000000 0.000000
# 3 -0.001703 -0.006480 0.011290 0.000000 0.000000 0.000000
# 4 0.000000 0.000000 0.000000 2.570724 0.000000 0.000000
# 5 0.000000 0.000000 0.000000 0.000000 0.051765 0.000000
# 6 0.000000 0.000000 0.000000 0.000000 0.000000 0.030876
#
#
# Mechanical properties :
#
#
# Convention : Reuss Voigt Hill
#
# Bulk Modulus (GPa) = 89.99130 90.28262 90.13696
# Shear Modulus (GPa) = 1.84513 26.16617 14.00565
#
# Velocity S-wave (km/s) = 0.96872 3.64799 2.66892
# Velocity P-wave (km/s) = 6.85710 7.97876 7.43910
#
# Compressibility (1/GPa) = 0.01111219
#
# Stress axis : x y z
#
# Youngs Moduli (GPa) = 126.60024 78.42504 88.57655
#
# Poissons Ratio (x) = 0.17495 0.15084
# Poissons Ratio (y) = 0.28243 0.57397
# Poissons Ratio (z) = 0.21559 0.50819
#
# Static dielectric constant tensor:
#      x y z
#    x 1.661660 0.000000 0.000000 
#    y 0.000000 1.628010 0.000000 
#    z 0.000000 0.000000 1.682380 
# 
# From -- ./inp_files/14766.got.cif
#   From: 2010.05.17/outbox.cif.g08.bks.cpg/sg35_8_cif.got.tgz:14766.got - 2010.06.03 17:29:28.
