data_PCOD9349005
_publ_section_title
;
Structure prediction by ZEFSAII (Michael W. Deem and Ramdas Pophale) SiO2 
 PCOD9349005
Probable space group: C M M 2
;
_chemical_formula_sum "Si O2"
_cell_formula_units_Z 56
_cell_length_a 18.754831
_cell_length_b 8.012999
_cell_length_c 18.565885
_cell_angle_alpha 90.000000
_cell_angle_beta 90.000000
_cell_angle_gamma 90.000000
_cell_volume 2790.126537
_symmetry_space_group_name_H-M "C M M 2"
_symmetry_group_IT_number 35
_symmetry_cell_setting 'orthorhombic'
loop_
_space_group_symop_operation_xyz
x,y,z
-x,-y,z
-x,y,z
x,-y,z
1/2+x,1/2+y,z
1/2-x,1/2-y,z
1/2-x,1/2+y,z
1/2+x,1/2-y,z
loop_
_atom_site_type_symbol
_atom_site_label
_atom_site_fract_x
_atom_site_fract_y
_atom_site_fract_z
Si Si1 0.168394 0.199497 0.472150
Si Si2 0.418507 0.298989 0.890452
Si Si3 0.667681 0.800614 0.748528
Si Si4 0.080780 0.700294 0.610498
Si Si5 0.332491 0.298534 0.030611
Si Si6 0.831609 0.798654 0.310256
Si Si7 0.581989 0.295645 0.171719
O O1 0.250000 0.250000 0.487851
O O2 0.116700 0.262249 0.534190
O O3 0.151013 0.261596 0.391201
O O4 0.164847 0.000000 0.471345
O O5 0.500000 0.236577 0.888483
O O6 0.421609 0.500000 0.895695
O O7 0.375941 0.256193 0.818327
O O8 0.375475 0.237604 0.960478
O O9 0.750000 0.750000 0.752210
O O10 0.629548 0.735092 0.676012
O O11 0.665331 0.000000 0.746673
O O12 0.077606 0.500000 0.617787
O O13 0.000000 0.765360 0.614862
O O14 0.335939 0.500000 0.030428
O O15 0.250000 0.250000 0.028085
O O16 0.370917 0.240558 0.103749
O O17 0.750000 0.750000 0.294681
O O18 0.882862 0.739282 0.246663
O O19 0.835416 0.000000 0.311472
O O20 0.500000 0.243551 0.164786
O O21 0.582599 0.500000 0.171882
#
# Coordination Sequence:
#
# PCOD9349005 Si02
#       7
#     8   8   8   8   8   8   8
#     4  10  20  34  54  80 108 140 179 221 265 316
#     4  10  21  37  57  82 111 141 176 219 266 316
#     4  11  23  39  59  82 108 140 179 219 262 315
#     4  10  22  39  57  79 108 140 175 218 268 319
#     4  10  20  34  54  79 106 139 178 218 260 310
#     4   9  18  32  52  77 104 136 174 216 260 309
#     4   9  17  31  52  76 103 137 176 217 261 308
#
# _framework density 20.070774
#
# number of rings (size 3 to 8) (size 9 to 14) (size 15 to 20)
#    0.000    2.143    0.000    3.000    0.000    8.000 
#    0.000    1.429    0.000    2.571    0.000    0.000 
#    0.000    0.000    0.000    0.000    0.000    0.000 
#
# Total GULP energy -156406.172648 kJ/mol
# GULP energy per Si atom -5585.934737 kJ/mol
# Density = 2.002509 g / cm^3
# Si number density = 20.070774 Si / 1000 Ang^3
#
#
#
# Elastic Constant Matrix: (Units=GPa)
#
#
# Indices 1 2 3 4 5 6 
#
# 1 208.4306 9.3867 137.7020 0.0000 0.0000 0.0000
# 2 9.3867 16.3997 10.0420 0.0000 0.0000 0.0000
# 3 137.7020 10.0420 179.3086 0.0000 0.0000 0.0000
# 4 0.0000 0.0000 0.0000 -65.8094 0.0000 0.0000
# 5 0.0000 0.0000 0.0000 0.0000 48.7904 0.0000
# 6 0.0000 0.0000 0.0000 0.0000 0.0000 21.0004
#
#
#
# Elastic Compliance Matrix: (Units=1/GPa)
#
#
# Indices 1 2 3 4 5 6 
#
# 1 0.009756 -0.001032 -0.007434 0.000000 0.000000 0.000000
# 2 -0.001032 0.063251 -0.002750 0.000000 0.000000 0.000000
# 3 -0.007434 -0.002750 0.011440 0.000000 0.000000 0.000000
# 4 0.000000 0.000000 0.000000 -0.015195 0.000000 0.000000
# 5 0.000000 0.000000 0.000000 0.000000 0.020496 0.000000
# 6 0.000000 0.000000 0.000000 0.000000 0.000000 0.047618
#
#
# Mechanical properties :
#
#
# Convention : Reuss Voigt Hill
#
# Bulk Modulus (GPa) = 16.12505 79.82225 47.97365
# Shear Modulus (GPa) = 27.70550 17.26349 22.48449
#
# Velocity S-wave (km/s) = 3.71939 2.93598 3.35066
# Velocity P-wave (km/s) = 5.14749 7.16589 6.23886
#
# Compressibility (1/GPa) = 0.06201532
#
# Stress axis : x y z
#
# Youngs Moduli (GPa) = 102.50369 15.80995 87.41104
#
# Poissons Ratio (x) = 0.01631 0.64984
# Poissons Ratio (y) = 0.10576 0.24038
# Poissons Ratio (z) = 0.76204 0.04348
#
# Static dielectric constant tensor:
#      x y z
#    x 1.663780 0.000000 0.000000 
#    y 0.000000 1.739860 0.000000 
#    z 0.000000 0.000000 1.701850 
# 
# From -- ./inp_files/17418.got.cif
#   From: 2010.05.17/outbox.cif.g08.bks.cpg/sg35_9_cif.got.tgz:17418.got - 2010.06.03 17:29:28.
