data_PCOD9349413
_publ_section_title
;
Structure prediction by ZEFSAII (Michael W. Deem and Ramdas Pophale) SiO2 
 PCOD9349413
Probable space group: C M M 2
;
_chemical_formula_sum "Si O2"
_cell_formula_units_Z 40
_cell_length_a 14.150236
_cell_length_b 18.052081
_cell_length_c 7.397479
_cell_angle_alpha 90.000000
_cell_angle_beta 90.000000
_cell_angle_gamma 90.000000
_cell_volume 1889.620960
_symmetry_space_group_name_H-M "C M M 2"
_symmetry_group_IT_number 35
_symmetry_cell_setting 'orthorhombic'
loop_
_space_group_symop_operation_xyz
x,y,z
-x,-y,z
-x,y,z
x,-y,z
1/2+x,1/2+y,z
1/2-x,1/2-y,z
1/2-x,1/2+y,z
1/2+x,1/2-y,z
loop_
_atom_site_type_symbol
_atom_site_label
_atom_site_fract_x
_atom_site_fract_y
_atom_site_fract_z
Si Si1 0.800817 0.912595 0.472910
Si Si2 0.612490 0.697012 0.183941
Si Si3 0.215149 0.173715 0.804812
Si Si4 0.892897 0.640123 0.343580
Si Si5 0.603815 0.085821 0.940537
O O1 0.845392 0.868948 0.304468
O O2 0.837928 0.876388 0.658506
O O3 0.688725 0.893747 0.466100
O O4 0.816012 0.000000 0.463863
O O5 0.500000 0.690363 0.170877
O O6 0.631634 0.776007 0.280829
O O7 0.656857 0.693987 0.984304
O O8 0.250000 0.250000 0.715688
O O9 0.308218 0.130494 0.867737
O O10 0.000000 0.639282 0.417768
O O11 0.893174 0.593546 0.157684
O O12 0.500000 0.114860 0.884940
O O13 0.610928 0.000000 0.889350
#
# Coordination Sequence:
#
# PCOD9349413 Si02
#       5
#     8   8   8   8   8
#     4  12  26  42  64  97 134 171 214 265 323 385
#     4  11  24  45  69  92 124 171 225 274 316 369
#     4  12  23  40  68  96 131 170 215 263 323 386
#     4  10  20  40  68  96 126 164 207 259 325 390
#     4  10  20  36  62  96 130 162 200 254 323 390
#
# _framework density 21.168267
#
# number of rings (size 3 to 8) (size 9 to 14) (size 15 to 20)
#    0.000    1.000    4.000    3.000    0.000    4.000 
#    0.000    0.000    0.000    0.000    0.000    0.000 
#    0.000    0.000    0.000    0.000    0.000    0.000 
#
# Total GULP energy -111885.977935 kJ/mol
# GULP energy per Si atom -5594.298897 kJ/mol
# Density = 2.112009 g / cm^3
# Si number density = 21.168267 Si / 1000 Ang^3
#
#
#
# Elastic Constant Matrix: (Units=GPa)
#
#
# Indices 1 2 3 4 5 6 
#
# 1 62.7298 17.4803 1.1668 0.0000 0.0000 0.0000
# 2 17.4803 126.2456 17.3811 0.0000 0.0000 0.0000
# 3 1.1668 17.3811 66.6793 0.0000 0.0000 0.0000
# 4 0.0000 0.0000 0.0000 23.6854 0.0000 0.0000
# 5 0.0000 0.0000 0.0000 0.0000 -0.8588 0.0000
# 6 0.0000 0.0000 0.0000 0.0000 0.0000 18.5317
#
#
#
# Elastic Compliance Matrix: (Units=1/GPa)
#
#
# Indices 1 2 3 4 5 6 
#
# 1 0.016588 -0.002341 0.000320 0.000000 0.000000 0.000000
# 2 -0.002341 0.008546 -0.002187 0.000000 0.000000 0.000000
# 3 0.000320 -0.002187 0.015562 0.000000 0.000000 0.000000
# 4 0.000000 0.000000 0.000000 0.042220 0.000000 0.000000
# 5 0.000000 0.000000 0.000000 0.000000 -1.164428 0.000000
# 6 0.000000 0.000000 0.000000 0.000000 0.000000 0.053961
#
#
# Mechanical properties :
#
#
# Convention : Reuss Voigt Hill
#
# Bulk Modulus (GPa) = 30.97874 36.41235 33.69555
# Shear Modulus (GPa) = -4.95847 22.91344 8.97748
#
# Velocity S-wave (km/s) = -1.53215 3.29362 2.06161
# Velocity P-wave (km/s) = 3.39651 5.63051 4.64967
#
# Compressibility (1/GPa) = 0.03228020
#
# Stress axis : x y z
#
# Youngs Moduli (GPa) = 60.28556 117.01032 64.26078
#
# Poissons Ratio (x) = 0.27390 -0.02056
# Poissons Ratio (y) = 0.14112 0.14052
# Poissons Ratio (z) = -0.01929 0.25587
#
# Static dielectric constant tensor:
#      x y z
#    x 1.769150 0.000000 0.000000 
#    y 0.000000 1.743880 0.000000 
#    z 0.000000 0.000000 1.798320 
# 
# From -- ./inp_files/6990.got.cif
#   From: 2010.05.17/outbox.cif.g08.bks.cpg/sg35_4_cif.got.tgz:6990.got - 2010.06.03 17:29:28.
