data_PCOD9349006
_publ_section_title
;
Structure prediction by ZEFSAII (Michael W. Deem and Ramdas Pophale) SiO2 
 PCOD9349006
Probable space group: C M M 2
;
_chemical_formula_sum "Si O2"
_cell_formula_units_Z 48
_cell_length_a 30.827544
_cell_length_b 8.903776
_cell_length_c 9.612484
_cell_angle_alpha 90.000000
_cell_angle_beta 90.000000
_cell_angle_gamma 90.000000
_cell_volume 2638.449473
_symmetry_space_group_name_H-M "C M M 2"
_symmetry_group_IT_number 35
_symmetry_cell_setting 'orthorhombic'
loop_
_space_group_symop_operation_xyz
x,y,z
-x,-y,z
-x,y,z
x,-y,z
1/2+x,1/2+y,z
1/2-x,1/2-y,z
1/2-x,1/2+y,z
1/2+x,1/2-y,z
loop_
_atom_site_type_symbol
_atom_site_label
_atom_site_fract_x
_atom_site_fract_y
_atom_site_fract_z
Si Si1 0.429544 0.333815 0.244770
Si Si2 0.000000 0.669657 0.404843
Si Si3 0.126672 0.322926 0.033306
Si Si4 0.796799 0.320938 0.248602
Si Si5 0.354511 0.669584 0.474085
Si Si6 0.594457 0.821756 0.729522
Si Si7 0.500000 0.321640 0.697564
O O1 0.449452 0.500000 0.236277
O O2 0.459795 0.206847 0.307794
O O3 0.410384 0.279752 0.100008
O O4 0.390468 0.342690 0.353712
O O5 0.000000 0.500000 0.457481
O O6 0.000000 0.784733 0.532601
O O7 0.117973 0.500000 0.060715
O O8 0.170545 0.286575 0.119163
O O9 0.123287 0.301696 0.868493
O O10 0.793663 0.500000 0.258266
O O11 0.750000 0.250000 0.223885
O O12 0.816590 0.258054 0.393609
O O13 0.341034 0.500000 0.513398
O O14 0.378884 0.749819 0.601780
O O15 0.546108 0.749790 0.746623
O O16 0.588586 0.000000 0.705079
O O17 0.500000 0.500000 0.722190
#
# Coordination Sequence:
#
# PCOD9349006 Si02
#       7
#     8   4   8   8   8   8   4
#     4  10  20  34  54  79 109 143 188 238 285 334
#     4  12  22  33  54  79 108 148 194 242 290 339
#     4   9  21  39  58  82 115 153 193 234 288 351
#     4  10  20  38  63  89 116 147 189 239 291 352
#     4  10  20  35  57  84 114 147 186 235 286 343
#     4  11  22  38  59  84 116 158 199 240 290 345
#     4  12  24  37  54  81 116 154 198 246 290 341
#
# _framework density 18.192504
#
# number of rings (size 3 to 8) (size 9 to 14) (size 15 to 20)
#    0.000    1.667    1.667    3.500    0.000    4.000 
#    0.000    1.667    0.000    2.000    0.000    0.000 
#    0.000    0.000    0.000    0.000    0.000    0.000 
#
# Total GULP energy -133792.418060 kJ/mol
# GULP energy per Si atom -5574.684086 kJ/mol
# Density = 1.815110 g / cm^3
# Si number density = 18.192504 Si / 1000 Ang^3
#
#
#
# Elastic Constant Matrix: (Units=GPa)
#
#
# Indices 1 2 3 4 5 6 
#
# 1 93.5580 44.8799 36.0966 0.0000 0.0000 0.0000
# 2 44.8799 99.2966 48.3739 0.0000 0.0000 0.0000
# 3 36.0966 48.3739 98.6989 0.0000 0.0000 0.0000
# 4 0.0000 0.0000 0.0000 21.7641 0.0000 0.0000
# 5 0.0000 0.0000 0.0000 0.0000 38.5444 0.0000
# 6 0.0000 0.0000 0.0000 0.0000 0.0000 28.4124
#
#
#
# Elastic Compliance Matrix: (Units=1/GPa)
#
#
# Indices 1 2 3 4 5 6 
#
# 1 0.014169 -0.005096 -0.002684 0.000000 0.000000 0.000000
# 2 -0.005096 0.015063 -0.005519 0.000000 0.000000 0.000000
# 3 -0.002684 -0.005519 0.013818 0.000000 0.000000 0.000000
# 4 0.000000 0.000000 0.000000 0.045947 0.000000 0.000000
# 5 0.000000 0.000000 0.000000 0.000000 0.025944 0.000000
# 6 0.000000 0.000000 0.000000 0.000000 0.000000 0.035196
#
#
# Mechanical properties :
#
#
# Convention : Reuss Voigt Hill
#
# Bulk Modulus (GPa) = 60.78416 61.13935 60.96175
# Shear Modulus (GPa) = 27.43946 28.55772 27.99859
#
# Velocity S-wave (km/s) = 3.88788 3.96631 3.92729
# Velocity P-wave (km/s) = 7.32382 7.39292 7.35845
#
# Compressibility (1/GPa) = 0.01645165
#
# Stress axis : x y z
#
# Youngs Moduli (GPa) = 70.57715 66.38877 72.36822
#
# Poissons Ratio (x) = 0.33835 0.19424
# Poissons Ratio (y) = 0.35969 0.39937
# Poissons Ratio (z) = 0.18943 0.36637
#
# Static dielectric constant tensor:
#      x y z
#    x 1.603390 0.000000 0.000000 
#    y 0.000000 1.636670 0.000000 
#    z 0.000000 0.000000 1.596290 
# 
# From -- ./inp_files/5356.got.cif
#   From: 2010.05.17/outbox.cif.g08.bks.cpg/sg35_3_cif.got.tgz:5356.got - 2010.06.03 17:29:28.
