data_PCOD9349284
_publ_section_title
;
Structure prediction by ZEFSAII (Michael W. Deem and Ramdas Pophale) SiO2 
 PCOD9349284
Probable space group: C M M 2
;
_chemical_formula_sum "Si O2"
_cell_formula_units_Z 40
_cell_length_a 26.308319
_cell_length_b 17.580513
_cell_length_c 5.209741
_cell_angle_alpha 90.000000
_cell_angle_beta 90.000000
_cell_angle_gamma 90.000000
_cell_volume 2409.576816
_symmetry_space_group_name_H-M "C M M 2"
_symmetry_group_IT_number 35
_symmetry_cell_setting 'orthorhombic'
loop_
_space_group_symop_operation_xyz
x,y,z
-x,-y,z
-x,y,z
x,-y,z
1/2+x,1/2+y,z
1/2-x,1/2-y,z
1/2-x,1/2+y,z
1/2+x,1/2-y,z
loop_
_atom_site_type_symbol
_atom_site_label
_atom_site_fract_x
_atom_site_fract_y
_atom_site_fract_z
Si Si1 0.140819 0.912765 0.198990
Si Si2 0.884618 0.231762 0.911837
Si Si3 0.784309 0.324394 0.972906
Si Si4 0.751455 0.910200 0.463245
Si Si5 0.559948 0.310022 0.399882
O O1 0.189812 0.899318 0.377356
O O2 0.089477 0.889827 0.349871
O O3 0.141261 0.000000 0.113202
O O4 0.141553 0.850672 0.971606
O O5 0.840975 0.294397 0.919748
O O6 0.914940 0.226824 0.649222
O O7 0.923483 0.238260 0.150059
O O8 0.750000 0.250000 0.023977
O O9 0.762657 0.366862 0.723016
O O10 0.780279 0.376773 0.224028
O O11 0.743004 0.000000 0.494922
O O12 0.500000 0.318690 0.422263
#
# Coordination Sequence:
#
# PCOD9349284 Si02
#       5
#     8   8   8   8   8
#     4   9  21  36  51  77 112 150 187 220 265 316
#     4  10  21  35  54  79 101 147 185 230 268 322
#     4  12  20  36  57  80 111 146 189 221 281 328
#     4  11  23  36  55  82 116 149 184 224 270 336
#     4  10  20  36  52  76 108 143 189 232 272 311
#
# _framework density 16.600425999999999
#
# number of rings (size 3 to 8) (size 9 to 14) (size 15 to 20)
#    1.200    0.400    2.000    4.200    0.000    1.200 
#    0.000    0.000    0.000    0.000    0.000    0.000 
#    0.000   56.000    0.000    0.000    0.000    0.000 
#
# Total GULP energy -111499.060748 kJ/mol
# GULP energy per Si atom -5574.953037 kJ/mol
# Density = 1.656264 g / cm^3
# Si number density = 16.600426 Si / 1000 Ang^3
#
#
#
# Elastic Constant Matrix: (Units=GPa)
#
#
# Indices 1 2 3 4 5 6 
#
# 1 86.3457 33.3949 -0.7775 0.0000 0.0000 0.0000
# 2 33.3949 51.0979 8.8660 0.0000 0.0000 0.0000
# 3 -0.7775 8.8660 65.0517 0.0000 0.0000 0.0000
# 4 0.0000 0.0000 0.0000 18.0945 0.0000 0.0000
# 5 0.0000 0.0000 0.0000 0.0000 7.5772 0.0000
# 6 0.0000 0.0000 0.0000 0.0000 0.0000 15.6506
#
#
#
# Elastic Compliance Matrix: (Units=1/GPa)
#
#
# Indices 1 2 3 4 5 6 
#
# 1 0.015664 -0.010518 0.001621 0.000000 0.000000 0.000000
# 2 -0.010518 0.027107 -0.003820 0.000000 0.000000 0.000000
# 3 0.001621 -0.003820 0.015912 0.000000 0.000000 0.000000
# 4 0.000000 0.000000 0.000000 0.055265 0.000000 0.000000
# 5 0.000000 0.000000 0.000000 0.000000 0.131974 0.000000
# 6 0.000000 0.000000 0.000000 0.000000 0.000000 0.063895
#
#
# Mechanical properties :
#
#
# Convention : Reuss Voigt Hill
#
# Bulk Modulus (GPa) = 30.07687 31.71803 30.89745
# Shear Modulus (GPa) = 14.43681 18.99860 16.71770
#
# Velocity S-wave (km/s) = 2.95221 3.38666 3.17687
# Velocity P-wave (km/s) = 5.45694 5.86864 5.66653
#
# Compressibility (1/GPa) = 0.03324814
#
# Stress axis : x y z
#
# Youngs Moduli (GPa) = 63.84052 36.89025 62.84400
#
# Poissons Ratio (x) = 0.38803 -0.10186
# Poissons Ratio (y) = 0.67150 0.24008
# Poissons Ratio (z) = -0.10347 0.14093
#
# Static dielectric constant tensor:
#      x y z
#    x 1.549190 0.000000 0.000000 
#    y 0.000000 1.544370 0.000000 
#    z 0.000000 0.000000 1.571660 
# 
# From -- ./inp_files/3648.got.cif
#   From: 2010.05.17/outbox.cif.g08.bks.cpg/sg35_2_cif.got.tgz:3648.got - 2010.06.03 17:29:28.
