data_PCOD9349133
_publ_section_title
;
Structure prediction by ZEFSAII (Michael W. Deem and Ramdas Pophale) SiO2 
 PCOD9349133
Probable space group: C M M 2
;
_chemical_formula_sum "Si O2"
_cell_formula_units_Z 64
_cell_length_a 8.759071
_cell_length_b 19.349107
_cell_length_c 21.317782
_cell_angle_alpha 90.000000
_cell_angle_beta 90.000000
_cell_angle_gamma 90.000000
_cell_volume 3612.942000
_symmetry_space_group_name_H-M "C M M 2"
_symmetry_group_IT_number 35
_symmetry_cell_setting 'orthorhombic'
loop_
_space_group_symop_operation_xyz
x,y,z
-x,-y,z
-x,y,z
x,-y,z
1/2+x,1/2+y,z
1/2-x,1/2-y,z
1/2-x,1/2+y,z
1/2+x,1/2-y,z
loop_
_atom_site_type_symbol
_atom_site_label
_atom_site_fract_x
_atom_site_fract_y
_atom_site_fract_z
Si Si1 0.819018 0.418308 0.069730
Si Si2 0.683687 0.579561 0.702910
Si Si3 0.683206 0.326922 0.959147
Si Si4 0.817168 0.080847 0.205458
Si Si5 0.184150 0.826451 0.817790
Si Si6 0.176578 0.584018 0.572569
Si Si7 0.686244 0.920135 0.434489
Si Si8 0.183664 0.327026 0.316581
O O1 0.793668 0.500000 0.059266
O O2 0.750329 0.375485 0.012588
O O3 0.740488 0.400520 0.135893
O O4 0.000000 0.406182 0.074618
O O5 0.500000 0.579305 0.703608
O O6 0.735888 0.500000 0.709200
O O7 0.737871 0.624406 0.761735
O O8 0.737121 0.606499 0.635098
O O9 0.500000 0.324671 0.963862
O O10 0.750000 0.250000 0.966510
O O11 0.724397 0.350655 0.888275
O O12 0.742092 0.129889 0.256924
O O13 0.000000 0.086360 0.208270
O O14 0.775276 0.000000 0.216675
O O15 0.250000 0.750000 0.809692
O O16 0.000000 0.822999 0.815180
O O17 0.180516 0.500000 0.571433
O O18 0.237432 0.604072 0.503799
O O19 0.000000 0.605143 0.577684
O O20 0.500000 0.921236 0.436565
O O21 0.732369 0.869723 0.378651
O O22 0.734519 0.000000 0.423665
O O23 0.250000 0.250000 0.316716
O O24 0.000000 0.324081 0.315547
#
# Coordination Sequence:
#
# PCOD9349133 Si02
#       8
#     8   8   8   8   8   8   8   8
#     4  10  21  37  57  82 110 137 168 209 255 303
#     4   9  17  30  48  72 101 130 163 206 255 302
#     4  10  20  35  55  77 103 137 176 215 258 308
#     4  10  21  38  59  82 107 135 170 211 254 304
#     4   9  19  34  51  71  98 134 171 208 250 300
#     4   8  14  27  48  73  98 126 165 209 251 299
#     4   8  15  30  53  76  97 128 170 211 253 305
#     4  11  22  36  54  77 107 140 174 213 258 305
#
# _framework density 17.714095
#
# number of rings (size 3 to 8) (size 9 to 14) (size 15 to 20)
#    0.000    2.625    0.000    2.625    0.000    4.000 
#    0.000    5.625    0.000    7.500    0.000    0.000 
#    0.000    0.000    0.000    0.000    0.000    0.000 
#
# Total GULP energy -178442.084445 kJ/mol
# GULP energy per Si atom -5576.315139 kJ/mol
# Density = 1.767378 g / cm^3
# Si number density = 17.714095 Si / 1000 Ang^3
#
#
#
# Elastic Constant Matrix: (Units=GPa)
#
#
# Indices 1 2 3 4 5 6 
#
# 1 35.9987 34.2334 51.1410 0.0000 0.0000 0.0000
# 2 34.2334 81.7827 101.0883 0.0000 0.0000 0.0000
# 3 51.1410 101.0883 200.1163 0.0000 0.0000 0.0000
# 4 0.0000 0.0000 0.0000 -28.7937 0.0000 0.0000
# 5 0.0000 0.0000 0.0000 0.0000 28.0002 0.0000
# 6 0.0000 0.0000 0.0000 0.0000 0.0000 22.0777
#
#
#
# Elastic Compliance Matrix: (Units=1/GPa)
#
#
# Indices 1 2 3 4 5 6 
#
# 1 0.048467 -0.013253 -0.005691 0.000000 0.000000 0.000000
# 2 -0.013253 0.036178 -0.014888 0.000000 0.000000 0.000000
# 3 -0.005691 -0.014888 0.013972 0.000000 0.000000 0.000000
# 4 0.000000 0.000000 0.000000 -0.034730 0.000000 0.000000
# 5 0.000000 0.000000 0.000000 0.000000 0.035714 0.000000
# 6 0.000000 0.000000 0.000000 0.000000 0.000000 0.045295
#
#
# Mechanical properties :
#
#
# Convention : Reuss Voigt Hill
#
# Bulk Modulus (GPa) = 32.30788 76.75812 54.53300
# Shear Modulus (GPa) = 22.43364 13.01914 17.72639
#
# Velocity S-wave (km/s) = 3.56255 2.71395 3.16681
# Velocity P-wave (km/s) = 5.93300 7.29702 6.65007
#
# Compressibility (1/GPa) = 0.03095220
#
# Stress axis : x y z
#
# Youngs Moduli (GPa) = 20.63247 27.64111 71.56964
#
# Poissons Ratio (x) = 0.36633 0.40733
# Poissons Ratio (y) = 0.27344 1.06555
# Poissons Ratio (z) = 0.11743 0.41153
#
# Static dielectric constant tensor:
#      x y z
#    x 1.600270 0.000000 0.000000 
#    y 0.000000 1.579760 0.000000 
#    z 0.000000 0.000000 1.609390 
# 
# From -- ./inp_files/18295.got.cif
#   From: 2010.05.17/outbox.cif.g08.bks.cpg/sg35_10_cif.got.tgz:18295.got - 2010.06.03 17:29:28.
