data_PCOD9349132
_publ_section_title
;
Structure prediction by ZEFSAII (Michael W. Deem and Ramdas Pophale) SiO2 
 PCOD9349132
Probable space group: C M M 2
;
_chemical_formula_sum "Si O2"
_cell_formula_units_Z 64
_cell_length_a 9.117718
_cell_length_b 19.162239
_cell_length_c 21.179779
_cell_angle_alpha 90.000000
_cell_angle_beta 90.000000
_cell_angle_gamma 90.000000
_cell_volume 3700.443969
_symmetry_space_group_name_H-M "C M M 2"
_symmetry_group_IT_number 35
_symmetry_cell_setting 'orthorhombic'
loop_
_space_group_symop_operation_xyz
x,y,z
-x,-y,z
-x,y,z
x,-y,z
1/2+x,1/2+y,z
1/2-x,1/2-y,z
1/2-x,1/2+y,z
1/2+x,1/2-y,z
loop_
_atom_site_type_symbol
_atom_site_label
_atom_site_fract_x
_atom_site_fract_y
_atom_site_fract_z
Si Si1 0.675863 0.824895 0.979140
Si Si2 0.672316 0.583433 0.229061
Si Si3 0.824142 0.417990 0.860841
Si Si4 0.324592 0.081805 0.361207
Si Si5 0.324231 0.174226 0.122275
Si Si6 0.831039 0.084899 0.732588
Si Si7 0.823080 0.674432 0.482490
Si Si8 0.176266 0.418361 0.603086
O O1 0.500000 0.816943 0.975609
O O2 0.750000 0.750000 0.970867
O O3 0.721704 0.876291 0.923163
O O4 0.709044 0.849993 0.050394
O O5 0.500000 0.600695 0.227144
O O6 0.688267 0.500000 0.221274
O O7 0.740059 0.601108 0.297380
O O8 0.757886 0.623139 0.174172
O O9 0.790204 0.500000 0.868645
O O10 0.747720 0.391974 0.796852
O O11 0.000000 0.411915 0.853605
O O12 0.500000 0.087911 0.350775
O O13 0.283927 0.130383 0.419976
O O14 0.294780 0.000000 0.375554
O O15 0.500000 0.179721 0.128943
O O16 0.250000 0.250000 0.129621
O O17 0.749455 0.105591 0.668384
O O18 0.000000 0.106648 0.731642
O O19 0.826078 0.000000 0.733383
O O20 0.750000 0.750000 0.482550
O O21 0.780794 0.629445 0.544102
O O22 0.000000 0.681455 0.483182
O O23 0.215209 0.500000 0.591783
O O24 0.000000 0.415699 0.609675
#
# Coordination Sequence:
#
# PCOD9349132 Si02
#       8
#     8   8   8   8   8   8   8   8
#     4   9  19  34  52  74 100 132 169 208 250 299
#     4  10  21  36  54  79 109 137 169 212 258 304
#     4   9  17  31  51  74 100 130 165 205 248 295
#     4   9  18  35  57  77  99 132 173 211 248 296
#     4  10  20  35  55  77 103 137 175 214 257 307
#     4   9  17  29  47  74 103 128 160 204 251 296
#     4  10  21  35  52  76 104 132 164 205 251 298
#     4   9  17  32  54  75  96 128 168 205 243 292
#
# _framework density 17.295221999999999
#
# number of rings (size 3 to 8) (size 9 to 14) (size 15 to 20)
#    0.000    2.625    0.000    1.500    0.000    6.750 
#    0.000    3.125    0.000    5.250    0.000    0.000 
#    0.000    0.000    0.000    0.000    0.000    0.000 
#
# Total GULP energy -178466.214604 kJ/mol
# GULP energy per Si atom -5577.069206 kJ/mol
# Density = 1.725586 g / cm^3
# Si number density = 17.295222 Si / 1000 Ang^3
#
#
#
# Elastic Constant Matrix: (Units=GPa)
#
#
# Indices 1 2 3 4 5 6 
#
# 1 53.4265 45.5297 79.5809 0.0000 0.0000 0.0000
# 2 45.5297 70.2608 94.4403 0.0000 0.0000 0.0000
# 3 79.5809 94.4403 204.2818 0.0000 0.0000 0.0000
# 4 0.0000 0.0000 0.0000 -18.7682 0.0000 0.0000
# 5 0.0000 0.0000 0.0000 0.0000 20.9079 0.0000
# 6 0.0000 0.0000 0.0000 0.0000 0.0000 27.0491
#
#
#
# Elastic Compliance Matrix: (Units=1/GPa)
#
#
# Indices 1 2 3 4 5 6 
#
# 1 0.051142 -0.016802 -0.012156 0.000000 0.000000 0.000000
# 2 -0.016802 0.043113 -0.013386 0.000000 0.000000 0.000000
# 3 -0.012156 -0.013386 0.015819 0.000000 0.000000 0.000000
# 4 0.000000 0.000000 0.000000 -0.053282 0.000000 0.000000
# 5 0.000000 0.000000 0.000000 0.000000 0.047829 0.000000
# 6 0.000000 0.000000 0.000000 0.000000 0.000000 0.036970
#
#
# Mechanical properties :
#
#
# Convention : Reuss Voigt Hill
#
# Bulk Modulus (GPa) = 39.38972 85.23010 62.30991
# Shear Modulus (GPa) = 21.30025 13.06564 17.18294
#
# Velocity S-wave (km/s) = 3.51318 2.75152 3.15542
# Velocity P-wave (km/s) = 6.26745 7.71240 7.02716
#
# Compressibility (1/GPa) = 0.02538733
#
# Stress axis : x y z
#
# Youngs Moduli (GPa) = 19.55354 23.19493 63.21535
#
# Poissons Ratio (x) = 0.38971 0.76842
# Poissons Ratio (y) = 0.32853 0.84620
# Poissons Ratio (z) = 0.23768 0.31049
#
# Static dielectric constant tensor:
#      x y z
#    x 1.577900 0.000000 0.000000 
#    y 0.000000 1.563230 0.000000 
#    z 0.000000 0.000000 1.575580 
# 
# From -- ./inp_files/18296.got.cif
#   From: 2010.05.17/outbox.cif.g08.bks.cpg/sg35_10_cif.got.tgz:18296.got - 2010.06.03 17:29:28.
