data_PCOD9349478
_publ_section_title
;
Structure prediction by ZEFSAII (Michael W. Deem and Ramdas Pophale) SiO2 
 PCOD9349478
Probable space group: C M M 2
;
_chemical_formula_sum "Si O2"
_cell_formula_units_Z 40
_cell_length_a 14.714682
_cell_length_b 17.475884
_cell_length_c 7.864635
_cell_angle_alpha 90.000000
_cell_angle_beta 90.000000
_cell_angle_gamma 90.000000
_cell_volume 2022.407215
_symmetry_space_group_name_H-M "C M M 2"
_symmetry_group_IT_number 35
_symmetry_cell_setting 'orthorhombic'
loop_
_space_group_symop_operation_xyz
x,y,z
-x,-y,z
-x,y,z
x,-y,z
1/2+x,1/2+y,z
1/2-x,1/2-y,z
1/2-x,1/2+y,z
1/2+x,1/2-y,z
loop_
_atom_site_type_symbol
_atom_site_label
_atom_site_fract_x
_atom_site_fract_y
_atom_site_fract_z
Si Si1 0.280285 0.162759 0.138220
Si Si2 0.891791 0.409746 0.440104
Si Si3 0.793810 0.592003 0.795932
Si Si4 0.400889 0.591684 0.261622
Si Si5 0.100178 0.093007 0.658357
O O1 0.250000 0.250000 0.136832
O O2 0.342821 0.140629 0.297694
O O3 0.185850 0.117116 0.158608
O O4 0.325919 0.135497 0.963368
O O5 0.870988 0.500000 0.405893
O O6 0.851709 0.392670 0.626550
O O7 0.000000 0.399989 0.437669
O O8 0.795430 0.500000 0.824441
O O9 0.689895 0.617204 0.757115
O O10 0.500000 0.619304 0.200906
O O11 0.402995 0.500000 0.259787
O O12 0.390559 0.615030 0.459693
O O13 0.000000 0.118012 0.718990
O O14 0.100369 0.000000 0.662602
#
# Coordination Sequence:
#
# PCOD9349478 Si02
#       5
#     8   8   8   8   8
#     4  12  25  38  59  89 133 166 196 240 312 385
#     4  10  22  43  69  91 115 158 219 274 308 344
#     4  10  20  37  62  89 118 156 211 263 304 355
#     4   9  17  34  61  89 115 148 196 247 295 352
#     4   8  14  28  55  87 115 143 183 242 300 347
#
# _framework density 19.778410999999998
#
# number of rings (size 3 to 8) (size 9 to 14) (size 15 to 20)
#    0.000    2.200    2.000    3.000    0.000    3.200 
#    0.000    4.000    0.000    0.000    0.000    0.000 
#    0.000    0.000    0.000    0.000    0.000    0.000 
#
# Total GULP energy -111642.968061 kJ/mol
# GULP energy per Si atom -5582.148403 kJ/mol
# Density = 1.973339 g / cm^3
# Si number density = 19.778411 Si / 1000 Ang^3
#
#
#
# Elastic Constant Matrix: (Units=GPa)
#
#
# Indices 1 2 3 4 5 6 
#
# 1 71.6693 29.6596 45.1989 0.0000 0.0000 0.0000
# 2 29.6596 52.6519 62.0877 0.0000 0.0000 0.0000
# 3 45.1989 62.0877 135.4383 0.0000 0.0000 0.0000
# 4 0.0000 0.0000 0.0000 13.0040 0.0000 0.0000
# 5 0.0000 0.0000 0.0000 0.0000 -0.8698 0.0000
# 6 0.0000 0.0000 0.0000 0.0000 0.0000 3.0936
#
#
#
# Elastic Compliance Matrix: (Units=1/GPa)
#
#
# Indices 1 2 3 4 5 6 
#
# 1 0.018768 -0.006936 -0.003084 0.000000 0.000000 0.000000
# 2 -0.006936 0.043903 -0.017811 0.000000 0.000000 0.000000
# 3 -0.003084 -0.017811 0.016578 0.000000 0.000000 0.000000
# 4 0.000000 0.000000 0.000000 0.076900 0.000000 0.000000
# 5 0.000000 0.000000 0.000000 0.000000 -1.149744 0.000000
# 6 0.000000 0.000000 0.000000 0.000000 0.000000 0.323243
#
#
# Mechanical properties :
#
#
# Convention : Reuss Voigt Hill
#
# Bulk Modulus (GPa) = 42.39675 59.29464 50.84570
# Shear Modulus (GPa) = -8.23958 11.23313 1.49677
#
# Velocity S-wave (km/s) = -2.04328 2.38575 0.87087
# Velocity P-wave (km/s) = 3.98946 6.13463 5.17443
#
# Compressibility (1/GPa) = 0.02358671
#
# Stress axis : x y z
#
# Youngs Moduli (GPa) = 53.28171 22.77735 60.32202
#
# Poissons Ratio (x) = 0.15798 0.18602
# Poissons Ratio (y) = 0.36956 1.07442
# Poissons Ratio (z) = 0.16431 0.40570
#
# Static dielectric constant tensor:
#      x y z
#    x 1.709140 0.000000 0.000000 
#    y 0.000000 1.669490 0.000000 
#    z 0.000000 0.000000 1.720880 
# 
# From -- ./inp_files/7008.got.cif
#   From: 2010.05.17/outbox.cif.g08.bks.cpg/sg35_4_cif.got.tgz:7008.got - 2010.06.03 17:29:28.
