data_PCOD9349392
_publ_section_title
;
Structure prediction by ZEFSAII (Michael W. Deem and Ramdas Pophale) SiO2 
 PCOD9349392
Probable space group: C M M 2
;
_chemical_formula_sum "Si O2"
_cell_formula_units_Z 64
_cell_length_a 17.891204
_cell_length_b 32.993695
_cell_length_c 5.324980
_cell_angle_alpha 90.000000
_cell_angle_beta 90.000000
_cell_angle_gamma 90.000000
_cell_volume 3143.319335
_symmetry_space_group_name_H-M "C M M 2"
_symmetry_group_IT_number 35
_symmetry_cell_setting 'orthorhombic'
loop_
_space_group_symop_operation_xyz
x,y,z
-x,-y,z
-x,y,z
x,-y,z
1/2+x,1/2+y,z
1/2-x,1/2-y,z
1/2-x,1/2+y,z
1/2+x,1/2-y,z
loop_
_atom_site_type_symbol
_atom_site_label
_atom_site_fract_x
_atom_site_fract_y
_atom_site_fract_z
Si Si1 0.417911 0.129492 0.140230
Si Si2 0.249919 0.045883 0.579064
Si Si3 0.911411 0.160870 0.098191
Si Si4 0.161425 0.128085 0.597891
Si Si5 0.797404 0.318442 0.422787
Si Si6 0.185801 0.242929 0.095513
Si Si7 0.850814 0.545466 0.077742
Si Si8 0.916888 0.701618 0.799355
O O1 0.500000 0.138681 0.257063
O O2 0.345122 0.146649 0.282876
O O3 0.408316 0.082095 0.099443
O O4 0.417253 0.154590 0.880957
O O5 0.191568 0.082397 0.588128
O O6 0.296502 0.048536 0.319931
O O7 0.218376 0.000000 0.592288
O O8 0.304096 0.050590 0.820480
O O9 0.888001 0.138056 0.353682
O O10 0.865694 0.202767 0.098816
O O11 0.000000 0.167172 0.087220
O O12 0.882320 0.137017 0.853477
O O13 0.233089 0.158621 0.576874
O O14 0.761218 0.283334 0.247812
O O15 0.860057 0.294425 0.574587
O O16 0.250000 0.250000 0.873601
O O17 0.117692 0.274294 0.031119
O O18 0.883092 0.500000 0.077625
O O19 0.000000 0.715285 0.740152
#
# Coordination Sequence:
#
# PCOD9349392 Si02
#       8
#     8   8   8   8   8   8   8   8
#     4  10  21  36  54  86 129 173 218 272 326 379
#     4  10  21  39  69 101 129 163 215 274 329 389
#     4  12  28  47  68  99 137 176 213 269 340 400
#     4  12  24  44  74  98 133 173 219 274 328 398
#     4  11  22  37  65  91 123 169 228 276 315 378
#     4  11  23  41  60  91 123 168 221 269 314 381
#     4  10  20  36  59  92 130 170 215 266 321 386
#     4  10  22  37  58  83 120 167 218 270 322 372
#
# _framework density 20.360643
#
# number of rings (size 3 to 8) (size 9 to 14) (size 15 to 20)
#    0.000    1.250    2.500    3.375    3.500    2.250 
#    0.000    0.000    0.000    4.500    0.000    0.000 
#    0.000    0.000    0.000    0.000    0.000    0.000 
#
# Total GULP energy -178315.147599 kJ/mol
# GULP energy per Si atom -5572.348362 kJ/mol
# Density = 2.031430 g / cm^3
# Si number density = 20.360643 Si / 1000 Ang^3
#
#
#
# Elastic Constant Matrix: (Units=GPa)
#
#
# Indices 1 2 3 4 5 6 
#
# 1 146.6947 51.5791 26.5262 0.0000 0.0000 0.0000
# 2 51.5791 147.4441 20.9398 0.0000 0.0000 0.0000
# 3 26.5262 20.9398 85.0202 0.0000 0.0000 0.0000
# 4 0.0000 0.0000 0.0000 16.5791 0.0000 0.0000
# 5 0.0000 0.0000 0.0000 0.0000 17.7643 0.0000
# 6 0.0000 0.0000 0.0000 0.0000 0.0000 25.0672
#
#
#
# Elastic Compliance Matrix: (Units=1/GPa)
#
#
# Indices 1 2 3 4 5 6 
#
# 1 0.008054 -0.002550 -0.001885 0.000000 0.000000 0.000000
# 2 -0.002550 0.007835 -0.001134 0.000000 0.000000 0.000000
# 3 -0.001885 -0.001134 0.012629 0.000000 0.000000 0.000000
# 4 0.000000 0.000000 0.000000 0.060317 0.000000 0.000000
# 5 0.000000 0.000000 0.000000 0.000000 0.056293 0.000000
# 6 0.000000 0.000000 0.000000 0.000000 0.000000 0.039893
#
#
# Mechanical properties :
#
#
# Convention : Reuss Voigt Hill
#
# Bulk Modulus (GPa) = 57.53431 64.13881 60.83656
# Shear Modulus (GPa) = 24.75825 30.55637 27.65731
#
# Velocity S-wave (km/s) = 3.49088 3.87816 3.68961
# Velocity P-wave (km/s) = 6.67587 7.18493 6.93508
#
# Compressibility (1/GPa) = 0.01738093
#
# Stress axis : x y z
#
# Youngs Moduli (GPa) = 124.15767 127.62732 79.18067
#
# Poissons Ratio (x) = 0.32543 0.14925
# Poissons Ratio (y) = 0.31659 0.08981
# Poissons Ratio (z) = 0.23403 0.14476
#
# Static dielectric constant tensor:
#      x y z
#    x 1.709180 0.000000 0.000000 
#    y 0.000000 1.734350 0.000000 
#    z 0.000000 0.000000 1.780480 
# 
# From -- ./inp_files/2724.got.cif
#   From: 2010.05.17/outbox.cif.g08.bks.cpg/sg35_2_cif.got.tgz:2724.got - 2010.06.03 17:29:28.
