data_PCOD9349358
_publ_section_title
;
Structure prediction by ZEFSAII (Michael W. Deem and Ramdas Pophale) SiO2 
 PCOD9349358
Probable space group: C M M 2
;
_chemical_formula_sum "Si O2"
_cell_formula_units_Z 48
_cell_length_a 10.208222
_cell_length_b 14.753087
_cell_length_c 13.988246
_cell_angle_alpha 90.000000
_cell_angle_beta 90.000000
_cell_angle_gamma 90.000000
_cell_volume 2106.668837
_symmetry_space_group_name_H-M "C M M 2"
_symmetry_group_IT_number 35
_symmetry_cell_setting 'orthorhombic'
loop_
_space_group_symop_operation_xyz
x,y,z
-x,-y,z
-x,y,z
x,-y,z
1/2+x,1/2+y,z
1/2-x,1/2-y,z
1/2-x,1/2+y,z
1/2+x,1/2-y,z
loop_
_atom_site_type_symbol
_atom_site_label
_atom_site_fract_x
_atom_site_fract_y
_atom_site_fract_z
Si Si1 0.281513 0.111032 0.292580
Si Si2 0.222044 0.894545 0.720363
Si Si3 0.153598 0.167783 0.922071
Si Si4 0.145371 0.608406 0.081506
Si Si5 0.000000 0.889196 0.360292
Si Si6 0.500000 0.388292 0.580356
Si Si7 0.000000 0.389455 0.442256
Si Si8 0.000000 0.388904 0.663393
O O1 0.333105 0.141773 0.189580
O O2 0.132973 0.140192 0.309619
O O3 0.373852 0.138597 0.380491
O O4 0.284323 0.000000 0.291480
O O5 0.163033 0.890924 0.825944
O O6 0.368341 0.856158 0.714578
O O7 0.125522 0.856232 0.640196
O O8 0.234556 0.000000 0.694386
O O9 0.250000 0.250000 0.895998
O O10 0.000000 0.184236 0.940908
O O11 0.231568 0.130690 0.014345
O O12 0.140228 0.500000 0.085279
O O13 0.000000 0.638433 0.046952
O O14 0.000000 0.860133 0.470688
O O15 0.000000 0.000000 0.359891
O O16 0.500000 0.500000 0.580265
O O17 0.000000 0.500000 0.444309
O O18 0.000000 0.361336 0.552284
O O19 0.000000 0.500000 0.667266
#
# Coordination Sequence:
#
# PCOD9349358 Si02
#       8
#     8   8   8   8   4   4   4   4
#     4   9  16  27  46  77 119 156 184 221 275 333
#     4  10  20  36  58  86 118 150 188 237 286 337
#     4  12  27  44  62  83 110 149 195 245 297 352
#     4  10  21  38  61  89 120 153 190 237 288 341
#     4   9  16  24  43  77 118 154 183 225 274 329
#     4   9  16  30  50  79 118 154 187 227 282 333
#     4   9  14  26  45  75 118 156 185 219 270 329
#     4   9  18  28  50  85 120 156 189 223 272 335
#
# _framework density 22.784787000000001
#
# number of rings (size 3 to 8) (size 9 to 14) (size 15 to 20)
#    0.000    2.167    1.667    2.000    3.500    5.000 
#    0.000    0.000    0.000    0.000    0.000    7.000 
#    0.000    0.000    0.000    0.000    0.000    0.000 
#
# Total GULP energy -134036.014541 kJ/mol
# GULP energy per Si atom -5584.833939 kJ/mol
# Density = 2.273293 g / cm^3
# Si number density = 22.784787 Si / 1000 Ang^3
#
#
#
# Elastic Constant Matrix: (Units=GPa)
#
#
# Indices 1 2 3 4 5 6 
#
# 1 233.9942 12.5935 70.6385 0.0000 0.0000 0.0000
# 2 12.5935 36.1775 1.9947 0.0000 0.0000 0.0000
# 3 70.6385 1.9947 116.7148 0.0000 0.0000 0.0000
# 4 0.0000 0.0000 0.0000 -7.0487 0.0000 0.0000
# 5 0.0000 0.0000 0.0000 0.0000 43.5416 0.0000
# 6 0.0000 0.0000 0.0000 0.0000 0.0000 5.9210
#
#
#
# Elastic Compliance Matrix: (Units=1/GPa)
#
#
# Indices 1 2 3 4 5 6 
#
# 1 0.005329 -0.001679 -0.003196 0.000000 0.000000 0.000000
# 2 -0.001679 0.028196 0.000534 0.000000 0.000000 0.000000
# 3 -0.003196 0.000534 0.010493 0.000000 0.000000 0.000000
# 4 0.000000 0.000000 0.000000 -0.141871 0.000000 0.000000
# 5 0.000000 0.000000 0.000000 0.000000 0.022967 0.000000
# 6 0.000000 0.000000 0.000000 0.000000 0.000000 0.168890
#
#
# Mechanical properties :
#
#
# Convention : Reuss Voigt Hill
#
# Bulk Modulus (GPa) = 28.29939 61.92667 45.11303
# Shear Modulus (GPa) = 43.68128 28.59343 36.13736
#
# Velocity S-wave (km/s) = 4.38325 3.54635 3.98682
# Velocity P-wave (km/s) = 6.16964 6.63376 6.40590
#
# Compressibility (1/GPa) = 0.03533645
#
# Stress axis : x y z
#
# Youngs Moduli (GPa) = 187.65514 35.46547 95.29835
#
# Poissons Ratio (x) = 0.05954 0.30462
# Poissons Ratio (y) = 0.31503 -0.05090
# Poissons Ratio (z) = 0.59984 -0.01894
#
# Static dielectric constant tensor:
#      x y z
#    x 1.352150 0.000000 0.000000 
#    y 0.000000 1.929480 0.000000 
#    z 0.000000 0.000000 1.806790 
# 
# From -- ./inp_files/15307.got.cif
#   From: 2010.05.17/outbox.cif.g08.bks.cpg/sg35_8_cif.got.tgz:15307.got - 2010.06.03 17:29:28.
