data_PCOD9349377
_publ_section_title
;
Structure prediction by ZEFSAII (Michael W. Deem and Ramdas Pophale) SiO2 
 PCOD9349377
Probable space group: C M M 2
;
_chemical_formula_sum "Si O2"
_cell_formula_units_Z 40
_cell_length_a 9.136567
_cell_length_b 30.640515
_cell_length_c 7.359324
_cell_angle_alpha 90.000000
_cell_angle_beta 90.000000
_cell_angle_gamma 90.000000
_cell_volume 2060.236264
_symmetry_space_group_name_H-M "C M M 2"
_symmetry_group_IT_number 35
_symmetry_cell_setting 'orthorhombic'
loop_
_space_group_symop_operation_xyz
x,y,z
-x,-y,z
-x,y,z
x,-y,z
1/2+x,1/2+y,z
1/2-x,1/2-y,z
1/2-x,1/2+y,z
1/2+x,1/2-y,z
loop_
_atom_site_type_symbol
_atom_site_label
_atom_site_fract_x
_atom_site_fract_y
_atom_site_fract_z
Si Si1 0.330980 0.706098 0.966770
Si Si2 0.332871 0.706967 0.409747
Si Si3 0.172805 0.550979 0.665194
Si Si4 0.173645 0.382540 0.990364
Si Si5 0.323673 0.611242 0.379104
O O1 0.500000 0.704623 0.909556
O O2 0.250000 0.750000 0.905880
O O3 0.245242 0.662206 0.917002
O O4 0.330527 0.707113 0.188435
O O5 0.500000 0.710272 0.468777
O O6 0.250000 0.750000 0.472014
O O7 0.275878 0.658811 0.457813
O O8 0.206357 0.500000 0.688331
O O9 0.195851 0.578423 0.848798
O O10 0.268301 0.573332 0.509292
O O11 0.000000 0.554910 0.618206
O O12 0.000000 0.376022 0.018379
O O13 0.251632 0.392857 0.181106
O O14 0.500000 0.612160 0.363166
#
# Coordination Sequence:
#
# PCOD9349377 Si02
#       5
#     8   8   8   8   8
#     4   9  16  28  49  79 114 150 189 230 274 329
#     4   8  15  27  46  75 109 143 179 218 262 316
#     4  10  23  42  61  82 109 144 189 239 289 342
#     4  10  20  36  59  85 115 152 191 232 281 337
#     4  10  21  37  58  86 117 149 187 232 282 336
#
# _framework density 19.415248999999999
#
# number of rings (size 3 to 8) (size 9 to 14) (size 15 to 20)
#    0.000    2.600    0.000    3.000    0.000    8.400 
#    0.000    3.000    0.000    2.400    0.000    0.000 
#    0.000    0.000    0.000    0.000    0.000    0.000 
#
# Total GULP energy -111666.086509 kJ/mol
# GULP energy per Si atom -5583.304325 kJ/mol
# Density = 1.937106 g / cm^3
# Si number density = 19.415249 Si / 1000 Ang^3
#
#
#
# Elastic Constant Matrix: (Units=GPa)
#
#
# Indices 1 2 3 4 5 6 
#
# 1 109.6055 95.8173 53.2957 0.0000 0.0000 0.0000
# 2 95.8173 189.6969 56.4077 0.0000 0.0000 0.0000
# 3 53.2957 56.4077 84.6553 0.0000 0.0000 0.0000
# 4 0.0000 0.0000 0.0000 36.5798 0.0000 0.0000
# 5 0.0000 0.0000 0.0000 0.0000-1075.7323 0.0000
# 6 0.0000 0.0000 0.0000 0.0000 0.0000 35.7142
#
#
#
# Elastic Compliance Matrix: (Units=1/GPa)
#
#
# Indices 1 2 3 4 5 6 
#
# 1 0.019178 -0.007603 -0.007007 0.000000 0.000000 0.000000
# 2 -0.007603 0.009588 -0.001602 0.000000 0.000000 0.000000
# 3 -0.007007 -0.001602 0.017292 0.000000 0.000000 0.000000
# 4 0.000000 0.000000 0.000000 0.027337 0.000000 0.000000
# 5 0.000000 0.000000 0.000000 0.000000 -0.000930 0.000000
# 6 0.000000 0.000000 0.000000 0.000000 0.000000 0.028000
#
#
# Mechanical properties :
#
#
# Convention : Reuss Voigt Hill
#
# Bulk Modulus (GPa) = 73.35547 88.33325 80.84436
# Shear Modulus (GPa) = 36.38070 -188.79186 -76.20558
#
# Velocity S-wave (km/s) = 4.33346 -9.87168 -6.27181
# Velocity P-wave (km/s) = 7.93114 9.18356 3.27375
#
# Compressibility (1/GPa) = 0.01363225
#
# Stress axis : x y z
#
# Youngs Moduli (GPa) = 52.14425 104.29274 57.83051
#
# Poissons Ratio (x) = 0.79294 0.40524
# Poissons Ratio (y) = 0.39645 0.09267
# Poissons Ratio (z) = 0.36540 0.16712
#
# Static dielectric constant tensor:
#      x y z
#    x 1.711000 0.000000 0.000000 
#    y 0.000000 1.663580 0.000000 
#    z 0.000000 0.000000 1.702300 
# 
# From -- ./inp_files/4961.got.cif
#   From: 2010.05.17/outbox.cif.g08.bks.cpg/sg35_3_cif.got.tgz:4961.got - 2010.06.03 17:29:28.
