data_PCOD9349852
_publ_section_title
;
Structure prediction by ZEFSAII (Michael W. Deem and Ramdas Pophale) SiO2 
 PCOD9349852
Probable space group: C M M 2
;
_chemical_formula_sum "Si O2"
_cell_formula_units_Z 48
_cell_length_a 15.798928
_cell_length_b 8.767539
_cell_length_c 17.724873
_cell_angle_alpha 90.000000
_cell_angle_beta 90.000000
_cell_angle_gamma 90.000000
_cell_volume 2455.208949
_symmetry_space_group_name_H-M "C M M 2"
_symmetry_group_IT_number 35
_symmetry_cell_setting 'orthorhombic'
loop_
_space_group_symop_operation_xyz
x,y,z
-x,-y,z
-x,y,z
x,-y,z
1/2+x,1/2+y,z
1/2-x,1/2-y,z
1/2-x,1/2+y,z
1/2+x,1/2-y,z
loop_
_atom_site_type_symbol
_atom_site_label
_atom_site_fract_x
_atom_site_fract_y
_atom_site_fract_z
Si Si1 0.500000 0.683893 0.003740
Si Si2 0.345182 0.316705 0.896110
Si Si3 0.000000 0.684086 0.170869
Si Si4 0.843415 0.319502 0.739396
Si Si5 0.100635 0.827722 0.587903
Si Si6 0.099668 0.184284 0.423119
Si Si7 0.662313 0.817542 0.268624
O O1 0.500000 0.500000 0.007230
O O2 0.500000 0.750762 0.087174
O O3 0.585394 0.728603 0.958488
O O4 0.338574 0.500000 0.894122
O O5 0.250000 0.250000 0.907722
O O6 0.379074 0.257862 0.815053
O O7 0.083080 0.731740 0.217501
O O8 0.000000 0.500000 0.167470
O O9 0.841615 0.500000 0.749630
O O10 0.750000 0.250000 0.733945
O O11 0.885086 0.274840 0.660488
O O12 0.132206 0.769955 0.506519
O O13 0.000000 0.841043 0.577342
O O14 0.134104 0.000000 0.602138
O O15 0.147266 0.257801 0.353322
O O16 0.000000 0.225448 0.415872
O O17 0.105409 0.000000 0.419859
O O18 0.750000 0.750000 0.239315
O O19 0.665918 0.000000 0.269381
#
# Coordination Sequence:
#
# PCOD9349852 Si02
#       7
#     4   8   4   8   8   8   8
#     4  10  24  42  66  93 118 155 196 233 296 365
#     4  10  21  40  62  89 121 157 197 244 296 352
#     4  10  24  44  64  89 124 155 190 243 298 351
#     4  11  22  36  55  81 113 154 198 243 294 345
#     4   9  19  35  55  81 115 154 196 243 294 344
#     4   9  18  35  59  85 115 156 201 247 299 351
#     4  11  23  40  62  91 122 159 200 244 297 354
#
# _framework density 19.550270999999999
#
# number of rings (size 3 to 8) (size 9 to 14) (size 15 to 20)
#    0.000    2.000    0.833    4.500    1.167    5.000 
#    0.000    5.000    0.000    0.000    0.000    0.000 
#    0.000    0.000    0.000    0.000    0.000    0.000 
#
# Total GULP energy -133982.905670 kJ/mol
# GULP energy per Si atom -5582.621070 kJ/mol
# Density = 1.950577 g / cm^3
# Si number density = 19.550271 Si / 1000 Ang^3
#
#
#
# Elastic Constant Matrix: (Units=GPa)
#
#
# Indices 1 2 3 4 5 6 
#
# 1 104.3720 32.8055 72.5767 0.0000 0.0000 0.0000
# 2 32.8055 57.7133 44.0615 0.0000 0.0000 0.0000
# 3 72.5767 44.0615 166.2766 0.0000 0.0000 0.0000
# 4 0.0000 0.0000 0.0000-1304.3750 0.0000 0.0000
# 5 0.0000 0.0000 0.0000 0.0000 -11.2480 0.0000
# 6 0.0000 0.0000 0.0000 0.0000 0.0000 25.0576
#
#
#
# Elastic Compliance Matrix: (Units=1/GPa)
#
#
# Indices 1 2 3 4 5 6 
#
# 1 0.014558 -0.004292 -0.005217 0.000000 0.000000 0.000000
# 2 -0.004292 0.022987 -0.004218 0.000000 0.000000 0.000000
# 3 -0.005217 -0.004218 0.009409 0.000000 0.000000 0.000000
# 4 0.000000 0.000000 0.000000 -0.000767 0.000000 0.000000
# 5 0.000000 0.000000 0.000000 0.000000 -0.088904 0.000000
# 6 0.000000 0.000000 0.000000 0.000000 0.000000 0.039908
#
#
# Mechanical properties :
#
#
# Convention : Reuss Voigt Hill
#
# Bulk Modulus (GPa) = 51.28241 69.69437 60.48839
# Shear Modulus (GPa) = 160.54338 -246.18521 -42.82092
#
# Velocity S-wave (km/s) = 9.07174 -11.23377 -4.68514
# Velocity P-wave (km/s) = 11.66262 11.51248 1.31899
#
# Compressibility (1/GPa) = 0.01949986
#
# Stress axis : x y z
#
# Youngs Moduli (GPa) = 68.69168 43.50302 106.28337
#
# Poissons Ratio (x) = 0.18672 0.55446
# Poissons Ratio (y) = 0.29484 0.44829
# Poissons Ratio (z) = 0.35835 0.18349
#
# Static dielectric constant tensor:
#      x y z
#    x 1.696010 0.000000 0.000000 
#    y 0.000000 2.870990 0.000000 
#    z 0.000000 0.000000 1.696330 
# 
# From -- ./inp_files/15237.got.cif
#   From: 2010.05.17/outbox.cif.g08.bks.cpg/sg35_8_cif.got.tgz:15237.got - 2010.06.03 17:29:28.
