data_PCOD9349462
_publ_section_title
;
Structure prediction by ZEFSAII (Michael W. Deem and Ramdas Pophale) SiO2 
 PCOD9349462
Probable space group: C M M 2
;
_chemical_formula_sum "Si O2"
_cell_formula_units_Z 48
_cell_length_a 8.742861
_cell_length_b 16.112485
_cell_length_c 17.154051
_cell_angle_alpha 90.000000
_cell_angle_beta 90.000000
_cell_angle_gamma 90.000000
_cell_volume 2416.477728
_symmetry_space_group_name_H-M "C M M 2"
_symmetry_group_IT_number 35
_symmetry_cell_setting 'orthorhombic'
loop_
_space_group_symop_operation_xyz
x,y,z
-x,-y,z
-x,y,z
x,-y,z
1/2+x,1/2+y,z
1/2-x,1/2-y,z
1/2-x,1/2+y,z
1/2+x,1/2-y,z
loop_
_atom_site_type_symbol
_atom_site_label
_atom_site_fract_x
_atom_site_fract_y
_atom_site_fract_z
Si Si1 0.821257 0.597860 0.462330
Si Si2 0.821795 0.597368 0.780012
Si Si3 0.316031 0.000000 0.018708
Si Si4 0.314168 0.000000 0.200506
Si Si5 0.815133 0.337667 0.295116
Si Si6 0.818513 0.838020 0.933985
Si Si7 0.681447 0.342106 0.621392
O O1 0.814436 0.500000 0.444451
O O2 0.770065 0.646228 0.385162
O O3 0.725858 0.617810 0.538933
O O4 0.000000 0.618542 0.477975
O O5 0.811484 0.500000 0.800110
O O6 0.727860 0.648360 0.843671
O O7 0.757484 0.610509 0.693728
O O8 0.000000 0.621960 0.783147
O O9 0.251559 0.916789 0.979055
O O10 0.500000 0.000000 0.010940
O O11 0.273533 0.000000 0.109889
O O12 0.262929 0.083579 0.244251
O O13 0.500000 0.000000 0.205027
O O14 0.750000 0.250000 0.267904
O O15 0.000000 0.335604 0.293053
O O16 0.750000 0.750000 0.960613
O O17 0.000000 0.837485 0.942279
O O18 0.500000 0.340256 0.631118
O O19 0.750000 0.250000 0.621874
#
# Coordination Sequence:
#
# PCOD9349462 Si02
#       7
#     8   8   4   4   8   8   8
#     4  10  20  37  61  86 119 163 209 255 312 375
#     4  11  23  41  65  91 124 164 210 259 316 378
#     4  11  23  43  69  98 131 168 211 263 322 387
#     4   9  20  41  67  92 125 166 205 251 314 383
#     4  10  20  38  63  92 124 165 209 256 311 373
#     4  12  25  43  68  97 132 171 215 264 319 382
#     4  12  25  39  56  83 122 163 211 263 313 368
#
# _framework density 19.863621999999999
#
# number of rings (size 3 to 8) (size 9 to 14) (size 15 to 20)
#    0.000    1.167    1.667    5.250    0.000    6.000 
#    0.000    3.750    0.000    0.000    0.000    0.000 
#    0.000    0.000    0.000    0.000    0.000    0.000 
#
# Total GULP energy -134246.738576 kJ/mol
# GULP energy per Si atom -5593.614107 kJ/mol
# Density = 1.981841 g / cm^3
# Si number density = 19.863622 Si / 1000 Ang^3
#
#
#
# Elastic Constant Matrix: (Units=GPa)
#
#
# Indices 1 2 3 4 5 6 
#
# 1 97.2981 45.7947 36.7541 0.0000 0.0000 0.0000
# 2 45.7947 143.3091 60.9523 0.0000 0.0000 0.0000
# 3 36.7541 60.9523 115.3890 0.0000 0.0000 0.0000
# 4 0.0000 0.0000 0.0000 12.0494 0.0000 0.0000
# 5 0.0000 0.0000 0.0000 0.0000 7.9965 0.0000
# 6 0.0000 0.0000 0.0000 0.0000 0.0000 30.7710
#
#
#
# Elastic Compliance Matrix: (Units=1/GPa)
#
#
# Indices 1 2 3 4 5 6 
#
# 1 0.012606 -0.002993 -0.002434 0.000000 0.000000 0.000000
# 2 -0.002993 0.009710 -0.004176 0.000000 0.000000 0.000000
# 3 -0.002434 -0.004176 0.011648 0.000000 0.000000 0.000000
# 4 0.000000 0.000000 0.000000 0.082992 0.000000 0.000000
# 5 0.000000 0.000000 0.000000 0.000000 0.125055 0.000000
# 6 0.000000 0.000000 0.000000 0.000000 0.000000 0.032498
#
#
# Mechanical properties :
#
#
# Convention : Reuss Voigt Hill
#
# Bulk Modulus (GPa) = 67.76237 71.44425 69.60331
# Shear Modulus (GPa) = 16.74286 24.32973 20.53630
#
# Velocity S-wave (km/s) = 2.90641 3.50357 3.21886
# Velocity P-wave (km/s) = 6.74172 7.23962 6.99510
#
# Compressibility (1/GPa) = 0.01475745
#
# Stress axis : x y z
#
# Youngs Moduli (GPa) = 79.32801 102.98158 85.85396
#
# Poissons Ratio (x) = 0.30821 0.20900
# Poissons Ratio (y) = 0.23742 0.35853
# Poissons Ratio (z) = 0.19311 0.43006
#
# Static dielectric constant tensor:
#      x y z
#    x 1.674430 0.000000 0.000000 
#    y 0.000000 1.681680 0.000000 
#    z 0.000000 0.000000 1.694160 
# 
# From -- ./inp_files/17895.got.cif
#   From: 2010.05.17/outbox.cif.g08.bks.cpg/sg35_9_cif.got.tgz:17895.got - 2010.06.03 17:29:28.
