data_PCOD9349365
_publ_section_title
;
Structure prediction by ZEFSAII (Michael W. Deem and Ramdas Pophale) SiO2 
 PCOD9349365
Probable space group: C M M 2
;
_chemical_formula_sum "Si O2"
_cell_formula_units_Z 64
_cell_length_a 8.515807
_cell_length_b 30.076292
_cell_length_c 12.832629
_cell_angle_alpha 90.000000
_cell_angle_beta 90.000000
_cell_angle_gamma 90.000000
_cell_volume 3286.742960
_symmetry_space_group_name_H-M "C M M 2"
_symmetry_group_IT_number 35
_symmetry_cell_setting 'orthorhombic'
loop_
_space_group_symop_operation_xyz
x,y,z
-x,-y,z
-x,y,z
x,-y,z
1/2+x,1/2+y,z
1/2-x,1/2-y,z
1/2-x,1/2+y,z
1/2+x,1/2-y,z
loop_
_atom_site_type_symbol
_atom_site_label
_atom_site_fract_x
_atom_site_fract_y
_atom_site_fract_z
Si Si1 0.811180 0.300465 0.176110
Si Si2 0.810890 0.300652 0.404221
Si Si3 0.679377 0.054138 0.406994
Si Si4 0.311318 0.800440 0.631634
Si Si5 0.188290 0.050623 0.628269
Si Si6 0.311955 0.625337 0.023862
Si Si7 0.689940 0.373935 0.784846
Si Si8 0.190284 0.551463 0.178073
O O1 0.750000 0.250000 0.167064
O O2 0.762068 0.318833 0.291198
O O3 0.746218 0.331420 0.085667
O O4 0.000000 0.300287 0.172142
O O5 0.750000 0.250000 0.404190
O O6 0.761042 0.319066 0.516889
O O7 0.000000 0.300551 0.404388
O O8 0.500000 0.070400 0.415206
O O9 0.767294 0.066464 0.512248
O O10 0.744211 0.066920 0.293630
O O11 0.675769 0.000000 0.403882
O O12 0.500000 0.800172 0.635561
O O13 0.250000 0.750000 0.639602
O O14 0.245132 0.830544 0.723240
O O15 0.246305 0.083878 0.717098
O O16 0.000000 0.049132 0.634658
O O17 0.247934 0.000000 0.641262
O O18 0.500000 0.624907 0.023563
O O19 0.251259 0.583047 0.088154
O O20 0.256291 0.624925 0.904258
O O21 0.500000 0.374581 0.785256
O O22 0.236741 0.500000 0.162723
O O23 0.000000 0.552908 0.180945
#
# Coordination Sequence:
#
# PCOD9349365 Si02
#       8
#     8   8   8   8   8   8   8   8
#     4  10  20  37  60  84 113 145 178 221 273 326
#     4   8  16  31  53  82 110 136 168 211 265 324
#     4   8  15  30  53  81 111 140 171 212 266 326
#     4  10  20  36  59  84 110 140 175 217 267 322
#     4   9  18  34  56  80 107 140 177 220 270 320
#     4  11  24  39  55  78 108 145 191 233 269 317
#     4  10  23  40  54  74 107 145 186 228 268 314
#     4   9  19  37  59  82 111 145 178 219 274 328
#
# _framework density 19.472165
#
# number of rings (size 3 to 8) (size 9 to 14) (size 15 to 20)
#    0.000    2.625    0.000    1.875    0.000    5.250 
#    0.000    6.250    0.000    1.500    0.000    0.000 
#    0.000    0.000    0.000    0.000    0.000    0.000 
#
# Total GULP energy -178495.142605 kJ/mol
# GULP energy per Si atom -5577.973206 kJ/mol
# Density = 1.942785 g / cm^3
# Si number density = 19.472165 Si / 1000 Ang^3
#
#
#
# Elastic Constant Matrix: (Units=GPa)
#
#
# Indices 1 2 3 4 5 6 
#
# 1 15.8063 18.2360 32.3348 0.0000 0.0000 0.0000
# 2 18.2360 105.0252 91.5884 0.0000 0.0000 0.0000
# 3 32.3348 91.5884 227.0667 0.0000 0.0000 0.0000
# 4 0.0000 0.0000 0.0000 35.5177 0.0000 0.0000
# 5 0.0000 0.0000 0.0000 0.0000 25.4388 0.0000
# 6 0.0000 0.0000 0.0000 0.0000 0.0000 23.1251
#
#
#
# Elastic Compliance Matrix: (Units=1/GPa)
#
#
# Indices 1 2 3 4 5 6 
#
# 1 0.092545 -0.007060 -0.010331 0.000000 0.000000 0.000000
# 2 -0.007060 0.015227 -0.005136 0.000000 0.000000 0.000000
# 3 -0.010331 -0.005136 0.007947 0.000000 0.000000 0.000000
# 4 0.000000 0.000000 0.000000 0.028155 0.000000 0.000000
# 5 0.000000 0.000000 0.000000 0.000000 0.039310 0.000000
# 6 0.000000 0.000000 0.000000 0.000000 0.000000 0.043243
#
#
# Mechanical properties :
#
#
# Convention : Reuss Voigt Hill
#
# Bulk Modulus (GPa) = 14.15145 70.24628 42.19887
# Shear Modulus (GPa) = 16.94712 30.53224 23.73968
#
# Velocity S-wave (km/s) = 2.95333 3.96409 3.49543
# Velocity P-wave (km/s) = 4.34889 7.55682 6.16516
#
# Compressibility (1/GPa) = 0.07066415
#
# Stress axis : x y z
#
# Youngs Moduli (GPa) = 10.80558 65.67467 125.83447
#
# Poissons Ratio (x) = 0.46364 1.30000
# Poissons Ratio (y) = 0.07628 0.64634
# Poissons Ratio (z) = 0.11163 0.33733
#
# Static dielectric constant tensor:
#      x y z
#    x 1.669330 0.000000 0.000000 
#    y 0.000000 1.679440 0.000000 
#    z 0.000000 0.000000 1.693470 
# 
# From -- ./inp_files/11870.got.cif
#   From: 2010.05.17/outbox.cif.g08.bks.cpg/sg35_6_cif.got.tgz:11870.got - 2010.06.03 17:29:28.
