data_PCOD9349416
_publ_section_title
;
Structure prediction by ZEFSAII (Michael W. Deem and Ramdas Pophale) SiO2 
 PCOD9349416
Probable space group: C M M 2
;
_chemical_formula_sum "Si O2"
_cell_formula_units_Z 56
_cell_length_a 21.035625
_cell_length_b 11.004443
_cell_length_c 12.258342
_cell_angle_alpha 90.000000
_cell_angle_beta 90.000000
_cell_angle_gamma 90.000000
_cell_volume 2837.626420
_symmetry_space_group_name_H-M "C M M 2"
_symmetry_group_IT_number 35
_symmetry_cell_setting 'orthorhombic'
loop_
_space_group_symop_operation_xyz
x,y,z
-x,-y,z
-x,y,z
x,-y,z
1/2+x,1/2+y,z
1/2-x,1/2-y,z
1/2-x,1/2+y,z
1/2+x,1/2-y,z
loop_
_atom_site_type_symbol
_atom_site_label
_atom_site_fract_x
_atom_site_fract_y
_atom_site_fract_z
Si Si1 0.575985 0.366220 0.487130
Si Si2 0.601286 0.366775 0.023547
Si Si3 0.575975 0.866423 0.875074
Si Si4 0.247048 0.125443 0.974429
Si Si5 0.577685 0.864684 0.623516
Si Si6 0.203981 0.363439 0.212957
Si Si7 0.571867 0.744547 0.252859
O O1 0.500000 0.370510 0.508737
O O2 0.602088 0.500000 0.514401
O O3 0.600821 0.249836 0.553673
O O4 0.582378 0.337850 0.359131
O O5 0.577062 0.500000 0.987112
O O6 0.677201 0.378524 0.026643
O O7 0.575592 0.333844 0.142446
O O8 0.589854 0.252528 0.945147
O O9 0.500000 0.872965 0.871722
O O10 0.597493 0.852732 0.749919
O O11 0.597767 0.000000 0.916905
O O12 0.250000 0.250000 0.908814
O O13 0.291921 0.133279 0.080387
O O14 0.257433 0.000000 0.913128
O O15 0.500000 0.863253 0.620854
O O16 0.596620 0.000000 0.584196
O O17 0.223561 0.500000 0.249182
O O18 0.250000 0.250000 0.246265
O O19 0.131362 0.336085 0.245874
O O20 0.500000 0.797505 0.260784
#
# Coordination Sequence:
#
# PCOD9349416 Si02
#       7
#     8   8   8   8   8   8   8
#     4   9  18  31  49  75 107 145 186 229 278 330
#     4  11  21  33  51  77 110 146 183 224 272 329
#     4   9  19  34  50  72 105 145 185 227 279 333
#     4   9  17  32  52  71  94 133 186 227 258 310
#     4   8  15  31  52  70  96 138 186 232 276 329
#     4  10  20  37  57  75 103 146 195 236 271 323
#     4  11  22  34  51  82 122 155 184 226 282 335
#
# _framework density 19.734804
#
# number of rings (size 3 to 8) (size 9 to 14) (size 15 to 20)
#    0.000    2.429    2.857    1.714    0.000    4.857 
#    0.000    2.857    0.000    0.000    0.000    1.000 
#    0.000    4.571    0.000    0.000    0.000    0.000 
#
# Total GULP energy -155871.640893 kJ/mol
# GULP energy per Si atom -5566.844318 kJ/mol
# Density = 1.968989 g / cm^3
# Si number density = 19.734804 Si / 1000 Ang^3
#
#
#
# Elastic Constant Matrix: (Units=GPa)
#
#
# Indices 1 2 3 4 5 6 
#
# 1 69.8163 28.6342 6.9779 0.0000 0.0000 0.0000
# 2 28.6342 239.3764 70.0395 0.0000 0.0000 0.0000
# 3 6.9779 70.0395 65.5196 0.0000 0.0000 0.0000
# 4 0.0000 0.0000 0.0000 4.7516 0.0000 0.0000
# 5 0.0000 0.0000 0.0000 0.0000 -39.1808 0.0000
# 6 0.0000 0.0000 0.0000 0.0000 0.0000 12.5490
#
#
#
# Elastic Compliance Matrix: (Units=1/GPa)
#
#
# Indices 1 2 3 4 5 6 
#
# 1 0.015072 -0.001940 0.000469 0.000000 0.000000 0.000000
# 2 -0.001940 0.006329 -0.006559 0.000000 0.000000 0.000000
# 3 0.000469 -0.006559 0.022224 0.000000 0.000000 0.000000
# 4 0.000000 0.000000 0.000000 0.210457 0.000000 0.000000
# 5 0.000000 0.000000 0.000000 0.000000 -0.025523 0.000000
# 6 0.000000 0.000000 0.000000 0.000000 0.000000 0.079688
#
#
# Mechanical properties :
#
#
# Convention : Reuss Voigt Hill
#
# Bulk Modulus (GPa) = 36.27843 65.11282 50.69563
# Shear Modulus (GPa) = 14.99275 13.56135 14.27705
#
# Velocity S-wave (km/s) = 2.75928 2.62425 2.69261
# Velocity P-wave (km/s) = 5.34550 6.49983 5.95072
#
# Compressibility (1/GPa) = 0.02756459
#
# Stress axis : x y z
#
# Youngs Moduli (GPa) = 66.34752 158.01402 44.99717
#
# Poissons Ratio (x) = 0.30656 -0.02109
# Poissons Ratio (y) = 0.12872 0.29511
# Poissons Ratio (z) = -0.03110 1.03634
#
# Static dielectric constant tensor:
#      x y z
#    x 1.747140 0.000000 0.000000 
#    y 0.000000 1.803010 0.000000 
#    z 0.000000 0.000000 1.657820 
# 
# From -- ./inp_files/13917.got.cif
#   From: 2010.05.17/outbox.cif.g08.bks.cpg/sg35_7_cif.got.tgz:13917.got - 2010.06.03 17:29:28.
