data_PCOD9349347
_publ_section_title
;
Structure prediction by ZEFSAII (Michael W. Deem and Ramdas Pophale) SiO2 
 PCOD9349347
Probable space group: C M M 2
;
_chemical_formula_sum "Si O2"
_cell_formula_units_Z 48
_cell_length_a 14.817868
_cell_length_b 8.564152
_cell_length_c 18.478662
_cell_angle_alpha 90.000000
_cell_angle_beta 90.000000
_cell_angle_gamma 90.000000
_cell_volume 2344.987922
_symmetry_space_group_name_H-M "C M M 2"
_symmetry_group_IT_number 35
_symmetry_cell_setting 'orthorhombic'
loop_
_space_group_symop_operation_xyz
x,y,z
-x,-y,z
-x,y,z
x,-y,z
1/2+x,1/2+y,z
1/2-x,1/2-y,z
1/2-x,1/2+y,z
1/2+x,1/2-y,z
loop_
_atom_site_type_symbol
_atom_site_label
_atom_site_fract_x
_atom_site_fract_y
_atom_site_fract_z
Si Si1 0.648117 0.314112 0.280840
Si Si2 0.851463 0.186711 0.896961
Si Si3 0.000000 0.188719 0.012408
Si Si4 0.500000 0.185549 0.174195
Si Si5 0.146836 0.687726 0.745656
Si Si6 0.852974 0.311289 0.589180
Si Si7 0.146818 0.688032 0.432559
O O1 0.650492 0.500000 0.280885
O O2 0.750000 0.250000 0.274282
O O3 0.586578 0.252432 0.216291
O O4 0.609281 0.256305 0.358230
O O5 0.750000 0.250000 0.904740
O O6 0.890923 0.246650 0.820446
O O7 0.848440 0.000000 0.893639
O O8 0.913458 0.233873 0.964185
O O9 0.000000 0.262583 0.091114
O O10 0.000000 0.000000 0.019539
O O11 0.500000 0.000000 0.179683
O O12 0.146404 0.500000 0.749543
O O13 0.250000 0.750000 0.744750
O O14 0.107310 0.735611 0.667243
O O15 0.851397 0.500000 0.589122
O O16 0.750000 0.250000 0.589233
O O17 0.892765 0.265089 0.511067
O O18 0.250000 0.750000 0.434062
O O19 0.354153 0.000000 0.427617
#
# Coordination Sequence:
#
# PCOD9349347 Si02
#       7
#     8   8   4   4   8   8   8
#     4  11  22  39  62  89 121 156 194 237 287 343
#     4  10  20  36  58  83 112 147 185 227 278 333
#     4  10  24  44  62  83 114 147 180 225 284 347
#     4  12  26  44  66  91 116 147 188 235 292 353
#     4   9  15  25  43  71 106 144 186 229 274 323
#     4   8  14  22  37  65 103 143 184 230 274 319
#     4   9  15  26  45  73 108 147 191 234 279 330
#
# _framework density 20.469189
#
# number of rings (size 3 to 8) (size 9 to 14) (size 15 to 20)
#    0.000    2.333    0.000    5.750    0.000    3.333 
#    0.000    1.667    0.000    1.000    0.000    5.833 
#    0.000    0.000    0.000    0.000    0.000    0.000 
#
# Total GULP energy -133894.869016 kJ/mol
# GULP energy per Si atom -5578.952876 kJ/mol
# Density = 2.042260 g / cm^3
# Si number density = 20.469189 Si / 1000 Ang^3
#
#
#
# Elastic Constant Matrix: (Units=GPa)
#
#
# Indices 1 2 3 4 5 6 
#
# 1 95.1537 29.6525 71.2383 0.0000 0.0000 0.0000
# 2 29.6525 93.9769 75.7905 0.0000 0.0000 0.0000
# 3 71.2383 75.7905 250.8666 0.0000 0.0000 0.0000
# 4 0.0000 0.0000 0.0000 37.5361 0.0000 0.0000
# 5 0.0000 0.0000 0.0000 0.0000 66.4536 0.0000
# 6 0.0000 0.0000 0.0000 0.0000 0.0000 9.5453
#
#
#
# Elastic Compliance Matrix: (Units=1/GPa)
#
#
# Indices 1 2 3 4 5 6 
#
# 1 0.013515 -0.001546 -0.003371 0.000000 0.000000 0.000000
# 2 -0.001546 0.014246 -0.003865 0.000000 0.000000 0.000000
# 3 -0.003371 -0.003865 0.006111 0.000000 0.000000 0.000000
# 4 0.000000 0.000000 0.000000 0.026641 0.000000 0.000000
# 5 0.000000 0.000000 0.000000 0.000000 0.015048 0.000000
# 6 0.000000 0.000000 0.000000 0.000000 0.000000 0.104763
#
#
# Mechanical properties :
#
#
# Convention : Reuss Voigt Hill
#
# Bulk Modulus (GPa) = 61.31816 88.15108 74.73462
# Shear Modulus (GPa) = 24.59150 40.26142 32.42646
#
# Velocity S-wave (km/s) = 3.46987 4.43982 3.98447
# Velocity P-wave (km/s) = 6.78783 8.33315 7.59987
#
# Compressibility (1/GPa) = 0.01630838
#
# Stress axis : x y z
#
# Youngs Moduli (GPa) = 73.99428 70.19728 163.64011
#
# Poissons Ratio (x) = 0.10851 0.55158
# Poissons Ratio (y) = 0.11438 0.63244
# Poissons Ratio (z) = 0.24941 0.27130
#
# Static dielectric constant tensor:
#      x y z
#    x 0.902780 0.000000 0.000000 
#    y 0.000000 1.684470 0.000000 
#    z 0.000000 0.000000 1.767720 
# 
# From -- ./inp_files/18808.got.cif
#   From: 2010.05.17/outbox.cif.g08.bks.cpg/sg35_10_cif.got.tgz:18808.got - 2010.06.03 17:29:28.
