data_PCOD9349003
_publ_section_title
;
Structure prediction by ZEFSAII (Michael W. Deem and Ramdas Pophale) SiO2 
 PCOD9349003
Probable space group: C M M 2
;
_chemical_formula_sum "Si O2"
_cell_formula_units_Z 56
_cell_length_a 8.081248
_cell_length_b 18.795893
_cell_length_c 18.498485
_cell_angle_alpha 90.000000
_cell_angle_beta 90.000000
_cell_angle_gamma 90.000000
_cell_volume 2809.813925
_symmetry_space_group_name_H-M "C M M 2"
_symmetry_group_IT_number 35
_symmetry_cell_setting 'orthorhombic'
loop_
_space_group_symop_operation_xyz
x,y,z
-x,-y,z
-x,y,z
x,-y,z
1/2+x,1/2+y,z
1/2-x,1/2-y,z
1/2-x,1/2+y,z
1/2+x,1/2-y,z
loop_
_atom_site_type_symbol
_atom_site_label
_atom_site_fract_x
_atom_site_fract_y
_atom_site_fract_z
Si Si1 0.302109 0.330823 0.458490
Si Si2 0.297585 0.917744 0.040144
Si Si3 0.699891 0.167962 0.898072
Si Si4 0.697891 0.669177 0.621798
Si Si5 0.300109 0.167962 0.182216
Si Si6 0.198875 0.419287 0.759129
Si Si7 0.801125 0.580713 0.321159
O O1 0.500000 0.333759 0.459152
O O2 0.250000 0.250000 0.441058
O O3 0.241428 0.346666 0.540144
O O4 0.239112 0.383845 0.397622
O O5 0.500000 0.918093 0.040144
O O6 0.243676 0.875781 0.111813
O O7 0.244738 0.000000 0.040144
O O8 0.243675 0.875781 0.968474
O O9 0.500000 0.165429 0.897686
O O10 0.750000 0.250000 0.901242
O O11 0.760702 0.129682 0.824995
O O12 0.500000 0.666242 0.621135
O O13 0.750000 0.750000 0.639230
O O14 0.760887 0.616155 0.682666
O O15 0.500000 0.165429 0.182602
O O16 0.250000 0.250000 0.179046
O O17 0.239297 0.129682 0.255292
O O18 0.262147 0.500000 0.764174
O O19 0.000000 0.422118 0.765706
O O20 0.737853 0.500000 0.316114
O O21 0.000000 0.577882 0.314580
#
# Coordination Sequence:
#
# PCOD9349003 Si02
#       7
#     8   8   8   8   8   8   8
#     4  10  21  37  57  80 106 138 177 219 264 317
#     4   9  17  32  55  79 104 137 176 216 258 307
#     4  10  20  34  54  79 106 138 177 218 260 310
#     4  10  21  37  57  80 106 138 177 219 264 317
#     4  10  20  34  54  79 106 138 177 218 260 310
#     4  10  21  36  54  78 108 141 178 220 266 316
#     4  10  21  36  54  78 108 141 178 220 266 316
#
# _framework density 19.930145
#
# number of rings (size 3 to 8) (size 9 to 14) (size 15 to 20)
#    0.000    2.143    0.000    3.000    0.000    9.714 
#    0.000    2.857    0.000    3.429    0.000    0.000 
#    0.000    0.000    0.000    0.000    0.000    0.000 
#
# Total GULP energy -156409.379067 kJ/mol
# GULP energy per Si atom -5586.049252 kJ/mol
# Density = 1.988478 g / cm^3
# Si number density = 19.930145 Si / 1000 Ang^3
#
#
#
# Elastic Constant Matrix: (Units=GPa)
#
#
# Indices 1 2 3 4 5 6 
#
# 1 12.5418 9.6996 10.3732 0.0000 0.0000 0.0000
# 2 9.6996 210.6303 129.7692 0.0000 0.0000 0.0000
# 3 10.3732 129.7692 155.2792 0.0000 0.0000 0.0000
# 4 0.0000 0.0000 0.0000 17.1537 0.0000 0.0000
# 5 0.0000 0.0000 0.0000 0.0000 -12.4311 0.0000
# 6 0.0000 0.0000 0.0000 0.0000 0.0000 29.7253
#
#
#
# Elastic Compliance Matrix: (Units=1/GPa)
#
#
# Indices 1 2 3 4 5 6 
#
# 1 0.084471 -0.000852 -0.004931 0.000000 0.000000 0.000000
# 2 -0.000852 0.009795 -0.008129 0.000000 0.000000 0.000000
# 3 -0.004931 -0.008129 0.013563 0.000000 0.000000 0.000000
# 4 0.000000 0.000000 0.000000 0.058296 0.000000 0.000000
# 5 0.000000 0.000000 0.000000 0.000000 -0.080444 0.000000
# 6 0.000000 0.000000 0.000000 0.000000 0.000000 0.033641
#
#
# Mechanical properties :
#
#
# Convention : Reuss Voigt Hill
#
# Bulk Modulus (GPa) = 12.49923 75.34837 43.92380
# Shear Modulus (GPa) = 28.76614 22.13021 25.44818
#
# Velocity S-wave (km/s) = 3.80326 3.33586 3.57721
# Velocity P-wave (km/s) = 5.05683 7.26124 6.25688
#
# Compressibility (1/GPa) = 0.08000492
#
# Stress axis : x y z
#
# Youngs Moduli (GPa) = 11.83843 102.09056 73.72978
#
# Poissons Ratio (x) = 0.08698 0.36356
# Poissons Ratio (y) = 0.01009 0.59936
# Poissons Ratio (z) = 0.05837 0.82991
#
# Static dielectric constant tensor:
#      x y z
#    x 1.717880 0.000000 0.000000 
#    y 0.000000 1.662680 0.000000 
#    z 0.000000 0.000000 1.694340 
# 
# From -- ./inp_files/15621.got.cif
#   From: 2010.05.17/outbox.cif.g08.bks.cpg/sg35_8_cif.got.tgz:15621.got - 2010.06.03 17:29:28.
