data_PCOD9349982
_publ_section_title
;
Structure prediction by ZEFSAII (Michael W. Deem and Ramdas Pophale) SiO2 
 PCOD9349982
Probable space group: C M M 2
;
_chemical_formula_sum "Si O2"
_cell_formula_units_Z 44
_cell_length_a 14.978260
_cell_length_b 8.367241
_cell_length_c 17.023393
_cell_angle_alpha 90.000000
_cell_angle_beta 90.000000
_cell_angle_gamma 90.000000
_cell_volume 2133.485858
_symmetry_space_group_name_H-M "C M M 2"
_symmetry_group_IT_number 35
_symmetry_cell_setting 'orthorhombic'
loop_
_space_group_symop_operation_xyz
x,y,z
-x,-y,z
-x,y,z
x,-y,z
1/2+x,1/2+y,z
1/2-x,1/2-y,z
1/2-x,1/2+y,z
1/2+x,1/2-y,z
loop_
_atom_site_type_symbol
_atom_site_label
_atom_site_fract_x
_atom_site_fract_y
_atom_site_fract_z
Si Si1 0.500000 0.731353 0.648510
Si Si2 0.500000 0.694537 0.910026
Si Si3 0.146711 0.806855 0.785212
Si Si4 0.393007 0.316847 0.376040
Si Si5 0.846430 0.689756 0.203572
Si Si6 0.154601 0.685795 0.538314
Si Si7 0.500000 0.692006 0.089903
O O1 0.419773 0.747137 0.715149
O O2 0.422967 0.717463 0.580279
O O3 0.500000 0.500000 0.909390
O O4 0.409742 0.741867 0.863078
O O5 0.500000 0.748645 0.999895
O O6 0.250000 0.750000 0.782179
O O7 0.147681 0.000000 0.780867
O O8 0.500000 0.308950 0.381116
O O9 0.364105 0.500000 0.389465
O O10 0.366775 0.263854 0.289010
O O11 0.353412 0.208562 0.444815
O O12 0.849578 0.500000 0.211178
O O13 0.750000 0.750000 0.179061
O O14 0.916207 0.747103 0.139197
O O15 0.141126 0.500000 0.559124
O O16 0.250000 0.750000 0.564456
O O17 0.500000 0.500000 0.089868
#
# Coordination Sequence:
#
# PCOD9349982 Si02
#       7
#     4   4   8   8   8   8   4
#     4  11  24  40  64  91 123 166 209 257 307 371
#     4   8  19  41  67  94 128 168 204 251 312 380
#     4  10  22  42  68  96 127 165 208 255 314 378
#     4  11  23  41  66  92 124 168 217 266 323 378
#     4  12  25  42  65  93 130 172 218 267 320 378
#     4  12  26  43  63  91 127 167 216 267 321 378
#     4  11  22  41  67  97 133 168 211 262 319 381
#
# _framework density 20.623525000000001
#
# number of rings (size 3 to 8) (size 9 to 14) (size 15 to 20)
#    0.000    1.091    1.818    5.182    0.000    7.273 
#    0.000    5.000    0.000    0.000    0.000    0.000 
#    0.000    0.000    0.000    0.000    0.000    0.000 
#
# Total GULP energy -122481.576951 kJ/mol
# GULP energy per Si atom -5567.344407 kJ/mol
# Density = 2.057658 g / cm^3
# Si number density = 20.623525 Si / 1000 Ang^3
#
#
#
# Elastic Constant Matrix: (Units=GPa)
#
#
# Indices 1 2 3 4 5 6 
#
# 1 200.5944 8.0112 66.9860 0.0000 0.0000 0.0000
# 2 8.0112 44.2414 -13.1609 0.0000 0.0000 0.0000
# 3 66.9860 -13.1609 131.8244 0.0000 0.0000 0.0000
# 4 0.0000 0.0000 0.0000 18.5592 0.0000 0.0000
# 5 0.0000 0.0000 0.0000 0.0000 13.0988 0.0000
# 6 0.0000 0.0000 0.0000 0.0000 0.0000 16.0472
#
#
#
# Elastic Compliance Matrix: (Units=1/GPa)
#
#
# Indices 1 2 3 4 5 6 
#
# 1 0.006191 -0.002120 -0.003358 0.000000 0.000000 0.000000
# 2 -0.002120 0.024021 0.003475 0.000000 0.000000 0.000000
# 3 -0.003358 0.003475 0.009639 0.000000 0.000000 0.000000
# 4 0.000000 0.000000 0.000000 0.053882 0.000000 0.000000
# 5 0.000000 0.000000 0.000000 0.000000 0.076343 0.000000
# 6 0.000000 0.000000 0.000000 0.000000 0.000000 0.062316
#
#
# Mechanical properties :
#
#
# Convention : Reuss Voigt Hill
#
# Bulk Modulus (GPa) = 27.89649 55.59251 41.74450
# Shear Modulus (GPa) = 20.13327 30.52929 25.33128
#
# Velocity S-wave (km/s) = 3.12785 3.85166 3.50847
# Velocity P-wave (km/s) = 5.15757 6.84067 6.05786
#
# Compressibility (1/GPa) = 0.03584680
#
# Stress axis : x y z
#
# Youngs Moduli (GPa) = 161.52276 41.63028 103.74545
#
# Poissons Ratio (x) = 0.08825 0.34834
# Poissons Ratio (y) = 0.34241 -0.36056
# Poissons Ratio (z) = 0.54233 -0.14468
#
# Static dielectric constant tensor:
#      x y z
#    x 1.706570 0.000000 0.000000 
#    y 0.000000 1.750720 0.000000 
#    z 0.000000 0.000000 1.718110 
# 
# From -- ./inp_files/18719.got.cif
#   From: 2010.05.17/outbox.cif.g08.bks.cpg/sg35_10_cif.got.tgz:18719.got - 2010.06.03 17:29:28.
