data_PCOD9349847
_publ_section_title
;
Structure prediction by ZEFSAII (Michael W. Deem and Ramdas Pophale) SiO2 
 PCOD9349847
Probable space group: C M M 2
;
_chemical_formula_sum "Si O2"
_cell_formula_units_Z 40
_cell_length_a 20.668715
_cell_length_b 14.557810
_cell_length_c 6.086562
_cell_angle_alpha 90.000000
_cell_angle_beta 90.000000
_cell_angle_gamma 90.000000
_cell_volume 1831.393102
_symmetry_space_group_name_H-M "C M M 2"
_symmetry_group_IT_number 35
_symmetry_cell_setting 'orthorhombic'
loop_
_space_group_symop_operation_xyz
x,y,z
-x,-y,z
-x,y,z
x,-y,z
1/2+x,1/2+y,z
1/2-x,1/2-y,z
1/2-x,1/2+y,z
1/2+x,1/2-y,z
loop_
_atom_site_type_symbol
_atom_site_label
_atom_site_fract_x
_atom_site_fract_y
_atom_site_fract_z
Si Si1 0.072013 0.847128 0.922580
Si Si2 0.309422 0.101386 0.962961
Si Si3 0.927987 0.652872 0.672730
Si Si4 0.190578 0.898614 0.632350
Si Si5 0.645646 0.250000 0.297655
O O1 0.066491 0.750000 0.797655
O O2 0.125553 0.898835 0.779780
O O3 0.000000 0.887529 0.936197
O O4 0.101176 0.820089 0.158288
O O5 0.374447 0.101165 0.815530
O O6 0.250000 0.116294 0.797655
O O7 0.302072 0.000000 0.066312
O O8 0.314882 0.184929 0.132768
O O9 0.898824 0.679912 0.437022
O O10 0.000000 0.612471 0.659113
O O11 0.185118 0.815071 0.462542
O O12 0.197928 0.000000 0.528998
#
# Coordination Sequence:
#
# PCOD9349847 Si02
#       5
#     8   8   8   8   8
#     4   9  19  36  59  89 124 161 204 253 303 359
#     4  10  23  41  61  91 128 163 205 257 311 371
#     4   9  19  36  59  89 124 161 204 253 303 359
#     4  10  23  41  61  91 128 163 205 257 311 371
#     4  10  21  39  66  90 119 165 210 254 309 371
#
# _framework density 21.841296
#
# number of rings (size 3 to 8) (size 9 to 14) (size 15 to 20)
#    0.000    2.400    0.000    0.600    0.000   14.400 
#    0.000    4.000    0.000    1.200    0.000    0.000 
#    0.000    0.000    0.000    0.000    0.000    0.000 
#
# Total GULP energy -111725.996511 kJ/mol
# GULP energy per Si atom -5586.299826 kJ/mol
# Density = 2.179158 g / cm^3
# Si number density = 21.841296 Si / 1000 Ang^3
#
#
#
# Elastic Constant Matrix: (Units=GPa)
#
#
# Indices 1 2 3 4 5 6 
#
# 1 164.9007 74.7296 55.9949 0.0000 0.0000 0.0000
# 2 74.7296 119.6106 52.1832 0.0000 0.0000 0.0000
# 3 55.9949 52.1832 87.8836 0.0000 0.0000 0.0000
# 4 0.0000 0.0000 0.0000 15.1643 0.0000 0.0000
# 5 0.0000 0.0000 0.0000 0.0000 10.3506 0.0000
# 6 0.0000 0.0000 0.0000 0.0000 0.0000 29.4305
#
#
#
# Elastic Compliance Matrix: (Units=1/GPa)
#
#
# Indices 1 2 3 4 5 6 
#
# 1 0.009107 -0.004262 -0.003271 0.000000 0.000000 0.000000
# 2 -0.004262 0.013278 -0.005169 0.000000 0.000000 0.000000
# 3 -0.003271 -0.005169 0.016532 0.000000 0.000000 0.000000
# 4 0.000000 0.000000 0.000000 0.065944 0.000000 0.000000
# 5 0.000000 0.000000 0.000000 0.000000 0.096613 0.000000
# 6 0.000000 0.000000 0.000000 0.000000 0.000000 0.033978
#
#
# Mechanical properties :
#
#
# Convention : Reuss Voigt Hill
#
# Bulk Modulus (GPa) = 74.00652 82.02338 78.01495
# Shear Modulus (GPa) = 18.84218 23.62156 21.23187
#
# Velocity S-wave (km/s) = 2.94034 3.29220 3.12123
# Velocity P-wave (km/s) = 6.74424 7.21715 6.98470
#
# Compressibility (1/GPa) = 0.01351232
#
# Stress axis : x y z
#
# Youngs Moduli (GPa) = 109.80844 75.30990 60.48839
#
# Poissons Ratio (x) = 0.32100 0.19788
# Poissons Ratio (y) = 0.46805 0.31264
# Poissons Ratio (z) = 0.35923 0.38925
#
# Static dielectric constant tensor:
#      x y z
#    x 1.821840 0.000000 0.000000 
#    y 0.000000 1.784370 0.000000 
#    z 0.000000 0.000000 1.808470 
# 
# From -- ./inp_files/3326.got.cif
#   From: 2010.05.17/outbox.cif.g08.bks.cpg/sg35_2_cif.got.tgz:3326.got - 2010.06.03 17:29:28.
