data_PCOD9349028
_publ_section_title
;
Structure prediction by ZEFSAII (Michael W. Deem and Ramdas Pophale) SiO2 
 PCOD9349028
Probable space group: C M M 2
;
_chemical_formula_sum "Si O2"
_cell_formula_units_Z 64
_cell_length_a 15.775681
_cell_length_b 16.916632
_cell_length_c 10.955285
_cell_angle_alpha 90.000000
_cell_angle_beta 90.000000
_cell_angle_gamma 90.000000
_cell_volume 2923.652136
_symmetry_space_group_name_H-M "C M M 2"
_symmetry_group_IT_number 35
_symmetry_cell_setting 'orthorhombic'
loop_
_space_group_symop_operation_xyz
x,y,z
-x,-y,z
-x,y,z
x,-y,z
1/2+x,1/2+y,z
1/2-x,1/2-y,z
1/2-x,1/2+y,z
1/2+x,1/2-y,z
loop_
_atom_site_type_symbol
_atom_site_label
_atom_site_fract_x
_atom_site_fract_y
_atom_site_fract_z
Si Si1 0.095993 0.252061 0.230060
Si Si2 0.102418 0.590023 0.310610
Si Si3 0.873851 0.914674 0.875198
Si Si4 0.187082 0.586383 0.803425
Si Si5 0.742811 0.911685 0.519300
Si Si6 0.904109 0.741669 0.767022
Si Si7 0.595753 0.700917 0.505303
Si Si8 0.902766 0.085905 0.157916
O O1 0.127867 0.341239 0.214609
O O2 0.091985 0.244474 0.376601
O O3 0.139061 0.169727 0.191751
O O4 0.000000 0.249880 0.177832
O O5 0.114186 0.500000 0.266663
O O6 0.163175 0.599660 0.428625
O O7 0.000000 0.598413 0.335903
O O8 0.772808 0.916888 0.879676
O O9 0.894265 0.832638 0.808766
O O10 0.899949 0.000000 0.817786
O O11 0.907671 0.913329 0.011888
O O12 0.142667 0.500000 0.819016
O O13 0.213601 0.590992 0.660237
O O14 0.147236 0.671679 0.829618
O O15 0.823042 0.855472 0.500097
O O16 0.774663 0.000000 0.495938
O O17 0.888337 0.743686 0.621788
O O18 0.000000 0.719164 0.787994
O O19 0.500000 0.665899 0.523955
O O20 0.000000 0.087430 0.207772
O O21 0.865640 0.000000 0.194541
#
# Coordination Sequence:
#
# PCOD9349028 Si02
#       8
#     8   8   8   8   8   8   8   8
#     4   9  18  33  54  82 114 149 187 228 282 341
#     4   9  18  33  55  82 114 155 200 239 274 329
#     4  10  20  36  59  86 112 143 188 240 292 346
#     4  10  21  36  55  81 114 153 195 238 285 338
#     4  10  20  34  54  81 117 160 193 227 284 347
#     4  11  22  35  57  86 116 154 192 234 290 349
#     4  10  21  34  52  84 121 153 187 232 289 355
#     4   9  18  34  57  84 114 148 187 235 290 350
#
# _framework density 21.890429999999999
#
# number of rings (size 3 to 8) (size 9 to 14) (size 15 to 20)
#    0.000    2.250    1.250    1.500    0.000    4.750 
#    0.000    3.750    5.500    0.750    0.000    1.750 
#    0.000    0.000    0.000    0.000    0.000    0.000 
#
# Total GULP energy -178183.128931 kJ/mol
# GULP energy per Si atom -5568.222779 kJ/mol
# Density = 2.184061 g / cm^3
# Si number density = 21.890430 Si / 1000 Ang^3
#
#
#
# Elastic Constant Matrix: (Units=GPa)
#
#
# Indices 1 2 3 4 5 6 
#
# 1 62.4583 50.6912 -5.7957 0.0000 0.0000 0.0000
# 2 50.6912 187.6551 23.5324 0.0000 0.0000 0.0000
# 3 -5.7957 23.5324 20.2046 0.0000 0.0000 0.0000
# 4 0.0000 0.0000 0.0000 13.4740 0.0000 0.0000
# 5 0.0000 0.0000 0.0000 0.0000 17.6463 0.0000
# 6 0.0000 0.0000 0.0000 0.0000 0.0000 -222.8880
#
#
#
# Elastic Compliance Matrix: (Units=1/GPa)
#
#
# Indices 1 2 3 4 5 6 
#
# 1 0.024872 -0.008916 0.017519 0.000000 0.000000 0.000000
# 2 -0.008916 0.009436 -0.013548 0.000000 0.000000 0.000000
# 3 0.017519 -0.013548 0.070298 0.000000 0.000000 0.000000
# 4 0.000000 0.000000 0.000000 0.074217 0.000000 0.000000
# 5 0.000000 0.000000 0.000000 0.000000 0.056669 0.000000
# 6 0.000000 0.000000 0.000000 0.000000 0.000000 -0.004487
#
#
# Mechanical properties :
#
#
# Convention : Reuss Voigt Hill
#
# Bulk Modulus (GPa) = 10.55780 45.24154 27.89967
# Shear Modulus (GPa) = 18.35078 -24.89420 -3.27171
#
# Velocity S-wave (km/s) = 2.89848 -3.37593 -1.22386
# Velocity P-wave (km/s) = 4.00439 2.34868 3.28264
#
# Compressibility (1/GPa) = 0.09471669
#
# Stress axis : x y z
#
# Youngs Moduli (GPa) = 40.20559 105.97467 14.22515
#
# Poissons Ratio (x) = 0.94483 -0.24920
# Poissons Ratio (y) = 0.35846 0.19272
# Poissons Ratio (z) = -0.70434 1.43573
#
# Static dielectric constant tensor:
#      x y z
#    x 1.801570 0.000000 0.000000 
#    y 0.000000 1.914980 0.000000 
#    z 0.000000 0.000000 1.783210 
# 
# From -- ./inp_files/13595.got.cif
#   From: 2010.05.17/outbox.cif.g08.bks.cpg/sg35_7_cif.got.tgz:13595.got - 2010.06.03 17:29:28.
