data_PCOD9349061
_publ_section_title
;
Structure prediction by ZEFSAII (Michael W. Deem and Ramdas Pophale) SiO2 
 PCOD9349061
Probable space group: C M M 2
;
_chemical_formula_sum "Si O2"
_cell_formula_units_Z 56
_cell_length_a 13.313195
_cell_length_b 17.806168
_cell_length_c 12.001530
_cell_angle_alpha 90.000000
_cell_angle_beta 90.000000
_cell_angle_gamma 90.000000
_cell_volume 2845.046539
_symmetry_space_group_name_H-M "C M M 2"
_symmetry_group_IT_number 35
_symmetry_cell_setting 'orthorhombic'
loop_
_space_group_symop_operation_xyz
x,y,z
-x,-y,z
-x,y,z
x,-y,z
1/2+x,1/2+y,z
1/2-x,1/2-y,z
1/2-x,1/2+y,z
1/2+x,1/2-y,z
loop_
_atom_site_type_symbol
_atom_site_label
_atom_site_fract_x
_atom_site_fract_y
_atom_site_fract_z
Si Si1 0.691789 0.083498 0.457970
Si Si2 0.383363 0.199128 0.624171
Si Si3 0.119538 0.412970 0.205319
Si Si4 0.617093 0.086066 0.809286
Si Si5 0.219360 0.336839 0.000391
Si Si6 0.609742 0.587558 0.852990
Si Si7 0.880846 0.871701 0.596151
O O1 0.629542 0.150074 0.514088
O O2 0.671165 0.088705 0.326861
O O3 0.805380 0.093121 0.505202
O O4 0.656887 0.000000 0.494396
O O5 0.500000 0.208919 0.653686
O O6 0.338775 0.143834 0.718289
O O7 0.349199 0.284237 0.607892
O O8 0.122695 0.500000 0.166019
O O9 0.185768 0.363030 0.122289
O O10 0.000000 0.392447 0.211388
O O11 0.500000 0.077479 0.783555
O O12 0.658817 0.000000 0.812059
O O13 0.629138 0.131389 0.923651
O O14 0.250000 0.250000 0.998015
O O15 0.311379 0.376798 0.936612
O O16 0.500000 0.623048 0.870591
O O17 0.605452 0.500000 0.878315
O O18 0.629371 0.594898 0.720510
O O19 0.000000 0.877538 0.566172
#
# Coordination Sequence:
#
# PCOD9349061 Si02
#       7
#     8   8   8   8   8   8   8
#     4  11  22  37  59  84 112 148 192 240 288 344
#     4  10  20  34  55  85 120 151 185 236 293 347
#     4  10  23  44  66  85 109 146 193 244 297 352
#     4  10  20  35  58  87 118 153 195 243 293 346
#     4  12  24  37  58  86 116 150 188 238 293 349
#     4  10  21  38  59  83 116 157 197 233 272 328
#     4  10  21  37  58  85 120 160 196 233 280 336
#
# _framework density 19.683333000000001
#
# number of rings (size 3 to 8) (size 9 to 14) (size 15 to 20)
#    0.000    1.571    0.000    5.143    0.000    6.857 
#    0.000    0.714    0.000    0.857    0.000    0.000 
#    0.000    0.000    0.000    0.000    0.000    0.000 
#
# Total GULP energy -156122.709750 kJ/mol
# GULP energy per Si atom -5575.811063 kJ/mol
# Density = 1.963853 g / cm^3
# Si number density = 19.683333 Si / 1000 Ang^3
#
#
#
# Elastic Constant Matrix: (Units=GPa)
#
#
# Indices 1 2 3 4 5 6 
#
# 1 99.1267 7.1951 19.0488 0.0000 0.0000 0.0000
# 2 7.1951 139.4330 47.3697 0.0000 0.0000 0.0000
# 3 19.0488 47.3697 84.7943 0.0000 0.0000 0.0000
# 4 0.0000 0.0000 0.0000 26.0300 0.0000 0.0000
# 5 0.0000 0.0000 0.0000 0.0000 23.2108 0.0000
# 6 0.0000 0.0000 0.0000 0.0000 0.0000 7.1054
#
#
#
# Elastic Compliance Matrix: (Units=1/GPa)
#
#
# Indices 1 2 3 4 5 6 
#
# 1 0.010555 0.000322 -0.002551 0.000000 0.000000 0.000000
# 2 0.000322 0.008862 -0.005023 0.000000 0.000000 0.000000
# 3 -0.002551 -0.005023 0.015172 0.000000 0.000000 0.000000
# 4 0.000000 0.000000 0.000000 0.038417 0.000000 0.000000
# 5 0.000000 0.000000 0.000000 0.000000 0.043083 0.000000
# 6 0.000000 0.000000 0.000000 0.000000 0.000000 0.140737
#
#
# Mechanical properties :
#
#
# Convention : Reuss Voigt Hill
#
# Bulk Modulus (GPa) = 49.78791 52.28679 51.03735
# Shear Modulus (GPa) = 17.98393 27.91860 22.95126
#
# Velocity S-wave (km/s) = 3.02597 3.77023 3.41842
# Velocity P-wave (km/s) = 6.12846 6.75089 6.44719
#
# Compressibility (1/GPa) = 0.02008520
#
# Stress axis : x y z
#
# Youngs Moduli (GPa) = 94.74226 112.84505 65.90956
#
# Poissons Ratio (x) = -0.03634 0.16814
# Poissons Ratio (y) = -0.03051 0.33105
# Poissons Ratio (z) = 0.24169 0.56680
#
# Static dielectric constant tensor:
#      x y z
#    x 1.803540 0.000000 0.000000 
#    y 0.000000 1.708890 0.000000 
#    z 0.000000 0.000000 1.720640 
# 
# From -- ./inp_files/12991.got.cif
#   From: 2010.05.17/outbox.cif.g08.bks.cpg/sg35_7_cif.got.tgz:12991.got - 2010.06.03 17:29:28.
