data_PCOD9349988
_publ_section_title
;
Structure prediction by ZEFSAII (Michael W. Deem and Ramdas Pophale) SiO2 
 PCOD9349988
Probable space group: C M M 2
;
_chemical_formula_sum "Si O2"
_cell_formula_units_Z 48
_cell_length_a 10.217862
_cell_length_b 16.931942
_cell_length_c 13.660148
_cell_angle_alpha 90.000000
_cell_angle_beta 90.000000
_cell_angle_gamma 90.000000
_cell_volume 2363.318256
_symmetry_space_group_name_H-M "C M M 2"
_symmetry_group_IT_number 35
_symmetry_cell_setting 'orthorhombic'
loop_
_space_group_symop_operation_xyz
x,y,z
-x,-y,z
-x,y,z
x,-y,z
1/2+x,1/2+y,z
1/2-x,1/2-y,z
1/2-x,1/2+y,z
1/2+x,1/2-y,z
loop_
_atom_site_type_symbol
_atom_site_label
_atom_site_fract_x
_atom_site_fract_y
_atom_site_fract_z
Si Si1 0.284423 0.094758 0.287500
Si Si2 0.239052 0.839345 0.705889
Si Si3 0.348407 0.091892 0.889984
Si Si4 0.151617 0.678634 0.093700
Si Si5 0.000000 0.906930 0.351993
Si Si6 0.500000 0.325878 0.554379
Si Si7 0.000000 0.337345 0.426068
Si Si8 0.000000 0.410888 0.619413
O O1 0.325574 0.112868 0.176762
O O2 0.374762 0.148273 0.357746
O O3 0.135089 0.121685 0.305410
O O4 0.297765 0.000000 0.308042
O O5 0.250000 0.750000 0.741957
O O6 0.244418 0.891524 0.803864
O O7 0.123324 0.838438 0.626466
O O8 0.370278 0.865929 0.651418
O O9 0.500000 0.109507 0.856662
O O10 0.345048 0.000000 0.915629
O O11 0.323858 0.143138 0.986128
O O12 0.250000 0.750000 0.112593
O O13 0.000000 0.704034 0.098582
O O14 0.000000 0.888682 0.467095
O O15 0.000000 0.000000 0.336469
O O16 0.500000 0.242676 0.492560
O O17 0.000000 0.408596 0.503059
O O18 0.000000 0.500000 0.658369
#
# Coordination Sequence:
#
# PCOD9349988 Si02
#       8
#     8   8   8   8   4   4   4   4
#     4  11  24  43  69 100 137 182 235 290 351 425
#     4  12  23  44  65 101 137 181 231 291 361 416
#     4  10  22  44  74 102 135 180 235 292 351 424
#     4  11  25  44  70 106 138 179 227 289 357 427
#     4  10  26  44  63  93 141 189 226 289 354 412
#     4  12  28  42  65 101 144 184 236 293 362 411
#     4  12  24  42  65 101 132 186 241 290 347 414
#     4  12  24  42  69  97 131 181 243 288 341 423
#
# _framework density 20.310424999999999
#
# number of rings (size 3 to 8) (size 9 to 14) (size 15 to 20)
#    0.000    0.833    3.333    3.250    3.500    3.333 
#    1.500    0.000    0.000    0.000    0.000    0.000 
#    0.000    0.000    0.000    0.000    0.000    0.000 
#
# Total GULP energy -134028.903009 kJ/mol
# GULP energy per Si atom -5584.537625 kJ/mol
# Density = 2.026420 g / cm^3
# Si number density = 20.310425 Si / 1000 Ang^3
#
#
#
# Elastic Constant Matrix: (Units=GPa)
#
#
# Indices 1 2 3 4 5 6 
#
# 1 152.5983 50.3948 55.2548 0.0000 0.0000 0.0000
# 2 50.3948 53.9139 8.2483 0.0000 0.0000 0.0000
# 3 55.2548 8.2483 107.6766 0.0000 0.0000 0.0000
# 4 0.0000 0.0000 0.0000 32.1164 0.0000 0.0000
# 5 0.0000 0.0000 0.0000 0.0000 42.3292 0.0000
# 6 0.0000 0.0000 0.0000 0.0000 0.0000 22.2733
#
#
#
# Elastic Compliance Matrix: (Units=1/GPa)
#
#
# Indices 1 2 3 4 5 6 
#
# 1 0.011869 -0.010283 -0.005303 0.000000 0.000000 0.000000
# 2 -0.010283 0.027677 0.003157 0.000000 0.000000 0.000000
# 3 -0.005303 0.003157 0.011767 0.000000 0.000000 0.000000
# 4 0.000000 0.000000 0.000000 0.031137 0.000000 0.000000
# 5 0.000000 0.000000 0.000000 0.000000 0.023624 0.000000
# 6 0.000000 0.000000 0.000000 0.000000 0.000000 0.044897
#
#
# Mechanical properties :
#
#
# Convention : Reuss Voigt Hill
#
# Bulk Modulus (GPa) = 37.80159 60.22050 49.01104
# Shear Modulus (GPa) = 27.07851 32.69651 29.88751
#
# Velocity S-wave (km/s) = 3.65531 4.01663 3.84022
# Velocity P-wave (km/s) = 6.03882 7.15720 6.62166
#
# Compressibility (1/GPa) = 0.02645392
#
# Stress axis : x y z
#
# Youngs Moduli (GPa) = 84.25040 36.13081 84.98653
#
# Poissons Ratio (x) = 0.37154 0.45069
# Poissons Ratio (y) = 0.86637 -0.26828
# Poissons Ratio (z) = 0.44679 -0.11406
#
# Static dielectric constant tensor:
#      x y z
#    x 1.723310 0.000000 0.000000 
#    y 0.000000 1.745300 0.000000 
#    z 0.000000 0.000000 1.718750 
# 
# From -- ./inp_files/15304.got.cif
#   From: 2010.05.17/outbox.cif.g08.bks.cpg/sg35_8_cif.got.tgz:15304.got - 2010.06.03 17:29:28.
