data_PCOD9349109
_publ_section_title
;
Structure prediction by ZEFSAII (Michael W. Deem and Ramdas Pophale) SiO2 
 PCOD9349109
Probable space group: C M M 2
;
_chemical_formula_sum "Si O2"
_cell_formula_units_Z 40
_cell_length_a 8.315800
_cell_length_b 14.983820
_cell_length_c 17.320276
_cell_angle_alpha 90.000000
_cell_angle_beta 90.000000
_cell_angle_gamma 90.000000
_cell_volume 2158.148830
_symmetry_space_group_name_H-M "C M M 2"
_symmetry_group_IT_number 35
_symmetry_cell_setting 'orthorhombic'
loop_
_space_group_symop_operation_xyz
x,y,z
-x,-y,z
-x,y,z
x,-y,z
1/2+x,1/2+y,z
1/2-x,1/2-y,z
1/2-x,1/2+y,z
1/2+x,1/2-y,z
loop_
_atom_site_type_symbol
_atom_site_label
_atom_site_fract_x
_atom_site_fract_y
_atom_site_fract_z
Si Si1 0.809432 0.000000 0.220030
Si Si2 0.196955 0.500000 0.805122
Si Si3 0.195206 0.500000 0.395266
Si Si4 0.692158 0.852103 0.103044
Si Si5 0.696402 0.000000 0.981752
Si Si6 0.305971 0.850877 0.686750
Si Si7 0.693950 0.850904 0.514197
O O1 0.759278 0.000000 0.308996
O O2 0.744337 0.088083 0.176263
O O3 0.000000 0.000000 0.213023
O O4 0.251492 0.500000 0.893459
O O5 0.249513 0.585212 0.755169
O O6 0.000000 0.500000 0.806665
O O7 0.248505 0.414962 0.445779
O O8 0.000000 0.500000 0.391840
O O9 0.500000 0.850328 0.101493
O O10 0.750000 0.750000 0.103642
O O11 0.747574 0.911892 0.029497
O O12 0.500000 0.000000 0.981676
O O13 0.500000 0.853133 0.686652
O O14 0.250000 0.750000 0.697952
O O15 0.253160 0.879911 0.600475
O O16 0.500000 0.853180 0.514460
O O17 0.750000 0.750000 0.502891
#
# Coordination Sequence:
#
# PCOD9349109 Si02
#       7
#     4   4   4   8   4   8   8
#     4  11  23  38  56  81 108 134 171 214 261 317
#     4   9  16  29  50  74 103 138 172 207 251 301
#     4  10  20  35  53  73 102 136 170 211 258 306
#     4  10  20  37  59  80 105 138 174 212 260 314
#     4   8  17  32  51  78 107 134 169 212 254 304
#     4   9  17  30  49  72  99 134 175 213 251 298
#     4   9  18  32  50  72  99 134 174 213 253 300
#
# _framework density 18.534402
#
# number of rings (size 3 to 8) (size 9 to 14) (size 15 to 20)
#    0.000    2.600    0.000    2.700    0.000    4.800 
#    0.000    2.500    0.000   10.800    0.000    0.000 
#    0.000    0.000    0.000    0.000    0.000    0.000 
#
# Total GULP energy -111542.360076 kJ/mol
# GULP energy per Si atom -5577.118004 kJ/mol
# Density = 1.849222 g / cm^3
# Si number density = 18.534402 Si / 1000 Ang^3
#
#
#
# Elastic Constant Matrix: (Units=GPa)
#
#
# Indices 1 2 3 4 5 6 
#
# 1 25.3102 25.8494 25.6909 0.0000 0.0000 0.0000
# 2 25.8494 160.5773 119.1457 0.0000 0.0000 0.0000
# 3 25.6909 119.1457 208.2914 0.0000 0.0000 0.0000
# 4 0.0000 0.0000 0.0000 -13.7693 0.0000 0.0000
# 5 0.0000 0.0000 0.0000 0.0000 13.5219 0.0000
# 6 0.0000 0.0000 0.0000 0.0000 0.0000 25.5253
#
#
#
# Elastic Compliance Matrix: (Units=1/GPa)
#
#
# Indices 1 2 3 4 5 6 
#
# 1 0.048088 -0.005803 -0.002612 0.000000 0.000000 0.000000
# 2 -0.005803 0.011520 -0.005874 0.000000 0.000000 0.000000
# 3 -0.002612 -0.005874 0.008483 0.000000 0.000000 0.000000
# 4 0.000000 0.000000 0.000000 -0.072625 0.000000 0.000000
# 5 0.000000 0.000000 0.000000 0.000000 0.073954 0.000000
# 6 0.000000 0.000000 0.000000 0.000000 0.000000 0.039177
#
#
# Mechanical properties :
#
#
# Convention : Reuss Voigt Hill
#
# Bulk Modulus (GPa) = 25.30802 81.72787 53.51795
# Shear Modulus (GPa) = 33.25693 19.95511 26.60602
#
# Velocity S-wave (km/s) = 4.24055 3.28480 3.79290
# Velocity P-wave (km/s) = 6.13683 7.65359 6.93679
#
# Compressibility (1/GPa) = 0.03951317
#
# Stress axis : x y z
#
# Youngs Moduli (GPa) = 20.79539 86.80543 117.88273
#
# Poissons Ratio (x) = 0.50375 0.30787
# Poissons Ratio (y) = 0.12068 0.69242
# Poissons Ratio (z) = 0.05431 0.50988
#
# Static dielectric constant tensor:
#      x y z
#    x 1.638620 0.000000 0.000000 
#    y 0.000000 1.744420 0.000000 
#    z 0.000000 0.000000 1.635090 
# 
# From -- ./inp_files/14860.got.cif
#   From: 2010.05.17/outbox.cif.g08.bks.cpg/sg35_8_cif.got.tgz:14860.got - 2010.06.03 17:29:28.
