data_PCOD9349835
_publ_section_title
;
Structure prediction by ZEFSAII (Michael W. Deem and Ramdas Pophale) SiO2 
 PCOD9349835
Probable space group: C M M 2
;
_chemical_formula_sum "Si O2"
_cell_formula_units_Z 56
_cell_length_a 19.058881
_cell_length_b 17.291121
_cell_length_c 8.796329
_cell_angle_alpha 90.000000
_cell_angle_beta 90.000000
_cell_angle_gamma 90.000000
_cell_volume 2898.825098
_symmetry_space_group_name_H-M "C M M 2"
_symmetry_group_IT_number 35
_symmetry_cell_setting 'orthorhombic'
loop_
_space_group_symop_operation_xyz
x,y,z
-x,-y,z
-x,y,z
x,-y,z
1/2+x,1/2+y,z
1/2-x,1/2-y,z
1/2-x,1/2+y,z
1/2+x,1/2-y,z
loop_
_atom_site_type_symbol
_atom_site_label
_atom_site_fract_x
_atom_site_fract_y
_atom_site_fract_z
Si Si1 0.845274 0.151115 0.395400
Si Si2 0.345274 0.348885 0.757618
Si Si3 0.416006 0.500000 0.253753
Si Si4 0.205719 0.410449 0.259395
Si Si5 0.580776 0.197985 0.893287
Si Si6 0.919224 0.697985 0.259731
Si Si7 0.794281 0.589551 0.893624
Si Si8 0.916006 0.000000 0.899265
O O1 0.845686 0.152535 0.576509
O O2 0.886117 0.075976 0.333645
O O3 0.766171 0.140875 0.334849
O O4 0.883091 0.226763 0.330696
O O5 0.383091 0.273237 0.822322
O O6 0.266171 0.359125 0.818170
O O7 0.386117 0.424024 0.819373
O O8 0.500000 0.500000 0.259918
O O9 0.393987 0.500000 0.076509
O O10 0.212919 0.500000 0.306256
O O11 0.129814 0.375179 0.296631
O O12 0.214421 0.407111 0.076509
O O13 0.500000 0.190135 0.844547
O O14 0.629814 0.124821 0.856387
O O15 0.581291 0.206818 0.076509
O O16 0.000000 0.690135 0.308471
O O17 0.787081 0.500000 0.846762
O O18 0.000000 0.000000 0.893100
#
# Coordination Sequence:
#
# PCOD9349835 Si02
#       8
#     8   8   4   8   8   8   8   4
#     4  12  24  38  59  89 123 159 200 245 298 360
#     4  12  24  38  59  89 123 159 200 245 298 360
#     4  11  23  39  61  87 118 157 198 245 301 358
#     4  10  21  39  64  90 119 159 204 250 300 355
#     4  10  22  40  62  89 121 159 204 252 301 354
#     4  10  22  40  62  89 121 159 204 252 301 354
#     4  10  21  39  64  90 119 159 204 250 300 355
#     4  11  23  39  61  87 118 157 198 245 301 358
#
# _framework density 19.318171
#
# number of rings (size 3 to 8) (size 9 to 14) (size 15 to 20)
#    0.000    1.286    1.429    4.714    0.000   10.286 
#    0.000    2.857    0.000    0.000    0.000    4.000 
#    0.000    0.000    0.000    0.000    0.000    0.000 
#
# Total GULP energy -156592.059414 kJ/mol
# GULP energy per Si atom -5592.573550 kJ/mol
# Density = 1.927420 g / cm^3
# Si number density = 19.318171 Si / 1000 Ang^3
#
#
#
# Elastic Constant Matrix: (Units=GPa)
#
#
# Indices 1 2 3 4 5 6 
#
# 1 162.4779 39.9101 40.7354 0.0000 0.0000 0.0000
# 2 39.9101 38.9673 13.9355 0.0000 0.0000 0.0000
# 3 40.7354 13.9355 34.1355 0.0000 0.0000 0.0000
# 4 0.0000 0.0000 0.0000 -3.2810 0.0000 0.0000
# 5 0.0000 0.0000 0.0000 0.0000 -37.2441 0.0000
# 6 0.0000 0.0000 0.0000 0.0000 0.0000 8.8805
#
#
#
# Elastic Compliance Matrix: (Units=1/GPa)
#
#
# Indices 1 2 3 4 5 6 
#
# 1 0.010248 -0.007169 -0.009303 0.000000 0.000000 0.000000
# 2 -0.007169 0.035065 -0.005760 0.000000 0.000000 0.000000
# 3 -0.009303 -0.005760 0.042748 0.000000 0.000000 0.000000
# 4 0.000000 0.000000 0.000000 -0.304785 0.000000 0.000000
# 5 0.000000 0.000000 0.000000 0.000000 -0.026850 0.000000
# 6 0.000000 0.000000 0.000000 0.000000 0.000000 0.112606
#
#
# Mechanical properties :
#
#
# Convention : Reuss Voigt Hill
#
# Bulk Modulus (GPa) = 22.93711 47.19364 35.06537
# Shear Modulus (GPa) = -69.47019 3.07108 -33.19955
#
# Velocity S-wave (km/s) = -6.00326 1.26221 -4.15006
# Velocity P-wave (km/s) = 6.01274 5.15819 2.18473
#
# Compressibility (1/GPa) = 0.04359748
#
# Stress axis : x y z
#
# Youngs Moduli (GPa) = 97.58069 28.51857 23.39316
#
# Poissons Ratio (x) = 0.20445 0.21762
# Poissons Ratio (y) = 0.69956 0.13474
# Poissons Ratio (z) = 0.90775 0.16426
#
# Static dielectric constant tensor:
#      x y z
#    x 1.677690 0.000000 0.000000 
#    y 0.000000 1.641200 0.000000 
#    z 0.000000 0.000000 1.643270 
# 
# From -- ./inp_files/9327.got.cif
#   From: 2010.05.17/outbox.cif.g08.bks.cpg/sg35_5_cif.got.tgz:9327.got - 2010.06.03 17:29:28.
