data_PCOD9349879
_publ_section_title
;
Structure prediction by ZEFSAII (Michael W. Deem and Ramdas Pophale) SiO2 
 PCOD9349879
Probable space group: C M M 2
;
_chemical_formula_sum "Si O2"
_cell_formula_units_Z 48
_cell_length_a 16.618172
_cell_length_b 9.965820
_cell_length_c 15.617315
_cell_angle_alpha 90.000000
_cell_angle_beta 90.000000
_cell_angle_gamma 90.000000
_cell_volume 2586.441491
_symmetry_space_group_name_H-M "C M M 2"
_symmetry_group_IT_number 35
_symmetry_cell_setting 'orthorhombic'
loop_
_space_group_symop_operation_xyz
x,y,z
-x,-y,z
-x,y,z
x,-y,z
1/2+x,1/2+y,z
1/2-x,1/2-y,z
1/2-x,1/2+y,z
1/2+x,1/2-y,z
loop_
_atom_site_type_symbol
_atom_site_label
_atom_site_fract_x
_atom_site_fract_y
_atom_site_fract_z
Si Si1 0.250000 0.250000 0.258520
Si Si2 0.125396 0.000000 0.977722
Si Si3 0.772371 0.000000 0.135583
Si Si4 0.087528 0.735754 0.885406
Si Si5 0.095381 0.338301 0.371939
Si Si6 0.805620 0.500000 0.958177
Si Si7 0.404743 0.347259 0.535636
Si Si8 0.827895 0.159306 0.720124
O O1 0.267537 0.373360 0.196154
O O2 0.168696 0.285569 0.312150
O O3 0.085947 0.136120 0.947599
O O4 0.212762 0.000000 0.931200
O O5 0.147517 0.000000 0.077478
O O6 0.702538 0.000000 0.061943
O O7 0.151477 0.630755 0.921674
O O8 0.109880 0.792275 0.792208
O O9 0.000000 0.671101 0.883188
O O10 0.102212 0.500000 0.379283
O O11 0.109040 0.261367 0.461767
O O12 0.000000 0.310796 0.347002
O O13 0.500000 0.347475 0.553766
O O14 0.383091 0.500000 0.507242
O O15 0.359911 0.317970 0.624040
O O16 0.750000 0.250000 0.733590
O O17 0.812813 0.000000 0.728649
#
# Coordination Sequence:
#
# PCOD9349879 Si02
#       8
#     4   4   4   8   8   4   8   8
#     4  12  22  44  70  98 124 174 210 262 334 398
#     4  10  21  41  68  85 122 161 209 253 315 373
#     4  10  24  42  68  92 122 166 206 262 326 390
#     4  12  23  39  63  95 127 167 210 259 315 370
#     4  10  23  43  67  98 135 171 213 264 323 387
#     4  10  23  43  64  87 124 163 207 259 315 379
#     4   9  20  40  64  91 129 170 209 265 315 362
#     4  11  24  39  60  92 129 172 219 259 303 370
#
# _framework density 18.558316000000001
#
# number of rings (size 3 to 8) (size 9 to 14) (size 15 to 20)
#    0.500    1.000    1.667    3.500    3.500    1.333 
#    0.000    5.000    0.000    0.000    0.000    0.000 
#    0.000    0.000    0.000    0.000    0.000    0.000 
#
# Total GULP energy -133842.725254 kJ/mol
# GULP energy per Si atom -5576.780219 kJ/mol
# Density = 1.851608 g / cm^3
# Si number density = 18.558316 Si / 1000 Ang^3
#
#
#
# Elastic Constant Matrix: (Units=GPa)
#
#
# Indices 1 2 3 4 5 6 
#
# 1 107.7395 46.9960 55.1041 0.0000 0.0000 0.0000
# 2 46.9960 118.7463 56.0543 0.0000 0.0000 0.0000
# 3 55.1041 56.0543 118.7137 0.0000 0.0000 0.0000
# 4 0.0000 0.0000 0.0000 35.2129 0.0000 0.0000
# 5 0.0000 0.0000 0.0000 0.0000 -42.0868 0.0000
# 6 0.0000 0.0000 0.0000 0.0000 0.0000 6.5734
#
#
#
# Elastic Compliance Matrix: (Units=1/GPa)
#
#
# Indices 1 2 3 4 5 6 
#
# 1 0.012921 -0.002937 -0.004611 0.000000 0.000000 0.000000
# 2 -0.002937 0.011504 -0.004069 0.000000 0.000000 0.000000
# 3 -0.004611 -0.004069 0.012485 0.000000 0.000000 0.000000
# 4 0.000000 0.000000 0.000000 0.028399 0.000000 0.000000
# 5 0.000000 0.000000 0.000000 0.000000 -0.023760 0.000000
# 6 0.000000 0.000000 0.000000 0.000000 0.000000 0.152128
#
#
# Mechanical properties :
#
#
# Convention : Reuss Voigt Hill
#
# Bulk Modulus (GPa) = 73.11539 73.50092 73.30816
# Shear Modulus (GPa) = 22.57651 12.40959 17.49305
#
# Velocity S-wave (km/s) = 3.49164 2.58869 3.07351
# Velocity P-wave (km/s) = 7.46583 6.97327 7.22375
#
# Compressibility (1/GPa) = 0.01367701
#
# Stress axis : x y z
#
# Youngs Moduli (GPa) = 77.39298 86.92290 80.09597
#
# Poissons Ratio (x) = 0.25531 0.36930
# Poissons Ratio (y) = 0.22732 0.32589
# Poissons Ratio (z) = 0.35684 0.35367
#
# Static dielectric constant tensor:
#      x y z
#    x 1.654560 0.000000 0.000000 
#    y 0.000000 1.624860 0.000000 
#    z 0.000000 0.000000 1.617660 
# 
# From -- ./inp_files/17174.got.cif
#   From: 2010.05.17/outbox.cif.g08.bks.cpg/sg35_9_cif.got.tgz:17174.got - 2010.06.03 17:29:28.
