data_PCOD9349440
_publ_section_title
;
Structure prediction by ZEFSAII (Michael W. Deem and Ramdas Pophale) SiO2 
 PCOD9349440
Probable space group: C M M 2
;
_chemical_formula_sum "Si O2"
_cell_formula_units_Z 64
_cell_length_a 24.127268
_cell_length_b 14.407883
_cell_length_c 9.230894
_cell_angle_alpha 90.000000
_cell_angle_beta 90.000000
_cell_angle_gamma 90.000000
_cell_volume 3208.869721
_symmetry_space_group_name_H-M "C M M 2"
_symmetry_group_IT_number 35
_symmetry_cell_setting 'orthorhombic'
loop_
_space_group_symop_operation_xyz
x,y,z
-x,-y,z
-x,y,z
x,-y,z
1/2+x,1/2+y,z
1/2-x,1/2-y,z
1/2-x,1/2+y,z
1/2+x,1/2-y,z
loop_
_atom_site_type_symbol
_atom_site_label
_atom_site_fract_x
_atom_site_fract_y
_atom_site_fract_z
Si Si1 0.236053 0.388151 0.184050
Si Si2 0.151555 0.888100 0.336627
Si Si3 0.437970 0.892966 0.617795
Si Si4 0.435493 0.733375 0.163375
Si Si5 0.218714 0.388969 0.849661
Si Si6 0.380370 0.889709 0.325581
Si Si7 0.328781 0.389681 0.673990
Si Si8 0.109912 0.737243 0.841826
O O1 0.235911 0.500000 0.196164
O O2 0.292329 0.355918 0.257300
O O3 0.179739 0.359143 0.265565
O O4 0.237748 0.367207 0.013781
O O5 0.099980 0.837313 0.262175
O O6 0.160722 0.867744 0.506051
O O7 0.146114 0.000000 0.321256
O O8 0.500000 0.888049 0.553213
O O9 0.392436 0.871966 0.494707
O O10 0.433689 0.820434 0.747169
O O11 0.429816 0.000000 0.666313
O O12 0.500000 0.708979 0.158473
O O13 0.425574 0.833401 0.236179
O O14 0.410167 0.742029 0.003035
O O15 0.207412 0.500000 0.840750
O O16 0.267212 0.367238 0.734951
O O17 0.163740 0.329261 0.832252
O O18 0.385396 0.000000 0.303948
O O19 0.335210 0.500000 0.693547
O O20 0.372486 0.332692 0.767262
#
# Coordination Sequence:
#
# PCOD9349440 Si02
#       8
#     8   8   8   8   8   8   8   8
#     4   9  18  36  63  92 124 162 201 251 316 380
#     4  10  23  44  67  92 123 161 211 273 331 383
#     4  10  22  39  60  88 127 172 214 261 314 376
#     4  12  26  42  64  92 125 170 221 270 320 380
#     4  10  20  37  59  90 131 169 205 251 315 390
#     4  10  21  39  62  92 127 167 210 256 315 377
#     4  10  23  41  63  91 125 164 205 264 332 390
#     4  12  23  39  60  90 126 170 215 263 315 391
#
# _framework density 19.944718000000002
#
# number of rings (size 3 to 8) (size 9 to 14) (size 15 to 20)
#    0.000    1.625    1.250    3.000    1.750    3.500 
#    2.250    0.625    0.000    2.625    0.000    0.000 
#    0.000    0.000    0.000    0.000    0.000    0.000 
#
# Total GULP energy -178807.188472 kJ/mol
# GULP energy per Si atom -5587.724640 kJ/mol
# Density = 1.989932 g / cm^3
# Si number density = 19.944718 Si / 1000 Ang^3
#
#
#
# Elastic Constant Matrix: (Units=GPa)
#
#
# Indices 1 2 3 4 5 6 
#
# 1 121.5552 46.7568 73.6118 0.0000 0.0000 0.0000
# 2 46.7568 62.0303 52.9210 0.0000 0.0000 0.0000
# 3 73.6118 52.9210 135.4627 0.0000 0.0000 0.0000
# 4 0.0000 0.0000 0.0000 28.7471 0.0000 0.0000
# 5 0.0000 0.0000 0.0000 0.0000 28.2647 0.0000
# 6 0.0000 0.0000 0.0000 0.0000 0.0000 27.0394
#
#
#
# Elastic Compliance Matrix: (Units=1/GPa)
#
#
# Indices 1 2 3 4 5 6 
#
# 1 0.013565 -0.005904 -0.005065 0.000000 0.000000 0.000000
# 2 -0.005904 0.026750 -0.007242 0.000000 0.000000 0.000000
# 3 -0.005065 -0.007242 0.012964 0.000000 0.000000 0.000000
# 4 0.000000 0.000000 0.000000 0.034786 0.000000 0.000000
# 5 0.000000 0.000000 0.000000 0.000000 0.035380 0.000000
# 6 0.000000 0.000000 0.000000 0.000000 0.000000 0.036983
#
#
# Mechanical properties :
#
#
# Convention : Reuss Voigt Hill
#
# Bulk Modulus (GPa) = 59.32308 73.95861 66.64085
# Shear Modulus (GPa) = 24.69527 26.52747 25.61137
#
# Velocity S-wave (km/s) = 3.52260 3.65094 3.58735
# Velocity P-wave (km/s) = 6.80833 7.41180 7.11646
#
# Compressibility (1/GPa) = 0.01685684
#
# Stress axis : x y z
#
# Youngs Moduli (GPa) = 73.72024 37.38334 77.13849
#
# Poissons Ratio (x) = 0.22070 0.39070
# Poissons Ratio (y) = 0.43522 0.55865
# Poissons Ratio (z) = 0.37338 0.27074
#
# Static dielectric constant tensor:
#      x y z
#    x 1.705650 0.000000 0.000000 
#    y 0.000000 1.717750 0.000000 
#    z 0.000000 0.000000 1.698120 
# 
# From -- ./inp_files/7829.got.cif
#   From: 2010.05.17/outbox.cif.g08.bks.cpg/sg35_4_cif.got.tgz:7829.got - 2010.06.03 17:29:28.
