data_PCOD9349185
_publ_section_title
;
Structure prediction by ZEFSAII (Michael W. Deem and Ramdas Pophale) SiO2 
 PCOD9349185
Probable space group: C M M 2
;
_chemical_formula_sum "Si O2"
_cell_formula_units_Z 56
_cell_length_a 19.809630
_cell_length_b 8.913444
_cell_length_c 17.928440
_cell_angle_alpha 90.000000
_cell_angle_beta 90.000000
_cell_angle_gamma 90.000000
_cell_volume 3165.661004
_symmetry_space_group_name_H-M "C M M 2"
_symmetry_group_IT_number 35
_symmetry_cell_setting 'orthorhombic'
loop_
_space_group_symop_operation_xyz
x,y,z
-x,-y,z
-x,y,z
x,-y,z
1/2+x,1/2+y,z
1/2-x,1/2-y,z
1/2-x,1/2+y,z
1/2+x,1/2-y,z
loop_
_atom_site_type_symbol
_atom_site_label
_atom_site_fract_x
_atom_site_fract_y
_atom_site_fract_z
Si Si1 0.822353 0.180038 0.890950
Si Si2 0.322599 0.179003 0.317569
Si Si3 0.322831 0.820999 0.142557
Si Si4 0.080000 0.178230 0.437968
Si Si5 0.322955 0.319945 0.718463
Si Si6 0.578399 0.318604 0.022872
Si Si7 0.919974 0.678410 0.596908
O O1 0.750000 0.250000 0.911420
O O2 0.837692 0.220173 0.805005
O O3 0.815837 0.000000 0.894349
O O4 0.880832 0.225268 0.948102
O O5 0.250000 0.250000 0.335781
O O6 0.335858 0.210862 0.230074
O O7 0.378215 0.249507 0.371150
O O8 0.320149 0.000000 0.326981
O O9 0.250000 0.750000 0.123243
O O10 0.380820 0.751708 0.091448
O O11 0.319371 0.000000 0.132593
O O12 0.099423 0.251946 0.516961
O O13 0.000000 0.204586 0.427385
O O14 0.091431 0.000000 0.440979
O O15 0.320316 0.500000 0.712609
O O16 0.250000 0.250000 0.700513
O O17 0.377843 0.254142 0.662538
O O18 0.500000 0.273465 0.020956
O O19 0.580728 0.500000 0.028474
O O20 0.908724 0.500000 0.596079
O O21 0.000000 0.705836 0.607174
#
# Coordination Sequence:
#
# PCOD9349185 Si02
#       7
#     8   8   8   8   8   8   8
#     4   9  19  35  55  78 105 140 179 220 267 318
#     4  10  21  37  57  81 109 140 177 222 269 317
#     4  10  21  37  57  80 107 141 180 221 267 319
#     4  10  21  37  57  81 109 142 180 219 263 318
#     4  10  20  35  56  81 109 140 178 223 268 317
#     4  10  21  36  54  79 111 144 179 220 266 316
#     4  10  21  37  56  79 109 143 179 220 267 318
#
# _framework density 17.689827999999999
#
# number of rings (size 3 to 8) (size 9 to 14) (size 15 to 20)
#    0.000    2.143    0.000    2.571    0.000    7.714 
#    0.000    7.143    0.000    0.000    0.000    0.000 
#    0.000    0.000    0.000    0.000    0.000    0.000 
#
# Total GULP energy -156358.311428 kJ/mol
# GULP energy per Si atom -5584.225408 kJ/mol
# Density = 1.764957 g / cm^3
# Si number density = 17.689828 Si / 1000 Ang^3
#
#
#
# Elastic Constant Matrix: (Units=GPa)
#
#
# Indices 1 2 3 4 5 6 
#
# 1 133.3665 65.2314 103.7799 0.0000 0.0000 0.0000
# 2 65.2314 60.3902 62.9358 0.0000 0.0000 0.0000
# 3 103.7799 62.9358 118.2042 0.0000 0.0000 0.0000
# 4 0.0000 0.0000 0.0000 30.9493 0.0000 0.0000
# 5 0.0000 0.0000 0.0000 0.0000 54.2913 0.0000
# 6 0.0000 0.0000 0.0000 0.0000 0.0000 33.1036
#
#
#
# Elastic Compliance Matrix: (Units=1/GPa)
#
#
# Indices 1 2 3 4 5 6 
#
# 1 0.025941 -0.009627 -0.017650 0.000000 0.000000 0.000000
# 2 -0.009627 0.040773 -0.013257 0.000000 0.000000 0.000000
# 3 -0.017650 -0.013257 0.031015 0.000000 0.000000 0.000000
# 4 0.000000 0.000000 0.000000 0.032311 0.000000 0.000000
# 5 0.000000 0.000000 0.000000 0.000000 0.018419 0.000000
# 6 0.000000 0.000000 0.000000 0.000000 0.000000 0.030208
#
#
# Mechanical properties :
#
#
# Convention : Reuss Voigt Hill
#
# Bulk Modulus (GPa) = 60.01854 86.20610 73.11232
# Shear Modulus (GPa) = 18.84739 29.00310 23.92524
#
# Velocity S-wave (km/s) = 3.26764 4.05351 3.68161
# Velocity P-wave (km/s) = 6.94540 8.41105 7.71312
#
# Compressibility (1/GPa) = 0.01666152
#
# Stress axis : x y z
#
# Youngs Moduli (GPa) = 38.54885 24.52581 32.24286
#
# Poissons Ratio (x) = 0.23610 0.56909
# Poissons Ratio (y) = 0.37110 0.42745
# Poissons Ratio (z) = 0.68039 0.32514
#
# Static dielectric constant tensor:
#      x y z
#    x 1.571170 0.000000 0.000000 
#    y 0.000000 1.590030 0.000000 
#    z 0.000000 0.000000 1.590690 
# 
# From -- ./inp_files/15586.got.cif
#   From: 2010.05.17/outbox.cif.g08.bks.cpg/sg35_8_cif.got.tgz:15586.got - 2010.06.03 17:29:28.
