data_PCOD9349312
_publ_section_title
;
Structure prediction by ZEFSAII (Michael W. Deem and Ramdas Pophale) SiO2 
 PCOD9349312
Probable space group: C M M 2
;
_chemical_formula_sum "Si O2"
_cell_formula_units_Z 56
_cell_length_a 19.800571
_cell_length_b 8.834047
_cell_length_c 18.017985
_cell_angle_alpha 90.000000
_cell_angle_beta 90.000000
_cell_angle_gamma 90.000000
_cell_volume 3151.691068
_symmetry_space_group_name_H-M "C M M 2"
_symmetry_group_IT_number 35
_symmetry_cell_setting 'orthorhombic'
loop_
_space_group_symop_operation_xyz
x,y,z
-x,-y,z
-x,y,z
x,-y,z
1/2+x,1/2+y,z
1/2-x,1/2-y,z
1/2-x,1/2+y,z
1/2+x,1/2-y,z
loop_
_atom_site_type_symbol
_atom_site_label
_atom_site_fract_x
_atom_site_fract_y
_atom_site_fract_z
Si Si1 0.921190 0.318051 0.500000
Si Si2 0.578416 0.817618 0.086130
Si Si3 0.322987 0.181933 0.951265
Si Si4 0.676515 0.318750 0.207559
Si Si5 0.822792 0.819425 0.379387
Si Si6 0.419654 0.180696 0.668902
Si Si7 0.822833 0.180439 0.790040
O O1 0.915521 0.500000 0.494579
O O2 0.876886 0.242103 0.437092
O O3 0.900936 0.276437 0.584286
O O4 0.000000 0.278844 0.491040
O O5 0.500000 0.770751 0.082926
O O6 0.619113 0.744817 0.153974
O O7 0.580175 0.000000 0.093928
O O8 0.620051 0.780117 0.011523
O O9 0.250000 0.250000 0.973417
O O10 0.339681 0.250231 0.870748
O O11 0.317225 0.000000 0.945858
O O12 0.680272 0.500000 0.201460
O O13 0.750000 0.250000 0.188344
O O14 0.661987 0.278190 0.293591
O O15 0.750000 0.750000 0.397482
O O16 0.819232 0.000000 0.383540
O O17 0.500000 0.205715 0.677217
O O18 0.377172 0.269729 0.729404
O O19 0.408030 0.000000 0.677385
O O20 0.750000 0.250000 0.769406
O O21 0.817798 0.000000 0.795518
#
# Coordination Sequence:
#
# PCOD9349312 Si02
#       7
#     8   8   8   8   8   8   8
#     4   9  19  36  57  80 107 142 181 219 265 321
#     4  10  22  38  56  81 111 143 179 218 263 316
#     4  10  20  36  57  79 106 141 180 221 267 318
#     4  10  21  37  57  80 107 142 181 221 268 319
#     4  10  21  36  55  80 109 141 179 223 269 317
#     4   9  19  37  58  79 107 143 180 219 267 321
#     4  11  22  36  56  82 110 141 180 222 266 316
#
# _framework density 17.768238
#
# number of rings (size 3 to 8) (size 9 to 14) (size 15 to 20)
#    0.000    2.143    0.000    4.714    0.000    7.143 
#    0.000    5.714    0.000    0.000    0.000    0.000 
#    0.000    0.000    0.000    0.000    0.000    0.000 
#
# Total GULP energy -156347.029498 kJ/mol
# GULP energy per Si atom -5583.822482 kJ/mol
# Density = 1.772780 g / cm^3
# Si number density = 17.768238 Si / 1000 Ang^3
#
#
#
# Elastic Constant Matrix: (Units=GPa)
#
#
# Indices 1 2 3 4 5 6 
#
# 1 130.1781 58.9869 108.6257 0.0000 0.0000 0.0000
# 2 58.9869 62.9333 60.1548 0.0000 0.0000 0.0000
# 3 108.6257 60.1548 123.2457 0.0000 0.0000 0.0000
# 4 0.0000 0.0000 0.0000 32.9504 0.0000 0.0000
# 5 0.0000 0.0000 0.0000 0.0000 58.2480 0.0000
# 6 0.0000 0.0000 0.0000 0.0000 0.0000 33.7521
#
#
#
# Elastic Compliance Matrix: (Units=1/GPa)
#
#
# Indices 1 2 3 4 5 6 
#
# 1 0.029961 -0.005326 -0.023807 0.000000 0.000000 0.000000
# 2 -0.005326 0.030733 -0.010306 0.000000 0.000000 0.000000
# 3 -0.023807 -0.010306 0.034127 0.000000 0.000000 0.000000
# 4 0.000000 0.000000 0.000000 0.030349 0.000000 0.000000
# 5 0.000000 0.000000 0.000000 0.000000 0.017168 0.000000
# 6 0.000000 0.000000 0.000000 0.000000 0.000000 0.029628
#
#
# Mechanical properties :
#
#
# Convention : Reuss Voigt Hill
#
# Bulk Modulus (GPa) = 62.72605 85.76578 74.24591
# Shear Modulus (GPa) = 19.51923 30.89610 25.20767
#
# Velocity S-wave (km/s) = 3.31803 4.17446 3.77064
# Velocity P-wave (km/s) = 7.07517 8.46220 7.79958
#
# Compressibility (1/GPa) = 0.01594234
#
# Stress axis : x y z
#
# Youngs Moduli (GPa) = 33.37720 32.53829 29.30215
#
# Poissons Ratio (x) = 0.17329 0.69760
# Poissons Ratio (y) = 0.17776 0.30200
# Poissons Ratio (z) = 0.79461 0.33535
#
# Static dielectric constant tensor:
#      x y z
#    x 1.578150 0.000000 0.000000 
#    y 0.000000 1.595130 0.000000 
#    z 0.000000 0.000000 1.596620 
# 
# From -- ./inp_files/15594.got.cif
#   From: 2010.05.17/outbox.cif.g08.bks.cpg/sg35_8_cif.got.tgz:15594.got - 2010.06.03 17:29:28.
