data_PCOD9349785
_publ_section_title
;
Structure prediction by ZEFSAII (Michael W. Deem and Ramdas Pophale) SiO2 
 PCOD9349785
Probable space group: C M M 2
;
_chemical_formula_sum "Si O2"
_cell_formula_units_Z 56
_cell_length_a 8.361199
_cell_length_b 21.121271
_cell_length_c 14.736850
_cell_angle_alpha 90.000000
_cell_angle_beta 90.000000
_cell_angle_gamma 90.000000
_cell_volume 2602.515183
_symmetry_space_group_name_H-M "C M M 2"
_symmetry_group_IT_number 35
_symmetry_cell_setting 'orthorhombic'
loop_
_space_group_symop_operation_xyz
x,y,z
-x,-y,z
-x,y,z
x,-y,z
1/2+x,1/2+y,z
1/2-x,1/2-y,z
1/2-x,1/2+y,z
1/2+x,1/2-y,z
loop_
_atom_site_type_symbol
_atom_site_label
_atom_site_fract_x
_atom_site_fract_y
_atom_site_fract_z
Si Si1 0.806751 0.000000 0.054660
Si Si2 0.806777 0.574063 0.619409
Si Si3 0.691924 0.677523 0.765398
Si Si4 0.815580 0.130162 0.317746
Si Si5 0.192705 0.134168 0.968874
Si Si6 0.303690 0.500000 0.265481
Si Si7 0.685748 0.182892 0.149659
Si Si8 0.186059 0.682401 0.488653
O O1 0.747027 0.000000 0.159745
O O2 0.761685 0.937474 0.997847
O O3 0.000000 0.000000 0.060254
O O4 0.749527 0.500000 0.623318
O O5 0.760012 0.621060 0.702335
O O6 0.747798 0.618134 0.535077
O O7 0.000000 0.570157 0.616174
O O8 0.500000 0.677504 0.755947
O O9 0.750000 0.750000 0.747759
O O10 0.733674 0.657137 0.868527
O O11 0.795027 0.137791 0.209798
O O12 0.717488 0.176166 0.381503
O O13 0.000000 0.137293 0.342521
O O14 0.753494 0.059437 0.325311
O O15 0.000000 0.140041 0.979342
O O16 0.280313 0.175527 0.044274
O O17 0.500000 0.500000 0.261579
O O18 0.500000 0.173567 0.169780
O O19 0.750000 0.250000 0.180304
O O20 0.250000 0.750000 0.521962
O O21 0.000000 0.683323 0.507390
#
# Coordination Sequence:
#
# PCOD9349785 Si02
#       8
#     4   8   8   8   8   4   8   8
#     4   9  16  34  60  85 120 163 205 252 308 368
#     4  10  24  46  70  97 133 169 204 258 325 386
#     4  11  24  41  67  98 130 169 216 266 319 383
#     4  11  22  39  62  90 124 163 208 256 311 372
#     4  10  21  38  62  90 124 164 207 257 313 372
#     4   9  18  34  60  87 118 163 205 250 308 368
#     4  12  24  38  57  84 120 162 209 258 308 368
#     4  11  24  43  67  95 127 166 210 259 318 378
#
# _framework density 21.517645000000002
#
# number of rings (size 3 to 8) (size 9 to 14) (size 15 to 20)
#    0.000    1.429    1.429    3.857    2.000    4.857 
#    0.000    2.143    0.000    0.000    0.000    0.000 
#    0.000    0.000    0.000    0.000    0.000    0.000 
#
# Total GULP energy -156167.618952 kJ/mol
# GULP energy per Si atom -5577.414963 kJ/mol
# Density = 2.146867 g / cm^3
# Si number density = 21.517645 Si / 1000 Ang^3
#
#
#
# Elastic Constant Matrix: (Units=GPa)
#
#
# Indices 1 2 3 4 5 6 
#
# 1 23.9991 25.2967 9.8237 0.0000 0.0000 0.0000
# 2 25.2967 168.4503 38.6151 0.0000 0.0000 0.0000
# 3 9.8237 38.6151 92.7429 0.0000 0.0000 0.0000
# 4 0.0000 0.0000 0.0000 29.4581 0.0000 0.0000
# 5 0.0000 0.0000 0.0000 0.0000 17.3416 0.0000
# 6 0.0000 0.0000 0.0000 0.0000 0.0000 21.6007
#
#
#
# Elastic Compliance Matrix: (Units=1/GPa)
#
#
# Indices 1 2 3 4 5 6 
#
# 1 0.049982 -0.006956 -0.002398 0.000000 0.000000 0.000000
# 2 -0.006956 0.007531 -0.002399 0.000000 0.000000 0.000000
# 3 -0.002398 -0.002399 0.012035 0.000000 0.000000 0.000000
# 4 0.000000 0.000000 0.000000 0.033946 0.000000 0.000000
# 5 0.000000 0.000000 0.000000 0.000000 0.057665 0.000000
# 6 0.000000 0.000000 0.000000 0.000000 0.000000 0.046295
#
#
# Mechanical properties :
#
#
# Convention : Reuss Voigt Hill
#
# Bulk Modulus (GPa) = 21.71916 48.07371 34.89643
# Shear Modulus (GPa) = 20.29979 27.77720 24.03850
#
# Velocity S-wave (km/s) = 3.07482 3.59681 3.34601
# Velocity P-wave (km/s) = 4.76671 6.29599 5.58395
#
# Compressibility (1/GPa) = 0.04604231
#
# Stress axis : x y z
#
# Youngs Moduli (GPa) = 20.00717 132.78428 83.08891
#
# Poissons Ratio (x) = 0.92368 0.19924
# Poissons Ratio (y) = 0.13917 0.19932
# Poissons Ratio (z) = 0.04798 0.31853
#
# Static dielectric constant tensor:
#      x y z
#    x 1.732010 0.000000 0.000000 
#    y 0.000000 1.974600 0.000000 
#    z 0.000000 0.000000 1.760960 
# 
# From -- ./inp_files/15795.got.cif
#   From: 2010.05.17/outbox.cif.g08.bks.cpg/sg35_8_cif.got.tgz:15795.got - 2010.06.03 17:29:28.
