data_PCOD9349313
_publ_section_title
;
Structure prediction by ZEFSAII (Michael W. Deem and Ramdas Pophale) SiO2 
 PCOD9349313
Probable space group: C M M 2
;
_chemical_formula_sum "Si O2"
_cell_formula_units_Z 64
_cell_length_a 8.832136
_cell_length_b 39.933797
_cell_length_c 10.340660
_cell_angle_alpha 90.000000
_cell_angle_beta 90.000000
_cell_angle_gamma 90.000000
_cell_volume 3647.158290
_symmetry_space_group_name_H-M "C M M 2"
_symmetry_group_IT_number 35
_symmetry_cell_setting 'orthorhombic'
loop_
_space_group_symop_operation_xyz
x,y,z
-x,-y,z
-x,y,z
x,-y,z
1/2+x,1/2+y,z
1/2-x,1/2-y,z
1/2-x,1/2+y,z
1/2+x,1/2-y,z
loop_
_atom_site_type_symbol
_atom_site_label
_atom_site_fract_x
_atom_site_fract_y
_atom_site_fract_z
Si Si1 0.180815 0.085546 0.416110
Si Si2 0.319576 0.786573 0.632368
Si Si3 0.319823 0.664218 0.425025
Si Si4 0.318493 0.659287 0.128320
Si Si5 0.818245 0.786474 0.909687
Si Si6 0.680529 0.460521 0.916883
Si Si7 0.819620 0.586551 0.135242
Si Si8 0.680868 0.039357 0.637560
O O1 0.211265 0.124763 0.445727
O O2 0.252798 0.078115 0.276510
O O3 0.248888 0.062043 0.525952
O O4 0.000000 0.081492 0.408222
O O5 0.500000 0.784000 0.641805
O O6 0.250000 0.750000 0.603189
O O7 0.270528 0.812608 0.522914
O O8 0.250914 0.796805 0.771489
O O9 0.500000 0.669678 0.443429
O O10 0.283119 0.671112 0.274376
O O11 0.500000 0.652894 0.125232
O O12 0.234671 0.624340 0.105053
O O13 0.282140 0.686920 0.021278
O O14 0.750000 0.750000 0.940206
O O15 0.000000 0.783922 0.898222
O O16 0.500000 0.455606 0.915015
O O17 0.710933 0.500000 0.939223
O O18 0.748955 0.451845 0.776820
O O19 0.754183 0.438322 0.028070
O O20 0.000000 0.584893 0.138427
O O21 0.500000 0.043419 0.641623
O O22 0.714205 0.000000 0.613797
#
# Coordination Sequence:
#
# PCOD9349313 Si02
#       8
#     8   8   8   8   8   8   8   8
#     4  10  21  38  59  81 110 147 184 223 269 327
#     4  11  22  36  55  79 108 142 179 220 265 317
#     4   9  19  37  57  79 107 139 177 221 267 315
#     4   9  20  38  58  80 109 143 179 220 269 326
#     4  10  20  36  57  80 108 141 177 221 268 317
#     4  10  21  38  59  81 108 145 186 225 270 328
#     4  11  22  36  57  83 112 144 181 229 276 319
#     4  10  21  37  57  83 114 144 179 227 276 321
#
# _framework density 17.547909000000001
#
# number of rings (size 3 to 8) (size 9 to 14) (size 15 to 20)
#    0.000    2.000    0.000    5.250    0.000    7.000 
#    0.000    2.500    0.000    0.000    0.000    0.000 
#    0.000    0.000    0.000    0.000    0.000    0.000 
#
# Total GULP energy -178733.294738 kJ/mol
# GULP energy per Si atom -5585.415461 kJ/mol
# Density = 1.750797 g / cm^3
# Si number density = 17.547909 Si / 1000 Ang^3
#
#
#
# Elastic Constant Matrix: (Units=GPa)
#
#
# Indices 1 2 3 4 5 6 
#
# 1 106.4663 78.9990 98.1815 0.0000 0.0000 0.0000
# 2 78.9990 98.5406 123.7940 0.0000 0.0000 0.0000
# 3 98.1815 123.7940 178.5245 0.0000 0.0000 0.0000
# 4 0.0000 0.0000 0.0000 41.3170 0.0000 0.0000
# 5 0.0000 0.0000 0.0000 0.0000 33.0025 0.0000
# 6 0.0000 0.0000 0.0000 0.0000 0.0000 32.0852
#
#
#
# Elastic Compliance Matrix: (Units=1/GPa)
#
#
# Indices 1 2 3 4 5 6 
#
# 1 0.023210 -0.019954 0.001072 0.000000 0.000000 0.000000
# 2 -0.019954 0.095906 -0.055530 0.000000 0.000000 0.000000
# 3 0.001072 -0.055530 0.043518 0.000000 0.000000 0.000000
# 4 0.000000 0.000000 0.000000 0.024203 0.000000 0.000000
# 5 0.000000 0.000000 0.000000 0.000000 0.030301 0.000000
# 6 0.000000 0.000000 0.000000 0.000000 0.000000 0.031167
#
#
# Mechanical properties :
#
#
# Convention : Reuss Voigt Hill
#
# Bulk Modulus (GPa) = 72.41134 109.49782 90.95458
# Shear Modulus (GPa) = 12.44608 26.78473 19.61541
#
# Velocity S-wave (km/s) = 2.66609 3.91113 3.34701
# Velocity P-wave (km/s) = 7.12965 9.10663 8.17810
#
# Compressibility (1/GPa) = 0.01380999
#
# Stress axis : x y z
#
# Youngs Moduli (GPa) = 43.08452 10.42684 22.97910
#
# Poissons Ratio (x) = 0.20806 -0.02464
# Poissons Ratio (y) = 0.85973 1.27603
# Poissons Ratio (z) = -0.04620 0.57900
#
# Static dielectric constant tensor:
#      x y z
#    x 1.584440 0.000000 0.000000 
#    y 0.000000 1.573380 0.000000 
#    z 0.000000 0.000000 1.571370 
# 
# From -- ./inp_files/11993.got.cif
#   From: 2010.05.17/outbox.cif.g08.bks.cpg/sg35_6_cif.got.tgz:11993.got - 2010.06.03 17:29:28.
