data_PCOD9349129
_publ_section_title
;
Structure prediction by ZEFSAII (Michael W. Deem and Ramdas Pophale) SiO2 
 PCOD9349129
Probable space group: C M M 2
;
_chemical_formula_sum "Si O2"
_cell_formula_units_Z 56
_cell_length_a 8.916581
_cell_length_b 15.264241
_cell_length_c 19.350027
_cell_angle_alpha 90.000000
_cell_angle_beta 90.000000
_cell_angle_gamma 90.000000
_cell_volume 2633.632354
_symmetry_space_group_name_H-M "C M M 2"
_symmetry_group_IT_number 35
_symmetry_cell_setting 'orthorhombic'
loop_
_space_group_symop_operation_xyz
x,y,z
-x,-y,z
-x,y,z
x,-y,z
1/2+x,1/2+y,z
1/2-x,1/2-y,z
1/2-x,1/2+y,z
1/2+x,1/2-y,z
loop_
_atom_site_type_symbol
_atom_site_label
_atom_site_fract_x
_atom_site_fract_y
_atom_site_fract_z
Si Si1 0.670503 0.607672 0.041850
Si Si2 0.319308 0.848598 0.454170
Si Si3 0.165781 0.603778 0.178556
Si Si4 0.319154 0.847735 0.604168
Si Si5 0.677931 0.653573 0.316925
Si Si6 0.181764 0.346680 0.752807
Si Si7 0.330665 0.895995 0.904267
O O1 0.500000 0.635445 0.051330
O O2 0.671711 0.500000 0.041981
O O3 0.768657 0.638475 0.106695
O O4 0.733116 0.637621 0.967860
O O5 0.500000 0.844560 0.447305
O O6 0.250000 0.750000 0.456760
O O7 0.280938 0.888539 0.529533
O O8 0.249695 0.890250 0.385305
O O9 0.151113 0.500000 0.168412
O O10 0.273484 0.614692 0.243813
O O11 0.000000 0.640722 0.193856
O O12 0.500000 0.840144 0.604237
O O13 0.250000 0.750000 0.604212
O O14 0.276129 0.888829 0.678439
O O15 0.500000 0.656632 0.324203
O O16 0.750000 0.750000 0.315204
O O17 0.250000 0.250000 0.750989
O O18 0.230531 0.384211 0.826680
O O19 0.000000 0.345930 0.754480
O O20 0.500000 0.859183 0.907766
O O21 0.342218 0.000000 0.914484
#
# Coordination Sequence:
#
# PCOD9349129 Si02
#       7
#     8   8   8   8   8   8   8
#     4   9  17  30  49  72  95 120 155 196 234 276
#     4   9  15  25  42  64  91 122 158 197 235 277
#     4  10  20  35  55  76  98 125 159 198 240 287
#     4   8  14  24  40  62  88 118 153 193 232 273
#     4  11  21  33  50  73 102 131 161 198 241 287
#     4   9  17  29  45  67  94 122 153 192 236 279
#     4   9  17  30  48  68  91 121 156 192 231 277
#
# _framework density 21.263408999999999
#
# number of rings (size 3 to 8) (size 9 to 14) (size 15 to 20)
#    0.000    2.714    0.000    3.429    0.000    3.714 
#    0.000    0.714    0.000    2.571    0.000    4.000 
#    0.000    0.000    0.000    0.000    0.000    0.000 
#
# Total GULP energy -155987.223712 kJ/mol
# GULP energy per Si atom -5570.972275 kJ/mol
# Density = 2.121501 g / cm^3
# Si number density = 21.263409 Si / 1000 Ang^3
#
#
#
# Elastic Constant Matrix: (Units=GPa)
#
#
# Indices 1 2 3 4 5 6 
#
# 1 94.0861 5.2927 66.9884 0.0000 0.0000 0.0000
# 2 5.2927 24.1396 8.3289 0.0000 0.0000 0.0000
# 3 66.9884 8.3289 213.5650 0.0000 0.0000 0.0000
# 4 0.0000 0.0000 0.0000 19.1682 0.0000 0.0000
# 5 0.0000 0.0000 0.0000 0.0000 -24.7974 0.0000
# 6 0.0000 0.0000 0.0000 0.0000 0.0000 7.9988
#
#
#
# Elastic Compliance Matrix: (Units=1/GPa)
#
#
# Indices 1 2 3 4 5 6 
#
# 1 0.013741 -0.001547 -0.004250 0.000000 0.000000 0.000000
# 2 -0.001547 0.042165 -0.001159 0.000000 0.000000 0.000000
# 3 -0.004250 -0.001159 0.006061 0.000000 0.000000 0.000000
# 4 0.000000 0.000000 0.000000 0.052170 0.000000 0.000000
# 5 0.000000 0.000000 0.000000 0.000000 -0.040327 0.000000
# 6 0.000000 0.000000 0.000000 0.000000 0.000000 0.125019
#
#
# Mechanical properties :
#
#
# Convention : Reuss Voigt Hill
#
# Bulk Modulus (GPa) = 20.80929 54.77897 37.79413
# Shear Modulus (GPa) = 21.85711 17.21930 19.53821
#
# Velocity S-wave (km/s) = 3.20960 2.84880 3.03457
# Velocity P-wave (km/s) = 4.85212 6.05301 5.48552
#
# Compressibility (1/GPa) = 0.04805545
#
# Stress axis : x y z
#
# Youngs Moduli (GPa) = 72.77241 23.71646 164.99760
#
# Poissons Ratio (x) = 0.03668 0.70123
# Poissons Ratio (y) = 0.11254 0.19128
# Poissons Ratio (z) = 0.30928 0.02749
#
# Static dielectric constant tensor:
#      x y z
#    x 1.744690 0.000000 0.000000 
#    y 0.000000 1.799070 0.000000 
#    z 0.000000 0.000000 1.847810 
# 
# From -- ./inp_files/18213.got.cif
#   From: 2010.05.17/outbox.cif.g08.bks.cpg/sg35_10_cif.got.tgz:18213.got - 2010.06.03 17:29:28.
