data_PCOD9349441
_publ_section_title
;
Structure prediction by ZEFSAII (Michael W. Deem and Ramdas Pophale) SiO2 
 PCOD9349441
Probable space group: C M M 2
;
_chemical_formula_sum "Si O2"
_cell_formula_units_Z 38
_cell_length_a 30.199937
_cell_length_b 10.798792
_cell_length_c 4.734106
_cell_angle_alpha 90.000000
_cell_angle_beta 90.000000
_cell_angle_gamma 90.000000
_cell_volume 1543.900084
_symmetry_space_group_name_H-M "C M M 2"
_symmetry_group_IT_number 35
_symmetry_cell_setting 'orthorhombic'
loop_
_space_group_symop_operation_xyz
x,y,z
-x,-y,z
-x,y,z
x,-y,z
1/2+x,1/2+y,z
1/2-x,1/2-y,z
1/2-x,1/2+y,z
1/2+x,1/2-y,z
loop_
_atom_site_type_symbol
_atom_site_label
_atom_site_fract_x
_atom_site_fract_y
_atom_site_fract_z
Si Si1 0.920128 0.629800 0.191530
Si Si2 0.217995 0.500000 0.408480
Si Si3 0.656838 0.000000 0.911997
Si Si4 0.110199 0.860395 0.497802
Si Si5 0.750000 0.750000 0.674001
Si Si6 0.828874 0.859101 0.002794
Si Si7 0.500000 0.000000 0.947651
O O1 0.923501 0.500000 0.371462
O O2 0.919907 0.749734 0.384671
O O3 0.961160 0.607636 0.984862
O O4 0.874588 0.612083 0.016205
O O5 0.172080 0.500000 0.591162
O O6 0.242709 0.373979 0.491036
O O7 0.201967 0.500000 0.088603
O O8 0.125739 0.856377 0.819699
O O9 0.094247 0.000000 0.435279
O O10 0.156095 0.841454 0.323471
O O11 0.792466 0.770528 0.873130
O O12 0.811567 0.000000 0.976286
#
# Coordination Sequence:
#
# PCOD9349441 Si02
#       7
#     8   4   4   8   4   8   2
#     4   8  17  36  57  89 108 153 167 236 259 346
#     4  12  24  38  54  79 106 144 186 233 272 328
#     4   9  22  37  60  76 104 144 192 214 270 335
#     4  10  20  37  60  78 109 143 194 218 277 323
#     4  12  24  38  52  78 106 146 180 240 286 320
#     4  10  22  38  54  81 106 147 184 243 270 330
#     4   6  16  32  62  82 136 122 194 198 312 286
#
# _framework density 24.612988999999999
#
# number of rings (size 3 to 8) (size 9 to 14) (size 15 to 20)
#    1.263    0.842    1.053    2.526    0.000    3.368 
#    0.000    0.526    0.000   22.737    0.000    4.421 
#    0.000    0.000    0.000    0.000    0.000    0.000 
#
# Total GULP energy -105995.928187 kJ/mol
# GULP energy per Si atom -5578.733062 kJ/mol
# Density = 2.455697 g / cm^3
# Si number density = 24.612989 Si / 1000 Ang^3
#
#
#
# Elastic Constant Matrix: (Units=GPa)
#
#
# Indices 1 2 3 4 5 6 
#
# 1 50.3496 13.4244 3.4777 0.0000 0.0000 0.0000
# 2 13.4244 182.7211 17.8494 0.0000 0.0000 0.0000
# 3 3.4777 17.8494 69.9774 0.0000 0.0000 0.0000
# 4 0.0000 0.0000 0.0000 30.5851 0.0000 0.0000
# 5 0.0000 0.0000 0.0000 0.0000 -62.6812 0.0000
# 6 0.0000 0.0000 0.0000 0.0000 0.0000 60.8962
#
#
#
# Elastic Compliance Matrix: (Units=1/GPa)
#
#
# Indices 1 2 3 4 5 6 
#
# 1 0.020286 -0.001427 -0.000644 0.000000 0.000000 0.000000
# 2 -0.001427 0.005713 -0.001386 0.000000 0.000000 0.000000
# 3 -0.000644 -0.001386 0.014676 0.000000 0.000000 0.000000
# 4 0.000000 0.000000 0.000000 0.032696 0.000000 0.000000
# 5 0.000000 0.000000 0.000000 0.000000 -0.015954 0.000000
# 6 0.000000 0.000000 0.000000 0.000000 0.000000 0.016421
#
#
# Mechanical properties :
#
#
# Convention : Reuss Voigt Hill
#
# Bulk Modulus (GPa) = 29.62127 41.39457 35.50792
# Shear Modulus (GPa) = 54.34337 23.64646 38.99492
#
# Velocity S-wave (km/s) = 4.70394 3.10293 3.98467
# Velocity P-wave (km/s) = 6.44699 5.44906 5.96892
#
# Compressibility (1/GPa) = 0.03375953
#
# Stress axis : x y z
#
# Youngs Moduli (GPa) = 49.29452 175.03552 68.13866
#
# Poissons Ratio (x) = 0.24986 0.04389
# Poissons Ratio (y) = 0.07037 0.09446
# Poissons Ratio (z) = 0.03175 0.24266
#
# Static dielectric constant tensor:
#      x y z
#    x 1.913170 0.000000 0.000000 
#    y 0.000000 2.074830 0.000000 
#    z 0.000000 0.000000 1.932340 
# 
# From -- ./inp_files/3954.got.cif
#   From: 2010.05.17/outbox.cif.g08.bks.cpg/sg35_2_cif.got.tgz:3954.got - 2010.06.03 17:29:28.
