data_PCOD9349599
_publ_section_title
;
Structure prediction by ZEFSAII (Michael W. Deem and Ramdas Pophale) SiO2 
 PCOD9349599
Probable space group: C M M 2
;
_chemical_formula_sum "Si O2"
_cell_formula_units_Z 64
_cell_length_a 18.377176
_cell_length_b 20.573339
_cell_length_c 9.749241
_cell_angle_alpha 90.000000
_cell_angle_beta 90.000000
_cell_angle_gamma 90.000000
_cell_volume 3685.991787
_symmetry_space_group_name_H-M "C M M 2"
_symmetry_group_IT_number 35
_symmetry_cell_setting 'orthorhombic'
loop_
_space_group_symop_operation_xyz
x,y,z
-x,-y,z
-x,y,z
x,-y,z
1/2+x,1/2+y,z
1/2-x,1/2-y,z
1/2-x,1/2+y,z
1/2+x,1/2-y,z
loop_
_atom_site_type_symbol
_atom_site_label
_atom_site_fract_x
_atom_site_fract_y
_atom_site_fract_z
Si Si1 0.695842 0.070550 0.346520
Si Si2 0.655723 0.422296 0.012149
Si Si3 0.670940 0.216515 0.318062
Si Si4 0.587748 0.199140 0.028493
Si Si5 0.587217 0.316948 0.824806
Si Si6 0.327040 0.072602 0.022954
Si Si7 0.915317 0.187414 0.512160
Si Si8 0.870069 0.926401 0.321259
O O1 0.674593 0.144104 0.384840
O O2 0.669973 0.068016 0.188361
O O3 0.783479 0.070969 0.349318
O O4 0.672717 0.000000 0.409189
O O5 0.645685 0.500000 0.002440
O O6 0.742299 0.410190 0.998673
O O7 0.626648 0.402220 0.163395
O O8 0.615801 0.381304 0.898081
O O9 0.750000 0.250000 0.295020
O O10 0.628189 0.213094 0.173097
O O11 0.628448 0.261924 0.421888
O O12 0.500000 0.197595 0.046042
O O13 0.618928 0.129506 0.979116
O O14 0.607106 0.255023 0.918767
O O15 0.500000 0.319291 0.821767
O O16 0.612833 0.314023 0.667886
O O17 0.341763 0.000000 0.967647
O O18 0.906522 0.119421 0.432207
O O19 0.000000 0.205235 0.515322
O O20 0.898403 0.000000 0.326170
#
# Coordination Sequence:
#
# PCOD9349599 Si02
#       8
#     8   8   8   8   8   8   8   8
#     4   8  15  30  52  78 109 134 165 218 273 317
#     4   9  18  34  56  81 108 140 183 231 274 320
#     4  11  20  34  58  85 107 139 185 227 272 327
#     4  10  21  35  55  83 110 142 181 223 272 328
#     4  10  23  38  51  73 111 152 184 221 274 329
#     4   8  16  31  53  81 108 136 171 222 278 322
#     4  11  23  38  52  74 113 150 182 226 273 328
#     4   9  17  32  55  80 105 139 180 223 270 322
#
# _framework density 17.363033999999999
#
# number of rings (size 3 to 8) (size 9 to 14) (size 15 to 20)
#    0.000    2.500    1.250    2.625    3.500    2.750 
#    2.250    2.500    0.000    1.875    0.000    1.750 
#    0.000    0.000    0.000    0.000    0.000    0.000 
#
# Total GULP energy -178209.076846 kJ/mol
# GULP energy per Si atom -5569.033651 kJ/mol
# Density = 1.732352 g / cm^3
# Si number density = 17.363034 Si / 1000 Ang^3
#
#
#
# Elastic Constant Matrix: (Units=GPa)
#
#
# Indices 1 2 3 4 5 6 
#
# 1 38.2887 34.0505 37.4382 0.0000 0.0000 0.0000
# 2 34.0505 86.4565 49.4998 0.0000 0.0000 0.0000
# 3 37.4382 49.4998 97.9506 0.0000 0.0000 0.0000
# 4 0.0000 0.0000 0.0000 3.4860 0.0000 0.0000
# 5 0.0000 0.0000 0.0000 0.0000 1.1661 0.0000
# 6 0.0000 0.0000 0.0000 0.0000 0.0000 53.2565
#
#
#
# Elastic Compliance Matrix: (Units=1/GPa)
#
#
# Indices 1 2 3 4 5 6 
#
# 1 0.049375 -0.012159 -0.012727 0.000000 0.000000 0.000000
# 2 -0.012159 0.019270 -0.005091 0.000000 0.000000 0.000000
# 3 -0.012727 -0.005091 0.017646 0.000000 0.000000 0.000000
# 4 0.000000 0.000000 0.000000 0.286858 0.000000 0.000000
# 5 0.000000 0.000000 0.000000 0.000000 0.857570 0.000000
# 6 0.000000 0.000000 0.000000 0.000000 0.000000 0.018777
#
#
# Mechanical properties :
#
#
# Convention : Reuss Voigt Hill
#
# Bulk Modulus (GPa) = 37.96919 51.63030 44.79975
# Shear Modulus (GPa) = 3.79296 18.36222 11.07759
#
# Velocity S-wave (km/s) = 1.47961 3.25552 2.52860
# Velocity P-wave (km/s) = 4.98340 6.62809 5.86370
#
# Compressibility (1/GPa) = 0.02633714
#
# Stress axis : x y z
#
# Youngs Moduli (GPa) = 20.25304 51.89389 56.66901
#
# Poissons Ratio (x) = 0.63100 0.72123
# Poissons Ratio (y) = 0.24627 0.28848
# Poissons Ratio (z) = 0.25776 0.26418
#
# Static dielectric constant tensor:
#      x y z
#    x 1.583250 0.000000 0.000000 
#    y 0.000000 1.639340 0.000000 
#    z 0.000000 0.000000 1.572270 
# 
# From -- ./inp_files/8723.got.cif
#   From: 2010.05.17/outbox.cif.g08.bks.cpg/sg35_5_cif.got.tgz:8723.got - 2010.06.03 17:29:28.
