data_PCOD9349480
_publ_section_title
;
Structure prediction by ZEFSAII (Michael W. Deem and Ramdas Pophale) SiO2 
 PCOD9349480
Probable space group: C M M 2
;
_chemical_formula_sum "Si O2"
_cell_formula_units_Z 58
_cell_length_a 7.960541
_cell_length_b 19.735170
_cell_length_c 17.863793
_cell_angle_alpha 90.000000
_cell_angle_beta 90.000000
_cell_angle_gamma 90.000000
_cell_volume 2806.448861
_symmetry_space_group_name_H-M "C M M 2"
_symmetry_group_IT_number 35
_symmetry_cell_setting 'orthorhombic'
loop_
_space_group_symop_operation_xyz
x,y,z
-x,-y,z
-x,y,z
x,-y,z
1/2+x,1/2+y,z
1/2-x,1/2-y,z
1/2-x,1/2+y,z
1/2+x,1/2-y,z
loop_
_atom_site_type_symbol
_atom_site_label
_atom_site_fract_x
_atom_site_fract_y
_atom_site_fract_z
Si Si1 0.694447 0.110867 0.913380
Si Si2 0.800479 0.923812 0.619501
Si Si3 0.693120 0.321985 0.058647
Si Si4 0.702710 0.673782 0.490279
Si Si5 0.197311 0.672838 0.751268
Si Si6 0.000000 0.000000 0.924877
Si Si7 0.298657 0.326696 0.319116
Si Si8 0.198320 0.577674 0.185713
O O1 0.500000 0.084122 0.908460
O O2 0.729697 0.150915 0.836545
O O3 0.847555 0.058174 0.923829
O O4 0.702331 0.159644 0.985183
O O5 0.731721 0.880871 0.549419
O O6 0.778632 0.880204 0.694321
O O7 0.000000 0.929690 0.607040
O O8 0.731309 0.000000 0.626031
O O9 0.500000 0.316651 0.037059
O O10 0.750000 0.250000 0.091372
O O11 0.714518 0.380892 0.119499
O O12 0.500000 0.670469 0.489015
O O13 0.750000 0.750000 0.513368
O O14 0.761125 0.663088 0.404802
O O15 0.250000 0.750000 0.737738
O O16 0.000000 0.668244 0.738016
O O17 0.500000 0.331712 0.317590
O O18 0.250000 0.250000 0.297232
O O19 0.227496 0.381665 0.262273
O O20 0.257435 0.500000 0.190297
O O21 0.000000 0.577127 0.169385
#
# Coordination Sequence:
#
# PCOD9349480 Si02
#       8
#     8   8   8   8   8   2   8   8
#     4  11  26  45  69 102 135 173 224 272 321 393
#     4  10  22  38  60  88 124 164 205 255 315 383
#     4  12  25  44  69  97 128 170 218 267 326 386
#     4   9  19  36  59  88 118 157 205 255 311 374
#     4  11  25  42  65  92 125 165 213 268 319 379
#     4  12  26  44  72 102 136 180 210 272 336 394
#     4  10  20  37  62  89 121 159 205 257 311 378
#     4  11  25  42  61  89 126 165 207 261 321 382
#
# _framework density 20.666687
#
# number of rings (size 3 to 8) (size 9 to 14) (size 15 to 20)
#    0.000    1.379    0.690    3.931    3.862    5.241 
#    0.000    1.379    0.000    0.000    0.000    0.000 
#    0.000    0.000    0.000    0.000    0.000    0.000 
#
# Total GULP energy -161801.210011 kJ/mol
# GULP energy per Si atom -5579.352069 kJ/mol
# Density = 2.061965 g / cm^3
# Si number density = 20.666687 Si / 1000 Ang^3
#
#
#
# Elastic Constant Matrix: (Units=GPa)
#
#
# Indices 1 2 3 4 5 6 
#
# 1 73.0905 22.9562 5.8190 0.0000 0.0000 0.0000
# 2 22.9562 165.4376 75.3545 0.0000 0.0000 0.0000
# 3 5.8190 75.3545 107.8003 0.0000 0.0000 0.0000
# 4 0.0000 0.0000 0.0000 -80.9165 0.0000 0.0000
# 5 0.0000 0.0000 0.0000 0.0000 23.7424 0.0000
# 6 0.0000 0.0000 0.0000 0.0000 0.0000 30.1868
#
#
#
# Elastic Compliance Matrix: (Units=1/GPa)
#
#
# Indices 1 2 3 4 5 6 
#
# 1 0.014365 -0.002406 0.000907 0.000000 0.000000 0.000000
# 2 -0.002406 0.009271 -0.006351 0.000000 0.000000 0.000000
# 3 0.000907 -0.006351 0.013667 0.000000 0.000000 0.000000
# 4 0.000000 0.000000 0.000000 -0.012358 0.000000 0.000000
# 5 0.000000 0.000000 0.000000 0.000000 0.042119 0.000000
# 6 0.000000 0.000000 0.000000 0.000000 0.000000 0.033127
#
#
# Mechanical properties :
#
#
# Convention : Reuss Voigt Hill
#
# Bulk Modulus (GPa) = 46.29150 61.62089 53.95620
# Shear Modulus (GPa) = 40.61989 10.74914 25.68451
#
# Velocity S-wave (km/s) = 4.43818 2.28309 3.52916
# Velocity P-wave (km/s) = 6.97932 6.06887 6.53996
#
# Compressibility (1/GPa) = 0.02160224
#
# Stress axis : x y z
#
# Youngs Moduli (GPa) = 69.61242 107.86091 73.16976
#
# Poissons Ratio (x) = 0.25954 -0.06634
# Poissons Ratio (y) = 0.16751 0.46469
# Poissons Ratio (z) = -0.06311 0.68501
#
# Static dielectric constant tensor:
#      x y z
#    x 1.735190 0.000000 0.000000 
#    y 0.000000 1.751730 0.000000 
#    z 0.000000 0.000000 1.725400 
# 
# From -- ./inp_files/18167.got.cif
#   From: 2010.05.17/outbox.cif.g08.bks.cpg/sg35_10_cif.got.tgz:18167.got - 2010.06.03 17:29:28.
