data_PCOD9349263
_publ_section_title
;
Structure prediction by ZEFSAII (Michael W. Deem and Ramdas Pophale) SiO2 
 PCOD9349263
Probable space group: C M M 2
;
_chemical_formula_sum "Si O2"
_cell_formula_units_Z 64
_cell_length_a 23.792016
_cell_length_b 14.060191
_cell_length_c 9.239835
_cell_angle_alpha 90.000000
_cell_angle_beta 90.000000
_cell_angle_gamma 90.000000
_cell_volume 3090.912277
_symmetry_space_group_name_H-M "C M M 2"
_symmetry_group_IT_number 35
_symmetry_cell_setting 'orthorhombic'
loop_
_space_group_symop_operation_xyz
x,y,z
-x,-y,z
-x,y,z
x,-y,z
1/2+x,1/2+y,z
1/2-x,1/2-y,z
1/2-x,1/2+y,z
1/2+x,1/2-y,z
loop_
_atom_site_type_symbol
_atom_site_label
_atom_site_fract_x
_atom_site_fract_y
_atom_site_fract_z
Si Si1 0.935971 0.750540 0.708000
Si Si2 0.155976 0.888078 0.844699
Si Si3 0.148039 0.107128 0.191681
Si Si4 0.120029 0.612957 0.892157
Si Si5 0.432870 0.104612 0.472879
Si Si6 0.271497 0.115009 0.698688
Si Si7 0.734184 0.111169 0.362170
Si Si8 0.373252 0.810992 0.214408
O O1 0.895112 0.829918 0.773745
O O2 0.933320 0.662989 0.820529
O O3 0.914078 0.696773 0.563897
O O4 0.000000 0.783823 0.688188
O O5 0.214647 0.853113 0.777531
O O6 0.149234 0.000000 0.809778
O O7 0.159365 0.882025 0.019257
O O8 0.204971 0.113869 0.286607
O O9 0.111681 0.199712 0.229718
O O10 0.125002 0.000000 0.214264
O O11 0.115791 0.500000 0.898697
O O12 0.173328 0.639788 0.790713
O O13 0.127226 0.656039 0.050000
O O14 0.500000 0.102531 0.484499
O O15 0.413291 0.123413 0.310690
O O16 0.411438 0.000000 0.523196
O O17 0.268756 0.141446 0.529894
O O18 0.270233 0.000000 0.700595
O O19 0.689293 0.172055 0.274823
O O20 0.716437 0.000000 0.355463
#
# Coordination Sequence:
#
# PCOD9349263 Si02
#       8
#     8   8   8   8   8   8   8   8
#     4  11  24  42  63  91 122 162 212 262 318 380
#     4  10  21  42  66  90 124 167 209 263 316 367
#     4  10  22  40  58  85 126 166 206 252 306 363
#     4  11  22  38  62  93 127 162 205 261 315 380
#     4  10  23  43  65  89 123 162 202 257 320 380
#     4   9  20  37  61  93 128 163 206 255 310 373
#     4  10  20  35  58  92 130 166 204 248 305 380
#     4  12  22  38  61  92 122 166 209 248 310 376
#
# _framework density 20.705860000000001
#
# number of rings (size 3 to 8) (size 9 to 14) (size 15 to 20)
#    0.000    1.625    1.250    3.375    1.750    5.000 
#    2.250    0.000    0.000    1.125    0.000    0.000 
#    0.000    0.000    0.000    0.000    0.000    0.000 
#
# Total GULP energy -178723.531250 kJ/mol
# GULP energy per Si atom -5585.110352 kJ/mol
# Density = 2.065873 g / cm^3
# Si number density = 20.705860 Si / 1000 Ang^3
#
#
#
# Elastic Constant Matrix: (Units=GPa)
#
#
# Indices 1 2 3 4 5 6 
#
# 1 53.6371 8.7102 18.3858 0.0000 0.0000 0.0000
# 2 8.7102 105.4754 17.4045 0.0000 0.0000 0.0000
# 3 18.3858 17.4045 110.2385 0.0000 0.0000 0.0000
# 4 0.0000 0.0000 0.0000 25.1555 0.0000 0.0000
# 5 0.0000 0.0000 0.0000 0.0000 15.7851 0.0000
# 6 0.0000 0.0000 0.0000 0.0000 0.0000 17.6994
#
#
#
# Elastic Compliance Matrix: (Units=1/GPa)
#
#
# Indices 1 2 3 4 5 6 
#
# 1 0.019904 -0.001125 -0.003142 0.000000 0.000000 0.000000
# 2 -0.001125 0.009798 -0.001359 0.000000 0.000000 0.000000
# 3 -0.003142 -0.001359 0.009810 0.000000 0.000000 0.000000
# 4 0.000000 0.000000 0.000000 0.039753 0.000000 0.000000
# 5 0.000000 0.000000 0.000000 0.000000 0.063351 0.000000
# 6 0.000000 0.000000 0.000000 0.000000 0.000000 0.056499
#
#
# Mechanical properties :
#
#
# Convention : Reuss Voigt Hill
#
# Bulk Modulus (GPa) = 35.38728 39.81689 37.60209
# Shear Modulus (GPa) = 22.74935 26.71803 24.73369
#
# Velocity S-wave (km/s) = 3.31825 3.59606 3.45994
# Velocity P-wave (km/s) = 5.63991 6.04265 5.84475
#
# Compressibility (1/GPa) = 0.02825874
#
# Stress axis : x y z
#
# Youngs Moduli (GPa) = 50.24239 102.06062 101.93831
#
# Poissons Ratio (x) = 0.11484 0.32028
# Poissons Ratio (y) = 0.05653 0.13856
# Poissons Ratio (z) = 0.15786 0.13873
#
# Static dielectric constant tensor:
#      x y z
#    x 1.738330 0.000000 0.000000 
#    y 0.000000 1.798420 0.000000 
#    z 0.000000 0.000000 1.745890 
# 
# From -- ./inp_files/7886.got.cif
#   From: 2010.05.17/outbox.cif.g08.bks.cpg/sg35_4_cif.got.tgz:7886.got - 2010.06.03 17:29:28.
