data_PCOD9349581
_publ_section_title
;
Structure prediction by ZEFSAII (Michael W. Deem and Ramdas Pophale) SiO2 
 PCOD9349581
Probable space group: C M M 2
;
_chemical_formula_sum "Si O2"
_cell_formula_units_Z 56
_cell_length_a 9.116711
_cell_length_b 18.684767
_cell_length_c 18.537262
_cell_angle_alpha 90.000000
_cell_angle_beta 90.000000
_cell_angle_gamma 90.000000
_cell_volume 3157.704330
_symmetry_space_group_name_H-M "C M M 2"
_symmetry_group_IT_number 35
_symmetry_cell_setting 'orthorhombic'
loop_
_space_group_symop_operation_xyz
x,y,z
-x,-y,z
-x,y,z
x,-y,z
1/2+x,1/2+y,z
1/2-x,1/2-y,z
1/2-x,1/2+y,z
1/2+x,1/2-y,z
loop_
_atom_site_type_symbol
_atom_site_label
_atom_site_fract_x
_atom_site_fract_y
_atom_site_fract_z
Si Si1 0.176917 0.672859 0.567370
Si Si2 0.824592 0.583647 0.131988
Si Si3 0.169071 0.912908 0.278931
Si Si4 0.326552 0.414482 0.860263
Si Si5 0.676299 0.827560 0.988434
Si Si6 0.675985 0.084001 0.425889
Si Si7 0.674255 0.084546 0.710011
O O1 0.250000 0.750000 0.567483
O O2 0.220167 0.628751 0.495974
O O3 0.216260 0.629464 0.639709
O O4 0.000000 0.679254 0.566436
O O5 0.784806 0.500000 0.119709
O O6 0.747202 0.609583 0.205036
O O7 0.000000 0.586261 0.142408
O O8 0.787263 0.630106 0.062156
O O9 0.249501 0.890031 0.352106
O O10 0.000000 0.891056 0.279485
O O11 0.175309 0.000000 0.278940
O O12 0.500000 0.399692 0.864648
O O13 0.304636 0.500000 0.869707
O O14 0.239743 0.372122 0.921423
O O15 0.264225 0.395602 0.781301
O O16 0.500000 0.822060 0.983117
O O17 0.750000 0.750000 0.989422
O O18 0.500000 0.088381 0.417986
O O19 0.712656 0.000000 0.436524
O O20 0.500000 0.094677 0.723536
O O21 0.696798 0.000000 0.695850
#
# Coordination Sequence:
#
# PCOD9349581 Si02
#       7
#     8   8   8   8   8   8   8
#     4  10  21  35  52  76 105 138 174 213 260 311
#     4   9  18  34  56  79 103 135 175 216 260 313
#     4   9  17  29  49  79 108 132 165 213 265 310
#     4  10  21  37  58  84 111 139 175 219 266 316
#     4  11  23  38  56  79 109 144 181 220 265 317
#     4   9  17  32  54  76 100 133 174 216 256 304
#     4   9  18  35  58  80 103 135 177 220 260 307
#
# _framework density 17.734403
#
# number of rings (size 3 to 8) (size 9 to 14) (size 15 to 20)
#    0.000    2.429    0.000    2.143    0.000    7.714 
#    0.000    3.571    0.000    4.286    0.000    0.000 
#    0.000    0.000    0.000    0.000    0.000    0.000 
#
# Total GULP energy -156262.180138 kJ/mol
# GULP energy per Si atom -5580.792148 kJ/mol
# Density = 1.769404 g / cm^3
# Si number density = 17.734403 Si / 1000 Ang^3
#
#
#
# Elastic Constant Matrix: (Units=GPa)
#
#
# Indices 1 2 3 4 5 6 
#
# 1 59.0661 52.8958 85.9890 0.0000 0.0000 0.0000
# 2 52.8958 74.3552 93.3042 0.0000 0.0000 0.0000
# 3 85.9890 93.3042 209.3997 0.0000 0.0000 0.0000
# 4 0.0000 0.0000 0.0000 -6.9530 0.0000 0.0000
# 5 0.0000 0.0000 0.0000 0.0000 19.5904 0.0000
# 6 0.0000 0.0000 0.0000 0.0000 0.0000 25.9155
#
#
#
# Elastic Compliance Matrix: (Units=1/GPa)
#
#
# Indices 1 2 3 4 5 6 
#
# 1 0.057905 -0.025756 -0.012302 0.000000 0.000000 0.000000
# 2 -0.025756 0.041962 -0.008121 0.000000 0.000000 0.000000
# 3 -0.012302 -0.008121 0.013446 0.000000 0.000000 0.000000
# 4 0.000000 0.000000 0.000000 -0.143823 0.000000 0.000000
# 5 0.000000 0.000000 0.000000 0.000000 0.051045 0.000000
# 6 0.000000 0.000000 0.000000 0.000000 0.000000 0.038587
#
#
# Mechanical properties :
#
#
# Convention : Reuss Voigt Hill
#
# Bulk Modulus (GPa) = 47.72127 89.68877 68.70502
# Shear Modulus (GPa) = 31.55254 15.08605 23.31929
#
# Velocity S-wave (km/s) = 4.22260 2.91978 3.63011
# Velocity P-wave (km/s) = 7.12328 7.87718 7.50969
#
# Compressibility (1/GPa) = 0.02095502
#
# Stress axis : x y z
#
# Youngs Moduli (GPa) = 17.26953 23.83102 74.37267
#
# Poissons Ratio (x) = 0.61380 0.91494
# Poissons Ratio (y) = 0.44480 0.60396
# Poissons Ratio (z) = 0.21245 0.19353
#
# Static dielectric constant tensor:
#      x y z
#    x 1.592730 0.000000 0.000000 
#    y 0.000000 1.583430 0.000000 
#    z 0.000000 0.000000 1.581820 
# 
# From -- ./inp_files/15640.got.cif
#   From: 2010.05.17/outbox.cif.g08.bks.cpg/sg35_8_cif.got.tgz:15640.got - 2010.06.03 17:29:28.
