data_PCOD9349916
_publ_section_title
;
Structure prediction by ZEFSAII (Michael W. Deem and Ramdas Pophale) SiO2 
 PCOD9349916
Probable space group: C M M 2
;
_chemical_formula_sum "Si O2"
_cell_formula_units_Z 30
_cell_length_a 10.011037
_cell_length_b 14.454866
_cell_length_c 10.840895
_cell_angle_alpha 90.000000
_cell_angle_beta 90.000000
_cell_angle_gamma 90.000000
_cell_volume 1568.766384
_symmetry_space_group_name_H-M "C M M 2"
_symmetry_group_IT_number 35
_symmetry_cell_setting 'orthorhombic'
loop_
_space_group_symop_operation_xyz
x,y,z
-x,-y,z
-x,y,z
x,-y,z
1/2+x,1/2+y,z
1/2-x,1/2-y,z
1/2-x,1/2+y,z
1/2+x,1/2-y,z
loop_
_atom_site_type_symbol
_atom_site_label
_atom_site_fract_x
_atom_site_fract_y
_atom_site_fract_z
Si Si1 0.000000 0.500000 0.805920
Si Si2 0.713878 0.896526 0.488644
Si Si3 0.346275 0.000000 0.042037
Si Si4 0.500000 0.394936 0.609939
Si Si5 0.000000 0.692001 0.653021
Si Si6 0.341186 0.160865 0.210889
O O1 0.000000 0.398306 0.742578
O O2 0.869646 0.500000 0.896407
O O3 0.868576 0.889802 0.524646
O O4 0.628064 0.824534 0.566446
O O5 0.683859 0.883870 0.344939
O O6 0.668963 0.000000 0.525402
O O7 0.291618 0.091983 0.103301
O O8 0.500000 0.000000 0.091275
O O9 0.500000 0.500000 0.666822
O O10 0.500000 0.300493 0.692616
O O11 0.500000 0.181259 0.198663
O O12 0.250000 0.250000 0.206148
#
# Coordination Sequence:
#
# PCOD9349916 Si02
#       6
#     2   8   4   4   4   8
#     4  10  22  38  70  90 106 160 236 258 280 338
#     4  11  21  36  58  93 127 159 195 244 310 377
#     4   8  20  41  59  83 113 152 210 256 288 350
#     4  10  24  38  53  89 143 157 184 240 320 385
#     4  12  20  37  64  91 115 162 212 252 288 363
#     4  11  21  36  61  89 122 157 195 250 310 366
#
# _framework density 19.123304999999998
#
# number of rings (size 3 to 8) (size 9 to 14) (size 15 to 20)
#    0.400    1.067    4.000    2.400    1.867    0.000 
#    0.000    3.333    0.000    0.000    0.000    0.000 
#    0.000    0.000    0.000    0.000    0.000    0.000 
#
# Total GULP energy -83525.165663 kJ/mol
# GULP energy per Si atom -5568.344378 kJ/mol
# Density = 1.907978 g / cm^3
# Si number density = 19.123305 Si / 1000 Ang^3
#
#
#
# Elastic Constant Matrix: (Units=GPa)
#
#
# Indices 1 2 3 4 5 6 
#
# 1 93.1216 29.6302 1.6104 0.0000 0.0000 0.0000
# 2 29.6302 169.4988 35.7813 0.0000 0.0000 0.0000
# 3 1.6104 35.7813 61.3571 0.0000 0.0000 0.0000
# 4 0.0000 0.0000 0.0000 10.5340 0.0000 0.0000
# 5 0.0000 0.0000 0.0000 0.0000 -13.9167 0.0000
# 6 0.0000 0.0000 0.0000 0.0000 0.0000 14.0962
#
#
#
# Elastic Compliance Matrix: (Units=1/GPa)
#
#
# Indices 1 2 3 4 5 6 
#
# 1 0.011423 -0.002205 0.000986 0.000000 0.000000 0.000000
# 2 -0.002205 0.007154 -0.004114 0.000000 0.000000 0.000000
# 3 0.000986 -0.004114 0.018671 0.000000 0.000000 0.000000
# 4 0.000000 0.000000 0.000000 0.094931 0.000000 0.000000
# 5 0.000000 0.000000 0.000000 0.000000 -0.071856 0.000000
# 6 0.000000 0.000000 0.000000 0.000000 0.000000 0.070941
#
#
# Mechanical properties :
#
#
# Convention : Reuss Voigt Hill
#
# Bulk Modulus (GPa) = 37.61888 50.89125 44.25506
# Shear Modulus (GPa) = 33.15871 19.27308 26.21590
#
# Velocity S-wave (km/s) = 4.16858 3.17808 3.70657
# Velocity P-wave (km/s) = 6.54858 6.33537 6.44285
#
# Compressibility (1/GPa) = 0.02658239
#
# Stress axis : x y z
#
# Youngs Moduli (GPa) = 87.54099 139.78859 53.55832
#
# Poissons Ratio (x) = 0.30824 -0.05281
# Poissons Ratio (y) = 0.19303 0.22033
# Poissons Ratio (z) = -0.08632 0.57507
#
# Static dielectric constant tensor:
#      x y z
#    x 1.675530 0.000000 0.000000 
#    y 0.000000 1.743950 0.000000 
#    z 0.000000 0.000000 1.648830 
# 
# From -- ./inp_files/10842.got.cif
#   From: 2010.05.17/outbox.cif.g08.bks.cpg/sg35_6_cif.got.tgz:10842.got - 2010.06.03 17:29:28.
