data_PCOD9349222
_publ_section_title
;
Structure prediction by ZEFSAII (Michael W. Deem and Ramdas Pophale) SiO2 
 PCOD9349222
Probable space group: C M M 2
;
_chemical_formula_sum "Si O2"
_cell_formula_units_Z 48
_cell_length_a 10.491557
_cell_length_b 17.481241
_cell_length_c 14.401182
_cell_angle_alpha 90.000000
_cell_angle_beta 90.000000
_cell_angle_gamma 90.000000
_cell_volume 2641.255069
_symmetry_space_group_name_H-M "C M M 2"
_symmetry_group_IT_number 35
_symmetry_cell_setting 'orthorhombic'
loop_
_space_group_symop_operation_xyz
x,y,z
-x,-y,z
-x,y,z
x,-y,z
1/2+x,1/2+y,z
1/2-x,1/2-y,z
1/2-x,1/2+y,z
1/2+x,1/2-y,z
loop_
_atom_site_type_symbol
_atom_site_label
_atom_site_fract_x
_atom_site_fract_y
_atom_site_fract_z
Si Si1 0.348436 0.408371 0.252270
Si Si2 0.000000 0.091145 0.536453
Si Si3 0.147202 0.907943 0.040515
Si Si4 0.000000 0.591588 0.533754
Si Si5 0.000000 0.341998 0.741138
Si Si6 0.000000 0.156799 0.742054
Si Si7 0.750968 0.841125 0.436674
Si Si8 0.249471 0.341836 0.857999
O O1 0.500000 0.393792 0.266624
O O2 0.330696 0.500000 0.262130
O O3 0.317951 0.386424 0.146054
O O4 0.267424 0.365397 0.329521
O O5 0.125615 0.125048 0.488489
O O6 0.000000 0.116256 0.643306
O O7 0.000000 0.000000 0.526424
O O8 0.000000 0.882860 0.023768
O O9 0.147691 0.000000 0.036931
O O10 0.236789 0.875878 0.960468
O O11 0.124847 0.623911 0.482419
O O12 0.000000 0.500000 0.531169
O O13 0.000000 0.620438 0.640084
O O14 0.124421 0.363771 0.800462
O O15 0.000000 0.249287 0.729215
O O16 0.874509 0.135449 0.799794
O O17 0.750000 0.750000 0.446173
O O18 0.250000 0.250000 0.865745
#
# Coordination Sequence:
#
# PCOD9349222 Si02
#       8
#     8   4   8   4   4   4   8   8
#     4   9  18  36  62  88 115 150 197 250 299 346
#     4  12  24  40  65  92 115 154 213 260 292 350
#     4   9  18  34  59  88 115 148 192 247 296 338
#     4  12  26  42  59  86 125 162 195 242 308 360
#     4  10  22  38  55  80 119 164 193 232 298 356
#     4  10  20  36  57  84 113 150 201 254 288 332
#     4  12  24  40  63  90 121 159 199 248 300 360
#     4  10  20  35  57  83 117 155 193 236 290 349
#
# _framework density 18.173179000000001
#
# number of rings (size 3 to 8) (size 9 to 14) (size 15 to 20)
#    0.000    1.667    1.667    5.000    0.000    3.333 
#    0.000    0.833    0.000    2.000    0.000    0.000 
#    0.000    0.000    0.000    0.000    0.000    0.000 
#
# Total GULP energy -134085.902331 kJ/mol
# GULP energy per Si atom -5586.912597 kJ/mol
# Density = 1.813182 g / cm^3
# Si number density = 18.173179 Si / 1000 Ang^3
#
#
#
# Elastic Constant Matrix: (Units=GPa)
#
#
# Indices 1 2 3 4 5 6 
#
# 1 152.9754 57.6610 94.7365 0.0000 0.0000 0.0000
# 2 57.6610 83.7252 67.2136 0.0000 0.0000 0.0000
# 3 94.7365 67.2136 180.4885 0.0000 0.0000 0.0000
# 4 0.0000 0.0000 0.0000 39.0363 0.0000 0.0000
# 5 0.0000 0.0000 0.0000 0.0000 27.7695 0.0000
# 6 0.0000 0.0000 0.0000 0.0000 0.0000 19.3946
#
#
#
# Elastic Compliance Matrix: (Units=1/GPa)
#
#
# Indices 1 2 3 4 5 6 
#
# 1 0.010558 -0.004026 -0.004043 0.000000 0.000000 0.000000
# 2 -0.004026 0.018572 -0.004803 0.000000 0.000000 0.000000
# 3 -0.004043 -0.004803 0.009451 0.000000 0.000000 0.000000
# 4 0.000000 0.000000 0.000000 0.025617 0.000000 0.000000
# 5 0.000000 0.000000 0.000000 0.000000 0.036011 0.000000
# 6 0.000000 0.000000 0.000000 0.000000 0.000000 0.051561
#
#
# Mechanical properties :
#
#
# Convention : Reuss Voigt Hill
#
# Bulk Modulus (GPa) = 77.89233 95.15682 86.52457
# Shear Modulus (GPa) = 27.50385 30.41195 28.95790
#
# Velocity S-wave (km/s) = 3.89450 4.09522 3.99612
# Velocity P-wave (km/s) = 7.94840 8.65078 8.30702
#
# Compressibility (1/GPa) = 0.01283823
#
# Stress axis : x y z
#
# Youngs Moduli (GPa) = 94.71496 53.84346 105.80796
#
# Poissons Ratio (x) = 0.21677 0.42773
# Poissons Ratio (y) = 0.38131 0.50821
# Poissons Ratio (z) = 0.38289 0.25862
#
# Static dielectric constant tensor:
#      x y z
#    x 1.608260 0.000000 0.000000 
#    y 0.000000 1.604030 0.000000 
#    z 0.000000 0.000000 1.618830 
# 
# From -- ./inp_files/15290.got.cif
#   From: 2010.05.17/outbox.cif.g08.bks.cpg/sg35_8_cif.got.tgz:15290.got - 2010.06.03 17:29:28.
