data_PCOD9349793
_publ_section_title
;
Structure prediction by ZEFSAII (Michael W. Deem and Ramdas Pophale) SiO2 
 PCOD9349793
Probable space group: C M M 2
;
_chemical_formula_sum "Si O2"
_cell_formula_units_Z 64
_cell_length_a 31.382630
_cell_length_b 8.796137
_cell_length_c 12.068617
_cell_angle_alpha 90.000000
_cell_angle_beta 90.000000
_cell_angle_gamma 90.000000
_cell_volume 3331.492397
_symmetry_space_group_name_H-M "C M M 2"
_symmetry_group_IT_number 35
_symmetry_cell_setting 'orthorhombic'
loop_
_space_group_symop_operation_xyz
x,y,z
-x,-y,z
-x,y,z
x,-y,z
1/2+x,1/2+y,z
1/2-x,1/2-y,z
1/2-x,1/2+y,z
1/2+x,1/2-y,z
loop_
_atom_site_type_symbol
_atom_site_label
_atom_site_fract_x
_atom_site_fract_y
_atom_site_fract_z
Si Si1 0.677570 0.179027 0.048560
Si Si2 0.295741 0.182381 0.299289
Si Si3 0.048608 0.180731 0.821827
Si Si4 0.295069 0.319921 0.821869
Si Si5 0.373857 0.818816 0.686192
Si Si6 0.924694 0.321056 0.051208
Si Si7 0.373121 0.317248 0.440974
Si Si8 0.048203 0.182357 0.284471
O O1 0.695020 0.217964 0.169958
O O2 0.626491 0.199032 0.049084
O O3 0.686336 0.000000 0.026883
O O4 0.697401 0.276941 0.950474
O O5 0.250000 0.250000 0.330206
O O6 0.333022 0.254470 0.372495
O O7 0.296142 0.000000 0.311211
O O8 0.083356 0.266580 0.748620
O O9 0.000000 0.215430 0.789187
O O10 0.055348 0.000000 0.811631
O O11 0.055580 0.230238 0.948875
O O12 0.294906 0.500000 0.807792
O O13 0.250000 0.250000 0.786351
O O14 0.333847 0.247633 0.753722
O O15 0.373621 0.753130 0.562669
O O16 0.371178 0.000000 0.685191
O O17 0.933748 0.500000 0.038212
O O18 0.941950 0.262314 0.168120
O O19 0.370900 0.500000 0.447983
O O20 0.415988 0.275288 0.373682
O O21 0.000000 0.218317 0.320340
O O22 0.051008 0.000000 0.267918
#
# Coordination Sequence:
#
# PCOD9349793 Si02
#       8
#     8   8   8   8   8   8   8   8
#     4  10  21  38  62  94 131 167 206 255 312 373
#     4  11  23  41  64  93 128 164 207 255 310 370
#     4  11  24  42  65  94 128 167 211 258 312 375
#     4  12  25  42  67  96 129 166 209 256 313 374
#     4  12  26  45  67  92 125 163 211 264 316 371
#     4  11  21  36  62  95 131 167 205 254 312 371
#     4  11  24  43  66  91 122 164 213 259 312 369
#     4  10  22  40  63  92 127 166 208 255 308 370
#
# _framework density 19.210609000000002
#
# number of rings (size 3 to 8) (size 9 to 14) (size 15 to 20)
#    0.000    1.000    2.500    4.500    0.000    6.750 
#    0.000    3.750    0.000    0.000    0.000    0.000 
#    0.000    0.000    0.000    0.000    0.000    0.000 
#
# Total GULP energy -179071.441902 kJ/mol
# GULP energy per Si atom -5595.982559 kJ/mol
# Density = 1.916688 g / cm^3
# Si number density = 19.210609 Si / 1000 Ang^3
#
#
#
# Elastic Constant Matrix: (Units=GPa)
#
#
# Indices 1 2 3 4 5 6 
#
# 1 159.4546 82.8737 75.8823 0.0000 0.0000 0.0000
# 2 82.8737 109.5837 72.2542 0.0000 0.0000 0.0000
# 3 75.8823 72.2542 135.2266 0.0000 0.0000 0.0000
# 4 0.0000 0.0000 0.0000 35.9811 0.0000 0.0000
# 5 0.0000 0.0000 0.0000 0.0000 -7.8933 0.0000
# 6 0.0000 0.0000 0.0000 0.0000 0.0000 29.8886
#
#
#
# Elastic Compliance Matrix: (Units=1/GPa)
#
#
# Indices 1 2 3 4 5 6 
#
# 1 0.010913 -0.006508 -0.002647 0.000000 0.000000 0.000000
# 2 -0.006508 0.017971 -0.005950 0.000000 0.000000 0.000000
# 3 -0.002647 -0.005950 0.012059 0.000000 0.000000 0.000000
# 4 0.000000 0.000000 0.000000 0.027792 0.000000 0.000000
# 5 0.000000 0.000000 0.000000 0.000000 -0.126690 0.000000
# 6 0.000000 0.000000 0.000000 0.000000 0.000000 0.033458
#
#
# Mechanical properties :
#
#
# Convention : Reuss Voigt Hill
#
# Bulk Modulus (GPa) = 93.16459 96.25393 94.70926
# Shear Modulus (GPa) = 538.16607 23.14559 280.65583
#
# Velocity S-wave (km/s) = 16.75554 3.47484 12.10006
# Velocity P-wave (km/s) = 20.56533 8.14326 15.64042
#
# Compressibility (1/GPa) = 0.01073369
#
# Stress axis : x y z
#
# Youngs Moduli (GPa) = 91.63012 55.64673 82.92440
#
# Poissons Ratio (x) = 0.36217 0.21946
# Poissons Ratio (y) = 0.59637 0.49338
# Poissons Ratio (z) = 0.24250 0.33109
#
# Static dielectric constant tensor:
#      x y z
#    x 1.660980 0.000000 0.000000 
#    y 0.000000 1.640840 0.000000 
#    z 0.000000 0.000000 1.630260 
# 
# From -- ./inp_files/14517.got.cif
#   From: 2010.05.17/outbox.cif.g08.bks.cpg/sg35_8_cif.got.tgz:14517.got - 2010.06.03 17:29:28.
