data_PCOD9349386
_publ_section_title
;
Structure prediction by ZEFSAII (Michael W. Deem and Ramdas Pophale) SiO2 
 PCOD9349386
Probable space group: C M M 2
;
_chemical_formula_sum "Si O2"
_cell_formula_units_Z 48
_cell_length_a 16.205386
_cell_length_b 8.726123
_cell_length_c 17.105756
_cell_angle_alpha 90.000000
_cell_angle_beta 90.000000
_cell_angle_gamma 90.000000
_cell_volume 2418.928232
_symmetry_space_group_name_H-M "C M M 2"
_symmetry_group_IT_number 35
_symmetry_cell_setting 'orthorhombic'
loop_
_space_group_symop_operation_xyz
x,y,z
-x,-y,z
-x,y,z
x,-y,z
1/2+x,1/2+y,z
1/2-x,1/2-y,z
1/2-x,1/2+y,z
1/2+x,1/2-y,z
loop_
_atom_site_type_symbol
_atom_site_label
_atom_site_fract_x
_atom_site_fract_y
_atom_site_fract_z
Si Si1 0.335841 0.182716 0.676440
Si Si2 0.596462 0.682254 0.182702
Si Si3 0.000000 0.182720 0.945989
Si Si4 0.404981 0.315408 0.521606
Si Si5 0.337609 0.181520 0.029312
Si Si6 0.000000 0.314301 0.772475
Si Si7 0.158537 0.815204 0.352288
O O1 0.250000 0.250000 0.707464
O O2 0.349482 0.240681 0.588050
O O3 0.417088 0.228905 0.725285
O O4 0.331130 0.000000 0.676891
O O5 0.500000 0.704089 0.164842
O O6 0.614544 0.500000 0.174833
O O7 0.649604 0.774533 0.120342
O O8 0.612992 0.728561 0.272187
O O9 0.000000 0.235497 0.856309
O O10 0.083086 0.247832 0.985787
O O11 0.000000 0.000000 0.953907
O O12 0.500000 0.275725 0.537800
O O13 0.396540 0.500000 0.525774
O O14 0.382908 0.266035 0.433602
O O15 0.250000 0.250000 0.002574
O O16 0.337381 0.000000 0.019112
O O17 0.000000 0.500000 0.781204
O O18 0.250000 0.750000 0.349507
O O19 0.160254 0.000000 0.353578
#
# Coordination Sequence:
#
# PCOD9349386 Si02
#       7
#     8   8   4   8   8   4   8
#     4  11  23  41  65  94 128 167 210 258 314 374
#     4  10  20  37  61  87 122 166 215 265 319 377
#     4  12  26  46  72 101 132 167 208 259 322 387
#     4  10  20  36  59  86 120 163 214 264 315 373
#     4  12  25  43  68  98 133 172 216 264 318 382
#     4  10  24  46  68  93 130 167 204 257 316 379
#     4  10  21  35  52  81 119 164 212 264 316 369
#
# _framework density 19.843499999999999
#
# number of rings (size 3 to 8) (size 9 to 14) (size 15 to 20)
#    0.000    1.333    1.667    4.250    0.000    8.000 
#    0.000    1.667    0.000    3.000    0.000    0.000 
#    0.000    0.000    0.000    0.000    0.000    0.000 
#
# Total GULP energy -134183.960519 kJ/mol
# GULP energy per Si atom -5590.998355 kJ/mol
# Density = 1.979834 g / cm^3
# Si number density = 19.843500 Si / 1000 Ang^3
#
#
#
# Elastic Constant Matrix: (Units=GPa)
#
#
# Indices 1 2 3 4 5 6 
#
# 1 162.0575 62.0963 61.4419 0.0000 0.0000 0.0000
# 2 62.0963 66.3358 43.6548 0.0000 0.0000 0.0000
# 3 61.4419 43.6548 114.6248 0.0000 0.0000 0.0000
# 4 0.0000 0.0000 0.0000 33.5194 0.0000 0.0000
# 5 0.0000 0.0000 0.0000 0.0000 11.5161 0.0000
# 6 0.0000 0.0000 0.0000 0.0000 0.0000 33.9004
#
#
#
# Elastic Compliance Matrix: (Units=1/GPa)
#
#
# Indices 1 2 3 4 5 6 
#
# 1 0.010101 -0.007863 -0.002420 0.000000 0.000000 0.000000
# 2 -0.007863 0.026238 -0.005778 0.000000 0.000000 0.000000
# 3 -0.002420 -0.005778 0.012222 0.000000 0.000000 0.000000
# 4 0.000000 0.000000 0.000000 0.029834 0.000000 0.000000
# 5 0.000000 0.000000 0.000000 0.000000 0.086835 0.000000
# 6 0.000000 0.000000 0.000000 0.000000 0.000000 0.029498
#
#
# Mechanical properties :
#
#
# Convention : Reuss Voigt Hill
#
# Bulk Modulus (GPa) = 60.83062 75.26710 68.04886
# Shear Modulus (GPa) = 21.52130 27.50884 24.51507
#
# Velocity S-wave (km/s) = 3.29683 3.72733 3.51867
# Velocity P-wave (km/s) = 6.72412 7.51909 7.13269
#
# Compressibility (1/GPa) = 0.01643909
#
# Stress axis : x y z
#
# Youngs Moduli (GPa) = 99.00038 38.11323 81.82210
#
# Poissons Ratio (x) = 0.29968 0.19799
# Poissons Ratio (y) = 0.77844 0.47275
# Poissons Ratio (z) = 0.23956 0.22021
#
# Static dielectric constant tensor:
#      x y z
#    x 1.688830 0.000000 0.000000 
#    y 0.000000 1.665220 0.000000 
#    z 0.000000 0.000000 1.701100 
# 
# From -- ./inp_files/18767.got.cif
#   From: 2010.05.17/outbox.cif.g08.bks.cpg/sg35_10_cif.got.tgz:18767.got - 2010.06.03 17:29:28.
