data_PCOD9349709
_publ_section_title
;
Structure prediction by ZEFSAII (Michael W. Deem and Ramdas Pophale) SiO2 
 PCOD9349709
Probable space group: C M M 2
;
_chemical_formula_sum "Si O2"
_cell_formula_units_Z 64
_cell_length_a 14.841453
_cell_length_b 17.214448
_cell_length_c 12.334568
_cell_angle_alpha 90.000000
_cell_angle_beta 90.000000
_cell_angle_gamma 90.000000
_cell_volume 3151.326966
_symmetry_space_group_name_H-M "C M M 2"
_symmetry_group_IT_number 35
_symmetry_cell_setting 'orthorhombic'
loop_
_space_group_symop_operation_xyz
x,y,z
-x,-y,z
-x,y,z
x,-y,z
1/2+x,1/2+y,z
1/2-x,1/2-y,z
1/2-x,1/2+y,z
1/2+x,1/2-y,z
loop_
_atom_site_type_symbol
_atom_site_label
_atom_site_fract_x
_atom_site_fract_y
_atom_site_fract_z
Si Si1 0.866090 0.410756 0.071460
Si Si2 0.596144 0.906755 0.829774
Si Si3 0.105665 0.093149 0.587718
Si Si4 0.657942 0.410370 0.005874
Si Si5 0.099249 0.139235 0.229458
Si Si6 0.715868 0.337991 0.783056
Si Si7 0.259909 0.412277 0.389727
Si Si8 0.898212 0.318195 0.292269
O O1 0.895834 0.500000 0.086627
O O2 0.759285 0.411787 0.052707
O O3 0.890451 0.361677 0.176379
O O4 0.900923 0.379924 0.955612
O O5 0.500000 0.880927 0.781482
O O6 0.689117 0.883770 0.773768
O O7 0.596330 0.000000 0.834665
O O8 0.149064 0.140961 0.685992
O O9 0.170179 0.108281 0.484892
O O10 0.000000 0.111601 0.569162
O O11 0.110759 0.000000 0.610379
O O12 0.628933 0.500000 0.989120
O O13 0.602434 0.369004 0.100101
O O14 0.666379 0.365105 0.893200
O O15 0.178106 0.089657 0.282594
O O16 0.115513 0.227403 0.267403
O O17 0.000000 0.114308 0.267526
O O18 0.750000 0.250000 0.788443
O O19 0.225866 0.500000 0.407153
O O20 0.177596 0.353954 0.370073
O O21 0.000000 0.328911 0.333997
#
# Coordination Sequence:
#
# PCOD9349709 Si02
#       8
#     8   8   8   8   8   8   8   8
#     4   9  17  31  53  81 114 160 206 242 285 349
#     4   9  18  34  57  83 116 160 204 244 290 355
#     4  10  23  46  71  90 115 161 218 265 309 372
#     4  10  21  37  58  87 126 170 210 253 299 357
#     4  11  24  38  58  91 127 166 205 253 318 374
#     4  11  24  38  62  95 127 161 200 258 323 377
#     4  11  23  41  66  89 116 159 212 266 311 367
#     4  11  23  36  56  89 129 166 198 246 314 379
#
# _framework density 20.308904999999999
#
# number of rings (size 3 to 8) (size 9 to 14) (size 15 to 20)
#    0.000    1.750    1.250    3.750    3.500    5.000 
#    0.000    0.625    0.000    0.750    0.000    0.000 
#    0.000    0.000    0.000    0.000    0.000    0.000 
#
# Total GULP energy -178659.233027 kJ/mol
# GULP energy per Si atom -5583.101032 kJ/mol
# Density = 2.026268 g / cm^3
# Si number density = 20.308905 Si / 1000 Ang^3
#
#
#
# Elastic Constant Matrix: (Units=GPa)
#
#
# Indices 1 2 3 4 5 6 
#
# 1 121.3899 45.1142 42.0036 0.0000 0.0000 0.0000
# 2 45.1142 76.0082 36.8198 0.0000 0.0000 0.0000
# 3 42.0036 36.8198 94.8127 0.0000 0.0000 0.0000
# 4 0.0000 0.0000 0.0000 14.5875 0.0000 0.0000
# 5 0.0000 0.0000 0.0000 0.0000 9.0616 0.0000
# 6 0.0000 0.0000 0.0000 0.0000 0.0000 -12.8840
#
#
#
# Elastic Compliance Matrix: (Units=1/GPa)
#
#
# Indices 1 2 3 4 5 6 
#
# 1 0.011193 -0.005224 -0.002930 0.000000 0.000000 0.000000
# 2 -0.005224 0.018643 -0.004926 0.000000 0.000000 0.000000
# 3 -0.002930 -0.004926 0.013758 0.000000 0.000000 0.000000
# 4 0.000000 0.000000 0.000000 0.068552 0.000000 0.000000
# 5 0.000000 0.000000 0.000000 0.000000 0.110356 0.000000
# 6 0.000000 0.000000 0.000000 0.000000 0.000000 -0.077616
#
#
# Mechanical properties :
#
#
# Convention : Reuss Voigt Hill
#
# Bulk Modulus (GPa) = 57.35633 60.00955 58.68294
# Shear Modulus (GPa) = 28.27126 13.37123 20.82125
#
# Velocity S-wave (km/s) = 3.73508 2.56870 3.20539
# Velocity P-wave (km/s) = 6.84868 6.19759 6.53125
#
# Compressibility (1/GPa) = 0.01743487
#
# Stress axis : x y z
#
# Youngs Moduli (GPa) = 89.33825 53.63820 72.68530
#
# Poissons Ratio (x) = 0.28023 0.21297
# Poissons Ratio (y) = 0.46674 0.35801
# Poissons Ratio (z) = 0.26176 0.26420
#
# Static dielectric constant tensor:
#      x y z
#    x 1.756660 0.000000 0.000000 
#    y 0.000000 1.776630 0.000000 
#    z 0.000000 0.000000 1.724040 
# 
# From -- ./inp_files/13228.got.cif
#   From: 2010.05.17/outbox.cif.g08.bks.cpg/sg35_7_cif.got.tgz:13228.got - 2010.06.03 17:29:28.
