data_PCOD9349069
_publ_section_title
;
Structure prediction by ZEFSAII (Michael W. Deem and Ramdas Pophale) SiO2 
 PCOD9349069
Probable space group: C M M 2
;
_chemical_formula_sum "Si O2"
_cell_formula_units_Z 64
_cell_length_a 14.666948
_cell_length_b 19.316962
_cell_length_c 11.240208
_cell_angle_alpha 90.000000
_cell_angle_beta 90.000000
_cell_angle_gamma 90.000000
_cell_volume 3184.585590
_symmetry_space_group_name_H-M "C M M 2"
_symmetry_group_IT_number 35
_symmetry_cell_setting 'orthorhombic'
loop_
_space_group_symop_operation_xyz
x,y,z
-x,-y,z
-x,y,z
x,-y,z
1/2+x,1/2+y,z
1/2-x,1/2-y,z
1/2-x,1/2+y,z
1/2+x,1/2-y,z
loop_
_atom_site_type_symbol
_atom_site_label
_atom_site_fract_x
_atom_site_fract_y
_atom_site_fract_z
Si Si1 0.108757 0.170716 0.925450
Si Si2 0.768010 0.328626 0.248575
Si Si3 0.206807 0.578619 0.602574
Si Si4 0.602859 0.075019 0.840580
Si Si5 0.167547 0.197911 0.656117
Si Si6 0.893925 0.313845 0.043253
Si Si7 0.609247 0.582380 0.148054
Si Si8 0.101467 0.688216 0.472646
O O1 0.131953 0.174877 0.785631
O O2 0.000000 0.172033 0.926795
O O3 0.139638 0.239531 0.995531
O O4 0.134811 0.107529 0.013263
O O5 0.750000 0.250000 0.213486
O O6 0.840360 0.350707 0.149088
O O7 0.677012 0.374881 0.235732
O O8 0.820066 0.318365 0.373342
O O9 0.220121 0.500000 0.560634
O O10 0.179353 0.577253 0.740826
O O11 0.293029 0.629629 0.591553
O O12 0.121206 0.618050 0.544930
O O13 0.500000 0.079591 0.788180
O O14 0.608190 0.000000 0.901446
O O15 0.612571 0.137016 0.929973
O O16 0.250000 0.250000 0.684311
O O17 0.111646 0.245956 0.562655
O O18 0.000000 0.305498 0.077845
O O19 0.500000 0.597478 0.166609
O O20 0.621552 0.500000 0.160553
O O21 0.000000 0.690230 0.421386
#
# Coordination Sequence:
#
# PCOD9349069 Si02
#       8
#     8   8   8   8   8   8   8   8
#     4  10  20  36  61  91 123 165 208 258 322 382
#     4  12  24  39  65  91 124 166 214 269 322 382
#     4  10  21  37  59  87 122 164 211 263 325 386
#     4   9  18  32  52  82 122 164 205 257 325 392
#     4  10  21  36  60  92 128 166 211 265 319 383
#     4  10  20  34  55  89 126 162 207 258 318 385
#     4  10  24  44  64  93 134 176 220 269 326 393
#     4  11  24  43  65  93 126 166 218 273 324 383
#
# _framework density 20.096806000000001
#
# number of rings (size 3 to 8) (size 9 to 14) (size 15 to 20)
#    0.000    1.750    1.250    3.750    3.500    3.750 
#    0.000    0.000    0.000    3.375    0.000    0.000 
#    0.000    0.000    0.000    0.000    0.000    0.000 
#
# Total GULP energy -178257.280329 kJ/mol
# GULP energy per Si atom -5570.540010 kJ/mol
# Density = 2.005107 g / cm^3
# Si number density = 20.096806 Si / 1000 Ang^3
#
#
#
# Elastic Constant Matrix: (Units=GPa)
#
#
# Indices 1 2 3 4 5 6 
#
# 1 86.9103 46.0700 42.3985 0.0000 0.0000 0.0000
# 2 46.0700 126.6299 19.9297 0.0000 0.0000 0.0000
# 3 42.3985 19.9297 77.6156 0.0000 0.0000 0.0000
# 4 0.0000 0.0000 0.0000 -4.8271 0.0000 0.0000
# 5 0.0000 0.0000 0.0000 0.0000 33.0196 0.0000
# 6 0.0000 0.0000 0.0000 0.0000 0.0000 3.2939
#
#
#
# Elastic Compliance Matrix: (Units=1/GPa)
#
#
# Indices 1 2 3 4 5 6 
#
# 1 0.018670 -0.005406 -0.008811 0.000000 0.000000 0.000000
# 2 -0.005406 0.009795 0.000438 0.000000 0.000000 0.000000
# 3 -0.008811 0.000438 0.017584 0.000000 0.000000 0.000000
# 4 0.000000 0.000000 0.000000 -0.207164 0.000000 0.000000
# 5 0.000000 0.000000 0.000000 0.000000 0.030285 0.000000
# 6 0.000000 0.000000 0.000000 0.000000 0.000000 0.303592
#
#
# Mechanical properties :
#
#
# Convention : Reuss Voigt Hill
#
# Bulk Modulus (GPa) = 54.07667 56.43912 55.25790
# Shear Modulus (GPa) = 24.21508 18.48112 21.34810
#
# Velocity S-wave (km/s) = 3.47496 3.03579 3.26277
# Velocity P-wave (km/s) = 6.56255 6.35866 6.46141
#
# Compressibility (1/GPa) = 0.01849226
#
# Stress axis : x y z
#
# Youngs Moduli (GPa) = 53.56262 102.09505 56.86845
#
# Poissons Ratio (x) = 0.55189 0.50104
# Poissons Ratio (y) = 0.28954 -0.02490
# Poissons Ratio (z) = 0.47192 -0.04470
#
# Static dielectric constant tensor:
#      x y z
#    x 1.791590 0.000000 0.000000 
#    y 0.000000 1.926480 0.000000 
#    z 0.000000 0.000000 1.793450 
# 
# From -- ./inp_files/13200.got.cif
#   From: 2010.05.17/outbox.cif.g08.bks.cpg/sg35_7_cif.got.tgz:13200.got - 2010.06.03 17:29:28.
