data_PCOD9349046
_publ_section_title
;
Structure prediction by ZEFSAII (Michael W. Deem and Ramdas Pophale) SiO2 
 PCOD9349046
Probable space group: C M M 2
;
_chemical_formula_sum "Si O2"
_cell_formula_units_Z 56
_cell_length_a 18.738613
_cell_length_b 9.092397
_cell_length_c 18.439712
_cell_angle_alpha 90.000000
_cell_angle_beta 90.000000
_cell_angle_gamma 90.000000
_cell_volume 3141.738006
_symmetry_space_group_name_H-M "C M M 2"
_symmetry_group_IT_number 35
_symmetry_cell_setting 'orthorhombic'
loop_
_space_group_symop_operation_xyz
x,y,z
-x,-y,z
-x,y,z
x,-y,z
1/2+x,1/2+y,z
1/2-x,1/2-y,z
1/2-x,1/2+y,z
1/2+x,1/2-y,z
loop_
_atom_site_type_symbol
_atom_site_label
_atom_site_fract_x
_atom_site_fract_y
_atom_site_fract_z
Si Si1 0.914762 0.674317 0.100530
Si Si2 0.826766 0.674937 0.665773
Si Si3 0.915126 0.824643 0.791418
Si Si4 0.416745 0.675920 0.374666
Si Si5 0.413297 0.669928 0.952895
Si Si6 0.827526 0.176223 0.229367
Si Si7 0.827418 0.324547 0.499917
O O1 0.903445 0.500000 0.107068
O O2 0.871132 0.760232 0.161406
O O3 0.000000 0.702914 0.108599
O O4 0.892494 0.730750 0.020744
O O5 0.820232 0.500000 0.673315
O O6 0.750000 0.750000 0.674233
O O7 0.877617 0.739507 0.726958
O O8 0.850732 0.705960 0.582961
O O9 0.889762 0.781412 0.872565
O O10 0.000000 0.800423 0.787875
O O11 0.902848 0.000000 0.784537
O O12 0.500000 0.713367 0.365179
O O13 0.411746 0.500000 0.386706
O O14 0.372090 0.710078 0.302254
O O15 0.382025 0.759339 0.442130
O O16 0.500000 0.670036 0.950536
O O17 0.391453 0.500000 0.964483
O O18 0.750000 0.250000 0.233070
O O19 0.820790 0.000000 0.223369
O O20 0.820422 0.500000 0.491253
O O21 0.750000 0.250000 0.489234
#
# Coordination Sequence:
#
# PCOD9349046 Si02
#       7
#     8   8   8   8   8   8   8
#     4  10  20  34  55  83 111 140 178 222 267 316
#     4  10  21  36  54  77 107 143 182 223 268 319
#     4   9  18  33  54  80 109 142 180 221 267 319
#     4  10  22  39  59  84 111 140 176 217 263 316
#     4   8  15  30  52  77 106 141 179 219 266 318
#     4  11  23  39  58  80 109 143 179 219 265 317
#     4  10  21  37  57  80 107 142 181 221 268 319
#
# _framework density 17.824528999999998
#
# number of rings (size 3 to 8) (size 9 to 14) (size 15 to 20)
#    0.000    2.286    0.000    3.429    0.000    7.143 
#    0.000    5.000    0.000    3.429    0.000    0.000 
#    0.000    0.000    0.000    0.000    0.000    0.000 
#
# Total GULP energy -156274.723539 kJ/mol
# GULP energy per Si atom -5581.240126 kJ/mol
# Density = 1.778396 g / cm^3
# Si number density = 17.824529 Si / 1000 Ang^3
#
#
#
# Elastic Constant Matrix: (Units=GPa)
#
#
# Indices 1 2 3 4 5 6 
#
# 1 83.5389 66.4445 90.0798 0.0000 0.0000 0.0000
# 2 66.4445 76.6872 96.0251 0.0000 0.0000 0.0000
# 3 90.0798 96.0251 177.8274 0.0000 0.0000 0.0000
# 4 0.0000 0.0000 0.0000 28.1218 0.0000 0.0000
# 5 0.0000 0.0000 0.0000 0.0000 121.4287 0.0000
# 6 0.0000 0.0000 0.0000 0.0000 0.0000 30.8232
#
#
#
# Elastic Compliance Matrix: (Units=1/GPa)
#
#
# Indices 1 2 3 4 5 6 
#
# 1 0.039766 -0.028506 -0.004751 0.000000 0.000000 0.000000
# 2 -0.028506 0.060700 -0.018338 0.000000 0.000000 0.000000
# 3 -0.004751 -0.018338 0.017932 0.000000 0.000000 0.000000
# 4 0.000000 0.000000 0.000000 0.035560 0.000000 0.000000
# 5 0.000000 0.000000 0.000000 0.000000 0.008235 0.000000
# 6 0.000000 0.000000 0.000000 0.000000 0.000000 0.032443
#
#
# Mechanical properties :
#
#
# Convention : Reuss Voigt Hill
#
# Bulk Modulus (GPa) = 65.74754 93.68359 79.71557
# Shear Modulus (GPa) = 16.50734 41.77502 29.14118
#
# Velocity S-wave (km/s) = 3.04649 4.84641 4.04777
# Velocity P-wave (km/s) = 7.02431 9.16460 8.16489
#
# Compressibility (1/GPa) = 0.01520969
#
# Stress axis : x y z
#
# Youngs Moduli (GPa) = 25.14707 16.47438 55.76522
#
# Poissons Ratio (x) = 0.46961 0.26494
# Poissons Ratio (y) = 0.71683 1.02261
# Poissons Ratio (z) = 0.11947 0.30210
#
# Static dielectric constant tensor:
#      x y z
#    x 1.582150 0.000000 0.000000 
#    y 0.000000 1.591100 0.000000 
#    z 0.000000 0.000000 1.604350 
# 
# From -- ./inp_files/15637.got.cif
#   From: 2010.05.17/outbox.cif.g08.bks.cpg/sg35_8_cif.got.tgz:15637.got - 2010.06.03 17:29:28.
