data_PCOD9350574
_publ_section_title
;
Structure prediction by ZEFSAII (Michael W. Deem and Ramdas Pophale) SiO2 
 PCOD9350574
Probable space group: C M C 21
;
_chemical_formula_sum "Si O2"
_cell_formula_units_Z 56
_cell_length_a 21.596174
_cell_length_b 18.327535
_cell_length_c 8.252870
_cell_angle_alpha 90.000000
_cell_angle_beta 90.000000
_cell_angle_gamma 90.000000
_cell_volume 3266.524197
_symmetry_space_group_name_H-M "C M C 21"
_symmetry_group_IT_number 36
_symmetry_cell_setting 'orthorhombic'
loop_
_space_group_symop_operation_xyz
x,y,z
-x,-y,1/2+z
x,-y,1/2+z
-x,y,z
1/2+x,1/2+y,z
1/2-x,1/2-y,1/2+z
1/2+x,1/2-y,1/2+z
1/2-x,1/2+y,z
loop_
_atom_site_type_symbol
_atom_site_label
_atom_site_fract_x
_atom_site_fract_y
_atom_site_fract_z
Si Si1 0.374423 0.179578 0.409080
Si Si2 0.749437 0.103349 0.279263
Si Si3 0.373043 0.865898 0.286314
Si Si4 0.189595 0.765724 0.929358
Si Si5 0.312621 0.687126 0.802291
Si Si6 0.500000 0.897794 0.861253
Si Si7 0.500000 0.058573 0.739982
Si Si8 0.250788 0.945524 0.408627
O O1 0.315827 0.141904 0.321452
O O2 0.369450 0.157914 0.597910
O O3 0.367442 0.266281 0.382269
O O4 0.437843 0.148401 0.338019
O O5 0.802188 0.163210 0.316821
O O6 0.756441 0.031500 0.387774
O O7 0.748387 0.076972 0.095625
O O8 0.364279 0.791319 0.387783
O O9 0.437770 0.906565 0.313913
O O10 0.315834 0.919519 0.328289
O O11 0.251407 0.719142 0.891026
O O12 0.189679 0.791908 0.113744
O O13 0.304420 0.601118 0.826193
O O14 0.500000 0.971971 0.760490
O O15 0.500000 0.921909 0.050089
#
# Coordination Sequence:
#
# PCOD9350574 Si02
#       8
#     8   8   8   8   8   4   4   8
#     4  10  19  33  48  67  94 127 161 195 231 275
#     4  11  20  31  47  70  96 124 154 193 237 281
#     4  10  19  33  48  67  94 127 161 195 231 275
#     4  10  18  30  47  68  91 121 155 192 234 280
#     4  10  18  30  47  68  91 121 155 192 234 280
#     4  10  22  34  48  68  95 128 163 196 230 268
#     4  10  22  34  48  68  95 128 163 196 230 268
#     4  11  20  31  47  70  96 124 154 193 237 281
#
# _framework density 17.143605000000001
#
# number of rings (size 3 to 8) (size 9 to 14) (size 15 to 20)
#    0.000    1.714    0.000   10.286    0.000    4.571 
#    0.000    0.000    0.000    0.000    0.000    1.000 
#    0.000    0.000    0.000    0.000    0.000    0.000 
#
# Total GULP energy -156270.925036 kJ/mol
# GULP energy per Si atom -5581.104466 kJ/mol
# Density = 1.710459 g / cm^3
# Si number density = 17.143605 Si / 1000 Ang^3
#
#
#
# Elastic Constant Matrix: (Units=GPa)
#
#
# Indices 1 2 3 4 5 6 
#
# 1 51.0537 25.7550 -5.5654 0.0000 0.0000 0.0000
# 2 25.7550 77.9279 -20.3250 0.0000 0.0000 0.0000
# 3 -5.5654 -20.3250 41.6429 0.0000 0.0000 0.0000
# 4 0.0000 0.0000 0.0000 32.2244 0.0000 0.0000
# 5 0.0000 0.0000 0.0000 0.0000 14.8811 0.0000
# 6 0.0000 0.0000 0.0000 0.0000 0.0000 15.3021
#
#
#
# Elastic Compliance Matrix: (Units=1/GPa)
#
#
# Indices 1 2 3 4 5 6 
#
# 1 0.023527 -0.007970 -0.000746 0.000000 0.000000 0.000000
# 2 -0.007970 0.017404 0.007429 0.000000 0.000000 0.000000
# 3 -0.000746 0.007429 0.027540 0.000000 0.000000 0.000000
# 4 0.000000 0.000000 0.000000 0.031032 0.000000 0.000000
# 5 0.000000 0.000000 0.000000 0.000000 0.067199 0.000000
# 6 0.000000 0.000000 0.000000 0.000000 0.000000 0.065351
#
#
# Mechanical properties :
#
#
# Convention : Reuss Voigt Hill
#
# Bulk Modulus (GPa) = 15.17489 18.92818 17.05154
# Shear Modulus (GPa) = 19.48620 23.86552 21.67586
#
# Velocity S-wave (km/s) = 3.37508 3.73513 3.55966
# Velocity P-wave (km/s) = 4.90500 5.44669 5.18293
#
# Compressibility (1/GPa) = 0.06589835
#
# Stress axis : x y z
#
# Youngs Moduli (GPa) = 42.50520 57.45747 36.31055
#
# Poissons Ratio (x) = 0.45793 0.02708
# Poissons Ratio (y) = 0.33877 -0.26977
# Poissons Ratio (z) = 0.03170 -0.42688
#
# Static dielectric constant tensor:
#      x y z
#    x 1.572900 0.000000 0.000000 
#    y 0.000000 1.619930 0.000000 
#    z 0.000000 0.000000 1.611110 
# 
# From -- ./inp_files/5303.got.cif
#   From: 2010.05.17/outbox.cif.g08.bks.cpg/sg36_3_cif.got.tgz:5303.got - 2010.06.03 17:41:39.
