data_PCOD9350811
_publ_section_title
;
Structure prediction by ZEFSAII (Michael W. Deem and Ramdas Pophale) SiO2 
 PCOD9350811
Probable space group: C M C 21
;
_chemical_formula_sum "Si O2"
_cell_formula_units_Z 40
_cell_length_a 13.970864
_cell_length_b 9.675336
_cell_length_c 13.911353
_cell_angle_alpha 90.000000
_cell_angle_beta 90.000000
_cell_angle_gamma 90.000000
_cell_volume 1880.436584
_symmetry_space_group_name_H-M "C M C 21"
_symmetry_group_IT_number 36
_symmetry_cell_setting 'orthorhombic'
loop_
_space_group_symop_operation_xyz
x,y,z
-x,-y,1/2+z
x,-y,1/2+z
-x,y,z
1/2+x,1/2+y,z
1/2-x,1/2-y,1/2+z
1/2+x,1/2-y,1/2+z
1/2-x,1/2+y,z
loop_
_atom_site_type_symbol
_atom_site_label
_atom_site_fract_x
_atom_site_fract_y
_atom_site_fract_z
Si Si1 0.811710 0.880104 0.922130
Si Si2 0.000000 0.596132 0.785524
Si Si3 0.336266 0.125452 0.251630
Si Si4 0.206929 0.400371 0.543726
Si Si5 0.000000 0.612715 0.014397
Si Si6 0.500000 0.397607 0.790809
Si Si7 0.000000 0.821984 0.186901
O O1 0.727708 0.863291 0.844581
O O2 0.907607 0.904552 0.860980
O O3 0.809335 0.743134 0.987626
O O4 0.783686 0.007684 0.989745
O O5 0.093369 0.506257 0.761447
O O6 0.000000 0.747423 0.740981
O O7 0.000000 0.625042 0.900091
O O8 0.272171 0.116613 0.155950
O O9 0.406636 0.254768 0.236105
O O10 0.098726 0.463707 0.541002
O O11 0.000000 0.753915 0.079522
O O12 0.500000 0.517667 0.711108
#
# Coordination Sequence:
#
# PCOD9350811 Si02
#       7
#     8   4   8   8   4   4   4
#     4  12  23  42  64  94 138 175 221 275 328 397
#     4  11  20  43  75  91 132 177 225 268 329 416
#     4  10  23  43  68  96 126 180 227 269 330 405
#     4  11  24  41  68  96 133 172 222 277 329 394
#     4  10  18  44  65  93 127 175 214 270 329 397
#     4  12  24  39  64  98 132 179 210 277 344 373
#     4   9  22  38  66  96 133 159 217 281 332 386
#
# _framework density 21.271656
#
# number of rings (size 3 to 8) (size 9 to 14) (size 15 to 20)
#    0.000    1.200    4.000    1.800    0.000    6.400 
#    0.000    0.000    0.000    0.000    0.000    0.000 
#    0.000    0.000    0.000    0.000    0.000    0.000 
#
# Total GULP energy -111767.294086 kJ/mol
# GULP energy per Si atom -5588.364704 kJ/mol
# Density = 2.122324 g / cm^3
# Si number density = 21.271656 Si / 1000 Ang^3
#
#
#
# Elastic Constant Matrix: (Units=GPa)
#
#
# Indices 1 2 3 4 5 6 
#
# 1 81.4767 37.4208 27.8587 0.0000 0.0000 0.0000
# 2 37.4208 101.7033 34.5253 0.0000 0.0000 0.0000
# 3 27.8587 34.5253 129.2331 0.0000 0.0000 0.0000
# 4 0.0000 0.0000 0.0000 24.5369 0.0000 0.0000
# 5 0.0000 0.0000 0.0000 0.0000 -15.8209 0.0000
# 6 0.0000 0.0000 0.0000 0.0000 0.0000 -12.6633
#
#
#
# Elastic Compliance Matrix: (Units=1/GPa)
#
#
# Indices 1 2 3 4 5 6 
#
# 1 0.015208 -0.004930 -0.001961 0.000000 0.000000 0.000000
# 2 -0.004930 0.012411 -0.002253 0.000000 0.000000 0.000000
# 3 -0.001961 -0.002253 0.008763 0.000000 0.000000 0.000000
# 4 0.000000 0.000000 0.000000 0.040755 0.000000 0.000000
# 5 0.000000 0.000000 0.000000 0.000000 -0.063208 0.000000
# 6 0.000000 0.000000 0.000000 0.000000 0.000000 -0.078968
#
#
# Mechanical properties :
#
#
# Convention : Reuss Voigt Hill
#
# Bulk Modulus (GPa) = 55.26806 56.89142 56.07974
# Shear Modulus (GPa) = -122.79331 13.38442 -54.70444
#
# Velocity S-wave (km/s) = -7.60602 2.51113 -5.07670
# Velocity P-wave (km/s) = 7.14822 5.93388 2.81834
#
# Compressibility (1/GPa) = 0.01809363
#
# Stress axis : x y z
#
# Youngs Moduli (GPa) = 65.75344 80.57194 114.12044
#
# Poissons Ratio (x) = 0.39721 0.22383
# Poissons Ratio (y) = 0.32416 0.25711
# Poissons Ratio (z) = 0.12897 0.18153
#
# Static dielectric constant tensor:
#      x y z
#    x 1.794440 0.000000 0.000000 
#    y 0.000000 1.778650 0.000000 
#    z 0.000000 0.000000 1.774250 
# 
# From -- ./inp_files/11977.got.cif
#   From: 2010.05.17/outbox.cif.g08.bks.cpg/sg36_6_cif.got.tgz:11977.got - 2010.06.03 17:41:39.
