data_PCOD9350195
_publ_section_title
;
Structure prediction by ZEFSAII (Michael W. Deem and Ramdas Pophale) SiO2 
 PCOD9350195
Probable space group: C M M 2
;
_chemical_formula_sum "Si O2"
_cell_formula_units_Z 24
_cell_length_a 15.000000
_cell_length_b 9.000000
_cell_length_c 18.000000
_cell_angle_alpha 90.000000
_cell_angle_beta 90.000000
_cell_angle_gamma 90.000000
_cell_volume 2430.000000
_symmetry_space_group_name_H-M "C M M 2"
_symmetry_group_IT_number 35
_symmetry_cell_setting 'orthorhombic'
loop_
_space_group_symop_operation_xyz
x,y,z
-x,-y,z
-x,y,z
x,-y,z
1/2+x,1/2+y,z
1/2-x,1/2-y,z
1/2-x,1/2+y,z
1/2+x,1/2-y,z
loop_
_atom_site_type_symbol
_atom_site_label
_atom_site_fract_x
_atom_site_fract_y
_atom_site_fract_z
Si Si1 0.393601 0.166477 0.497890
Si Si2 0.156383 0.328614 0.981253
Si Si3 0.000000 0.675585 0.884237
Si Si4 0.342719 0.828321 0.325997
Si Si5 0.000000 0.329604 0.709269
Si Si6 0.000000 0.335565 0.100457
Si Si7 0.336746 0.671796 0.634997
Si Si8 0.500000 0.329957 0.243018
O O1 0.500000 0.176455 0.506165
O O2 0.370310 0.182737 0.412154
O O3 0.348490 0.289361 0.548266
O O4 0.365587 0.000000 0.522555
O O5 0.176809 0.500000 0.962927
O O6 0.250000 0.250000 0.992906
O O7 0.088895 0.327269 0.050889
O O8 0.091741 0.261778 0.917509
O O9 0.000000 0.680060 0.797057
O O10 0.000000 0.500000 0.907879
O O11 0.250000 0.750000 0.315365
O O12 0.415201 0.748758 0.277132
O O13 0.337572 0.000000 0.306344
O O14 0.916941 0.247876 0.675810
O O15 0.000000 0.500000 0.685607
O O16 0.000000 0.500000 0.137271
O O17 0.000000 0.200910 0.156385
O O18 0.334727 0.500000 0.647064
O O19 0.250000 0.750000 0.664141
O O20 0.500000 0.500000 0.263264
#
# Coordination Sequence:
#
# PCOD9350195 Si02
#       8
#     8   8   4   8   4   4   8   4
#     4  10  20  38  63  87 114 150 193 245 302 354
#     4   9  18  36  62  90 117 150 190 231 281 339
#     4   8  18  37  60  86 118 155 189 226 284 346
#     4  11  23  41  62  87 117 153 196 245 298 354
#     4  11  22  40  62  85 120 158 194 243 294 348
#     4   9  20  39  60  82 118 159 190 231 286 344
#     4  12  25  40  59  85 116 155 200 247 297 353
#     4  12  25  40  60  87 120 158 199 242 290 348
#
# _framework density 9.8765429999999999
#
# number of rings (size 3 to 8) (size 9 to 14) (size 15 to 20)
#    0.000    1.667    1.667    4.500    0.000    4.667 
#    0.000    6.250    0.000    0.000    0.000    0.000 
#    0.000    0.000    0.000    0.000    0.000    0.000 
#
# Total GULP energy -133903.405935 kJ/mol
# GULP energy per Si atom -5579.308581 kJ/mol
# Density = 0.985406 g / cm^3
# Si number density = 9.876543 Si / 1000 Ang^3
#
#
#
# Elastic Constant Matrix: (Units=GPa)
#
#
# Indices 1 2 3 4 5 6 
#
# 1 158.5453 80.4884 34.8939 0.0000 0.0000 0.0000
# 2 80.4884 130.9829 45.7815 0.0000 0.0000 0.0000
# 3 34.8939 45.7815 40.6557 0.0000 0.0000 0.0000
# 4 0.0000 0.0000 0.0000 -82.1329 0.0000 0.0000
# 5 0.0000 0.0000 0.0000 0.0000 -4.3355 0.0000
# 6 0.0000 0.0000 0.0000 0.0000 0.0000 24.9739
#
#
#
# Elastic Compliance Matrix: (Units=1/GPa)
#
#
# Indices 1 2 3 4 5 6 
#
# 1 0.009326 -0.004837 -0.002558 0.000000 0.000000 0.000000
# 2 -0.004837 0.015098 -0.012851 0.000000 0.000000 0.000000
# 3 -0.002558 -0.012851 0.041263 0.000000 0.000000 0.000000
# 4 0.000000 0.000000 0.000000 -0.012175 0.000000 0.000000
# 5 0.000000 0.000000 0.000000 0.000000 -0.230655 0.000000
# 6 0.000000 0.000000 0.000000 0.000000 0.000000 0.040042
#
#
# Mechanical properties :
#
#
# Convention : Reuss Voigt Hill
#
# Bulk Modulus (GPa) = 39.68733 72.50126 56.09430
# Shear Modulus (GPa) = -56.68081 -1.03090 -28.85586
#
# Velocity S-wave (km/s) = -5.36255 -0.72321 -3.82622
# Velocity P-wave (km/s) = 4.26700 6.00717 2.98988
#
# Compressibility (1/GPa) = 0.02519696
#
# Stress axis : x y z
#
# Youngs Moduli (GPa) = 107.23127 66.23274 24.23493
#
# Poissons Ratio (x) = 0.32034 0.06198
# Poissons Ratio (y) = 0.51864 0.31143
# Poissons Ratio (z) = 0.27425 0.85113
#
# Static dielectric constant tensor:
#      x y z
#    x 1.670780 0.000000 0.000000 
#    y 0.000000 1.669830 0.000000 
#    z 0.000000 0.000000 1.718450 
# 
# From -- ./inp_files/18822.got.cif
#   From: 2010.05.17/outbox.ucp.g08.bks.cvg/sg35_10_cif.got.tgz:18822.got - 2010.06.11 10:36:28.
