data_PCOD9350614
_publ_section_title
;
Structure prediction by ZEFSAII (Michael W. Deem and Ramdas Pophale) SiO2 
 PCOD9350614
Probable space group: C M C 21
;
_chemical_formula_sum "Si O2"
_cell_formula_units_Z 60
_cell_length_a 19.737768
_cell_length_b 29.032264
_cell_length_c 5.290554
_cell_angle_alpha 90.000000
_cell_angle_beta 90.000000
_cell_angle_gamma 90.000000
_cell_volume 3031.657223
_symmetry_space_group_name_H-M "C M C 21"
_symmetry_group_IT_number 36
_symmetry_cell_setting 'orthorhombic'
loop_
_space_group_symop_operation_xyz
x,y,z
-x,-y,1/2+z
x,-y,1/2+z
-x,y,z
1/2+x,1/2+y,z
1/2-x,1/2-y,1/2+z
1/2+x,1/2-y,1/2+z
1/2-x,1/2+y,z
loop_
_atom_site_type_symbol
_atom_site_label
_atom_site_fract_x
_atom_site_fract_y
_atom_site_fract_z
Si Si1 0.326168 0.394682 0.651280
Si Si2 0.500000 0.021731 0.556369
Si Si3 0.820516 0.788841 0.670097
Si Si4 0.227247 0.938664 0.139810
Si Si5 0.082297 0.362476 0.723116
Si Si6 0.838822 0.269143 0.669740
Si Si7 0.123742 0.416410 0.216187
Si Si8 0.106718 0.014584 0.145752
O O1 0.343224 0.341632 0.672362
O O2 0.299996 0.407580 0.371785
O O3 0.385015 0.431715 0.695457
O O4 0.276269 0.410558 0.877114
O O5 0.434854 0.048067 0.654646
O O6 0.500000 0.021420 0.251481
O O7 0.843667 0.762473 0.418344
O O8 0.738077 0.789265 0.669619
O O9 0.844094 0.761344 0.917370
O O10 0.305827 0.944152 0.203660
O O11 0.178860 0.984261 0.122056
O O12 0.108044 0.310569 0.676882
O O13 0.110114 0.392503 0.486321
O O14 0.000000 0.365123 0.736340
O O15 0.115431 0.379617 0.987302
O O16 0.072965 0.991724 0.380899
#
# Coordination Sequence:
#
# PCOD9350614 Si02
#       8
#     8   4   8   8   8   8   8   8
#     4  10  18  31  48  70  98 129 158 200 243 309
#     4  12  26  40  52  70  96 126 164 220 286 312
#     4  10  19  33  49  75 103 122 157 196 265 316
#     4  10  19  30  50  71  95 126 172 204 244 291
#     4  12  23  41  60  74  97 129 181 219 264 311
#     4  10  21  33  52  75  98 125 154 212 256 311
#     4  12  23  39  55  71  93 128 170 221 262 306
#     4   8  16  27  41  64  93 119 162 195 226 279
#
# _framework density 19.791153000000001
#
# number of rings (size 3 to 8) (size 9 to 14) (size 15 to 20)
#    0.000    1.600    1.333    4.800    0.000    5.333 
#    0.000    0.000    0.000    0.000    0.000    0.000 
#    0.000    0.000    0.000    0.000    0.000  120.000 
#
# Total GULP energy -167285.042891 kJ/mol
# GULP energy per Si atom -5576.168096 kJ/mol
# Density = 1.974611 g / cm^3
# Si number density = 19.791153 Si / 1000 Ang^3
#
#
#
# Elastic Constant Matrix: (Units=GPa)
#
#
# Indices 1 2 3 4 5 6 
#
# 1 64.5927 16.7281 -15.9979 0.0000 0.0000 0.0000
# 2 16.7281 102.2730 13.7665 0.0000 0.0000 0.0000
# 3 -15.9979 13.7665 98.9630 0.0000 0.0000 0.0000
# 4 0.0000 0.0000 0.0000 28.6627 0.0000 0.0000
# 5 0.0000 0.0000 0.0000 0.0000 234.4421 0.0000
# 6 0.0000 0.0000 0.0000 0.0000 0.0000 15.4641
#
#
#
# Elastic Compliance Matrix: (Units=1/GPa)
#
#
# Indices 1 2 3 4 5 6 
#
# 1 0.017115 -0.003232 0.003216 0.000000 0.000000 0.000000
# 2 -0.003232 0.010575 -0.001994 0.000000 0.000000 0.000000
# 3 0.003216 -0.001994 0.010902 0.000000 0.000000 0.000000
# 4 0.000000 0.000000 0.000000 0.034889 0.000000 0.000000
# 5 0.000000 0.000000 0.000000 0.000000 0.004265 0.000000
# 6 0.000000 0.000000 0.000000 0.000000 0.000000 0.064666
#
#
# Mechanical properties :
#
#
# Convention : Reuss Voigt Hill
#
# Bulk Modulus (GPa) = 28.92415 32.75802 30.84109
# Shear Modulus (GPa) = 31.65446 72.46925 52.06185
#
# Velocity S-wave (km/s) = 4.00362 6.05776 5.13446
# Velocity P-wave (km/s) = 6.00153 8.09422 7.12512
#
# Compressibility (1/GPa) = 0.03457319
#
# Stress axis : x y z
#
# Youngs Moduli (GPa) = 58.42696 94.56447 91.72578
#
# Poissons Ratio (x) = 0.30567 -0.29503
# Poissons Ratio (y) = 0.18886 0.18286
# Poissons Ratio (z) = -0.18793 0.18852
#
# Static dielectric constant tensor:
#      x y z
#    x 1.734590 0.000000 0.000000 
#    y 0.000000 1.695460 0.000000 
#    z 0.000000 0.000000 1.768300 
# 
# From -- ./inp_files/1444.got.cif
#   From: 2010.05.17/outbox.cif.g08.bks.cpg/sg36_1_cif.got.tgz:1444.got - 2010.06.03 17:41:39.
