data_PCOD9350947
_publ_section_title
;
Structure prediction by ZEFSAII (Michael W. Deem and Ramdas Pophale) SiO2 
 PCOD9350947
Probable space group: C M C 21
;
_chemical_formula_sum "Si O2"
_cell_formula_units_Z 48
_cell_length_a 9.103311
_cell_length_b 18.834409
_cell_length_c 16.396515
_cell_angle_alpha 90.000000
_cell_angle_beta 90.000000
_cell_angle_gamma 90.000000
_cell_volume 2811.272393
_symmetry_space_group_name_H-M "C M C 21"
_symmetry_group_IT_number 36
_symmetry_cell_setting 'orthorhombic'
loop_
_space_group_symop_operation_xyz
x,y,z
-x,-y,1/2+z
x,-y,1/2+z
-x,y,z
1/2+x,1/2+y,z
1/2-x,1/2-y,1/2+z
1/2+x,1/2-y,1/2+z
1/2-x,1/2+y,z
loop_
_atom_site_type_symbol
_atom_site_label
_atom_site_fract_x
_atom_site_fract_y
_atom_site_fract_z
Si Si1 0.176791 0.920053 0.178240
Si Si2 0.332365 0.291450 0.282122
Si Si3 0.332067 0.208496 0.108364
Si Si4 0.326383 0.333313 0.863393
Si Si5 0.325304 0.414544 0.694602
Si Si6 0.174960 0.662885 0.530206
O O1 0.212832 0.870863 0.256650
O O2 0.259068 0.887782 0.100317
O O3 0.000000 0.912295 0.166198
O O4 0.210697 0.002473 0.190519
O O5 0.500000 0.291079 0.313838
O O6 0.333733 0.250253 0.195148
O O7 0.227299 0.245779 0.339185
O O8 0.500000 0.203459 0.079675
O O9 0.262123 0.132747 0.129387
O O10 0.235791 0.258160 0.050220
O O11 0.500000 0.334251 0.879461
O O12 0.295988 0.382375 0.784453
O O13 0.237758 0.357824 0.942275
O O14 0.500000 0.406000 0.680146
O O15 0.000000 0.662000 0.532268
#
# Coordination Sequence:
#
# PCOD9350947 Si02
#       6
#     8   8   8   8   8   8
#     4   9  18  34  54  76 104 136 168 204 250 303
#     4   8  15  29  49  71  95 126 163 201 241 291
#     4   9  17  31  51  73  98 128 163 204 247 293
#     4  10  19  32  51  74 100 131 168 212 258 301
#     4   9  18  33  54  78 103 134 169 203 247 306
#     4  11  21  33  51  74 100 133 173 214 255 298
#
# _framework density 17.074120000000001
#
# number of rings (size 3 to 8) (size 9 to 14) (size 15 to 20)
#    0.000    2.667    0.000    3.500    0.000    5.333 
#    0.000    1.667    0.000    8.000    0.000    0.000 
#    0.000    0.000    0.000    0.000    0.000    0.000 
#
# Total GULP energy -133775.093316 kJ/mol
# GULP energy per Si atom -5573.962222 kJ/mol
# Density = 1.703526 g / cm^3
# Si number density = 17.074120 Si / 1000 Ang^3
#
#
#
# Elastic Constant Matrix: (Units=GPa)
#
#
# Indices 1 2 3 4 5 6 
#
# 1 89.1162 55.4950 48.2579 0.0000 0.0000 0.0000
# 2 55.4950 133.6156 31.2334 0.0000 0.0000 0.0000
# 3 48.2579 31.2334 54.7441 0.0000 0.0000 0.0000
# 4 0.0000 0.0000 0.0000 13.6461 0.0000 0.0000
# 5 0.0000 0.0000 0.0000 0.0000 25.9215 0.0000
# 6 0.0000 0.0000 0.0000 0.0000 0.0000 25.1844
#
#
#
# Elastic Compliance Matrix: (Units=1/GPa)
#
#
# Indices 1 2 3 4 5 6 
#
# 1 0.025111 -0.006064 -0.018676 0.000000 0.000000 0.000000
# 2 -0.006064 0.010100 -0.000417 0.000000 0.000000 0.000000
# 3 -0.018676 -0.000417 0.034968 0.000000 0.000000 0.000000
# 4 0.000000 0.000000 0.000000 0.073281 0.000000 0.000000
# 5 0.000000 0.000000 0.000000 0.000000 0.038578 0.000000
# 6 0.000000 0.000000 0.000000 0.000000 0.000000 0.039707
#
#
# Mechanical properties :
#
#
# Convention : Reuss Voigt Hill
#
# Bulk Modulus (GPa) = 50.33954 60.82760 55.58357
# Shear Modulus (GPa) = 17.94169 22.44969 20.19569
#
# Velocity S-wave (km/s) = 3.24514 3.63000 3.44295
# Velocity P-wave (km/s) = 6.60214 7.29878 6.95918
#
# Compressibility (1/GPa) = 0.01986510
#
# Stress axis : x y z
#
# Youngs Moduli (GPa) = 39.82379 99.00854 28.59758
#
# Poissons Ratio (x) = 0.60036 0.53409
# Poissons Ratio (y) = 0.24148 0.01193
# Poissons Ratio (z) = 0.74375 0.04131
#
# Static dielectric constant tensor:
#      x y z
#    x 1.573900 0.000000 0.000000 
#    y 0.000000 1.583110 0.000000 
#    z 0.000000 0.000000 1.576740 
# 
# From -- ./inp_files/10394.got.cif
#   From: 2010.05.17/outbox.cif.g08.bks.cpg/sg36_6_cif.got.tgz:10394.got - 2010.06.03 17:41:39.
