data_PCOD9350478
_publ_section_title
;
Structure prediction by ZEFSAII (Michael W. Deem and Ramdas Pophale) SiO2 
 PCOD9350478
Probable space group: C M C 21
;
_chemical_formula_sum "Si O2"
_cell_formula_units_Z 64
_cell_length_a 7.799042
_cell_length_b 15.493550
_cell_length_c 19.095209
_cell_angle_alpha 90.000000
_cell_angle_beta 90.000000
_cell_angle_gamma 90.000000
_cell_volume 2307.366661
_symmetry_space_group_name_H-M "C M C 21"
_symmetry_group_IT_number 36
_symmetry_cell_setting 'orthorhombic'
loop_
_space_group_symop_operation_xyz
x,y,z
-x,-y,1/2+z
x,-y,1/2+z
-x,y,z
1/2+x,1/2+y,z
1/2-x,1/2-y,1/2+z
1/2+x,1/2-y,1/2+z
1/2-x,1/2+y,z
loop_
_atom_site_type_symbol
_atom_site_label
_atom_site_fract_x
_atom_site_fract_y
_atom_site_fract_z
Si Si1 0.300252 0.533787 0.252990
Si Si2 0.196672 0.378505 0.350499
Si Si3 0.290984 0.198081 0.715381
Si Si4 0.696009 0.842701 0.869266
Si Si5 0.691497 0.496474 0.960535
Si Si6 0.209859 0.134102 0.124013
Si Si7 0.795389 0.415890 0.092817
Si Si8 0.207215 0.756131 0.499367
O O1 0.500000 0.510376 0.248837
O O2 0.202765 0.462233 0.297799
O O3 0.292969 0.620014 0.302031
O O4 0.230724 0.557093 0.175489
O O5 0.269773 0.309060 0.295200
O O6 0.290598 0.413338 0.419511
O O7 0.000000 0.363589 0.367876
O O8 0.500000 0.193989 0.717766
O O9 0.247125 0.283148 0.673110
O O10 0.230039 0.117681 0.667677
O O11 0.500000 0.825391 0.851002
O O12 0.691447 0.926624 0.921997
O O13 0.768663 0.767930 0.921136
O O14 0.500000 0.465672 0.946856
O O15 0.718373 0.491427 0.044072
O O16 0.274864 0.166777 0.048451
O O17 0.000000 0.129066 0.120912
O O18 0.761617 0.330123 0.045281
O O19 0.000000 0.427424 0.095290
O O20 0.000000 0.764684 0.494708
#
# Coordination Sequence:
#
# PCOD9350478 Si02
#       8
#     8   8   8   8   8   8   8   8
#     4  10  18  27  43  66  92 117 139 173 219 264
#     4  10  18  29  46  66  89 117 149 182 214 253
#     4   8  15  28  48  69  85 110 150 188 216 251
#     4   9  15  25  42  61  83 111 145 183 214 246
#     4  10  17  25  39  62  90 115 142 177 219 262
#     4   8  14  26  44  66  87 108 141 179 215 255
#     4   8  13  25  44  64  83 104 139 185 224 254
#     4   7  11  21  40  62  79 100 135 177 211 241
#
# _framework density 27.737245999999999
#
# number of rings (size 3 to 8) (size 9 to 14) (size 15 to 20)
#    0.000    3.250    0.000    6.000    0.000    0.000 
#    0.000    1.250    0.000   19.500    0.000    5.250 
#    0.000    0.000    0.000    0.000    0.000    0.000 
#
# Total GULP energy -178970.522770 kJ/mol
# GULP energy per Si atom -5592.828837 kJ/mol
# Density = 2.767411 g / cm^3
# Si number density = 27.737246 Si / 1000 Ang^3
#
#
#
# Elastic Constant Matrix: (Units=GPa)
#
#
# Indices 1 2 3 4 5 6 
#
# 1 100.6388 10.4924 11.8404 0.0000 0.0000 0.0000
# 2 10.4924 56.8074 -21.8444 0.0000 0.0000 0.0000
# 3 11.8404 -21.8444 209.3706 0.0000 0.0000 0.0000
# 4 0.0000 0.0000 0.0000 57.8104 0.0000 0.0000
# 5 0.0000 0.0000 0.0000 0.0000 31.2105 0.0000
# 6 0.0000 0.0000 0.0000 0.0000 0.0000 28.8295
#
#
#
# Elastic Compliance Matrix: (Units=1/GPa)
#
#
# Indices 1 2 3 4 5 6 
#
# 1 0.010262 -0.002207 -0.000811 0.000000 0.000000 0.000000
# 2 -0.002207 0.018814 0.002088 0.000000 0.000000 0.000000
# 3 -0.000811 0.002088 0.005040 0.000000 0.000000 0.000000
# 4 0.000000 0.000000 0.000000 0.017298 0.000000 0.000000
# 5 0.000000 0.000000 0.000000 0.000000 0.032041 0.000000
# 6 0.000000 0.000000 0.000000 0.000000 0.000000 0.034687
#
#
# Mechanical properties :
#
#
# Convention : Reuss Voigt Hill
#
# Bulk Modulus (GPa) = 31.00227 40.86594 35.93411
# Shear Modulus (GPa) = 38.24012 47.99197 43.11604
#
# Velocity S-wave (km/s) = 3.71705 4.16412 3.94692
# Velocity P-wave (km/s) = 5.44274 6.15509 5.80984
#
# Compressibility (1/GPa) = 0.03225570
#
# Stress axis : x y z
#
# Youngs Moduli (GPa) = 97.44679 53.15242 198.41729
#
# Poissons Ratio (x) = 0.11731 0.16084
# Poissons Ratio (y) = 0.21508 -0.41424
# Poissons Ratio (z) = 0.07899 -0.11097
#
# Static dielectric constant tensor:
#      x y z
#    x 1.920890 0.000000 0.000000 
#    y 0.000000 2.420100 0.000000 
#    z 0.000000 0.000000 2.218830 
# 
# From -- ./inp_files/15853.got.cif
#   From: 2010.05.17/outbox.cif.g08.bks.cpg/sg36_8_cif.got.tgz:15853.got - 2010.06.03 17:41:39.
