data_PCOD9350233
_publ_section_title
;
Structure prediction by ZEFSAII (Michael W. Deem and Ramdas Pophale) SiO2 
 PCOD9350233
Probable space group: C M M 2
;
_chemical_formula_sum "Si O2"
_cell_formula_units_Z 56
_cell_length_a 8.645018
_cell_length_b 18.873777
_cell_length_c 19.243134
_cell_angle_alpha 90.000000
_cell_angle_beta 90.000000
_cell_angle_gamma 90.000000
_cell_volume 3139.789446
_symmetry_space_group_name_H-M "C M M 2"
_symmetry_group_IT_number 35
_symmetry_cell_setting 'orthorhombic'
loop_
_space_group_symop_operation_xyz
x,y,z
-x,-y,z
-x,y,z
x,-y,z
1/2+x,1/2+y,z
1/2-x,1/2-y,z
1/2-x,1/2+y,z
1/2+x,1/2-y,z
loop_
_atom_site_type_symbol
_atom_site_label
_atom_site_fract_x
_atom_site_fract_y
_atom_site_fract_z
Si Si1 0.684499 0.830689 0.484380
Si Si2 0.313971 0.670273 0.340284
Si Si3 0.184798 0.417443 0.057387
Si Si4 0.685706 0.329887 0.928942
Si Si5 0.186260 0.082269 0.204634
Si Si6 0.686097 0.669170 0.626838
Si Si7 0.813735 0.169892 0.777269
O O1 0.500000 0.828487 0.483939
O O2 0.750000 0.750000 0.484355
O O3 0.748035 0.861548 0.412217
O O4 0.744567 0.863666 0.556607
O O5 0.500000 0.672455 0.344910
O O6 0.250000 0.750000 0.333574
O O7 0.267530 0.626268 0.272353
O O8 0.232549 0.500000 0.052054
O O9 0.244837 0.390717 0.132041
O O10 0.000000 0.413797 0.056396
O O11 0.251483 0.374754 0.992782
O O12 0.500000 0.327655 0.931915
O O13 0.750000 0.250000 0.933447
O O14 0.732399 0.360343 0.852536
O O15 0.000000 0.084767 0.199748
O O16 0.232961 0.000000 0.212613
O O17 0.500000 0.671021 0.620911
O O18 0.750000 0.750000 0.628971
O O19 0.730674 0.637343 0.702375
O O20 0.750000 0.250000 0.777482
O O21 0.000000 0.173123 0.776744
#
# Coordination Sequence:
#
# PCOD9350233 Si02
#       7
#     8   8   8   8   8   8   8
#     4  10  17  25  38  59  89 122 155 188 226 272
#     4  10  19  31  48  70  96 123 152 190 234 279
#     4  10  21  36  53  73  97 126 161 199 239 286
#     4  10  19  32  50  73 101 130 161 199 243 288
#     4   9  19  36  55  72  91 120 158 196 235 281
#     4   9  14  22  36  56  85 119 154 189 227 271
#     4   8  15  25  39  61  89 121 154 190 231 274
#
# _framework density 17.835591000000001
#
# number of rings (size 3 to 8) (size 9 to 14) (size 15 to 20)
#    0.000    2.571    0.000    4.714    0.000    3.714 
#    0.000    1.429    0.000    0.000    0.000    1.000 
#    0.000    3.429    0.000    0.000    0.000    0.000 
#
# Total GULP energy -155939.776931 kJ/mol
# GULP energy per Si atom -5569.277748 kJ/mol
# Density = 1.779500 g / cm^3
# Si number density = 17.835591 Si / 1000 Ang^3
#
#
#
# Elastic Constant Matrix: (Units=GPa)
#
#
# Indices 1 2 3 4 5 6 
#
# 1 57.5991 14.2043 57.5306 0.0000 0.0000 0.0000
# 2 14.2043 21.5100 50.5428 0.0000 0.0000 0.0000
# 3 57.5306 50.5428 244.1730 0.0000 0.0000 0.0000
# 4 0.0000 0.0000 0.0000 -11.1687 0.0000 0.0000
# 5 0.0000 0.0000 0.0000 0.0000 26.4232 0.0000
# 6 0.0000 0.0000 0.0000 0.0000 0.0000 14.4256
#
#
#
# Elastic Compliance Matrix: (Units=1/GPa)
#
#
# Indices 1 2 3 4 5 6 
#
# 1 0.022953 -0.004770 -0.004421 0.000000 0.000000 0.000000
# 2 -0.004770 0.091506 -0.017818 0.000000 0.000000 0.000000
# 3 -0.004421 -0.017818 0.008825 0.000000 0.000000 0.000000
# 4 0.000000 0.000000 0.000000 -0.089536 0.000000 0.000000
# 5 0.000000 0.000000 0.000000 0.000000 0.037846 0.000000
# 6 0.000000 0.000000 0.000000 0.000000 0.000000 0.069321
#
#
# Mechanical properties :
#
#
# Convention : Reuss Voigt Hill
#
# Bulk Modulus (GPa) = 14.43653 63.09305 38.76479
# Shear Modulus (GPa) = 22.93356 19.33631 21.13493
#
# Velocity S-wave (km/s) = 3.58974 3.29620 3.44610
# Velocity P-wave (km/s) = 5.02926 7.06670 6.13317
#
# Compressibility (1/GPa) = 0.06926871
#
# Stress axis : x y z
#
# Youngs Moduli (GPa) = 43.56707 10.92820 113.31133
#
# Poissons Ratio (x) = 0.05212 0.50093
# Poissons Ratio (y) = 0.20779 2.01894
# Poissons Ratio (z) = 0.19260 0.19472
#
# Static dielectric constant tensor:
#      x y z
#    x 1.579560 0.000000 0.000000 
#    y 0.000000 1.570590 0.000000 
#    z 0.000000 0.000000 1.683370 
# 
# From -- ./inp_files/18212.got.cif
#   From: 2010.05.17/outbox.cif.g08.bks.cpg/sg35_10_cif.got.tgz:18212.got - 2010.06.03 17:29:28.
