data_PCOD9350284
_publ_section_title
;
Structure prediction by ZEFSAII (Michael W. Deem and Ramdas Pophale) SiO2 
 PCOD9350284
Probable space group: C M M 2
;
_chemical_formula_sum "Si O2"
_cell_formula_units_Z 52
_cell_length_a 14.297728
_cell_length_b 30.427145
_cell_length_c 5.245472
_cell_angle_alpha 90.000000
_cell_angle_beta 90.000000
_cell_angle_gamma 90.000000
_cell_volume 2281.985119
_symmetry_space_group_name_H-M "C M M 2"
_symmetry_group_IT_number 35
_symmetry_cell_setting 'orthorhombic'
loop_
_space_group_symop_operation_xyz
x,y,z
-x,-y,z
-x,y,z
x,-y,z
1/2+x,1/2+y,z
1/2-x,1/2-y,z
1/2-x,1/2+y,z
1/2+x,1/2-y,z
loop_
_atom_site_type_symbol
_atom_site_label
_atom_site_fract_x
_atom_site_fract_y
_atom_site_fract_z
Si Si1 0.357924 0.357183 0.194600
Si Si2 0.862631 0.195483 0.696564
Si Si3 0.136279 0.703784 0.688732
Si Si4 0.803545 0.050415 0.230604
Si Si5 0.000000 0.405889 0.490777
Si Si6 0.131988 0.348630 0.187211
Si Si7 0.674827 0.949761 0.729192
O O1 0.389501 0.329506 0.438965
O O2 0.375625 0.409190 0.208893
O O3 0.243940 0.353927 0.190558
O O4 0.390054 0.333491 0.938335
O O5 0.893549 0.245910 0.716238
O O6 0.749231 0.200028 0.694407
O O7 0.106570 0.684614 0.417969
O O8 0.104389 0.673360 0.921281
O O9 0.748372 0.056326 0.497444
O O10 0.839404 0.000000 0.223980
O O11 0.732368 0.054788 0.990651
O O12 0.920087 0.391869 0.276913
O O13 0.915134 0.419768 0.687218
O O14 0.640170 0.000000 0.710621
#
# Coordination Sequence:
#
# PCOD9350284 Si02
#       7
#     8   8   8   8   4   8   8
#     4  10  17  30  47  68  80 109 140 182 219 284
#     4   9  17  28  51  63  83 102 134 172 231 277
#     4   9  18  33  42  66  84 105 128 180 233 278
#     4  10  20  34  47  63  89 115 144 193 238 271
#     4  12  23  34  48  64  84 122 158 202 229 282
#     4  10  21  29  45  61  88 108 144 184 230 267
#     4  10  22  35  47  59  81 117 160 201 238 269
#
# _framework density 22.787175999999999
#
# number of rings (size 3 to 8) (size 9 to 14) (size 15 to 20)
#    0.000    2.154    1.538    2.077    4.308    6.154 
#    0.000    2.308    0.000    0.000    0.000    0.000 
#    0.000    0.000    0.000    0.000    0.000    0.000 
#
# Total GULP energy -144818.904985 kJ/mol
# GULP energy per Si atom -5569.957884 kJ/mol
# Density = 2.273531 g / cm^3
# Si number density = 22.787176 Si / 1000 Ang^3
#
#
#
# Elastic Constant Matrix: (Units=GPa)
#
#
# Indices 1 2 3 4 5 6 
#
# 1 73.3930 -2.5140 0.0763 0.0000 0.0000 0.0000
# 2 -2.5140 146.7263 72.1297 0.0000 0.0000 0.0000
# 3 0.0763 72.1297 113.9486 0.0000 0.0000 0.0000
# 4 0.0000 0.0000 0.0000 39.3215 0.0000 0.0000
# 5 0.0000 0.0000 0.0000 0.0000 -9.5850 0.0000
# 6 0.0000 0.0000 0.0000 0.0000 0.0000 10.6892
#
#
#
# Elastic Compliance Matrix: (Units=1/GPa)
#
#
# Indices 1 2 3 4 5 6 
#
# 1 0.013637 0.000346 -0.000228 0.000000 0.000000 0.000000
# 2 0.000346 0.009903 -0.006269 0.000000 0.000000 0.000000
# 3 -0.000228 -0.006269 0.012744 0.000000 0.000000 0.000000
# 4 0.000000 0.000000 0.000000 0.025431 0.000000 0.000000
# 5 0.000000 0.000000 0.000000 0.000000 -0.104330 0.000000
# 6 0.000000 0.000000 0.000000 0.000000 0.000000 0.093553
#
#
# Mechanical properties :
#
#
# Convention : Reuss Voigt Hill
#
# Bulk Modulus (GPa) = 41.69721 52.60576 47.15149
# Shear Modulus (GPa) = 70.19030 25.71020 47.95025
#
# Velocity S-wave (km/s) = 5.55602 3.36262 4.59220
# Velocity P-wave (km/s) = 7.71346 6.18160 6.98962
#
# Compressibility (1/GPa) = 0.02398242
#
# Stress axis : x y z
#
# Youngs Moduli (GPa) = 73.32796 100.97853 78.46659
#
# Poissons Ratio (x) = -0.03491 0.01789
# Poissons Ratio (y) = -0.02535 0.49190
# Poissons Ratio (z) = 0.01672 0.63303
#
# Static dielectric constant tensor:
#      x y z
#    x 1.837320 0.000000 0.000000 
#    y 0.000000 1.909800 0.000000 
#    z 0.000000 0.000000 1.809060 
# 
# From -- ./inp_files/2643.got.cif
#   From: 2010.05.17/outbox.cif.g08.bks.cpg/sg35_2_cif.got.tgz:2643.got - 2010.06.03 17:29:28.
