data_PCOD9350294
_publ_section_title
;
Structure prediction by ZEFSAII (Michael W. Deem and Ramdas Pophale) SiO2 
 PCOD9350294
Probable space group: C M M 2
;
_chemical_formula_sum "Si O2"
_cell_formula_units_Z 48
_cell_length_a 19.050913
_cell_length_b 14.713053
_cell_length_c 9.723794
_cell_angle_alpha 90.000000
_cell_angle_beta 90.000000
_cell_angle_gamma 90.000000
_cell_volume 2725.551188
_symmetry_space_group_name_H-M "C M M 2"
_symmetry_group_IT_number 35
_symmetry_cell_setting 'orthorhombic'
loop_
_space_group_symop_operation_xyz
x,y,z
-x,-y,z
-x,y,z
x,-y,z
1/2+x,1/2+y,z
1/2-x,1/2-y,z
1/2-x,1/2+y,z
1/2+x,1/2-y,z
loop_
_atom_site_type_symbol
_atom_site_label
_atom_site_fract_x
_atom_site_fract_y
_atom_site_fract_z
Si Si1 0.921116 0.104926 0.527230
Si Si2 0.217348 0.350186 0.969310
Si Si3 0.364878 0.272821 0.299931
Si Si4 0.850327 0.103223 0.806207
Si Si5 0.581613 0.243827 0.989396
Si Si6 0.727098 0.102955 0.279395
O O1 0.915259 0.180751 0.410234
O O2 0.865122 0.124082 0.647098
O O3 0.000000 0.107824 0.586886
O O4 0.910655 0.000000 0.477264
O O5 0.250000 0.250000 0.999212
O O6 0.269310 0.387706 0.853644
O O7 0.135864 0.333650 0.937453
O O8 0.220965 0.401270 0.113521
O O9 0.398769 0.264703 0.148573
O O10 0.333264 0.172585 0.330761
O O11 0.299755 0.343600 0.301508
O O12 0.872732 0.000000 0.828694
O O13 0.896465 0.169016 0.900266
O O14 0.500000 0.222103 0.976655
O O15 0.725509 0.000000 0.334289
#
# Coordination Sequence:
#
# PCOD9350294 Si02
#       6
#     8   8   8   8   8   8
#     4  10  21  35  51  77 114 148 178 223 285 343
#     4   9  16  32  50  76 105 143 181 223 264 317
#     4  10  19  34  51  79 109 145 179 224 279 330
#     4  10  19  33  54  77 105 141 182 226 273 324
#     4  10  19  32  52  78 108 142 181 220 272 332
#     4  10  17  31  54  78 105 139 185 231 266 313
#
# _framework density 17.611115999999999
#
# number of rings (size 3 to 8) (size 9 to 14) (size 15 to 20)
#    0.000    2.167    5.000    2.000    0.000    1.667 
#    9.000    0.000    0.000   17.000    0.000    0.000 
#    0.000   24.000    0.000    0.000    0.000    0.000 
#
# Total GULP energy -133631.164959 kJ/mol
# GULP energy per Si atom -5567.965207 kJ/mol
# Density = 1.757103 g / cm^3
# Si number density = 17.611116 Si / 1000 Ang^3
#
#
#
# Elastic Constant Matrix: (Units=GPa)
#
#
# Indices 1 2 3 4 5 6 
#
# 1 109.8958 17.3184 22.6017 0.0000 0.0000 0.0000
# 2 17.3184 86.5217 14.0612 0.0000 0.0000 0.0000
# 3 22.6017 14.0612 43.5096 0.0000 0.0000 0.0000
# 4 0.0000 0.0000 0.0000 16.8274 0.0000 0.0000
# 5 0.0000 0.0000 0.0000 0.0000 20.0116 0.0000
# 6 0.0000 0.0000 0.0000 0.0000 0.0000 15.9713
#
#
#
# Elastic Compliance Matrix: (Units=1/GPa)
#
#
# Indices 1 2 3 4 5 6 
#
# 1 0.010317 -0.001260 -0.004952 0.000000 0.000000 0.000000
# 2 -0.001260 0.012352 -0.003337 0.000000 0.000000 0.000000
# 3 -0.004952 -0.003337 0.026634 0.000000 0.000000 0.000000
# 4 0.000000 0.000000 0.000000 0.059427 0.000000 0.000000
# 5 0.000000 0.000000 0.000000 0.000000 0.049971 0.000000
# 6 0.000000 0.000000 0.000000 0.000000 0.000000 0.062612
#
#
# Mechanical properties :
#
#
# Convention : Reuss Voigt Hill
#
# Bulk Modulus (GPa) = 33.10770 38.65441 35.88106
# Shear Modulus (GPa) = 19.96166 22.95846 21.46006
#
# Velocity S-wave (km/s) = 3.37036 3.61451 3.49456
# Velocity P-wave (km/s) = 5.82974 6.27822 6.05813
#
# Compressibility (1/GPa) = 0.03020445
#
# Stress axis : x y z
#
# Youngs Moduli (GPa) = 96.93175 80.95584 37.54564
#
# Poissons Ratio (x) = 0.10202 0.18592
# Poissons Ratio (y) = 0.12216 0.12530
# Poissons Ratio (z) = 0.47999 0.27018
#
# Static dielectric constant tensor:
#      x y z
#    x 1.638930 0.000000 0.000000 
#    y 0.000000 1.621610 0.000000 
#    z 0.000000 0.000000 1.618560 
# 
# From -- ./inp_files/9179.got.cif
#   From: 2010.05.17/outbox.cif.g08.bks.cpg/sg35_5_cif.got.tgz:9179.got - 2010.06.03 17:29:28.
