data_PCOD9350991
_publ_section_title
;
Structure prediction by ZEFSAII (Michael W. Deem and Ramdas Pophale) SiO2 
 PCOD9350991
Probable space group: C M C 21
;
_chemical_formula_sum "Si O2"
_cell_formula_units_Z 56
_cell_length_a 13.643830
_cell_length_b 5.302138
_cell_length_c 33.625157
_cell_angle_alpha 90.000000
_cell_angle_beta 90.000000
_cell_angle_gamma 90.000000
_cell_volume 2432.493270
_symmetry_space_group_name_H-M "C M C 21"
_symmetry_group_IT_number 36
_symmetry_cell_setting 'orthorhombic'
loop_
_space_group_symop_operation_xyz
x,y,z
-x,-y,1/2+z
x,-y,1/2+z
-x,y,z
1/2+x,1/2+y,z
1/2-x,1/2-y,1/2+z
1/2+x,1/2-y,1/2+z
1/2-x,1/2+y,z
loop_
_atom_site_type_symbol
_atom_site_label
_atom_site_fract_x
_atom_site_fract_y
_atom_site_fract_z
Si Si1 0.309479 0.147653 0.947930
Si Si2 0.114978 0.246888 0.080240
Si Si3 0.313856 0.372249 0.666836
Si Si4 0.197846 0.281074 0.245432
Si Si5 0.500000 0.747101 0.394966
Si Si6 0.881470 0.744741 0.036970
Si Si7 0.500000 0.244857 0.342110
Si Si8 0.721321 0.742355 0.831097
O O1 0.227161 0.362253 0.941344
O O2 0.404068 0.215269 0.921714
O O3 0.340294 0.176074 0.994092
O O4 0.131133 0.175901 0.125997
O O5 0.147487 0.528185 0.068701
O O6 0.000000 0.252570 0.073340
O O7 0.150507 0.020177 0.052055
O O8 0.269786 0.652998 0.666415
O O9 0.369207 0.318023 0.709234
O O10 0.214570 0.576200 0.238613
O O11 0.201157 0.259250 0.293494
O O12 0.500000 0.475372 0.373424
O O13 0.500000 0.971738 0.362566
O O14 0.000000 0.747764 0.034186
O O15 0.393965 0.264654 0.320217
O O16 0.750962 0.493045 0.853914
#
# Coordination Sequence:
#
# PCOD9350991 Si02
#       8
#     8   8   8   8   4   8   4   8
#     4  12  26  44  70  95 129 176 224 255 332 397
#     4  10  21  34  56  84 121 162 210 263 326 365
#     4  10  19  32  54  77 116 158 197 254 314 368
#     4   8  16  32  56  78 115 159 193 247 315 362
#     4  12  28  48  64 100 144 163 208 285 316 390
#     4  10  21  40  59  84 124 167 209 280 315 364
#     4  12  26  42  72 100 128 175 216 255 342 390
#     4  10  21  40  67  95 132 165 214 267 316 387
#
# _framework density 23.021646
#
# number of rings (size 3 to 8) (size 9 to 14) (size 15 to 20)
#    0.000    1.714    0.714    3.429    0.000    6.857 
#    0.000    0.000   28.286    0.000    0.000    0.000 
#    0.000    0.000    0.000    0.000    0.000    0.000 
#
# Total GULP energy -156036.049936 kJ/mol
# GULP energy per Si atom -5572.716069 kJ/mol
# Density = 2.296925 g / cm^3
# Si number density = 23.021646 Si / 1000 Ang^3
#
#
#
# Elastic Constant Matrix: (Units=GPa)
#
#
# Indices 1 2 3 4 5 6 
#
# 1 96.0736 4.5907 -3.6670 0.0000 0.0000 0.0000
# 2 4.5907 127.8201 -10.3620 0.0000 0.0000 0.0000
# 3 -3.6670 -10.3620 79.9846 0.0000 0.0000 0.0000
# 4 0.0000 0.0000 0.0000 35.2492 0.0000 0.0000
# 5 0.0000 0.0000 0.0000 0.0000 8.3804 0.0000
# 6 0.0000 0.0000 0.0000 0.0000 0.0000 -28.4080
#
#
#
# Elastic Compliance Matrix: (Units=1/GPa)
#
#
# Indices 1 2 3 4 5 6 
#
# 1 0.010442 -0.000340 0.000435 0.000000 0.000000 0.000000
# 2 -0.000340 0.007918 0.001010 0.000000 0.000000 0.000000
# 3 0.000435 0.001010 0.012653 0.000000 0.000000 0.000000
# 4 0.000000 0.000000 0.000000 0.028369 0.000000 0.000000
# 5 0.000000 0.000000 0.000000 0.000000 0.119326 0.000000
# 6 0.000000 0.000000 0.000000 0.000000 0.000000 -0.035201
#
#
# Mechanical properties :
#
#
# Convention : Reuss Voigt Hill
#
# Bulk Modulus (GPa) = 30.10014 31.66684 30.88349
# Shear Modulus (GPa) = 32.81469 23.93209 28.37339
#
# Velocity S-wave (km/s) = 3.77952 3.22770 3.51446
# Velocity P-wave (km/s) = 5.67005 5.26078 5.46925
#
# Compressibility (1/GPa) = 0.03322244
#
# Stress axis : x y z
#
# Youngs Moduli (GPa) = 95.77159 126.30104 79.03140
#
# Poissons Ratio (x) = 0.04291 -0.03435
# Poissons Ratio (y) = 0.03254 -0.07983
# Poissons Ratio (z) = -0.04163 -0.12758
#
# Static dielectric constant tensor:
#      x y z
#    x 1.864040 0.000000 0.000000 
#    y 0.000000 1.900690 0.000000 
#    z 0.000000 0.000000 1.946190 
# 
# From -- ./inp_files/17407.got.cif
#   From: 2010.05.17/outbox.cif.g08.bks.cpg/sg36_9_cif.got.tgz:17407.got - 2010.06.03 17:41:39.
