data_PCOD9350549
_publ_section_title
;
Structure prediction by ZEFSAII (Michael W. Deem and Ramdas Pophale) SiO2 
 PCOD9350549
Probable space group: C M C 21
;
_chemical_formula_sum "Si O2"
_cell_formula_units_Z 52
_cell_length_a 7.491941
_cell_length_b 20.429032
_cell_length_c 14.422346
_cell_angle_alpha 90.000000
_cell_angle_beta 90.000000
_cell_angle_gamma 90.000000
_cell_volume 2207.384800
_symmetry_space_group_name_H-M "C M C 21"
_symmetry_group_IT_number 36
_symmetry_cell_setting 'orthorhombic'
loop_
_space_group_symop_operation_xyz
x,y,z
-x,-y,1/2+z
x,-y,1/2+z
-x,y,z
1/2+x,1/2+y,z
1/2-x,1/2-y,1/2+z
1/2+x,1/2-y,1/2+z
1/2-x,1/2+y,z
loop_
_atom_site_type_symbol
_atom_site_label
_atom_site_fract_x
_atom_site_fract_y
_atom_site_fract_z
Si Si1 0.292567 0.364188 0.829560
Si Si2 0.500000 0.961760 0.751430
Si Si3 0.000000 0.533002 0.925160
Si Si4 0.207601 0.060024 0.513733
Si Si5 0.000000 0.614508 0.085378
Si Si6 0.713692 0.649407 0.673177
Si Si7 0.708816 0.771455 0.557562
Si Si8 0.213362 0.720082 0.851325
O O1 0.500000 0.370295 0.802125
O O2 0.223389 0.290777 0.813087
O O3 0.170256 0.419410 0.784787
O O4 0.284998 0.379248 0.940689
O O5 0.500000 0.026305 0.814342
O O6 0.500000 0.952271 0.641770
O O7 0.828693 0.495029 0.966826
O O8 0.000000 0.602421 0.975147
O O9 0.273403 0.086918 0.613224
O O10 0.000000 0.039540 0.519991
O O11 0.825743 0.658553 0.106306
O O12 0.500000 0.647563 0.664291
O O13 0.786320 0.714531 0.620810
O O14 0.746674 0.661261 0.781377
O O15 0.500000 0.751386 0.542070
O O16 0.785778 0.783593 0.455924
O O17 0.000000 0.726211 0.853212
#
# Coordination Sequence:
#
# PCOD9350549 Si02
#       8
#     8   4   4   8   4   8   8   8
#     4   9  17  31  53  80 113 141 183 236 278 330
#     4  10  20  36  60  84 104 152 205 232 273 332
#     4  10  22  38  58  90 104 148 205 240 273 334
#     4   9  18  35  57  78 111 142 184 245 287 323
#     4  10  20  38  58  82 116 156 188 230 288 350
#     4  10  18  31  52  80 109 144 182 224 291 345
#     4   8  17  33  52  74 109 151 176 217 289 345
#     4  10  18  29  47  79 108 144 176 219 286 346
#
# _framework density 23.557289000000001
#
# number of rings (size 3 to 8) (size 9 to 14) (size 15 to 20)
#    0.462    2.154    1.538    0.923    2.154    0.000 
#    2.769    1.538    0.000    2.769    0.000    0.000 
#    0.000    0.000    0.000    0.000    0.000    0.000 
#
# Total GULP energy -144960.607362 kJ/mol
# GULP energy per Si atom -5575.407975 kJ/mol
# Density = 2.350367 g / cm^3
# Si number density = 23.557289 Si / 1000 Ang^3
#
#
#
# Elastic Constant Matrix: (Units=GPa)
#
#
# Indices 1 2 3 4 5 6 
#
# 1 77.1305 5.8803 -5.6734 0.0000 0.0000 0.0000
# 2 5.8803 49.3563 -8.1960 0.0000 0.0000 0.0000
# 3 -5.6734 -8.1960 88.0323 0.0000 0.0000 0.0000
# 4 0.0000 0.0000 0.0000 30.6100 0.0000 0.0000
# 5 0.0000 0.0000 0.0000 0.0000 22.1509 0.0000
# 6 0.0000 0.0000 0.0000 0.0000 0.0000 15.6326
#
#
#
# Elastic Compliance Matrix: (Units=1/GPa)
#
#
# Indices 1 2 3 4 5 6 
#
# 1 0.013128 -0.001446 0.000711 0.000000 0.000000 0.000000
# 2 -0.001446 0.020738 0.001838 0.000000 0.000000 0.000000
# 3 0.000711 0.001838 0.011576 0.000000 0.000000 0.000000
# 4 0.000000 0.000000 0.000000 0.032669 0.000000 0.000000
# 5 0.000000 0.000000 0.000000 0.000000 0.045145 0.000000
# 6 0.000000 0.000000 0.000000 0.000000 0.000000 0.063969
#
#
# Mechanical properties :
#
#
# Convention : Reuss Voigt Hill
#
# Bulk Modulus (GPa) = 20.98700 22.06008 21.52354
# Shear Modulus (GPa) = 24.88780 28.51258 26.70019
#
# Velocity S-wave (km/s) = 3.25388 3.48278 3.37028
# Velocity P-wave (km/s) = 4.80055 5.05547 4.92966
#
# Compressibility (1/GPa) = 0.04764855
#
# Stress axis : x y z
#
# Youngs Moduli (GPa) = 76.17541 48.22005 86.38265
#
# Poissons Ratio (x) = 0.06972 -0.06145
# Poissons Ratio (y) = 0.11014 -0.15874
# Poissons Ratio (z) = -0.05419 -0.08861
#
# Static dielectric constant tensor:
#      x y z
#    x 1.865070 0.000000 0.000000 
#    y 0.000000 1.907660 0.000000 
#    z 0.000000 0.000000 1.950530 
# 
# From -- ./inp_files/10603.got.cif
#   From: 2010.05.17/outbox.cif.g08.bks.cpg/sg36_6_cif.got.tgz:10603.got - 2010.06.03 17:41:39.
