data_PCOD9350374
_publ_section_title
;
Structure prediction by ZEFSAII (Michael W. Deem and Ramdas Pophale) SiO2 
 PCOD9350374
Probable space group: C M M 2
;
_chemical_formula_sum "Si O2"
_cell_formula_units_Z 64
_cell_length_a 29.287647
_cell_length_b 8.651548
_cell_length_c 16.086219
_cell_angle_alpha 90.000000
_cell_angle_beta 90.000000
_cell_angle_gamma 90.000000
_cell_volume 4075.982212
_symmetry_space_group_name_H-M "C M M 2"
_symmetry_group_IT_number 35
_symmetry_cell_setting 'orthorhombic'
loop_
_space_group_symop_operation_xyz
x,y,z
-x,-y,z
-x,y,z
x,-y,z
1/2+x,1/2+y,z
1/2-x,1/2-y,z
1/2-x,1/2+y,z
1/2+x,1/2-y,z
loop_
_atom_site_type_symbol
_atom_site_label
_atom_site_fract_x
_atom_site_fract_y
_atom_site_fract_z
Si Si1 0.390355 0.686827 0.752790
Si Si2 0.201060 0.815601 0.007473
Si Si3 0.947568 0.314413 0.234466
Si Si4 0.055443 0.821299 0.409488
Si Si5 0.947198 0.188887 0.591901
Si Si6 0.946522 0.813804 0.918889
Si Si7 0.109306 0.314519 0.074677
Si Si8 0.798862 0.684300 0.821171
O O1 0.385980 0.500000 0.751859
O O2 0.415745 0.735818 0.668527
O O3 0.421390 0.727212 0.832822
O O4 0.340945 0.760752 0.765526
O O5 0.250000 0.750000 0.035270
O O6 0.158976 0.758909 0.062504
O O7 0.202612 0.000000 0.003871
O O8 0.193320 0.751653 0.913972
O O9 0.948984 0.500000 0.231461
O O10 0.930897 0.265038 0.325698
O O11 0.915902 0.261656 0.158836
O O12 0.000000 0.257875 0.223582
O O13 0.069311 0.759768 0.500366
O O14 0.000000 0.817818 0.412041
O O15 0.069467 0.000000 0.402532
O O16 0.000000 0.236649 0.604705
O O17 0.947615 0.000000 0.589678
O O18 0.000000 0.773411 0.916109
O O19 0.942957 0.000000 0.928372
O O20 0.921341 0.735154 0.996047
O O21 0.113367 0.500000 0.075678
O O22 0.796821 0.500000 0.826274
O O23 0.750000 0.750000 0.792789
#
# Coordination Sequence:
#
# PCOD9350374 Si02
#       8
#     8   8   8   8   8   8   8   8
#     4  10  18  30  48  70  97 128 161 196 236 283
#     4  11  21  35  53  72  93 120 156 199 243 287
#     4   9  18  31  46  66  95 130 163 196 238 282
#     4   8  14  26  45  68  92 121 160 202 238 274
#     4   8  14  26  46  71  98 128 161 196 234 278
#     4  10  20  31  44  65  95 131 167 197 228 274
#     4  11  21  33  48  68  95 129 163 198 239 284
#     4  11  21  34  51  70  93 122 158 200 242 284
#
# _framework density 15.701737
#
# number of rings (size 3 to 8) (size 9 to 14) (size 15 to 20)
#    0.000    2.250    1.250    4.875    0.000    3.250 
#    0.000    1.875    0.000    1.875    0.000    0.875 
#    0.000    6.000    0.000    0.000    0.000    0.000 
#
# Total GULP energy -178466.009060 kJ/mol
# GULP energy per Si atom -5577.062783 kJ/mol
# Density = 1.566600 g / cm^3
# Si number density = 15.701737 Si / 1000 Ang^3
#
#
#
# Elastic Constant Matrix: (Units=GPa)
#
#
# Indices 1 2 3 4 5 6 
#
# 1 119.3319 38.9138 77.0403 0.0000 0.0000 0.0000
# 2 38.9138 50.1482 37.7280 0.0000 0.0000 0.0000
# 3 77.0403 37.7280 140.6313 0.0000 0.0000 0.0000
# 4 0.0000 0.0000 0.0000 10.4979 0.0000 0.0000
# 5 0.0000 0.0000 0.0000 0.0000 8.3854 0.0000
# 6 0.0000 0.0000 0.0000 0.0000 0.0000 18.5241
#
#
#
# Elastic Compliance Matrix: (Units=1/GPa)
#
#
# Indices 1 2 3 4 5 6 
#
# 1 0.014533 -0.006625 -0.006184 0.000000 0.000000 0.000000
# 2 -0.006625 0.028003 -0.003883 0.000000 0.000000 0.000000
# 3 -0.006184 -0.003883 0.011540 0.000000 0.000000 0.000000
# 4 0.000000 0.000000 0.000000 0.095257 0.000000 0.000000
# 5 0.000000 0.000000 0.000000 0.000000 0.119255 0.000000
# 6 0.000000 0.000000 0.000000 0.000000 0.000000 0.053984
#
#
# Mechanical properties :
#
#
# Convention : Reuss Voigt Hill
#
# Bulk Modulus (GPa) = 48.32806 68.60841 58.46823
# Shear Modulus (GPa) = 13.77966 17.91010 15.84488
#
# Velocity S-wave (km/s) = 2.96563 3.38101 3.18011
# Velocity P-wave (km/s) = 6.52474 7.68318 7.12753
#
# Compressibility (1/GPa) = 0.02069191
#
# Stress axis : x y z
#
# Youngs Moduli (GPa) = 68.81071 35.71033 86.65248
#
# Poissons Ratio (x) = 0.23657 0.53586
# Poissons Ratio (y) = 0.45584 0.33651
# Poissons Ratio (z) = 0.42553 0.13868
#
# Static dielectric constant tensor:
#      x y z
#    x 1.514010 0.000000 0.000000 
#    y 0.000000 1.533000 0.000000 
#    z 0.000000 0.000000 1.522410 
# 
# From -- ./inp_files/16132.got.cif
#   From: 2010.05.17/outbox.cif.g08.bks.cpg/sg35_9_cif.got.tgz:16132.got - 2010.06.03 17:29:28.
