data_PCOD9350590
_publ_section_title
;
Structure prediction by ZEFSAII (Michael W. Deem and Ramdas Pophale) SiO2 
 PCOD9350590
Probable space group: C M C 21
;
_chemical_formula_sum "Si O2"
_cell_formula_units_Z 64
_cell_length_a 7.831828
_cell_length_b 21.206898
_cell_length_c 20.056067
_cell_angle_alpha 90.000000
_cell_angle_beta 90.000000
_cell_angle_gamma 90.000000
_cell_volume 3331.087650
_symmetry_space_group_name_H-M "C M C 21"
_symmetry_group_IT_number 36
_symmetry_cell_setting 'orthorhombic'
loop_
_space_group_symop_operation_xyz
x,y,z
-x,-y,1/2+z
x,-y,1/2+z
-x,y,z
1/2+x,1/2+y,z
1/2-x,1/2-y,1/2+z
1/2+x,1/2-y,1/2+z
1/2-x,1/2+y,z
loop_
_atom_site_type_symbol
_atom_site_label
_atom_site_fract_x
_atom_site_fract_y
_atom_site_fract_z
Si Si1 0.291500 0.186114 0.570120
Si Si2 0.791544 0.390708 0.289588
Si Si3 0.199744 0.065047 0.081753
Si Si4 0.202659 0.435357 0.148901
Si Si5 0.198303 0.395197 0.437645
Si Si6 0.208725 0.190689 0.153949
Si Si7 0.706069 0.256192 0.791331
Si Si8 0.299151 0.250487 0.438639
O O1 0.500000 0.183281 0.570173
O O2 0.228176 0.121996 0.603720
O O3 0.241482 0.246734 0.613731
O O4 0.237882 0.202132 0.494891
O O5 0.732231 0.429572 0.225104
O O6 0.730567 0.410045 0.363582
O O7 0.745370 0.317059 0.278803
O O8 0.000000 0.392763 0.292928
O O9 0.271271 0.127787 0.117682
O O10 0.000000 0.063322 0.096422
O O11 0.272818 0.001534 0.112818
O O12 0.221301 0.073088 0.002453
O O13 0.000000 0.424541 0.154679
O O14 0.213305 0.319175 0.444417
O O15 0.000000 0.412704 0.438626
O O16 0.262981 0.200500 0.230229
O O17 0.000000 0.189665 0.152834
O O18 0.500000 0.257407 0.793522
O O19 0.772394 0.273818 0.864016
O O20 0.500000 0.262195 0.450079
#
# Coordination Sequence:
#
# PCOD9350590 Si02
#       8
#     8   8   8   8   8   8   8   8
#     4   9  16  30  55  78  98 135 178 213 258 315
#     4   8  15  29  53  78  98 125 170 222 261 302
#     4  11  22  36  53  78 112 145 176 219 276 322
#     4  10  19  35  57  78 102 137 183 224 258 313
#     4  10  19  33  54  80 105 138 183 221 260 319
#     4   9  16  31  55  76  98 135 178 214 256 316
#     4   9  16  30  53  78 101 133 179 222 260 314
#     4  10  18  30  50  80 112 138 169 219 277 319
#
# _framework density 19.212942999999999
#
# number of rings (size 3 to 8) (size 9 to 14) (size 15 to 20)
#    0.000    2.500    2.500    1.875    0.000    0.000 
#    0.000    6.875    0.000    4.500    0.000    0.000 
#    0.000    0.000    0.000    0.000    0.000    0.000 
#
# Total GULP energy -178439.148092 kJ/mol
# GULP energy per Si atom -5576.223378 kJ/mol
# Density = 1.916921 g / cm^3
# Si number density = 19.212943 Si / 1000 Ang^3
#
#
#
# Elastic Constant Matrix: (Units=GPa)
#
#
# Indices 1 2 3 4 5 6 
#
# 1 15.6693 -5.8268 -3.9564 0.0000 0.0000 0.0000
# 2 -5.8268 101.7284 75.4710 0.0000 0.0000 0.0000
# 3 -3.9564 75.4710 178.4280 0.0000 0.0000 0.0000
# 4 0.0000 0.0000 0.0000 26.4454 0.0000 0.0000
# 5 0.0000 0.0000 0.0000 0.0000 19.9424 0.0000
# 6 0.0000 0.0000 0.0000 0.0000 0.0000 9.3954
#
#
#
# Elastic Compliance Matrix: (Units=1/GPa)
#
#
# Indices 1 2 3 4 5 6 
#
# 1 0.065212 0.003880 -0.000195 0.000000 0.000000 0.000000
# 2 0.003880 0.014556 -0.006071 0.000000 0.000000 0.000000
# 3 -0.000195 -0.006071 0.008168 0.000000 0.000000 0.000000
# 4 0.000000 0.000000 0.000000 0.037814 0.000000 0.000000
# 5 0.000000 0.000000 0.000000 0.000000 0.050144 0.000000
# 6 0.000000 0.000000 0.000000 0.000000 0.000000 0.106435
#
#
# Mechanical properties :
#
#
# Convention : Reuss Voigt Hill
#
# Bulk Modulus (GPa) = 12.02435 47.46682 29.74558
# Shear Modulus (GPa) = 15.88191 26.49917 21.19054
#
# Velocity S-wave (km/s) = 2.87823 3.71783 3.32464
# Velocity P-wave (km/s) = 4.16145 6.57183 5.50030
#
# Compressibility (1/GPa) = 0.08316456
#
# Stress axis : x y z
#
# Youngs Moduli (GPa) = 15.33450 68.69881 122.42826
#
# Poissons Ratio (x) = -0.26655 0.02389
# Poissons Ratio (y) = -0.05950 0.74326
# Poissons Ratio (z) = 0.00299 0.41707
#
# Static dielectric constant tensor:
#      x y z
#    x 1.709990 0.000000 0.000000 
#    y 0.000000 1.633270 0.000000 
#    z 0.000000 0.000000 1.698570 
# 
# From -- ./inp_files/14029.got.cif
#   From: 2010.05.17/outbox.cif.g08.bks.cpg/sg36_8_cif.got.tgz:14029.got - 2010.06.03 17:41:39.
