data_PCOD9350277
_publ_section_title
;
Structure prediction by ZEFSAII (Michael W. Deem and Ramdas Pophale) SiO2 
 PCOD9350277
Probable space group: C M M 2
;
_chemical_formula_sum "Si O2"
_cell_formula_units_Z 40
_cell_length_a 8.772525
_cell_length_b 30.946298
_cell_length_c 7.393326
_cell_angle_alpha 90.000000
_cell_angle_beta 90.000000
_cell_angle_gamma 90.000000
_cell_volume 2007.119241
_symmetry_space_group_name_H-M "C M M 2"
_symmetry_group_IT_number 35
_symmetry_cell_setting 'orthorhombic'
loop_
_space_group_symop_operation_xyz
x,y,z
-x,-y,z
-x,y,z
x,-y,z
1/2+x,1/2+y,z
1/2-x,1/2-y,z
1/2-x,1/2+y,z
1/2+x,1/2-y,z
loop_
_atom_site_type_symbol
_atom_site_label
_atom_site_fract_x
_atom_site_fract_y
_atom_site_fract_z
Si Si1 0.818474 0.706093 0.577970
Si Si2 0.682791 0.706597 0.170652
Si Si3 0.818361 0.550174 0.867834
Si Si4 0.818731 0.116316 0.589930
Si Si5 0.681896 0.389592 0.162566
O O1 0.750000 0.750000 0.660255
O O2 0.754010 0.705303 0.372240
O O3 0.761200 0.660555 0.654393
O O4 0.000000 0.708424 0.577588
O O5 0.500000 0.710257 0.184256
O O6 0.750000 0.750000 0.083441
O O7 0.718362 0.659133 0.094055
O O8 0.773022 0.500000 0.871690
O O9 0.737807 0.576349 0.707252
O O10 0.000000 0.552595 0.844785
O O11 0.770265 0.574700 0.050521
O O12 0.784863 0.109112 0.377013
O O13 0.000000 0.122016 0.607248
O O14 0.500000 0.395732 0.139686
#
# Coordination Sequence:
#
# PCOD9350277 Si02
#       5
#     8   8   8   8   8
#     4  10  17  28  50  81 117 154 191 231 278 334
#     4   9  16  28  49  80 115 151 191 231 275 332
#     4  11  25  42  60  85 115 147 188 241 298 352
#     4  10  21  39  62  87 116 152 195 239 285 341
#     4   9  20  38  60  86 115 150 192 235 281 338
#
# _framework density 19.929061000000001
#
# number of rings (size 3 to 8) (size 9 to 14) (size 15 to 20)
#    0.000    2.200    0.000    6.000    0.000    7.200 
#    0.000    5.000    0.000    2.400    0.000    0.000 
#    0.000    0.000    0.000    0.000    0.000    0.000 
#
# Total GULP energy -111677.529847 kJ/mol
# GULP energy per Si atom -5583.876492 kJ/mol
# Density = 1.988370 g / cm^3
# Si number density = 19.929061 Si / 1000 Ang^3
#
#
#
# Elastic Constant Matrix: (Units=GPa)
#
#
# Indices 1 2 3 4 5 6 
#
# 1 90.9144 81.3280 40.1374 0.0000 0.0000 0.0000
# 2 81.3280 199.6648 55.5243 0.0000 0.0000 0.0000
# 3 40.1374 55.5243 77.7244 0.0000 0.0000 0.0000
# 4 0.0000 0.0000 0.0000 34.0623 0.0000 0.0000
# 5 0.0000 0.0000 0.0000 0.0000 19.6865 0.0000
# 6 0.0000 0.0000 0.0000 0.0000 0.0000 38.5462
#
#
#
# Elastic Compliance Matrix: (Units=1/GPa)
#
#
# Indices 1 2 3 4 5 6 
#
# 1 0.018918 -0.006226 -0.005322 0.000000 0.000000 0.000000
# 2 -0.006226 0.008299 -0.002713 0.000000 0.000000 0.000000
# 3 -0.005322 -0.002713 0.017553 0.000000 0.000000 0.000000
# 4 0.000000 0.000000 0.000000 0.029358 0.000000 0.000000
# 5 0.000000 0.000000 0.000000 0.000000 0.050796 0.000000
# 6 0.000000 0.000000 0.000000 0.000000 0.000000 0.025943
#
#
# Mechanical properties :
#
#
# Convention : Reuss Voigt Hill
#
# Bulk Modulus (GPa) = 61.54837 80.25367 70.90102
# Shear Modulus (GPa) = 27.05550 31.21327 29.13439
#
# Velocity S-wave (km/s) = 3.68855 3.96184 3.82763
# Velocity P-wave (km/s) = 7.00652 7.82850 7.42888
#
# Compressibility (1/GPa) = 0.01624738
#
# Stress axis : x y z
#
# Youngs Moduli (GPa) = 52.85873 120.49756 56.97138
#
# Poissons Ratio (x) = 0.75021 0.30320
# Poissons Ratio (y) = 0.32909 0.15459
# Poissons Ratio (z) = 0.28131 0.32696
#
# Static dielectric constant tensor:
#      x y z
#    x 1.660020 0.000000 0.000000 
#    y 0.000000 1.727510 0.000000 
#    z 0.000000 0.000000 1.745320 
# 
# From -- ./inp_files/4979.got.cif
#   From: 2010.05.17/outbox.cif.g08.bks.cpg/sg35_3_cif.got.tgz:4979.got - 2010.06.03 17:29:28.
