data_PCOD9350569
_publ_section_title
;
Structure prediction by ZEFSAII (Michael W. Deem and Ramdas Pophale) SiO2 
 PCOD9350569
Probable space group: C M C 21
;
_chemical_formula_sum "Si O2"
_cell_formula_units_Z 64
_cell_length_a 30.165701
_cell_length_b 5.481249
_cell_length_c 17.424431
_cell_angle_alpha 90.000000
_cell_angle_beta 90.000000
_cell_angle_gamma 90.000000
_cell_volume 2881.055062
_symmetry_space_group_name_H-M "C M C 21"
_symmetry_group_IT_number 36
_symmetry_cell_setting 'orthorhombic'
loop_
_space_group_symop_operation_xyz
x,y,z
-x,-y,1/2+z
x,-y,1/2+z
-x,y,z
1/2+x,1/2+y,z
1/2-x,1/2-y,1/2+z
1/2+x,1/2-y,1/2+z
1/2-x,1/2+y,z
loop_
_atom_site_type_symbol
_atom_site_label
_atom_site_fract_x
_atom_site_fract_y
_atom_site_fract_z
Si Si1 0.138142 0.351577 0.109250
Si Si2 0.550498 0.576588 0.172912
Si Si3 0.416489 0.504368 0.842178
Si Si4 0.734049 0.758752 0.170887
Si Si5 0.356238 0.456305 0.463770
Si Si6 0.230643 0.244211 0.494569
Si Si7 0.581548 0.772212 0.556582
Si Si8 0.550465 0.003624 0.909616
O O1 0.091867 0.236607 0.140093
O O2 0.181344 0.289113 0.158432
O O3 0.124552 0.632887 0.102466
O O4 0.151543 0.263896 0.022922
O O5 0.500000 0.680732 0.178535
O O6 0.568638 0.488694 0.254577
O O7 0.548664 0.346775 0.115752
O O8 0.367557 0.577282 0.874576
O O9 0.423390 0.217255 0.864314
O O10 0.443716 0.729086 0.880284
O O11 0.746495 0.502239 0.208651
O O12 0.758078 0.743658 0.086070
O O13 0.318303 0.652780 0.477050
O O14 0.401382 0.566869 0.498688
O O15 0.259052 0.013234 0.463942
O O16 0.563152 0.976957 0.499528
O O17 0.500000 0.080191 0.901695
#
# Coordination Sequence:
#
# PCOD9350569 Si02
#       8
#     8   8   8   8   8   8   8   8
#     4  11  21  38  63  94 131 166 219 281 330 393
#     4  11  26  43  60  89 132 184 231 276 340 410
#     4  11  25  43  63  88 125 173 215 274 330 401
#     4  10  19  32  59  94 128 161 201 261 324 397
#     4  10  20  37  61  93 126 160 214 268 326 386
#     4  10  18  29  56  93 124 154 195 256 314 387
#     4  10  22  38  62  92 124 167 217 284 329 387
#     4  11  22  40  64  89 117 157 216 276 328 381
#
# _framework density 22.214085000000001
#
# number of rings (size 3 to 8) (size 9 to 14) (size 15 to 20)
#    0.000    1.500    3.750    3.000    3.500    1.000 
#    0.000    0.000    0.000    1.500    0.000    0.000 
#    0.000    0.000    0.000    0.000    0.000    0.000 
#
# Total GULP energy -178177.116679 kJ/mol
# GULP energy per Si atom -5568.034896 kJ/mol
# Density = 2.216353 g / cm^3
# Si number density = 22.214085 Si / 1000 Ang^3
#
#
#
# Elastic Constant Matrix: (Units=GPa)
#
#
# Indices 1 2 3 4 5 6 
#
# 1 79.9467 13.5261 27.5372 0.0000 0.0000 0.0000
# 2 13.5261 90.7686 9.6076 0.0000 0.0000 0.0000
# 3 27.5372 9.6076 65.3707 0.0000 0.0000 0.0000
# 4 0.0000 0.0000 0.0000 15.6803 0.0000 0.0000
# 5 0.0000 0.0000 0.0000 0.0000 2.0617 0.0000
# 6 0.0000 0.0000 0.0000 0.0000 0.0000 33.8825
#
#
#
# Elastic Compliance Matrix: (Units=1/GPa)
#
#
# Indices 1 2 3 4 5 6 
#
# 1 0.014850 -0.001575 -0.006024 0.000000 0.000000 0.000000
# 2 -0.001575 0.011358 -0.001006 0.000000 0.000000 0.000000
# 3 -0.006024 -0.001006 0.017983 0.000000 0.000000 0.000000
# 4 0.000000 0.000000 0.000000 0.063774 0.000000 0.000000
# 5 0.000000 0.000000 0.000000 0.000000 0.485026 0.000000
# 6 0.000000 0.000000 0.000000 0.000000 0.000000 0.029514
#
#
# Mechanical properties :
#
#
# Convention : Reuss Voigt Hill
#
# Bulk Modulus (GPa) = 37.06326 37.49197 37.27762
# Shear Modulus (GPa) = 7.70763 22.68591 15.19677
#
# Velocity S-wave (km/s) = 1.86473 3.19915 2.61838
# Velocity P-wave (km/s) = 4.62138 5.52814 5.09497
#
# Compressibility (1/GPa) = 0.02698090
#
# Stress axis : x y z
#
# Youngs Moduli (GPa) = 67.34124 88.04190 55.60891
#
# Poissons Ratio (x) = 0.13869 0.33498
# Poissons Ratio (y) = 0.10608 0.05593
# Poissons Ratio (z) = 0.40566 0.08855
#
# Static dielectric constant tensor:
#      x y z
#    x 1.876980 0.000000 0.000000 
#    y 0.000000 1.921810 0.000000 
#    z 0.000000 0.000000 1.899640 
# 
# From -- ./inp_files/15207.got.cif
#   From: 2010.05.17/outbox.cif.g08.bks.cpg/sg36_8_cif.got.tgz:15207.got - 2010.06.03 17:41:39.
