data_PCOD9350902
_publ_section_title
;
Structure prediction by ZEFSAII (Michael W. Deem and Ramdas Pophale) SiO2 
 PCOD9350902
Probable space group: C M C 21
;
_chemical_formula_sum "Si O2"
_cell_formula_units_Z 64
_cell_length_a 7.811376
_cell_length_b 20.807508
_cell_length_c 20.395772
_cell_angle_alpha 90.000000
_cell_angle_beta 90.000000
_cell_angle_gamma 90.000000
_cell_volume 3315.032281
_symmetry_space_group_name_H-M "C M C 21"
_symmetry_group_IT_number 36
_symmetry_cell_setting 'orthorhombic'
loop_
_space_group_symop_operation_xyz
x,y,z
-x,-y,1/2+z
x,-y,1/2+z
-x,y,z
1/2+x,1/2+y,z
1/2-x,1/2-y,1/2+z
1/2+x,1/2-y,1/2+z
1/2-x,1/2+y,z
loop_
_atom_site_type_symbol
_atom_site_label
_atom_site_fract_x
_atom_site_fract_y
_atom_site_fract_z
Si Si1 0.209935 0.158003 0.918340
Si Si2 0.799849 0.102126 0.528500
Si Si3 0.700975 0.215869 0.173690
Si Si4 0.206482 0.175130 0.770696
Si Si5 0.706486 0.076354 0.144341
Si Si6 0.205708 0.037134 0.996946
Si Si7 0.801227 0.744045 0.530179
Si Si8 0.795200 0.563351 0.674167
O O1 0.268273 0.174716 0.845369
O O2 0.000000 0.158595 0.917990
O O3 0.265341 0.087291 0.942335
O O4 0.265503 0.209540 0.973009
O O5 0.714303 0.169430 0.511319
O O6 0.781824 0.091124 0.606753
O O7 0.000000 0.108000 0.512586
O O8 0.729021 0.036249 0.496683
O O9 0.500000 0.209707 0.189302
O O10 0.774353 0.266429 0.225758
O O11 0.774710 0.143770 0.171493
O O12 0.714334 0.243937 0.100209
O O13 0.249094 0.108957 0.733961
O O14 0.000000 0.179912 0.772276
O O15 0.500000 0.078703 0.147558
O O16 0.753296 0.067263 0.068034
O O17 0.762727 0.010730 0.179803
O O18 0.000000 0.032890 0.992558
O O19 0.000000 0.760120 0.540401
O O20 0.000000 0.563763 0.665652
#
# Coordination Sequence:
#
# PCOD9350902 Si02
#       8
#     8   8   8   8   8   8   8   8
#     4   9  19  35  53  75 102 139 179 216 259 310
#     4  10  19  31  51  77 103 131 168 214 264 312
#     4  10  19  32  52  77 103 136 176 215 258 311
#     4  10  20  35  54  74 103 141 180 213 257 320
#     4   9  18  31  49  75 104 129 163 214 263 302
#     4   9  17  32  52  73  98 131 172 212 251 303
#     4  11  20  32  53  78 106 136 172 221 263 305
#     4  10  19  32  50  75 105 133 168 215 261 305
#
# _framework density 19.305996
#
# number of rings (size 3 to 8) (size 9 to 14) (size 15 to 20)
#    0.000    2.250    2.500    1.125    0.000    1.000 
#    0.000    3.125    0.000    1.500    0.000    0.000 
#    0.000    0.000    0.000    0.000    0.000    0.000 
#
# Total GULP energy -178517.599839 kJ/mol
# GULP energy per Si atom -5578.674995 kJ/mol
# Density = 1.926205 g / cm^3
# Si number density = 19.305996 Si / 1000 Ang^3
#
#
#
# Elastic Constant Matrix: (Units=GPa)
#
#
# Indices 1 2 3 4 5 6 
#
# 1 25.7128 -4.3666 -7.7892 0.0000 0.0000 0.0000
# 2 -4.3666 134.3166 39.4520 0.0000 0.0000 0.0000
# 3 -7.7892 39.4520 67.0411 0.0000 0.0000 0.0000
# 4 0.0000 0.0000 0.0000 25.7586 0.0000 0.0000
# 5 0.0000 0.0000 0.0000 0.0000 12.3646 0.0000
# 6 0.0000 0.0000 0.0000 0.0000 0.0000 14.5023
#
#
#
# Elastic Compliance Matrix: (Units=1/GPa)
#
#
# Indices 1 2 3 4 5 6 
#
# 1 0.040311 -0.000079 0.004730 0.000000 0.000000 0.000000
# 2 -0.000079 0.009001 -0.005306 0.000000 0.000000 0.000000
# 3 0.004730 -0.005306 0.018588 0.000000 0.000000 0.000000
# 4 0.000000 0.000000 0.000000 0.038822 0.000000 0.000000
# 5 0.000000 0.000000 0.000000 0.000000 0.080876 0.000000
# 6 0.000000 0.000000 0.000000 0.000000 0.000000 0.068955
#
#
# Mechanical properties :
#
#
# Convention : Reuss Voigt Hill
#
# Bulk Modulus (GPa) = 15.01729 31.29589 23.15659
# Shear Modulus (GPa) = 17.85336 23.84338 20.84837
#
# Velocity S-wave (km/s) = 3.04428 3.51810 3.28973
# Velocity P-wave (km/s) = 4.48913 5.72262 5.14299
#
# Compressibility (1/GPa) = 0.06658989
#
# Stress axis : x y z
#
# Youngs Moduli (GPa) = 24.80739 111.09816 53.79747
#
# Poissons Ratio (x) = 0.00875 -0.25445
# Poissons Ratio (y) = 0.00195 0.28545
# Poissons Ratio (z) = -0.11733 0.58949
#
# Static dielectric constant tensor:
#      x y z
#    x 1.706340 0.000000 0.000000 
#    y 0.000000 1.713820 0.000000 
#    z 0.000000 0.000000 1.633960 
# 
# From -- ./inp_files/13823.got.cif
#   From: 2010.05.17/outbox.cif.g08.bks.cpg/sg36_7_cif.got.tgz:13823.got - 2010.06.03 17:41:39.
