data_PCOD9350651
_publ_section_title
;
Structure prediction by ZEFSAII (Michael W. Deem and Ramdas Pophale) SiO2 
 PCOD9350651
Probable space group: C M C 21
;
_chemical_formula_sum "Si O2"
_cell_formula_units_Z 64
_cell_length_a 27.790096
_cell_length_b 5.516488
_cell_length_c 22.505569
_cell_angle_alpha 90.000000
_cell_angle_beta 90.000000
_cell_angle_gamma 90.000000
_cell_volume 3450.187698
_symmetry_space_group_name_H-M "C M C 21"
_symmetry_group_IT_number 36
_symmetry_cell_setting 'orthorhombic'
loop_
_space_group_symop_operation_xyz
x,y,z
-x,-y,1/2+z
x,-y,1/2+z
-x,y,z
1/2+x,1/2+y,z
1/2-x,1/2-y,1/2+z
1/2+x,1/2-y,1/2+z
1/2-x,1/2+y,z
loop_
_atom_site_type_symbol
_atom_site_label
_atom_site_fract_x
_atom_site_fract_y
_atom_site_fract_z
Si Si1 0.946676 0.109146 0.865420
Si Si2 0.599071 0.000000 0.932900
Si Si3 0.852607 0.148367 0.342956
Si Si4 0.147393 0.851633 0.522844
Si Si5 0.221269 0.654660 0.612243
Si Si6 0.221269 0.345340 0.253558
Si Si7 0.779757 0.000000 0.932900
Si Si8 0.053323 0.109145 0.500380
O O1 0.933914 0.384588 0.881583
O O2 0.000000 0.076238 0.840480
O O3 0.902112 0.994186 0.829960
O O4 0.946638 0.000001 0.932900
O O5 0.632887 0.181769 0.897972
O O6 0.632887 0.818232 0.967828
O O7 0.566085 0.115412 0.984217
O O8 0.827105 0.295133 0.290777
O O9 0.812382 0.982551 0.373695
O O10 0.172895 0.704867 0.575024
O O11 0.187618 0.017448 0.492106
O O12 0.097888 0.994186 0.535841
O O13 0.244443 0.389970 0.599356
O O14 0.211938 0.661376 0.682900
O O15 0.244443 0.610030 0.266444
O O16 0.750000 0.750000 0.932900
O O17 0.000000 0.076237 0.525320
#
# Coordination Sequence:
#
# PCOD9350651 Si02
#       8
#     8   8   8   8   8   8   8   8
#     4   9  18  32  51  77 112 148 185 225 275 340
#     4  10  18  32  51  82 114 149 184 225 289 340
#     4  11  21  34  54  80 114 146 187 227 284 340
#     4  11  21  34  54  80 114 146 187 227 284 340
#     4  10  23  41  60  82 110 151 197 235 274 330
#     4  10  23  41  60  82 110 151 197 235 274 330
#     4  12  23  32  48  78 113 141 170 217 278 328
#     4   9  18  32  51  77 112 148 185 225 275 340
#
# _framework density 18.549716
#
# number of rings (size 3 to 8) (size 9 to 14) (size 15 to 20)
#    0.000    1.750    3.750    2.625    3.500    1.000 
#    0.000    0.000    0.000    0.750    0.000    0.000 
#    0.000    0.000    0.000    0.000    0.000    0.000 
#
# Total GULP energy -178278.660343 kJ/mol
# GULP energy per Si atom -5571.208136 kJ/mol
# Density = 1.850750 g / cm^3
# Si number density = 18.549716 Si / 1000 Ang^3
#
#
#
# Elastic Constant Matrix: (Units=GPa)
#
#
# Indices 1 2 3 4 5 6 
#
# 1 121.0787 34.5385 23.9619 0.0000 0.0000 0.0000
# 2 34.5385 80.2498 2.5829 0.0000 0.0000 0.0000
# 3 23.9619 2.5829 32.8037 0.0000 0.0000 0.0000
# 4 0.0000 0.0000 0.0000 17.6170 0.0000 0.0000
# 5 0.0000 0.0000 0.0000 0.0000 21.7441 0.0000
# 6 0.0000 0.0000 0.0000 0.0000 0.0000 19.1070
#
#
#
# Elastic Compliance Matrix: (Units=1/GPa)
#
#
# Indices 1 2 3 4 5 6 
#
# 1 0.011080 -0.004519 -0.007737 0.000000 0.000000 0.000000
# 2 -0.004519 0.014336 0.002172 0.000000 0.000000 0.000000
# 3 -0.007737 0.002172 0.035965 0.000000 0.000000 0.000000
# 4 0.000000 0.000000 0.000000 0.056763 0.000000 0.000000
# 5 0.000000 0.000000 0.000000 0.000000 0.045990 0.000000
# 6 0.000000 0.000000 0.000000 0.000000 0.000000 0.052337
#
#
# Mechanical properties :
#
#
# Convention : Reuss Voigt Hill
#
# Bulk Modulus (GPa) = 24.26458 39.58875 31.92666
# Shear Modulus (GPa) = 19.96991 23.23022 21.60006
#
# Velocity S-wave (km/s) = 3.28466 3.54266 3.41609
# Velocity P-wave (km/s) = 5.24352 6.17432 5.72786
#
# Compressibility (1/GPa) = 0.04121234
#
# Stress axis : x y z
#
# Youngs Moduli (GPa) = 90.25638 69.75306 27.80471
#
# Poissons Ratio (x) = 0.31525 0.21513
# Poissons Ratio (y) = 0.40791 -0.06041
# Poissons Ratio (z) = 0.69834 -0.15154
#
# Static dielectric constant tensor:
#      x y z
#    x 1.703040 0.000000 0.000000 
#    y 0.000000 1.947710 0.000000 
#    z 0.000000 0.000000 1.619400 
# 
# From -- ./inp_files/16363.got.cif
#   From: 2010.05.17/outbox.cif.g08.bks.cpg/sg36_9_cif.got.tgz:16363.got - 2010.06.03 17:41:39.
