data_PCOD9350392
_publ_section_title
;
Structure prediction by ZEFSAII (Michael W. Deem and Ramdas Pophale) SiO2 
 PCOD9350392
Probable space group: C M M 2
;
_chemical_formula_sum "Si O2"
_cell_formula_units_Z 56
_cell_length_a 21.706996
_cell_length_b 8.545692
_cell_length_c 14.616384
_cell_angle_alpha 90.000000
_cell_angle_beta 90.000000
_cell_angle_gamma 90.000000
_cell_volume 2711.358263
_symmetry_space_group_name_H-M "C M M 2"
_symmetry_group_IT_number 35
_symmetry_cell_setting 'orthorhombic'
loop_
_space_group_symop_operation_xyz
x,y,z
-x,-y,z
-x,y,z
x,-y,z
1/2+x,1/2+y,z
1/2-x,1/2-y,z
1/2-x,1/2+y,z
1/2+x,1/2-y,z
loop_
_atom_site_type_symbol
_atom_site_label
_atom_site_fract_x
_atom_site_fract_y
_atom_site_fract_z
Si Si1 0.685444 0.314957 0.669270
Si Si2 0.367135 0.812515 0.847384
Si Si3 0.568233 0.187874 0.560581
Si Si4 0.814299 0.687667 0.243578
Si Si5 0.500000 0.318102 0.841652
Si Si6 0.068661 0.187896 0.353273
Si Si7 0.500000 0.814647 0.039955
Si Si8 0.863459 0.687297 0.057118
O O1 0.685359 0.500000 0.663094
O O2 0.750000 0.250000 0.632310
O O3 0.678226 0.262305 0.774569
O O4 0.625982 0.248860 0.617277
O O5 0.436196 0.764768 0.815952
O O6 0.362500 0.000000 0.845476
O O7 0.356704 0.756642 0.952380
O O8 0.500000 0.234535 0.597028
O O9 0.572489 0.253845 0.457831
O O10 0.570369 0.000000 0.558368
O O11 0.813103 0.500000 0.242592
O O12 0.750000 0.750000 0.282331
O O13 0.874309 0.742146 0.298243
O O14 0.821886 0.749114 0.138861
O O15 0.500000 0.500000 0.815951
O O16 0.500000 0.295448 0.951662
O O17 0.000000 0.234481 0.318909
O O18 0.072247 0.000000 0.351031
O O19 0.565198 0.788327 0.087101
O O20 0.500000 0.000000 0.009810
O O21 0.854305 0.500000 0.052132
#
# Coordination Sequence:
#
# PCOD9350392 Si02
#       8
#     8   8   8   8   4   8   4   8
#     4  12  26  43  63  92 129 167 211 257 311 372
#     4  10  20  38  60  84 120 165 212 260 313 367
#     4  10  22  43  71 100 127 159 202 249 308 374
#     4  11  23  39  60  89 125 166 212 257 309 370
#     4  10  18  30  50  82 115 150 199 254 308 360
#     4  10  22  42  67  96 128 159 198 252 313 370
#     4   8  14  30  52  76 105 144 197 254 308 362
#     4   8  17  33  57  84 114 158 209 259 308 363
#
# _framework density 20.653856000000001
#
# number of rings (size 3 to 8) (size 9 to 14) (size 15 to 20)
#    0.000    2.000    0.000    4.500    2.000    2.857 
#    0.000   11.429    0.000    0.000    0.000    0.000 
#    0.000    0.000    0.000    0.000    0.000    0.000 
#
# Total GULP energy -156333.492129 kJ/mol
# GULP energy per Si atom -5583.339005 kJ/mol
# Density = 2.060685 g / cm^3
# Si number density = 20.653856 Si / 1000 Ang^3
#
#
#
# Elastic Constant Matrix: (Units=GPa)
#
#
# Indices 1 2 3 4 5 6 
#
# 1 170.5333 48.2829 70.4683 0.0000 0.0000 0.0000
# 2 48.2829 77.1482 18.2127 0.0000 0.0000 0.0000
# 3 70.4683 18.2127 74.1739 0.0000 0.0000 0.0000
# 4 0.0000 0.0000 0.0000 19.1604 0.0000 0.0000
# 5 0.0000 0.0000 0.0000 0.0000 17.0533 0.0000
# 6 0.0000 0.0000 0.0000 0.0000 0.0000 27.8220
#
#
#
# Elastic Compliance Matrix: (Units=1/GPa)
#
#
# Indices 1 2 3 4 5 6 
#
# 1 0.011064 -0.004717 -0.009354 0.000000 0.000000 0.000000
# 2 -0.004717 0.015770 0.000609 0.000000 0.000000 0.000000
# 3 -0.009354 0.000609 0.022219 0.000000 0.000000 0.000000
# 4 0.000000 0.000000 0.000000 0.052191 0.000000 0.000000
# 5 0.000000 0.000000 0.000000 0.000000 0.058640 0.000000
# 6 0.000000 0.000000 0.000000 0.000000 0.000000 0.035943
#
#
# Mechanical properties :
#
#
# Convention : Reuss Voigt Hill
#
# Bulk Modulus (GPa) = 45.18664 66.19811 55.69237
# Shear Modulus (GPa) = 21.72721 25.13327 23.43024
#
# Velocity S-wave (km/s) = 3.24693 3.49217 3.37178
# Velocity P-wave (km/s) = 5.99852 6.95565 6.49474
#
# Compressibility (1/GPa) = 0.02213044
#
# Stress axis : x y z
#
# Youngs Moduli (GPa) = 90.37952 63.41083 45.00718
#
# Poissons Ratio (x) = 0.29908 0.42098
# Poissons Ratio (y) = 0.42628 -0.02739
# Poissons Ratio (z) = 0.84537 -0.03860
#
# Static dielectric constant tensor:
#      x y z
#    x 1.763980 0.000000 0.000000 
#    y 0.000000 1.691150 0.000000 
#    z 0.000000 0.000000 1.753950 
# 
# From -- ./inp_files/17496.got.cif
#   From: 2010.05.17/outbox.cif.g08.bks.cpg/sg35_9_cif.got.tgz:17496.got - 2010.06.03 17:29:28.
