data_PCOD9350339
_publ_section_title
;
Structure prediction by ZEFSAII (Michael W. Deem and Ramdas Pophale) SiO2 
 PCOD9350339
Probable space group: C M M 2
;
_chemical_formula_sum "Si O2"
_cell_formula_units_Z 64
_cell_length_a 29.560243
_cell_length_b 8.240457
_cell_length_c 16.263832
_cell_angle_alpha 90.000000
_cell_angle_beta 90.000000
_cell_angle_gamma 90.000000
_cell_volume 3961.705395
_symmetry_space_group_name_H-M "C M M 2"
_symmetry_group_IT_number 35
_symmetry_cell_setting 'orthorhombic'
loop_
_space_group_symop_operation_xyz
x,y,z
-x,-y,z
-x,y,z
x,-y,z
1/2+x,1/2+y,z
1/2-x,1/2-y,z
1/2-x,1/2+y,z
1/2+x,1/2-y,z
loop_
_atom_site_type_symbol
_atom_site_label
_atom_site_fract_x
_atom_site_fract_y
_atom_site_fract_z
Si Si1 0.697975 0.194038 0.707340
Si Si2 0.449421 0.195631 0.485771
Si Si3 0.697773 0.195704 0.886666
Si Si4 0.801840 0.805104 0.387437
Si Si5 0.644372 0.195998 0.226074
Si Si6 0.550484 0.197899 0.294961
Si Si7 0.855867 0.193008 0.548538
Si Si8 0.802217 0.696648 0.066285
O O1 0.750000 0.250000 0.696803
O O2 0.680446 0.252215 0.797405
O O3 0.667712 0.249481 0.631681
O O4 0.698435 0.000000 0.708431
O O5 0.500000 0.248759 0.510585
O O6 0.442497 0.246252 0.390377
O O7 0.407918 0.256620 0.539278
O O8 0.448897 0.000000 0.486713
O O9 0.750000 0.250000 0.886864
O O10 0.695418 0.000000 0.886751
O O11 0.680200 0.250912 0.975966
O O12 0.750000 0.750000 0.390414
O O13 0.826013 0.742916 0.305170
O O14 0.828661 0.744174 0.468208
O O15 0.803222 0.000000 0.386697
O O16 0.593068 0.253905 0.241801
O O17 0.667900 0.255595 0.142601
O O18 0.643155 0.000000 0.222123
O O19 0.500000 0.250475 0.269699
O O20 0.550454 0.000000 0.293943
O O21 0.853107 0.000000 0.546314
O O22 0.802542 0.500000 0.067253
O O23 0.750000 0.750000 0.075798
#
# Coordination Sequence:
#
# PCOD9350339 Si02
#       8
#     8   8   8   8   8   8   8   8
#     4  10  19  31  48  67  90 121 154 192 232 275
#     4   9  17  31  51  70  89 117 153 192 232 273
#     4   8  15  28  44  63  87 114 147 186 229 270
#     4  11  23  34  43  59  88 124 155 183 217 260
#     4  10  18  29  47  67  89 119 152 187 223 264
#     4   8  14  26  45  67  88 113 148 187 224 262
#     4  11  22  33  46  67  93 122 154 190 229 271
#     4   9  17  28  43  65  90 118 149 183 224 267
#
# _framework density 16.154658999999999
#
# number of rings (size 3 to 8) (size 9 to 14) (size 15 to 20)
#    0.000    2.500    1.250    2.625    0.000    4.750 
#    0.000    0.000    0.000    0.375    0.000    0.875 
#    0.000    5.000    0.000    0.000    0.000    0.125 
#
# Total GULP energy -178302.359400 kJ/mol
# GULP energy per Si atom -5571.948731 kJ/mol
# Density = 1.611789 g / cm^3
# Si number density = 16.154659 Si / 1000 Ang^3
#
#
#
# Elastic Constant Matrix: (Units=GPa)
#
#
# Indices 1 2 3 4 5 6 
#
# 1 123.1364 11.7411 85.3339 0.0000 0.0000 0.0000
# 2 11.7411 12.4261 16.5534 0.0000 0.0000 0.0000
# 3 85.3339 16.5534 164.9989 0.0000 0.0000 0.0000
# 4 0.0000 0.0000 0.0000 -75.9287 0.0000 0.0000
# 5 0.0000 0.0000 0.0000 0.0000 -16.1977 0.0000
# 6 0.0000 0.0000 0.0000 0.0000 0.0000 14.9650
#
#
#
# Elastic Compliance Matrix: (Units=1/GPa)
#
#
# Indices 1 2 3 4 5 6 
#
# 1 0.012810 -0.003784 -0.006245 0.000000 0.000000 0.000000
# 2 -0.003784 0.094008 -0.007474 0.000000 0.000000 0.000000
# 3 -0.006245 -0.007474 0.010040 0.000000 0.000000 0.000000
# 4 0.000000 0.000000 0.000000 -0.013170 0.000000 0.000000
# 5 0.000000 0.000000 0.000000 0.000000 -0.061737 0.000000
# 6 0.000000 0.000000 0.000000 0.000000 0.000000 0.066823
#
#
# Mechanical properties :
#
#
# Convention : Reuss Voigt Hill
#
# Bulk Modulus (GPa) = 12.21734 58.64647 35.43191
# Shear Modulus (GPa) = 29.22874 -2.97008 13.12933
#
# Velocity S-wave (km/s) = 4.25821 -1.35740 2.85393
# Velocity P-wave (km/s) = 5.63521 5.82454 5.73066
#
# Compressibility (1/GPa) = 0.08185085
#
# Stress axis : x y z
#
# Youngs Moduli (GPa) = 78.06417 10.63743 99.59666
#
# Poissons Ratio (x) = 0.04025 0.62202
# Poissons Ratio (y) = 0.29539 0.74441
# Poissons Ratio (z) = 0.48754 0.07951
#
# Static dielectric constant tensor:
#      x y z
#    x 1.548580 0.000000 0.000000 
#    y 0.000000 1.591750 0.000000 
#    z 0.000000 0.000000 1.570900 
# 
# From -- ./inp_files/16172.got.cif
#   From: 2010.05.17/outbox.cif.g08.bks.cpg/sg35_9_cif.got.tgz:16172.got - 2010.06.03 17:29:28.
