data_PCOD9350581
_publ_section_title
;
Structure prediction by ZEFSAII (Michael W. Deem and Ramdas Pophale) SiO2 
 PCOD9350581
Probable space group: C M C 21
;
_chemical_formula_sum "Si O2"
_cell_formula_units_Z 48
_cell_length_a 7.792102
_cell_length_b 15.606190
_cell_length_c 14.457875
_cell_angle_alpha 90.000000
_cell_angle_beta 90.000000
_cell_angle_gamma 90.000000
_cell_volume 1758.150241
_symmetry_space_group_name_H-M "C M C 21"
_symmetry_group_IT_number 36
_symmetry_cell_setting 'orthorhombic'
loop_
_space_group_symop_operation_xyz
x,y,z
-x,-y,1/2+z
x,-y,1/2+z
-x,y,z
1/2+x,1/2+y,z
1/2-x,1/2-y,1/2+z
1/2+x,1/2-y,1/2+z
1/2-x,1/2+y,z
loop_
_atom_site_type_symbol
_atom_site_label
_atom_site_fract_x
_atom_site_fract_y
_atom_site_fract_z
Si Si1 0.807668 0.191792 0.810670
Si Si2 0.197258 0.467114 0.423600
Si Si3 0.208040 0.436195 0.753049
Si Si4 0.202742 0.392210 0.135529
Si Si5 0.797224 0.184864 0.456795
Si Si6 0.288652 0.846701 0.580300
O O1 0.690388 0.119663 0.858760
O O2 0.787766 0.180215 0.700865
O O3 0.000000 0.165276 0.833851
O O4 0.780663 0.284153 0.858993
O O5 0.276808 0.538968 0.355007
O O6 0.270957 0.425860 0.516071
O O7 0.000000 0.492403 0.442152
O O8 0.241355 0.520556 0.690135
O O9 0.272532 0.362801 0.684274
O O10 0.000000 0.429048 0.761931
O O11 0.256487 0.391729 0.028085
O O12 0.000000 0.379733 0.138089
O O13 0.735942 0.262708 0.524878
O O14 0.000000 0.189685 0.445398
O O15 0.500000 0.848011 0.581358
#
# Coordination Sequence:
#
# PCOD9350581 Si02
#       6
#     8   8   8   8   8   8
#     4  10  18  30  49  70  93 125 165 201 237 286
#     4   8  14  26  45  66  89 119 153 191 235 282
#     4   8  14  26  45  68  91 118 155 195 232 274
#     4  10  19  32  50  72  99 128 160 199 241 286
#     4  10  19  32  50  72  99 128 160 199 241 286
#     4   8  14  26  45  68  91 118 155 195 232 274
#
# _framework density 27.30142
#
# number of rings (size 3 to 8) (size 9 to 14) (size 15 to 20)
#    0.000    3.000    0.000    4.500    0.000    0.000 
#    0.000    1.667    0.000   31.000    0.000    0.000 
#    0.000    0.000    0.000    0.000    0.000    0.000 
#
# Total GULP energy -134134.810180 kJ/mol
# GULP energy per Si atom -5588.950424 kJ/mol
# Density = 2.723928 g / cm^3
# Si number density = 27.301420 Si / 1000 Ang^3
#
#
#
# Elastic Constant Matrix: (Units=GPa)
#
#
# Indices 1 2 3 4 5 6 
#
# 1 65.8271 1.3308 16.2166 0.0000 0.0000 0.0000
# 2 1.3308 47.0146 -31.5944 0.0000 0.0000 0.0000
# 3 16.2166 -31.5944 205.4193 0.0000 0.0000 0.0000
# 4 0.0000 0.0000 0.0000 52.0466 0.0000 0.0000
# 5 0.0000 0.0000 0.0000 0.0000 24.9637 0.0000
# 6 0.0000 0.0000 0.0000 0.0000 0.0000 10.7279
#
#
#
# Elastic Compliance Matrix: (Units=1/GPa)
#
#
# Indices 1 2 3 4 5 6 
#
# 1 0.015576 -0.001413 -0.001447 0.000000 0.000000 0.000000
# 2 -0.001413 0.023850 0.003780 0.000000 0.000000 0.000000
# 3 -0.001447 0.003780 0.005564 0.000000 0.000000 0.000000
# 4 0.000000 0.000000 0.000000 0.019214 0.000000 0.000000
# 5 0.000000 0.000000 0.000000 0.000000 0.040058 0.000000
# 6 0.000000 0.000000 0.000000 0.000000 0.000000 0.093215
#
#
# Mechanical properties :
#
#
# Convention : Reuss Voigt Hill
#
# Bulk Modulus (GPa) = 21.35428 32.24078 26.79753
# Shear Modulus (GPa) = 23.66892 39.70150 31.68521
#
# Velocity S-wave (km/s) = 2.94759 3.81752 3.41041
# Velocity P-wave (km/s) = 4.40716 5.59161 5.03434
#
# Compressibility (1/GPa) = 0.04682902
#
# Stress axis : x y z
#
# Youngs Moduli (GPa) = 64.19978 41.92856 179.73714
#
# Poissons Ratio (x) = 0.05926 0.26009
# Poissons Ratio (y) = 0.09074 -0.67937
# Poissons Ratio (z) = 0.09290 -0.15848
#
# Static dielectric constant tensor:
#      x y z
#    x 1.946870 0.000000 0.000000 
#    y 0.000000 2.371460 0.000000 
#    z 0.000000 0.000000 2.154470 
# 
# From -- ./inp_files/10456.got.cif
#   From: 2010.05.17/outbox.cif.g08.bks.cpg/sg36_6_cif.got.tgz:10456.got - 2010.06.03 17:41:39.
