data_PCOD9350587
_publ_section_title
;
Structure prediction by ZEFSAII (Michael W. Deem and Ramdas Pophale) SiO2 
 PCOD9350587
Probable space group: C M C 21
;
_chemical_formula_sum "Si O2"
_cell_formula_units_Z 48
_cell_length_a 7.974668
_cell_length_b 13.368501
_cell_length_c 18.953786
_cell_angle_alpha 90.000000
_cell_angle_beta 90.000000
_cell_angle_gamma 90.000000
_cell_volume 2020.650941
_symmetry_space_group_name_H-M "C M C 21"
_symmetry_group_IT_number 36
_symmetry_cell_setting 'orthorhombic'
loop_
_space_group_symop_operation_xyz
x,y,z
-x,-y,1/2+z
x,-y,1/2+z
-x,y,z
1/2+x,1/2+y,z
1/2-x,1/2-y,1/2+z
1/2+x,1/2-y,1/2+z
1/2-x,1/2+y,z
loop_
_atom_site_type_symbol
_atom_site_label
_atom_site_fract_x
_atom_site_fract_y
_atom_site_fract_z
Si Si1 0.811926 0.180260 0.638000
Si Si2 0.000000 0.532280 0.928361
Si Si3 0.500000 0.218802 0.727881
Si Si4 0.690684 0.803170 0.979212
Si Si5 0.809948 0.050575 0.178937
Si Si6 0.500000 0.729578 0.388498
Si Si7 0.311338 0.571052 0.017125
Si Si8 0.000000 0.519163 0.268104
O O1 0.667714 0.236355 0.681729
O O2 0.752050 0.166797 0.557467
O O3 0.820498 0.070222 0.671546
O O4 0.000000 0.223677 0.639128
O O5 0.000000 0.653375 0.912889
O O6 0.000000 0.482517 0.852043
O O7 0.831298 0.514966 0.973567
O O8 0.500000 0.268105 0.804463
O O9 0.500000 0.097846 0.743671
O O10 0.500000 0.835423 0.964297
O O11 0.679839 0.682129 0.985998
O O12 0.834161 0.820611 0.921425
O O13 0.665466 0.069399 0.235348
O O14 0.000000 0.082872 0.195682
O O15 0.762672 0.081685 0.099141
O O16 0.500000 0.527256 0.014983
#
# Coordination Sequence:
#
# PCOD9350587 Si02
#       8
#     8   4   4   8   8   4   8   4
#     4  10  18  30  50  74  94 124 160 196 236 281
#     4   9  17  29  47  71  97 122 151 195 240 278
#     4   9  18  31  47  71  99 122 155 201 243 280
#     4  10  18  30  50  74  94 124 160 196 236 281
#     4   9  18  31  48  72  94 122 158 193 233 276
#     4   9  18  31  47  71  99 122 155 201 243 280
#     4   9  18  31  48  72  94 122 158 193 233 276
#     4   9  17  29  47  71  97 122 151 195 240 278
#
# _framework density 23.754721
#
# number of rings (size 3 to 8) (size 9 to 14) (size 15 to 20)
#    0.000    2.667    1.667    0.500    0.000    1.333 
#    0.000    6.667    0.000    2.000    0.000    0.000 
#    0.000    0.000    0.000    0.000    0.000    0.000 
#
# Total GULP energy -134312.017329 kJ/mol
# GULP energy per Si atom -5596.334055 kJ/mol
# Density = 2.370065 g / cm^3
# Si number density = 23.754721 Si / 1000 Ang^3
#
#
#
# Elastic Constant Matrix: (Units=GPa)
#
#
# Indices 1 2 3 4 5 6 
#
# 1 235.8753 38.2074 136.3184 0.0000 0.0000 0.0000
# 2 38.2074 49.9960 16.3004 0.0000 0.0000 0.0000
# 3 136.3184 16.3004 185.4345 0.0000 0.0000 0.0000
# 4 0.0000 0.0000 0.0000 27.6326 0.0000 0.0000
# 5 0.0000 0.0000 0.0000 0.0000 33.8652 0.0000
# 6 0.0000 0.0000 0.0000 0.0000 0.0000 42.8550
#
#
#
# Elastic Compliance Matrix: (Units=1/GPa)
#
#
# Indices 1 2 3 4 5 6 
#
# 1 0.008230 -0.004444 -0.005660 0.000000 0.000000 0.000000
# 2 -0.004444 0.022992 0.001246 0.000000 0.000000 0.000000
# 3 -0.005660 0.001246 0.009444 0.000000 0.000000 0.000000
# 4 0.000000 0.000000 0.000000 0.036189 0.000000 0.000000
# 5 0.000000 0.000000 0.000000 0.000000 0.029529 0.000000
# 6 0.000000 0.000000 0.000000 0.000000 0.000000 0.023335
#
#
# Mechanical properties :
#
#
# Convention : Reuss Voigt Hill
#
# Bulk Modulus (GPa) = 43.57293 94.77314 69.17303
# Shear Modulus (GPa) = 32.24054 39.56919 35.90487
#
# Velocity S-wave (km/s) = 3.68805 4.08578 3.89200
# Velocity P-wave (km/s) = 6.04304 7.88931 7.02707
#
# Compressibility (1/GPa) = 0.02295003
#
# Stress axis : x y z
#
# Youngs Moduli (GPa) = 121.50217 43.49376 105.88982
#
# Poissons Ratio (x) = 0.19331 0.59930
# Poissons Ratio (y) = 0.54001 -0.13196
# Poissons Ratio (z) = 0.68766 -0.05420
#
# Static dielectric constant tensor:
#      x y z
#    x 1.878180 0.000000 0.000000 
#    y 0.000000 2.059190 0.000000 
#    z 0.000000 0.000000 1.793290 
# 
# From -- ./inp_files/10497.got.cif
#   From: 2010.05.17/outbox.cif.g08.bks.cpg/sg36_6_cif.got.tgz:10497.got - 2010.06.03 17:41:39.
