data_PCOD9350180
_publ_section_title
;
Structure prediction by ZEFSAII (Michael W. Deem and Ramdas Pophale) SiO2 
 PCOD9350180
Probable space group: C M M 2
;
_chemical_formula_sum "Si O2"
_cell_formula_units_Z 24
_cell_length_a 15.000000
_cell_length_b 9.000000
_cell_length_c 18.000000
_cell_angle_alpha 90.000000
_cell_angle_beta 90.000000
_cell_angle_gamma 90.000000
_cell_volume 2430.000000
_symmetry_space_group_name_H-M "C M M 2"
_symmetry_group_IT_number 35
_symmetry_cell_setting 'orthorhombic'
loop_
_space_group_symop_operation_xyz
x,y,z
-x,-y,z
-x,y,z
x,-y,z
1/2+x,1/2+y,z
1/2-x,1/2-y,z
1/2-x,1/2+y,z
1/2+x,1/2-y,z
loop_
_atom_site_type_symbol
_atom_site_label
_atom_site_fract_x
_atom_site_fract_y
_atom_site_fract_z
Si Si1 0.841317 0.176181 0.965300
Si Si2 0.349149 0.679909 0.590914
Si Si3 0.605365 0.332778 0.262911
Si Si4 0.108027 0.667294 0.117462
Si Si5 0.500000 0.821736 0.692068
Si Si6 0.846835 0.178869 0.426275
Si Si7 0.500000 0.678186 0.853040
O O1 0.750000 0.250000 0.941600
O O2 0.916126 0.213646 0.905144
O O3 0.833632 0.000000 0.968899
O O4 0.865085 0.235364 0.047133
O O5 0.345166 0.500000 0.598728
O O6 0.250000 0.750000 0.596526
O O7 0.414169 0.752383 0.650698
O O8 0.386128 0.714577 0.507386
O O9 0.500000 0.345611 0.249768
O O10 0.643843 0.500000 0.259234
O O11 0.640294 0.232570 0.196060
O O12 0.614035 0.273359 0.346945
O O13 0.141352 0.500000 0.107164
O O14 0.000000 0.663064 0.119014
O O15 0.500000 0.767747 0.776991
O O16 0.500000 0.000000 0.686714
O O17 0.750000 0.250000 0.427914
O O18 0.843896 0.000000 0.423828
O O19 0.500000 0.500000 0.837604
#
# Coordination Sequence:
#
# PCOD9350180 Si02
#       7
#     8   8   8   8   4   8   4
#     4  11  23  41  66  94 122 158 201 245 300 361
#     4  10  21  40  65  92 127 164 207 258 309 366
#     4   9  18  32  52  78 111 154 204 248 294 350
#     4  10  20  35  56  83 119 160 203 251 301 351
#     4  12  26  42  66  97 126 163 204 245 306 373
#     4   9  19  34  55  80 111 153 197 247 302 353
#     4  10  24  46  68  91 124 159 196 247 304 365
#
# _framework density 9.8765429999999999
#
# number of rings (size 3 to 8) (size 9 to 14) (size 15 to 20)
#    0.000    2.000    0.833    2.250    1.167    4.667 
#    0.000    3.333    0.000    0.000    0.000    0.000 
#    0.000    0.000    0.000    0.000    0.000    0.000 
#
# Total GULP energy -133910.763437 kJ/mol
# GULP energy per Si atom -5579.615143 kJ/mol
# Density = 0.985406 g / cm^3
# Si number density = 9.876543 Si / 1000 Ang^3
#
#
#
# Elastic Constant Matrix: (Units=GPa)
#
#
# Indices 1 2 3 4 5 6 
#
# 1 93.2984 51.4395 67.3795 0.0000 0.0000 0.0000
# 2 51.4395 85.4742 93.2381 0.0000 0.0000 0.0000
# 3 67.3795 93.2381 185.9338 0.0000 0.0000 0.0000
# 4 0.0000 0.0000 0.0000 16.5827 0.0000 0.0000
# 5 0.0000 0.0000 0.0000 0.0000 134.8167 0.0000
# 6 0.0000 0.0000 0.0000 0.0000 0.0000 22.8979
#
#
#
# Elastic Compliance Matrix: (Units=1/GPa)
#
#
# Indices 1 2 3 4 5 6 
#
# 1 0.016438 -0.007494 -0.002199 0.000000 0.000000 0.000000
# 2 -0.007494 0.029243 -0.011949 0.000000 0.000000 0.000000
# 3 -0.002199 -0.011949 0.012167 0.000000 0.000000 0.000000
# 4 0.000000 0.000000 0.000000 0.060304 0.000000 0.000000
# 5 0.000000 0.000000 0.000000 0.000000 0.007417 0.000000
# 6 0.000000 0.000000 0.000000 0.000000 0.000000 0.043672
#
#
# Mechanical properties :
#
#
# Convention : Reuss Voigt Hill
#
# Bulk Modulus (GPa) = 68.65674 87.64673 78.15173
# Shear Modulus (GPa) = 23.00118 45.03610 34.01864
#
# Velocity S-wave (km/s) = 3.41608 4.78006 4.15443
# Velocity P-wave (km/s) = 7.09876 8.65638 7.91597
#
# Compressibility (1/GPa) = 0.01456521
#
# Stress axis : x y z
#
# Youngs Moduli (GPa) = 60.83411 34.19574 82.19005
#
# Poissons Ratio (x) = 0.25626 0.18074
# Poissons Ratio (y) = 0.45589 0.98206
# Poissons Ratio (z) = 0.13378 0.40859
#
# Static dielectric constant tensor:
#      x y z
#    x 1.700220 0.000000 0.000000 
#    y 0.000000 1.675230 0.000000 
#    z 0.000000 0.000000 1.691350 
# 
# From -- ./inp_files/17094.got.cif
#   From: 2010.05.17/outbox.ucp.g08.bks.cvg/sg35_9_cif.got.tgz:17094.got - 2010.06.11 10:36:28.
