data_PCOD9350827
_publ_section_title
;
Structure prediction by ZEFSAII (Michael W. Deem and Ramdas Pophale) SiO2 
 PCOD9350827
Probable space group: C M C 21
;
_chemical_formula_sum "Si O2"
_cell_formula_units_Z 52
_cell_length_a 13.619495
_cell_length_b 30.643076
_cell_length_c 5.478685
_cell_angle_alpha 90.000000
_cell_angle_beta 90.000000
_cell_angle_gamma 90.000000
_cell_volume 2286.492041
_symmetry_space_group_name_H-M "C M C 21"
_symmetry_group_IT_number 36
_symmetry_cell_setting 'orthorhombic'
loop_
_space_group_symop_operation_xyz
x,y,z
-x,-y,1/2+z
x,-y,1/2+z
-x,y,z
1/2+x,1/2+y,z
1/2-x,1/2-y,1/2+z
1/2+x,1/2-y,1/2+z
1/2-x,1/2+y,z
loop_
_atom_site_type_symbol
_atom_site_label
_atom_site_fract_x
_atom_site_fract_y
_atom_site_fract_z
Si Si1 0.650872 0.483973 0.048040
Si Si2 0.812939 0.798379 0.929039
Si Si3 0.685896 0.203250 0.928405
Si Si4 0.686198 0.944605 0.563309
Si Si5 0.000000 0.472812 0.809325
Si Si6 0.109255 0.620051 0.690578
Si Si7 0.696987 0.389709 0.893778
O O1 0.604689 0.500709 0.295541
O O2 0.756227 0.509979 0.033950
O O3 0.660063 0.431910 0.041253
O O4 0.739982 0.799444 0.691046
O O5 0.864428 0.751049 0.911984
O O6 0.865267 0.845542 0.903844
O O7 0.762213 0.796966 0.198245
O O8 0.620250 0.160763 0.878562
O O9 0.602270 0.947771 0.768393
O O10 0.630152 0.924712 0.334629
O O11 0.772345 0.910442 0.634744
O O12 0.000000 0.503702 0.568064
O O13 0.198427 0.624592 0.505154
O O14 0.000000 0.620725 0.587992
#
# Coordination Sequence:
#
# PCOD9350827 Si02
#       7
#     8   8   8   8   4   8   8
#     4  10  19  30  41  55  80 106 139 177 204 242
#     4   9  17  31  53  60  81  98 137 184 213 260
#     4   9  18  33  45  68  78 103 133 179 224 252
#     4  11  21  30  42  56  81 112 144 182 206 250
#     4  12  26  34  42  54  76 116 152 182 210 238
#     4  11  21  31  43  62  87 113 143 180 217 256
#     4  10  20  32  44  61  80 109 148 176 220 250
#
# _framework density 22.742262
#
# number of rings (size 3 to 8) (size 9 to 14) (size 15 to 20)
#    0.000    1.846    3.846    1.846    3.231    0.000 
#    0.000    0.000    0.000    0.000    0.000    0.000 
#    0.000    0.000    0.000    0.000    0.000    6.154 
#
# Total GULP energy -144869.220277 kJ/mol
# GULP energy per Si atom -5571.893088 kJ/mol
# Density = 2.269050 g / cm^3
# Si number density = 22.742262 Si / 1000 Ang^3
#
#
#
# Elastic Constant Matrix: (Units=GPa)
#
#
# Indices 1 2 3 4 5 6 
#
# 1 51.3604 12.7188 10.0725 0.0000 0.0000 0.0000
# 2 12.7188 175.6097 25.4094 0.0000 0.0000 0.0000
# 3 10.0725 25.4094 132.6797 0.0000 0.0000 0.0000
# 4 0.0000 0.0000 0.0000 37.0868 0.0000 0.0000
# 5 0.0000 0.0000 0.0000 0.0000 -47.7061 0.0000
# 6 0.0000 0.0000 0.0000 0.0000 0.0000 1.6612
#
#
#
# Elastic Compliance Matrix: (Units=1/GPa)
#
#
# Indices 1 2 3 4 5 6 
#
# 1 0.020035 -0.001266 -0.001278 0.000000 0.000000 0.000000
# 2 -0.001266 0.005937 -0.001041 0.000000 0.000000 0.000000
# 3 -0.001278 -0.001041 0.007833 0.000000 0.000000 0.000000
# 4 0.000000 0.000000 0.000000 0.026964 0.000000 0.000000
# 5 0.000000 0.000000 0.000000 0.000000 -0.020962 0.000000
# 6 0.000000 0.000000 0.000000 0.000000 0.000000 0.601982
#
#
# Mechanical properties :
#
#
# Convention : Reuss Voigt Hill
#
# Bulk Modulus (GPa) = 37.54615 50.67233 44.10924
# Shear Modulus (GPa) = 7.60066 18.97166 13.28616
#
# Velocity S-wave (km/s) = 1.83012 2.89139 2.41966
# Velocity P-wave (km/s) = 4.58378 5.78588 5.21955
#
# Compressibility (1/GPa) = 0.02663389
#
# Stress axis : x y z
#
# Youngs Moduli (GPa) = 49.91388 168.44254 127.65957
#
# Poissons Ratio (x) = 0.21325 0.16321
# Poissons Ratio (y) = 0.06319 0.13287
# Poissons Ratio (z) = 0.06381 0.17532
#
# Static dielectric constant tensor:
#      x y z
#    x 1.824850 0.000000 0.000000 
#    y 0.000000 1.971410 0.000000 
#    z 0.000000 0.000000 1.909860 
# 
# From -- ./inp_files/1168.got.cif
#   From: 2010.05.17/outbox.cif.g08.bks.cpg/sg36_1_cif.got.tgz:1168.got - 2010.06.03 17:41:39.
