data_PCOD9350589
_publ_section_title
;
Structure prediction by ZEFSAII (Michael W. Deem and Ramdas Pophale) SiO2 
 PCOD9350589
Probable space group: C M C 21
;
_chemical_formula_sum "Si O2"
_cell_formula_units_Z 48
_cell_length_a 7.441853
_cell_length_b 18.642326
_cell_length_c 12.066018
_cell_angle_alpha 90.000000
_cell_angle_beta 90.000000
_cell_angle_gamma 90.000000
_cell_volume 1673.960301
_symmetry_space_group_name_H-M "C M C 21"
_symmetry_group_IT_number 36
_symmetry_cell_setting 'orthorhombic'
loop_
_space_group_symop_operation_xyz
x,y,z
-x,-y,1/2+z
x,-y,1/2+z
-x,y,z
1/2+x,1/2+y,z
1/2-x,1/2-y,1/2+z
1/2+x,1/2-y,1/2+z
1/2-x,1/2+y,z
loop_
_atom_site_type_symbol
_atom_site_label
_atom_site_fract_x
_atom_site_fract_y
_atom_site_fract_z
Si Si1 0.299969 0.318618 0.511660
Si Si2 0.707411 0.800654 0.752641
Si Si3 0.780144 0.658101 0.477373
Si Si4 0.297824 0.973599 0.551723
Si Si5 0.716208 0.859938 0.225455
Si Si6 0.279605 0.013471 0.309774
O O1 0.500000 0.327178 0.466526
O O2 0.317667 0.308239 0.643257
O O3 0.218235 0.241986 0.479747
O O4 0.195672 0.392552 0.505459
O O5 0.500000 0.817862 0.729364
O O6 0.766372 0.856895 0.848237
O O7 0.715442 0.715098 0.772967
O O8 0.723976 0.630498 0.597285
O O9 0.000000 0.659855 0.477309
O O10 0.500000 0.001994 0.567744
O O11 0.225650 0.019735 0.444454
O O12 0.226736 0.965048 0.679417
O O13 0.500000 0.855305 0.226650
O O14 0.770610 0.929537 0.291077
O O15 0.500000 0.021360 0.313982
#
# Coordination Sequence:
#
# PCOD9350589 Si02
#       6
#     8   8   8   8   8   8
#     4  10  20  35  52  75 106 140 173 215 266 317
#     4  10  18  30  50  77 103 134 173 215 260 318
#     4   8  16  29  48  72 101 134 169 207 259 315
#     4  10  20  36  56  80 105 139 182 224 264 313
#     4   9  17  32  50  72 102 138 173 214 266 318
#     4   9  19  34  56  80 105 137 180 225 267 311
#
# _framework density 28.674513999999999
#
# number of rings (size 3 to 8) (size 9 to 14) (size 15 to 20)
#    0.000    2.667    0.000    3.000    0.000    1.333 
#    0.000   14.167    0.000    0.000    0.000    0.000 
#    0.000    0.000    0.000    0.000    0.000    0.000 
#
# Total GULP energy -133774.722761 kJ/mol
# GULP energy per Si atom -5573.946782 kJ/mol
# Density = 2.860925 g / cm^3
# Si number density = 28.674514 Si / 1000 Ang^3
#
#
#
# Elastic Constant Matrix: (Units=GPa)
#
#
# Indices 1 2 3 4 5 6 
#
# 1 82.9188 -161.5864 -82.3634 0.0000 0.0000 0.0000
# 2 -161.5864-2725.1099-1568.7458 0.0000 0.0000 0.0000
# 3 -82.3634-1568.7458 -625.1857 0.0000 0.0000 0.0000
# 4 0.0000 0.0000 0.0000 0.7414 0.0000 0.0000
# 5 0.0000 0.0000 0.0000 0.0000 13.0042 0.0000
# 6 0.0000 0.0000 0.0000 0.0000 0.0000 31.3608
#
#
#
# Elastic Compliance Matrix: (Units=1/GPa)
#
#
# Indices 1 2 3 4 5 6 
#
# 1 0.010859 -0.000404 -0.000416 0.000000 0.000000 0.000000
# 2 -0.000404 0.000841 -0.002056 0.000000 0.000000 0.000000
# 3 -0.000416 -0.002056 0.003615 0.000000 0.000000 0.000000
# 4 0.000000 0.000000 0.000000 1.348765 0.000000 0.000000
# 5 0.000000 0.000000 0.000000 0.000000 0.076898 0.000000
# 6 0.000000 0.000000 0.000000 0.000000 0.000000 0.031887
#
#
# Mechanical properties :
#
#
# Convention : Reuss Voigt Hill
#
# Bulk Modulus (GPa) = 104.59530 -765.86310 -330.63390
# Shear Modulus (GPa) = 3.37426 -87.95747 -42.29160
#
# Velocity S-wave (km/s) = 1.08596 -5.54446 -3.84459
# Velocity P-wave (km/s) = 6.17481 17.56862 11.63030
#
# Compressibility (1/GPa) = 0.00956066
#
# Stress axis : x y z
#
# Youngs Moduli (GPa) = 92.09147 1189.58593 276.65616
#
# Poissons Ratio (x) = 0.48079 0.11520
# Poissons Ratio (y) = 0.03722 0.56883
# Poissons Ratio (z) = 0.03835 2.44591
#
# Static dielectric constant tensor:
#      x y z
#    x 2.170490 0.000000 0.000000 
#    y 0.000000 2.530110 0.000000 
#    z 0.000000 0.000000 2.646190 
# 
# From -- ./inp_files/6758.got.cif
#   From: 2010.05.17/outbox.cif.g08.bks.cpg/sg36_4_cif.got.tgz:6758.got - 2010.06.03 17:41:39.
