data_PCOD9350343
_publ_section_title
;
Structure prediction by ZEFSAII (Michael W. Deem and Ramdas Pophale) SiO2 
 PCOD9350343
Probable space group: C M M 2
;
_chemical_formula_sum "Si O2"
_cell_formula_units_Z 56
_cell_length_a 13.881130
_cell_length_b 23.383488
_cell_length_c 9.874208
_cell_angle_alpha 90.000000
_cell_angle_beta 90.000000
_cell_angle_gamma 90.000000
_cell_volume 3205.061639
_symmetry_space_group_name_H-M "C M M 2"
_symmetry_group_IT_number 35
_symmetry_cell_setting 'orthorhombic'
loop_
_space_group_symop_operation_xyz
x,y,z
-x,-y,z
-x,y,z
x,-y,z
1/2+x,1/2+y,z
1/2-x,1/2-y,z
1/2-x,1/2+y,z
1/2+x,1/2-y,z
loop_
_atom_site_type_symbol
_atom_site_label
_atom_site_fract_x
_atom_site_fract_y
_atom_site_fract_z
Si Si1 0.887482 0.363628 0.127940
Si Si2 0.888342 0.784860 0.768303
Si Si3 0.389047 0.223525 0.344932
Si Si4 0.303251 0.161206 0.837605
Si Si5 0.112162 0.839176 0.467801
Si Si6 0.798787 0.390883 0.399385
Si Si7 0.887536 0.564895 0.655201
O O1 0.883494 0.299553 0.192196
O O2 0.827474 0.398419 0.241960
O O3 0.000000 0.380988 0.128388
O O4 0.845150 0.360490 0.979689
O O5 0.808445 0.820953 0.849275
O O6 0.858212 0.718528 0.785895
O O7 0.878224 0.808506 0.614276
O O8 0.000000 0.791845 0.807923
O O9 0.500000 0.220231 0.390023
O O10 0.360554 0.288464 0.362991
O O11 0.333843 0.174872 0.428392
O O12 0.322138 0.110635 0.731972
O O13 0.186936 0.889759 0.439049
O O14 0.000000 0.855007 0.451434
O O15 0.872435 0.500000 0.702645
O O16 0.859897 0.430404 0.497576
O O17 0.000000 0.579524 0.674402
#
# Coordination Sequence:
#
# PCOD9350343 Si02
#       7
#     8   8   8   8   8   8   8
#     4   9  19  32  50  75 109 144 174 213 265 324
#     4  10  21  33  52  80 112 146 178 218 265 320
#     4   8  16  27  46  71 101 136 165 202 253 312
#     4  11  21  35  54  78 110 148 176 218 268 317
#     4  10  18  29  47  75 107 136 174 218 258 306
#     4  10  18  33  52  71 100 138 175 214 262 311
#     4  11  22  36  57  81 103 133 181 232 271 317
#
# _framework density 17.472363000000001
#
# number of rings (size 3 to 8) (size 9 to 14) (size 15 to 20)
#    0.857    1.286    1.429    3.429    2.000    3.429 
#    0.000    2.857    0.000    4.286    0.000    0.000 
#    0.000    2.286    0.000    0.000    0.000    0.000 
#
# Total GULP energy -155875.026573 kJ/mol
# GULP energy per Si atom -5566.965235 kJ/mol
# Density = 1.743260 g / cm^3
# Si number density = 17.472363 Si / 1000 Ang^3
#
#
#
# Elastic Constant Matrix: (Units=GPa)
#
#
# Indices 1 2 3 4 5 6 
#
# 1 90.9317 29.9531 19.0925 0.0000 0.0000 0.0000
# 2 29.9531 36.9603 9.5151 0.0000 0.0000 0.0000
# 3 19.0925 9.5151 77.5108 0.0000 0.0000 0.0000
# 4 0.0000 0.0000 0.0000 3.6027 0.0000 0.0000
# 5 0.0000 0.0000 0.0000 0.0000 25.9028 0.0000
# 6 0.0000 0.0000 0.0000 0.0000 0.0000 11.9635
#
#
#
# Elastic Compliance Matrix: (Units=1/GPa)
#
#
# Indices 1 2 3 4 5 6 
#
# 1 0.015401 -0.011880 -0.002335 0.000000 0.000000 0.000000
# 2 -0.011880 0.037103 -0.001628 0.000000 0.000000 0.000000
# 3 -0.002335 -0.001628 0.013677 0.000000 0.000000 0.000000
# 4 0.000000 0.000000 0.000000 0.277570 0.000000 0.000000
# 5 0.000000 0.000000 0.000000 0.000000 0.038606 0.000000
# 6 0.000000 0.000000 0.000000 0.000000 0.000000 0.083588
#
#
# Mechanical properties :
#
#
# Convention : Reuss Voigt Hill
#
# Bulk Modulus (GPa) = 28.99114 35.83601 32.41358
# Shear Modulus (GPa) = 9.82070 18.08326 13.95198
#
# Velocity S-wave (km/s) = 2.37337 3.22058 2.82887
# Velocity P-wave (km/s) = 4.91316 5.86380 5.40940
#
# Compressibility (1/GPa) = 0.03449330
#
# Stress axis : x y z
#
# Youngs Moduli (GPa) = 64.93165 26.95208 73.11789
#
# Poissons Ratio (x) = 0.32019 0.17074
# Poissons Ratio (y) = 0.77138 0.11907
# Poissons Ratio (z) = 0.15163 0.04389
#
# Static dielectric constant tensor:
#      x y z
#    x 1.627220 0.000000 0.000000 
#    y 0.000000 1.587050 0.000000 
#    z 0.000000 0.000000 1.608790 
# 
# From -- ./inp_files/7661.got.cif
#   From: 2010.05.17/outbox.cif.g08.bks.cpg/sg35_4_cif.got.tgz:7661.got - 2010.06.03 17:29:28.
