data_PCOD9350510
_publ_section_title
;
Structure prediction by ZEFSAII (Michael W. Deem and Ramdas Pophale) SiO2 
 PCOD9350510
Probable space group: C M C 21
;
_chemical_formula_sum "Si O2"
_cell_formula_units_Z 64
_cell_length_a 7.796180
_cell_length_b 21.104251
_cell_length_c 20.294389
_cell_angle_alpha 90.000000
_cell_angle_beta 90.000000
_cell_angle_gamma 90.000000
_cell_volume 3339.087361
_symmetry_space_group_name_H-M "C M C 21"
_symmetry_group_IT_number 36
_symmetry_cell_setting 'orthorhombic'
loop_
_space_group_symop_operation_xyz
x,y,z
-x,-y,1/2+z
x,-y,1/2+z
-x,y,z
1/2+x,1/2+y,z
1/2-x,1/2-y,1/2+z
1/2+x,1/2-y,1/2+z
1/2-x,1/2+y,z
loop_
_atom_site_type_symbol
_atom_site_label
_atom_site_fract_x
_atom_site_fract_y
_atom_site_fract_z
Si Si1 0.790225 0.833531 0.970560
Si Si2 0.799177 0.300077 0.508799
Si Si3 0.790135 0.976165 0.341070
Si Si4 0.294266 0.582935 0.239766
Si Si5 0.297356 0.664171 0.861682
Si Si6 0.294256 0.525997 0.484146
Si Si7 0.206820 0.201434 0.321106
Si Si8 0.795656 0.581103 0.087984
O O1 0.743516 0.824179 0.893730
O O2 0.000000 0.832398 0.972736
O O3 0.731288 0.902205 0.994238
O O4 0.726657 0.771244 0.008912
O O5 0.786607 0.323202 0.432949
O O6 0.722886 0.354252 0.555310
O O7 0.000000 0.294377 0.525493
O O8 0.737957 0.902965 0.332696
O O9 0.733683 0.999245 0.413568
O O10 0.000000 0.977514 0.340165
O O11 0.730297 0.025419 0.285685
O O12 0.500000 0.583994 0.247673
O O13 0.230794 0.650567 0.267799
O O14 0.256438 0.573951 0.163404
O O15 0.500000 0.659040 0.874386
O O16 0.266961 0.726105 0.817357
O O17 0.500000 0.529638 0.478914
O O18 0.253878 0.477874 0.542334
O O19 0.000000 0.203184 0.319439
O O20 0.000000 0.585414 0.085512
#
# Coordination Sequence:
#
# PCOD9350510 Si02
#       8
#     8   8   8   8   8   8   8   8
#     4   8  14  28  54  79  96 124 171 219 252 293
#     4   9  18  33  51  73 103 138 173 210 258 313
#     4   9  17  31  54  82 104 130 177 227 257 299
#     4  10  20  37  58  76 100 142 187 221 256 312
#     4  10  18  29  51  81 108 129 163 217 266 306
#     4  10  17  32  57  80 102 133 178 223 259 307
#     4   9  17  32  53  77 104 134 171 213 260 314
#     4  11  23  36  50  76 113 144 172 216 272 326
#
# _framework density 19.166914999999999
#
# number of rings (size 3 to 8) (size 9 to 14) (size 15 to 20)
#    0.000    2.500    2.500    1.500    0.000    1.000 
#    0.000    5.625    0.000    6.000    0.000    0.000 
#    0.000    0.000    0.000    0.000    0.000    0.000 
#
# Total GULP energy -178446.704924 kJ/mol
# GULP energy per Si atom -5576.459529 kJ/mol
# Density = 1.912329 g / cm^3
# Si number density = 19.166915 Si / 1000 Ang^3
#
#
#
# Elastic Constant Matrix: (Units=GPa)
#
#
# Indices 1 2 3 4 5 6 
#
# 1 19.7279 10.8816 -6.5545 0.0000 0.0000 0.0000
# 2 10.8816 219.2462 101.1510 0.0000 0.0000 0.0000
# 3 -6.5545 101.1510 112.4074 0.0000 0.0000 0.0000
# 4 0.0000 0.0000 0.0000 25.2838 0.0000 0.0000
# 5 0.0000 0.0000 0.0000 0.0000 13.7363 0.0000
# 6 0.0000 0.0000 0.0000 0.0000 0.0000 19.1840
#
#
#
# Elastic Compliance Matrix: (Units=1/GPa)
#
#
# Indices 1 2 3 4 5 6 
#
# 1 0.058310 -0.007631 0.010267 0.000000 0.000000 0.000000
# 2 -0.007631 0.008797 -0.008361 0.000000 0.000000 0.000000
# 3 0.010267 -0.008361 0.017019 0.000000 0.000000 0.000000
# 4 0.000000 0.000000 0.000000 0.039551 0.000000 0.000000
# 5 0.000000 0.000000 0.000000 0.000000 0.072800 0.000000
# 6 0.000000 0.000000 0.000000 0.000000 0.000000 0.052127
#
#
# Mechanical properties :
#
#
# Convention : Reuss Voigt Hill
#
# Bulk Modulus (GPa) = 13.75988 62.48196 38.12092
# Shear Modulus (GPa) = 17.58832 28.03437 22.81135
#
# Velocity S-wave (km/s) = 3.03254 3.82860 3.45359
# Velocity P-wave (km/s) = 4.41093 7.22592 5.98624
#
# Compressibility (1/GPa) = 0.07267505
#
# Stress axis : x y z
#
# Youngs Moduli (GPa) = 17.14984 113.67014 58.75814
#
# Poissons Ratio (x) = 0.86737 -0.60324
# Poissons Ratio (y) = 0.13086 0.49130
# Poissons Ratio (z) = -0.17607 0.95044
#
# Static dielectric constant tensor:
#      x y z
#    x 1.715570 0.000000 0.000000 
#    y 0.000000 1.717650 0.000000 
#    z 0.000000 0.000000 1.660590 
# 
# From -- ./inp_files/13952.got.cif
#   From: 2010.05.17/outbox.cif.g08.bks.cpg/sg36_7_cif.got.tgz:13952.got - 2010.06.03 17:41:39.
