data_PCOD9350249
_publ_section_title
;
Structure prediction by ZEFSAII (Michael W. Deem and Ramdas Pophale) SiO2 
 PCOD9350249
Probable space group: C M M 2
;
_chemical_formula_sum "Si O2"
_cell_formula_units_Z 56
_cell_length_a 8.697708
_cell_length_b 18.464476
_cell_length_c 18.852971
_cell_angle_alpha 90.000000
_cell_angle_beta 90.000000
_cell_angle_gamma 90.000000
_cell_volume 3027.761137
_symmetry_space_group_name_H-M "C M M 2"
_symmetry_group_IT_number 35
_symmetry_cell_setting 'orthorhombic'
loop_
_space_group_symop_operation_xyz
x,y,z
-x,-y,z
-x,y,z
x,-y,z
1/2+x,1/2+y,z
1/2-x,1/2-y,z
1/2-x,1/2+y,z
1/2+x,1/2-y,z
loop_
_atom_site_type_symbol
_atom_site_label
_atom_site_fract_x
_atom_site_fract_y
_atom_site_fract_z
Si Si1 0.816534 0.832268 0.314510
Si Si2 0.815868 0.331842 0.170408
Si Si3 0.814352 0.083630 0.879958
Si Si4 0.683974 0.831412 0.013322
Si Si5 0.815358 0.668656 0.461265
Si Si6 0.315635 0.669317 0.738593
Si Si7 0.814649 0.416017 0.604388
O O1 0.750000 0.750000 0.314537
O O2 0.756465 0.866385 0.240989
O O3 0.752976 0.863335 0.388235
O O4 0.000000 0.829785 0.314870
O O5 0.750000 0.250000 0.167807
O O6 0.000000 0.329253 0.178413
O O7 0.778215 0.361754 0.092211
O O8 0.748980 0.120317 0.950366
O O9 0.765757 0.127783 0.810098
O O10 0.000000 0.085976 0.883024
O O11 0.766699 0.000000 0.874352
O O12 0.500000 0.827056 0.008450
O O13 0.750000 0.750000 0.007277
O O14 0.750000 0.750000 0.470274
O O15 0.774010 0.621840 0.529993
O O16 0.000000 0.672623 0.455034
O O17 0.500000 0.672219 0.737886
O O18 0.250000 0.750000 0.738148
O O19 0.258378 0.626339 0.669859
O O20 0.768421 0.500000 0.605038
O O21 0.000000 0.412465 0.610822
#
# Coordination Sequence:
#
# PCOD9350249 Si02
#       7
#     8   8   8   8   8   8   8
#     4  10  17  26  44  71 102 135 173 216 264 314
#     4   9  16  27  44  70 103 135 171 216 265 313
#     4  10  22  39  57  79 109 143 178 218 266 318
#     4  10  20  33  53  80 108 141 181 224 269 318
#     4  10  19  32  51  75 105 138 175 219 265 314
#     4  11  23  39  60  85 111 140 176 218 265 315
#     4  10  22  39  58  81 109 142 179 219 266 318
#
# _framework density 18.495514
#
# number of rings (size 3 to 8) (size 9 to 14) (size 15 to 20)
#    0.000    2.000    0.000    6.000    0.000    7.429 
#    0.000    0.000    0.000    0.857    0.000    2.000 
#    0.000    0.000    0.000    0.000    0.000    0.000 
#
# Total GULP energy -156273.586727 kJ/mol
# GULP energy per Si atom -5581.199526 kJ/mol
# Density = 1.845342 g / cm^3
# Si number density = 18.495514 Si / 1000 Ang^3
#
#
#
# Elastic Constant Matrix: (Units=GPa)
#
#
# Indices 1 2 3 4 5 6 
#
# 1 66.7623 35.4196 70.0973 0.0000 0.0000 0.0000
# 2 35.4196 103.0766 90.9079 0.0000 0.0000 0.0000
# 3 70.0973 90.9079 230.6720 0.0000 0.0000 0.0000
# 4 0.0000 0.0000 0.0000 -10.6479 0.0000 0.0000
# 5 0.0000 0.0000 0.0000 0.0000 37.0540 0.0000
# 6 0.0000 0.0000 0.0000 0.0000 0.0000 11.7408
#
#
#
# Elastic Compliance Matrix: (Units=1/GPa)
#
#
# Indices 1 2 3 4 5 6 
#
# 1 0.022443 -0.002601 -0.005795 0.000000 0.000000 0.000000
# 2 -0.002601 0.015171 -0.005189 0.000000 0.000000 0.000000
# 3 -0.005795 -0.005189 0.008141 0.000000 0.000000 0.000000
# 4 0.000000 0.000000 0.000000 -0.093915 0.000000 0.000000
# 5 0.000000 0.000000 0.000000 0.000000 0.026988 0.000000
# 6 0.000000 0.000000 0.000000 0.000000 0.000000 0.085173
#
#
# Mechanical properties :
#
#
# Convention : Reuss Voigt Hill
#
# Bulk Modulus (GPa) = 53.80408 88.15118 70.97763
# Shear Modulus (GPa) = 51.35277 21.23511 36.29394
#
# Velocity S-wave (km/s) = 5.27497 3.39207 4.43460
# Velocity P-wave (km/s) = 8.13965 7.94392 8.04238
#
# Compressibility (1/GPa) = 0.01858595
#
# Stress axis : x y z
#
# Youngs Moduli (GPa) = 44.55757 65.91346 122.83543
#
# Poissons Ratio (x) = 0.17145 0.71182
# Poissons Ratio (y) = 0.11590 0.63735
# Poissons Ratio (z) = 0.25821 0.34200
#
# Static dielectric constant tensor:
#      x y z
#    x 1.622520 0.000000 0.000000 
#    y 0.000000 1.601900 0.000000 
#    z 0.000000 0.000000 1.672680 
# 
# From -- ./inp_files/18246.got.cif
#   From: 2010.05.17/outbox.cif.g08.bks.cpg/sg35_10_cif.got.tgz:18246.got - 2010.06.03 17:29:28.
