data_PCOD9350465
_publ_section_title
;
Structure prediction by ZEFSAII (Michael W. Deem and Ramdas Pophale) SiO2 
 PCOD9350465
Probable space group: C M C 21
;
_chemical_formula_sum "Si O2"
_cell_formula_units_Z 40
_cell_length_a 9.751226
_cell_length_b 27.760896
_cell_length_c 8.997296
_cell_angle_alpha 90.000000
_cell_angle_beta 90.000000
_cell_angle_gamma 90.000000
_cell_volume 2435.592957
_symmetry_space_group_name_H-M "C M C 21"
_symmetry_group_IT_number 36
_symmetry_cell_setting 'orthorhombic'
loop_
_space_group_symop_operation_xyz
x,y,z
-x,-y,1/2+z
x,-y,1/2+z
-x,y,z
1/2+x,1/2+y,z
1/2-x,1/2-y,1/2+z
1/2+x,1/2-y,1/2+z
1/2-x,1/2+y,z
loop_
_atom_site_type_symbol
_atom_site_label
_atom_site_fract_x
_atom_site_fract_y
_atom_site_fract_z
Si Si1 0.343560 0.471824 0.604960
Si Si2 0.500000 0.312290 0.991801
Si Si3 0.500000 0.393279 0.748134
Si Si4 0.000000 0.730769 0.740579
Si Si5 0.831008 0.936854 0.285942
Si Si6 0.279698 0.672265 0.741199
Si Si7 0.000000 0.188362 0.994670
O O1 0.500000 0.486215 0.561114
O O2 0.370948 0.429339 0.725196
O O3 0.285562 0.450430 0.453466
O O4 0.285739 0.519373 0.680028
O O5 0.500000 0.361554 0.894994
O O6 0.500000 0.268074 0.878052
O O7 0.631526 0.311619 0.098830
O O8 0.500000 0.357003 0.607578
O O9 0.134910 0.698208 0.744628
O O10 0.000000 0.763946 0.593538
O O11 0.772839 0.885583 0.239001
O O12 0.000000 0.932510 0.283398
O O13 0.368803 0.685122 0.887406
#
# Coordination Sequence:
#
# PCOD9350465 Si02
#       7
#     8   4   4   4   8   8   4
#     4   8  16  24  44  79 106 129 160 215 260 292
#     4  10  22  33  56  81  95 140 175 220 259 314
#     4   9  16  28  50  83 106 123 172 221 264 294
#     4  11  24  36  52  78 103 142 175 219 260 308
#     4  10  16  28  49  76 106 138 162 214 259 299
#     4  11  20  36  55  75 108 135 177 214 263 307
#     4  10  18  37  56  72 106 133 172 218 263 302
#
# _framework density 16.423105
#
# number of rings (size 3 to 8) (size 9 to 14) (size 15 to 20)
#    0.600    1.600    4.000    1.200    2.800    0.000 
#    0.000    0.000    0.000    1.200    0.000    0.000 
#    0.000    0.000    0.000    0.000    0.000    0.000 
#
# Total GULP energy -111370.086385 kJ/mol
# GULP energy per Si atom -5568.504319 kJ/mol
# Density = 1.638573 g / cm^3
# Si number density = 16.423105 Si / 1000 Ang^3
#
#
#
# Elastic Constant Matrix: (Units=GPa)
#
#
# Indices 1 2 3 4 5 6 
#
# 1 71.7241 59.2613 36.9848 0.0000 0.0000 0.0000
# 2 59.2613 142.9545 51.6112 0.0000 0.0000 0.0000
# 3 36.9848 51.6112 79.5926 0.0000 0.0000 0.0000
# 4 0.0000 0.0000 0.0000 26.5975 0.0000 0.0000
# 5 0.0000 0.0000 0.0000 0.0000 3.1899 0.0000
# 6 0.0000 0.0000 0.0000 0.0000 0.0000 -1.3856
#
#
#
# Elastic Compliance Matrix: (Units=1/GPa)
#
#
# Indices 1 2 3 4 5 6 
#
# 1 0.023164 -0.007464 -0.005924 0.000000 0.000000 0.000000
# 2 -0.007464 0.011538 -0.004014 0.000000 0.000000 0.000000
# 3 -0.005924 -0.004014 0.017919 0.000000 0.000000 0.000000
# 4 0.000000 0.000000 0.000000 0.037598 0.000000 0.000000
# 5 0.000000 0.000000 0.000000 0.000000 0.313493 0.000000
# 6 0.000000 0.000000 0.000000 0.000000 0.000000 -0.721720
#
#
# Mechanical properties :
#
#
# Convention : Reuss Voigt Hill
#
# Bulk Modulus (GPa) = 56.12044 65.55398 60.83721
# Shear Modulus (GPa) = -18.03327 15.44128 -1.29599
#
# Velocity S-wave (km/s) = -3.31727 3.06962 -0.88929
# Velocity P-wave (km/s) = 4.42419 7.25023 6.00580
#
# Compressibility (1/GPa) = 0.01781882
#
# Stress axis : x y z
#
# Youngs Moduli (GPa) = 43.17066 86.66695 55.80568
#
# Poissons Ratio (x) = 0.64687 0.33058
# Poissons Ratio (y) = 0.32222 0.22399
# Poissons Ratio (z) = 0.25574 0.34786
#
# Static dielectric constant tensor:
#      x y z
#    x 1.516600 0.000000 0.000000 
#    y 0.000000 1.562400 0.000000 
#    z 0.000000 0.000000 1.572630 
# 
# From -- ./inp_files/2575.got.cif
#   From: 2010.05.17/outbox.cif.g08.bks.cpg/sg36_2_cif.got.tgz:2575.got - 2010.06.03 17:41:39.
