data_PCOD9350772
_publ_section_title
;
Structure prediction by ZEFSAII (Michael W. Deem and Ramdas Pophale) SiO2 
 PCOD9350772
Probable space group: C M C 21
;
_chemical_formula_sum "Si O2"
_cell_formula_units_Z 40
_cell_length_a 9.741554
_cell_length_b 23.901645
_cell_length_c 7.277784
_cell_angle_alpha 90.000000
_cell_angle_beta 90.000000
_cell_angle_gamma 90.000000
_cell_volume 1694.553153
_symmetry_space_group_name_H-M "C M C 21"
_symmetry_group_IT_number 36
_symmetry_cell_setting 'orthorhombic'
loop_
_space_group_symop_operation_xyz
x,y,z
-x,-y,1/2+z
x,-y,1/2+z
-x,y,z
1/2+x,1/2+y,z
1/2-x,1/2-y,1/2+z
1/2+x,1/2-y,1/2+z
1/2-x,1/2+y,z
loop_
_atom_site_type_symbol
_atom_site_label
_atom_site_fract_x
_atom_site_fract_y
_atom_site_fract_z
Si Si1 0.731462 0.070023 0.613210
Si Si2 0.654249 0.763828 0.260144
Si Si3 0.848972 0.672460 0.372546
Si Si4 0.344738 0.639368 0.917368
Si Si5 0.653833 0.949745 0.509295
O O1 0.678577 0.111208 0.455993
O O2 0.850706 0.102123 0.726296
O O3 0.636337 0.061661 0.791982
O O4 0.735994 0.007644 0.533881
O O5 0.500000 0.760728 0.338153
O O6 0.728483 0.704024 0.265082
O O7 0.643785 0.789743 0.057877
O O8 0.751668 0.808160 0.362880
O O9 0.000000 0.674556 0.282000
O O10 0.500000 0.652731 0.973397
O O11 0.257444 0.600565 0.057725
O O12 0.500000 0.950883 0.590846
#
# Coordination Sequence:
#
# PCOD9350772 Si02
#       5
#     8   8   8   8   8
#     4   9  21  35  60  84 115 151 191 231 284 339
#     4  10  21  38  62  86 113 152 196 238 290 352
#     4  10  20  38  58  83 119 153 191 242 290 341
#     4   9  20  36  57  82 114 149 185 234 287 333
#     4  10  18  35  59  83 115 153 193 235 279 337
#
# _framework density 23.605042000000001
#
# number of rings (size 3 to 8) (size 9 to 14) (size 15 to 20)
#    1.200    1.200    0.000    3.000    0.000    4.800 
#    3.600    0.000    0.000    0.000    0.000    0.000 
#    0.000    0.000    0.000    0.000    0.000    0.000 
#
# Total GULP energy -111422.059917 kJ/mol
# GULP energy per Si atom -5571.102996 kJ/mol
# Density = 2.355132 g / cm^3
# Si number density = 23.605042 Si / 1000 Ang^3
#
#
#
# Elastic Constant Matrix: (Units=GPa)
#
#
# Indices 1 2 3 4 5 6 
#
# 1 150.6136 57.7291 13.2725 0.0000 0.0000 0.0000
# 2 57.7291 192.2371 15.2447 0.0000 0.0000 0.0000
# 3 13.2725 15.2447 63.9146 0.0000 0.0000 0.0000
# 4 0.0000 0.0000 0.0000 48.1877 0.0000 0.0000
# 5 0.0000 0.0000 0.0000 0.0000 20.7838 0.0000
# 6 0.0000 0.0000 0.0000 0.0000 0.0000 48.4558
#
#
#
# Elastic Compliance Matrix: (Units=1/GPa)
#
#
# Indices 1 2 3 4 5 6 
#
# 1 0.007572 -0.002191 -0.001050 0.000000 0.000000 0.000000
# 2 -0.002191 0.005936 -0.000961 0.000000 0.000000 0.000000
# 3 -0.001050 -0.000961 0.016093 0.000000 0.000000 0.000000
# 4 0.000000 0.000000 0.000000 0.020752 0.000000 0.000000
# 5 0.000000 0.000000 0.000000 0.000000 0.048114 0.000000
# 6 0.000000 0.000000 0.000000 0.000000 0.000000 0.020637
#
#
# Mechanical properties :
#
#
# Convention : Reuss Voigt Hill
#
# Bulk Modulus (GPa) = 47.17415 64.36198 55.76806
# Shear Modulus (GPa) = 37.15447 44.85339 41.00393
#
# Velocity S-wave (km/s) = 3.97168 4.36381 4.17235
# Velocity P-wave (km/s) = 6.40784 7.26057 6.84749
#
# Compressibility (1/GPa) = 0.02119805
#
# Stress axis : x y z
#
# Youngs Moduli (GPa) = 132.07192 168.46567 62.13846
#
# Poissons Ratio (x) = 0.36903 0.06524
# Poissons Ratio (y) = 0.28931 0.05971
# Poissons Ratio (z) = 0.13865 0.16189
#
# Static dielectric constant tensor:
#      x y z
#    x 1.865590 0.000000 0.000000 
#    y 0.000000 1.919180 0.000000 
#    z 0.000000 0.000000 1.993590 
# 
# From -- ./inp_files/2531.got.cif
#   From: 2010.05.17/outbox.cif.g08.bks.cpg/sg36_2_cif.got.tgz:2531.got - 2010.06.03 17:41:39.
