data_PCOD9350383
_publ_section_title
;
Structure prediction by ZEFSAII (Michael W. Deem and Ramdas Pophale) SiO2 
 PCOD9350383
Probable space group: C M M 2
;
_chemical_formula_sum "Si O2"
_cell_formula_units_Z 64
_cell_length_a 7.877054
_cell_length_b 30.486630
_cell_length_c 12.665093
_cell_angle_alpha 90.000000
_cell_angle_beta 90.000000
_cell_angle_gamma 90.000000
_cell_volume 3041.456615
_symmetry_space_group_name_H-M "C M M 2"
_symmetry_group_IT_number 35
_symmetry_cell_setting 'orthorhombic'
loop_
_space_group_symop_operation_xyz
x,y,z
-x,-y,z
-x,y,z
x,-y,z
1/2+x,1/2+y,z
1/2-x,1/2-y,z
1/2-x,1/2+y,z
1/2+x,1/2-y,z
loop_
_atom_site_type_symbol
_atom_site_label
_atom_site_fract_x
_atom_site_fract_y
_atom_site_fract_z
Si Si1 0.295457 0.797945 0.240110
Si Si2 0.697972 0.815059 0.475240
Si Si3 0.802748 0.415455 0.543756
Si Si4 0.692539 0.393186 0.773374
Si Si5 0.801395 0.549893 0.963796
Si Si6 0.206956 0.547451 0.333152
Si Si7 0.291908 0.888092 0.150585
Si Si8 0.297514 0.797214 0.706837
O O1 0.500000 0.801711 0.246809
O O2 0.250000 0.750000 0.199899
O O3 0.228621 0.802495 0.361405
O O4 0.235688 0.838048 0.167053
O O5 0.500000 0.800891 0.473855
O O6 0.699351 0.867479 0.489299
O O7 0.775069 0.798530 0.586131
O O8 0.711276 0.411567 0.654748
O O9 0.733471 0.446802 0.453068
O O10 0.000000 0.426137 0.566522
O O11 0.500000 0.395251 0.808468
O O12 0.791441 0.424337 0.853404
O O13 0.743737 0.341828 0.765609
O O14 0.730690 0.500000 0.960519
O O15 0.000000 0.545142 0.990614
O O16 0.729639 0.583158 0.052085
O O17 0.254531 0.500000 0.289773
O O18 0.259751 0.585830 0.255828
O O19 0.000000 0.549398 0.337991
O O20 0.500000 0.887306 0.146089
O O21 0.500000 0.800047 0.698929
O O22 0.250000 0.750000 0.753987
#
# Coordination Sequence:
#
# PCOD9350383 Si02
#       8
#     8   8   8   8   8   8   8   8
#     4  10  18  30  49  76 110 147 181 217 264 320
#     4   8  14  26  46  72 108 150 183 216 260 315
#     4   9  16  30  51  78 113 148 179 222 277 330
#     4  11  23  38  56  80 112 151 193 237 285 336
#     4  10  21  39  63  86 105 135 186 243 295 347
#     4   9  15  25  49  84 113 137 170 216 277 345
#     4   9  17  32  55  81 111 140 175 228 284 335
#     4  10  19  33  55  84 118 154 192 233 279 332
#
# _framework density 21.042546999999999
#
# number of rings (size 3 to 8) (size 9 to 14) (size 15 to 20)
#    0.000    2.500    1.250    3.000    0.000    2.250 
#    0.000    5.000    0.000    2.250    0.000    0.000 
#    0.000    0.000    0.000    0.000    0.000    0.000 
#
# Total GULP energy -178411.841890 kJ/mol
# GULP energy per Si atom -5575.370059 kJ/mol
# Density = 2.099465 g / cm^3
# Si number density = 21.042547 Si / 1000 Ang^3
#
#
#
# Elastic Constant Matrix: (Units=GPa)
#
#
# Indices 1 2 3 4 5 6 
#
# 1 27.3663 1.7115 -4.0555 0.0000 0.0000 0.0000
# 2 1.7115 165.0177 67.3339 0.0000 0.0000 0.0000
# 3 -4.0555 67.3339 85.4976 0.0000 0.0000 0.0000
# 4 0.0000 0.0000 0.0000 13.7004 0.0000 0.0000
# 5 0.0000 0.0000 0.0000 0.0000 -11.8001 0.0000
# 6 0.0000 0.0000 0.0000 0.0000 0.0000 16.3909
#
#
#
# Elastic Compliance Matrix: (Units=1/GPa)
#
#
# Indices 1 2 3 4 5 6 
#
# 1 0.037093 -0.001625 0.003039 0.000000 0.000000 0.000000
# 2 -0.001625 0.009001 -0.007166 0.000000 0.000000 0.000000
# 3 0.003039 -0.007166 0.017484 0.000000 0.000000 0.000000
# 4 0.000000 0.000000 0.000000 0.072991 0.000000 0.000000
# 5 0.000000 0.000000 0.000000 0.000000 -0.084745 0.000000
# 6 0.000000 0.000000 0.000000 0.000000 0.000000 0.061010
#
#
# Mechanical properties :
#
#
# Convention : Reuss Voigt Hill
#
# Bulk Modulus (GPa) = 19.20303 45.31792 32.26048
# Shear Modulus (GPa) = 35.28743 17.85101 26.56922
#
# Velocity S-wave (km/s) = 4.09951 2.91577 3.55722
# Velocity P-wave (km/s) = 5.61726 5.73748 5.67769
#
# Compressibility (1/GPa) = 0.05207512
#
# Stress axis : x y z
#
# Youngs Moduli (GPa) = 26.95905 111.10315 57.19632
#
# Poissons Ratio (x) = 0.18052 -0.17383
# Poissons Ratio (y) = 0.04380 0.40984
# Poissons Ratio (z) = -0.08193 0.79612
#
# Static dielectric constant tensor:
#      x y z
#    x 1.779780 0.000000 0.000000 
#    y 0.000000 1.810490 0.000000 
#    z 0.000000 0.000000 1.757570 
# 
# From -- ./inp_files/12032.got.cif
#   From: 2010.05.17/outbox.cif.g08.bks.cpg/sg35_7_cif.got.tgz:12032.got - 2010.06.03 17:29:28.
