data_PCOD9350596
_publ_section_title
;
Structure prediction by ZEFSAII (Michael W. Deem and Ramdas Pophale) SiO2 
 PCOD9350596
Probable space group: C M C 21
;
_chemical_formula_sum "Si O2"
_cell_formula_units_Z 48
_cell_length_a 16.450775
_cell_length_b 10.688773
_cell_length_c 11.264669
_cell_angle_alpha 90.000000
_cell_angle_beta 90.000000
_cell_angle_gamma 90.000000
_cell_volume 1980.763622
_symmetry_space_group_name_H-M "C M C 21"
_symmetry_group_IT_number 36
_symmetry_cell_setting 'orthorhombic'
loop_
_space_group_symop_operation_xyz
x,y,z
-x,-y,1/2+z
x,-y,1/2+z
-x,y,z
1/2+x,1/2+y,z
1/2-x,1/2-y,1/2+z
1/2+x,1/2-y,1/2+z
1/2-x,1/2+y,z
loop_
_atom_site_type_symbol
_atom_site_label
_atom_site_fract_x
_atom_site_fract_y
_atom_site_fract_z
Si Si1 0.500000 0.482560 0.800621
Si Si2 0.000000 0.563476 0.417339
Si Si3 0.500000 0.218741 0.664841
Si Si4 0.000000 0.744973 0.184168
Si Si5 0.823949 0.489398 0.903850
Si Si6 0.834946 0.711010 0.611590
Si Si7 0.351893 0.399417 0.421453
Si Si8 0.165924 0.704095 0.213903
O O1 0.500000 0.356480 0.724634
O O2 0.500000 0.607279 0.716984
O O3 0.581754 0.497739 0.882043
O O4 0.000000 0.664248 0.526253
O O5 0.000000 0.646866 0.296985
O O6 0.081116 0.481517 0.420644
O O7 0.409076 0.169655 0.695647
O O8 0.087987 0.712856 0.127977
O O9 0.744026 0.571093 0.920614
O O10 0.817290 0.429375 0.772564
O O11 0.815138 0.385012 0.007147
O O12 0.868825 0.837938 0.548664
O O13 0.750138 0.743207 0.669370
O O14 0.361105 0.292022 0.323027
#
# Coordination Sequence:
#
# PCOD9350596 Si02
#       8
#     4   4   4   4   8   8   8   8
#     4  10  18  30  52  79 104 130 168 220 268 314
#     4   8  16  34  52  69 101 140 171 206 258 314
#     4  10  18  30  51  75  99 132 169 209 261 313
#     4   8  16  32  51  71 100 134 168 211 263 311
#     4   9  18  33  53  73  99 136 172 210 259 315
#     4  10  20  34  52  75 106 138 170 216 268 316
#     4  10  20  34  52  77 105 137 176 215 266 321
#     4   9  18  34  52  73 101 134 173 215 260 314
#
# _framework density 24.233077000000002
#
# number of rings (size 3 to 8) (size 9 to 14) (size 15 to 20)
#    0.000    2.667    0.000    4.500    0.000    4.000 
#    0.000    2.500    0.000   10.000    0.000    0.000 
#    0.000    0.000    0.000    0.000    0.000    0.000 
#
# Total GULP energy -133692.939306 kJ/mol
# GULP energy per Si atom -5570.539138 kJ/mol
# Density = 2.417792 g / cm^3
# Si number density = 24.233077 Si / 1000 Ang^3
#
#
#
# Elastic Constant Matrix: (Units=GPa)
#
#
# Indices 1 2 3 4 5 6 
#
# 1 209.7584 8.6162 23.6655 0.0000 0.0000 0.0000
# 2 8.6162 47.6182 17.2867 0.0000 0.0000 0.0000
# 3 23.6655 17.2867 32.9349 0.0000 0.0000 0.0000
# 4 0.0000 0.0000 0.0000 39.8773 0.0000 0.0000
# 5 0.0000 0.0000 0.0000 0.0000 29.6114 0.0000
# 6 0.0000 0.0000 0.0000 0.0000 0.0000 40.0479
#
#
#
# Elastic Compliance Matrix: (Units=1/GPa)
#
#
# Indices 1 2 3 4 5 6 
#
# 1 0.005198 0.000513 -0.004004 0.000000 0.000000 0.000000
# 2 0.000513 0.025994 -0.014013 0.000000 0.000000 0.000000
# 3 -0.004004 -0.014013 0.040595 0.000000 0.000000 0.000000
# 4 0.000000 0.000000 0.000000 0.025077 0.000000 0.000000
# 5 0.000000 0.000000 0.000000 0.000000 0.033771 0.000000
# 6 0.000000 0.000000 0.000000 0.000000 0.000000 0.024970
#
#
# Mechanical properties :
#
#
# Convention : Reuss Voigt Hill
#
# Bulk Modulus (GPa) = 27.18869 43.27206 35.23037
# Shear Modulus (GPa) = 24.64589 37.95684 31.30137
#
# Velocity S-wave (km/s) = 3.19256 3.96197 3.59789
# Velocity P-wave (km/s) = 4.98336 6.23097 5.64176
#
# Compressibility (1/GPa) = 0.03677999
#
# Stress axis : x y z
#
# Youngs Moduli (GPa) = 192.37775 38.46969 24.63341
#
# Poissons Ratio (x) = -0.01974 0.09864
# Poissons Ratio (y) = -0.09872 0.34518
# Poissons Ratio (z) = 0.77037 0.53906
#
# Static dielectric constant tensor:
#      x y z
#    x 2.037280 0.000000 0.000000 
#    y 0.000000 1.926720 0.000000 
#    z 0.000000 0.000000 2.020820 
# 
# From -- ./inp_files/8907.got.cif
#   From: 2010.05.17/outbox.cif.g08.bks.cpg/sg36_5_cif.got.tgz:8907.got - 2010.06.03 17:41:39.
