data_PCOD9350653
_publ_section_title
;
Structure prediction by ZEFSAII (Michael W. Deem and Ramdas Pophale) SiO2 
 PCOD9350653
Probable space group: C M C 21
;
_chemical_formula_sum "Si O2"
_cell_formula_units_Z 56
_cell_length_a 11.472346
_cell_length_b 27.900371
_cell_length_c 8.017835
_cell_angle_alpha 90.000000
_cell_angle_beta 90.000000
_cell_angle_gamma 90.000000
_cell_volume 2566.370352
_symmetry_space_group_name_H-M "C M C 21"
_symmetry_group_IT_number 36
_symmetry_cell_setting 'orthorhombic'
loop_
_space_group_symop_operation_xyz
x,y,z
-x,-y,1/2+z
x,-y,1/2+z
-x,y,z
1/2+x,1/2+y,z
1/2-x,1/2-y,1/2+z
1/2+x,1/2-y,1/2+z
1/2-x,1/2+y,z
loop_
_atom_site_type_symbol
_atom_site_label
_atom_site_fract_x
_atom_site_fract_y
_atom_site_fract_z
Si Si1 0.861917 0.197652 0.140510
Si Si2 0.742460 0.076057 0.840013
Si Si3 0.137741 0.252109 0.499723
Si Si4 0.637113 0.606735 0.346373
Si Si5 0.000000 0.427093 0.255769
Si Si6 0.761210 0.474480 0.695261
Si Si7 0.500000 0.968531 0.880275
Si Si8 0.637863 0.654686 0.675426
O O1 0.861495 0.228182 0.315066
O O2 0.831849 0.143924 0.201230
O O3 0.000000 0.200095 0.079466
O O4 0.752694 0.214751 0.026560
O O5 0.617237 0.099378 0.800601
O O6 0.746460 0.047041 0.011746
O O7 0.828416 0.120381 0.826858
O O8 0.752706 0.031621 0.708350
O O9 0.162209 0.209866 0.635739
O O10 0.000000 0.268777 0.524572
O O11 0.500000 0.611600 0.364310
O O12 0.691512 0.625873 0.517320
O O13 0.666058 0.552777 0.303475
O O14 0.000000 0.473523 0.378471
O O15 0.000000 0.446665 0.065325
O O16 0.883495 0.457875 0.777541
O O17 0.500000 0.653026 0.670102
#
# Coordination Sequence:
#
# PCOD9350653 Si02
#       8
#     8   8   8   8   4   8   4   8
#     4   9  19  37  60  85 114 148 186 231 283 337
#     4  11  21  34  53  78 108 142 182 224 271 323
#     4   9  19  37  60  85 114 148 186 231 283 337
#     4   9  19  37  57  77 106 144 184 225 272 322
#     4  10  18  32  52  72 100 138 178 220 268 316
#     4  11  21  34  53  78 108 142 182 224 271 323
#     4  10  18  32  52  72 100 138 178 220 268 316
#     4   9  19  37  57  77 106 144 184 225 272 322
#
# _framework density 21.820699999999999
#
# number of rings (size 3 to 8) (size 9 to 14) (size 15 to 20)
#    0.000    2.286    0.000    7.286    0.000    2.857 
#    2.571    2.857    0.000    0.000    0.000    0.000 
#    0.000    0.000    0.000    0.000    0.000    0.000 
#
# Total GULP energy -155962.479494 kJ/mol
# GULP energy per Si atom -5570.088553 kJ/mol
# Density = 2.177104 g / cm^3
# Si number density = 21.820700 Si / 1000 Ang^3
#
#
#
# Elastic Constant Matrix: (Units=GPa)
#
#
# Indices 1 2 3 4 5 6 
#
# 1 37.7528 28.0112 4.0227 0.0000 0.0000 0.0000
# 2 28.0112 42.4371 0.5012 0.0000 0.0000 0.0000
# 3 4.0227 0.5012 71.6954 0.0000 0.0000 0.0000
# 4 0.0000 0.0000 0.0000 24.0285 0.0000 0.0000
# 5 0.0000 0.0000 0.0000 0.0000 15.8732 0.0000
# 6 0.0000 0.0000 0.0000 0.0000 0.0000 16.5446
#
#
#
# Elastic Compliance Matrix: (Units=1/GPa)
#
#
# Indices 1 2 3 4 5 6 
#
# 1 0.052429 -0.034574 -0.002700 0.000000 0.000000 0.000000
# 2 -0.034574 0.046367 0.001616 0.000000 0.000000 0.000000
# 3 -0.002700 0.001616 0.014088 0.000000 0.000000 0.000000
# 4 0.000000 0.000000 0.000000 0.041617 0.000000 0.000000
# 5 0.000000 0.000000 0.000000 0.000000 0.062999 0.000000
# 6 0.000000 0.000000 0.000000 0.000000 0.000000 0.060443
#
#
# Mechanical properties :
#
#
# Convention : Reuss Voigt Hill
#
# Bulk Modulus (GPa) = 24.05806 24.10615 24.08210
# Shear Modulus (GPa) = 13.76973 19.24594 16.50783
#
# Velocity S-wave (km/s) = 2.51478 2.97308 2.75348
# Velocity P-wave (km/s) = 4.41377 4.78089 4.60100
#
# Compressibility (1/GPa) = 0.04156612
#
# Stress axis : x y z
#
# Youngs Moduli (GPa) = 19.07352 21.56727 70.98190
#
# Poissons Ratio (x) = 0.74568 0.19165
# Poissons Ratio (y) = 0.65946 -0.11469
# Poissons Ratio (z) = 0.05150 -0.03485
#
# Static dielectric constant tensor:
#      x y z
#    x 1.847730 0.000000 0.000000 
#    y 0.000000 1.769300 0.000000 
#    z 0.000000 0.000000 1.932800 
# 
# From -- ./inp_files/3572.got.cif
#   From: 2010.05.17/outbox.cif.g08.bks.cpg/sg36_2_cif.got.tgz:3572.got - 2010.06.03 17:41:39.
