data_PCOD9350935
_publ_section_title
;
Structure prediction by ZEFSAII (Michael W. Deem and Ramdas Pophale) SiO2 
 PCOD9350935
Probable space group: C M C 21
;
_chemical_formula_sum "Si O2"
_cell_formula_units_Z 64
_cell_length_a 9.239429
_cell_length_b 15.104694
_cell_length_c 21.281767
_cell_angle_alpha 90.000000
_cell_angle_beta 90.000000
_cell_angle_gamma 90.000000
_cell_volume 2970.056753
_symmetry_space_group_name_H-M "C M C 21"
_symmetry_group_IT_number 36
_symmetry_cell_setting 'orthorhombic'
loop_
_space_group_symop_operation_xyz
x,y,z
-x,-y,1/2+z
x,-y,1/2+z
-x,y,z
1/2+x,1/2+y,z
1/2-x,1/2-y,1/2+z
1/2+x,1/2-y,1/2+z
1/2-x,1/2+y,z
loop_
_atom_site_type_symbol
_atom_site_label
_atom_site_fract_x
_atom_site_fract_y
_atom_site_fract_z
Si Si1 0.829827 0.385086 0.773580
Si Si2 0.167639 0.053363 0.156906
Si Si3 0.674225 0.510589 0.023286
Si Si4 0.169586 0.694888 0.989080
Si Si5 0.330644 0.446023 0.893961
Si Si6 0.332727 0.879973 0.364150
Si Si7 0.834348 0.256321 0.101783
Si Si8 0.831099 0.287970 0.234391
O O1 0.760887 0.448819 0.720091
O O2 0.762981 0.396259 0.842477
O O3 0.780913 0.288333 0.751710
O O4 0.000000 0.397246 0.774912
O O5 0.176557 0.154864 0.129383
O O6 0.000000 0.036508 0.172724
O O7 0.209283 0.994455 0.096301
O O8 0.500000 0.528737 0.020799
O O9 0.762448 0.598601 0.004564
O O10 0.702688 0.439527 0.968346
O O11 0.188941 0.701077 0.913541
O O12 0.000000 0.694966 0.001457
O O13 0.240894 0.759936 0.039237
O O14 0.500000 0.427664 0.884618
O O15 0.287999 0.547543 0.878435
O O16 0.500000 0.911529 0.376354
O O17 0.324792 0.855453 0.291515
O O18 0.798884 0.315040 0.162887
O O19 0.000000 0.271460 0.084084
O O20 0.000000 0.254878 0.233730
#
# Coordination Sequence:
#
# PCOD9350935 Si02
#       8
#     8   8   8   8   8   8   8   8
#     4  11  21  31  46  71  99 125 157 195 233 275
#     4   8  14  27  45  65  89 117 152 191 232 276
#     4   8  15  27  44  65  88 116 151 189 228 274
#     4   9  15  23  40  66  92 115 143 186 232 270
#     4  10  19  32  50  71  96 126 157 190 233 281
#     4   9  18  32  49  70  95 122 154 192 233 276
#     4   8  14  25  42  63  87 117 151 186 224 270
#     4   9  18  33  50  67  92 126 159 191 231 276
#
# _framework density 21.548410000000001
#
# number of rings (size 3 to 8) (size 9 to 14) (size 15 to 20)
#    0.000    3.000    0.000    3.375    0.000    6.000 
#    0.000    0.000    0.000    1.500    0.000    5.250 
#    0.000    0.000    0.000    0.000    0.000    0.000 
#
# Total GULP energy -178301.128102 kJ/mol
# GULP energy per Si atom -5571.910253 kJ/mol
# Density = 2.149936 g / cm^3
# Si number density = 21.548410 Si / 1000 Ang^3
#
#
#
# Elastic Constant Matrix: (Units=GPa)
#
#
# Indices 1 2 3 4 5 6 
#
# 1 74.3831 30.9553 54.8585 0.0000 0.0000 0.0000
# 2 30.9553 10.2708 67.5663 0.0000 0.0000 0.0000
# 3 54.8585 67.5663 76.7686 0.0000 0.0000 0.0000
# 4 0.0000 0.0000 0.0000 27.0957 0.0000 0.0000
# 5 0.0000 0.0000 0.0000 0.0000 25.9466 0.0000
# 6 0.0000 0.0000 0.0000 0.0000 0.0000 3.2254
#
#
#
# Elastic Compliance Matrix: (Units=1/GPa)
#
#
# Indices 1 2 3 4 5 6 
#
# 1 0.024222 -0.008531 -0.009801 0.000000 0.000000 0.000000
# 2 -0.008531 -0.017322 0.021342 0.000000 0.000000 0.000000
# 3 -0.009801 0.021342 0.001246 0.000000 0.000000 0.000000
# 4 0.000000 0.000000 0.000000 0.036906 0.000000 0.000000
# 5 0.000000 0.000000 0.000000 0.000000 0.038541 0.000000
# 6 0.000000 0.000000 0.000000 0.000000 0.000000 0.310043
#
#
# Mechanical properties :
#
#
# Convention : Reuss Voigt Hill
#
# Bulk Modulus (GPa) = 70.58874 52.02031 61.30453
# Shear Modulus (GPa) = 12.74411 11.78969 12.26690
#
# Velocity S-wave (km/s) = 2.43455 2.34161 2.38853
# Velocity P-wave (km/s) = 6.38216 5.61288 6.00984
#
# Compressibility (1/GPa) = 0.01416657
#
# Stress axis : x y z
#
# Youngs Moduli (GPa) = 41.28426 -57.73031 802.64320
#
# Poissons Ratio (x) = -0.49251 7.86633
# Poissons Ratio (y) = 0.35221 -17.12998
# Poissons Ratio (z) = 0.40461 1.23208
#
# Static dielectric constant tensor:
#      x y z
#    x 1.722520 0.000000 0.000000 
#    y 0.000000 1.873670 0.000000 
#    z 0.000000 0.000000 1.857160 
# 
# From -- ./inp_files/15634.got.cif
#   From: 2010.05.17/outbox.cif.g08.bks.cpg/sg36_8_cif.got.tgz:15634.got - 2010.06.03 17:41:39.
