data_PCOD9350297
_publ_section_title
;
Structure prediction by ZEFSAII (Michael W. Deem and Ramdas Pophale) SiO2 
 PCOD9350297
Probable space group: C M M 2
;
_chemical_formula_sum "Si O2"
_cell_formula_units_Z 64
_cell_length_a 7.835809
_cell_length_b 32.102577
_cell_length_c 12.249695
_cell_angle_alpha 90.000000
_cell_angle_beta 90.000000
_cell_angle_gamma 90.000000
_cell_volume 3081.406634
_symmetry_space_group_name_H-M "C M M 2"
_symmetry_group_IT_number 35
_symmetry_cell_setting 'orthorhombic'
loop_
_space_group_symop_operation_xyz
x,y,z
-x,-y,z
-x,y,z
x,-y,z
1/2+x,1/2+y,z
1/2-x,1/2-y,z
1/2-x,1/2+y,z
1/2+x,1/2-y,z
loop_
_atom_site_type_symbol
_atom_site_label
_atom_site_fract_x
_atom_site_fract_y
_atom_site_fract_z
Si Si1 0.296035 0.953926 0.768110
Si Si2 0.705994 0.579025 0.004163
Si Si3 0.794621 0.796010 0.240499
Si Si4 0.202981 0.874800 0.376817
Si Si5 0.708441 0.324009 0.003980
Si Si6 0.296821 0.704003 0.768633
Si Si7 0.790981 0.046462 0.240334
Si Si8 0.702100 0.876159 0.627876
O O1 0.500000 0.955064 0.752015
O O2 0.265330 0.943490 0.894838
O O3 0.226955 0.915789 0.695404
O O4 0.227383 0.000000 0.741895
O O5 0.500000 0.578551 0.003476
O O6 0.759259 0.627435 0.003041
O O7 0.761332 0.557615 0.116657
O O8 0.750000 0.750000 0.279717
O O9 0.729464 0.833473 0.316488
O O10 0.000000 0.798692 0.237579
O O11 0.732459 0.803013 0.116195
O O12 0.269384 0.916959 0.320350
O O13 0.230081 0.873991 0.505477
O O14 0.000000 0.874934 0.356860
O O15 0.500000 0.322959 0.004232
O O16 0.769271 0.302675 0.892517
O O17 0.500000 0.701043 0.772516
O O18 0.250000 0.750000 0.728997
O O19 0.235650 0.666246 0.693641
O O20 0.000000 0.046433 0.241531
O O21 0.734974 0.000000 0.270397
O O22 0.500000 0.881384 0.619992
#
# Coordination Sequence:
#
# PCOD9350297 Si02
#       8
#     8   8   8   8   8   8   8   8
#     4  10  22  39  57  81 116 153 187 232 290 343
#     4  10  17  32  59  89 116 146 184 227 280 341
#     4  10  20  36  57  83 114 147 180 221 275 330
#     4  10  21  38  58  79 110 148 187 234 285 330
#     4   9  17  32  57  86 117 147 177 223 278 331
#     4  11  22  38  61  88 118 149 186 230 282 339
#     4   9  17  31  56  88 116 143 180 229 284 340
#     4  11  24  41  59  80 110 150 198 242 284 333
#
# _framework density 20.769735000000001
#
# number of rings (size 3 to 8) (size 9 to 14) (size 15 to 20)
#    0.000    2.000    2.500    1.500    0.000    2.750 
#    0.000    3.125    0.000    0.750    0.000    0.000 
#    0.000    0.000    0.000    0.000    0.000    0.000 
#
# Total GULP energy -178764.293948 kJ/mol
# GULP energy per Si atom -5586.384186 kJ/mol
# Density = 2.072246 g / cm^3
# Si number density = 20.769735 Si / 1000 Ang^3
#
#
#
# Elastic Constant Matrix: (Units=GPa)
#
#
# Indices 1 2 3 4 5 6 
#
# 1 20.6502 -1.1141 -8.3597 0.0000 0.0000 0.0000
# 2 -1.1141 201.8715 84.6537 0.0000 0.0000 0.0000
# 3 -8.3597 84.6537 137.9692 0.0000 0.0000 0.0000
# 4 0.0000 0.0000 0.0000 1.5563 0.0000 0.0000
# 5 0.0000 0.0000 0.0000 0.0000 -21.5989 0.0000
# 6 0.0000 0.0000 0.0000 0.0000 0.0000 11.8834
#
#
#
# Elastic Compliance Matrix: (Units=1/GPa)
#
#
# Indices 1 2 3 4 5 6 
#
# 1 0.049910 -0.001337 0.003844 0.000000 0.000000 0.000000
# 2 -0.001337 0.006706 -0.004195 0.000000 0.000000 0.000000
# 3 0.003844 -0.004195 0.010055 0.000000 0.000000 0.000000
# 4 0.000000 0.000000 0.000000 0.642566 0.000000 0.000000
# 5 0.000000 0.000000 0.000000 0.000000 -0.046299 0.000000
# 6 0.000000 0.000000 0.000000 0.000000 0.000000 0.084151
#
#
# Mechanical properties :
#
#
# Convention : Reuss Voigt Hill
#
# Bulk Modulus (GPa) = 15.79902 56.76117 36.28010
# Shear Modulus (GPa) = 6.48035 17.38888 11.93462
#
# Velocity S-wave (km/s) = 1.76829 2.89662 2.39971
# Velocity P-wave (km/s) = 3.43401 6.21090 5.01835
#
# Compressibility (1/GPa) = 0.06329506
#
# Stress axis : x y z
#
# Youngs Moduli (GPa) = 20.03611 149.13029 99.45275
#
# Poissons Ratio (x) = 0.19933 -0.38232
# Poissons Ratio (y) = 0.02678 0.41723
# Poissons Ratio (z) = -0.07702 0.62565
#
# Static dielectric constant tensor:
#      x y z
#    x 1.766240 0.000000 0.000000 
#    y 0.000000 1.748990 0.000000 
#    z 0.000000 0.000000 1.712350 
# 
# From -- ./inp_files/11934.got.cif
#   From: 2010.05.17/outbox.cif.g08.bks.cpg/sg35_6_cif.got.tgz:11934.got - 2010.06.03 17:29:28.
