data_PCOD9350094
_publ_section_title
;
Structure prediction by ZEFSAII (Michael W. Deem and Ramdas Pophale) SiO2 
 PCOD9350094
Probable space group: C M M 2
;
_chemical_formula_sum "Si O2"
_cell_formula_units_Z 56
_cell_length_a 15.031701
_cell_length_b 22.176457
_cell_length_c 6.904342
_cell_angle_alpha 90.000000
_cell_angle_beta 90.000000
_cell_angle_gamma 90.000000
_cell_volume 2301.561514
_symmetry_space_group_name_H-M "C M M 2"
_symmetry_group_IT_number 35
_symmetry_cell_setting 'orthorhombic'
loop_
_space_group_symop_operation_xyz
x,y,z
-x,-y,z
-x,y,z
x,-y,z
1/2+x,1/2+y,z
1/2-x,1/2-y,z
1/2-x,1/2+y,z
1/2+x,1/2-y,z
loop_
_atom_site_type_symbol
_atom_site_label
_atom_site_fract_x
_atom_site_fract_y
_atom_site_fract_z
Si Si1 0.904751 0.345474 0.404840
Si Si2 0.897457 0.901303 0.137210
Si Si3 0.399827 0.426385 0.638096
Si Si4 0.236575 0.070112 0.384035
Si Si5 0.144441 0.240034 0.137484
Si Si6 0.237873 0.070633 0.889463
Si Si7 0.901761 0.660216 0.858901
O O1 0.819367 0.385103 0.359014
O O2 0.897757 0.281045 0.302923
O O3 0.903201 0.335488 0.631184
O O4 0.000000 0.374233 0.354868
O O5 0.876806 0.915626 0.390434
O O6 0.884821 0.828723 0.142500
O O7 0.000000 0.922308 0.135652
O O8 0.792832 0.929716 0.136095
O O9 0.500000 0.399248 0.637334
O O10 0.407109 0.500000 0.641004
O O11 0.283864 0.416748 0.636991
O O12 0.376068 0.413713 0.883883
O O13 0.261757 0.000000 0.401386
O O14 0.250000 0.250000 0.155367
O O15 0.115295 0.273604 0.943169
O O16 0.320580 0.116550 0.911491
O O17 0.262635 0.000000 0.872834
O O18 0.000000 0.639224 0.923522
#
# Coordination Sequence:
#
# PCOD9350094 Si02
#       7
#     8   8   8   8   8   8   8
#     4  11  24  44  71 101 136 179 225 279 340 400
#     4  12  25  42  65  94 129 174 223 281 347 402
#     4   9  18  34  55  82 123 167 209 261 312 375
#     4  11  22  39  63  95 132 172 220 268 328 407
#     4  12  24  47  72  94 131 176 230 290 338 395
#     4  11  22  39  63  95 132 172 220 268 328 407
#     4  11  24  44  71 101 136 179 225 279 340 400
#
# _framework density 24.331306999999999
#
# number of rings (size 3 to 8) (size 9 to 14) (size 15 to 20)
#    0.000    1.000    4.286    2.571    0.000    3.429 
#    2.571    1.429    0.000    3.429    0.000    0.000 
#    0.000    0.000    0.000    0.000    0.000    0.000 
#
# Total GULP energy -156239.606403 kJ/mol
# GULP energy per Si atom -5579.985943 kJ/mol
# Density = 2.427593 g / cm^3
# Si number density = 24.331307 Si / 1000 Ang^3
#
#
#
# Elastic Constant Matrix: (Units=GPa)
#
#
# Indices 1 2 3 4 5 6 
#
# 1 160.5101 54.0015 62.6164 0.0000 0.0000 0.0000
# 2 54.0015 142.0797 31.2626 0.0000 0.0000 0.0000
# 3 62.6164 31.2626 175.2257 0.0000 0.0000 0.0000
# 4 0.0000 0.0000 0.0000 -25.8079 0.0000 0.0000
# 5 0.0000 0.0000 0.0000 0.0000 -30.5294 0.0000
# 6 0.0000 0.0000 0.0000 0.0000 0.0000 13.2200
#
#
#
# Elastic Compliance Matrix: (Units=1/GPa)
#
#
# Indices 1 2 3 4 5 6 
#
# 1 0.008020 -0.002516 -0.002417 0.000000 0.000000 0.000000
# 2 -0.002516 0.008115 -0.000549 0.000000 0.000000 0.000000
# 3 -0.002417 -0.000549 0.006668 0.000000 0.000000 0.000000
# 4 0.000000 0.000000 0.000000 -0.038748 0.000000 0.000000
# 5 0.000000 0.000000 0.000000 0.000000 -0.032755 0.000000
# 6 0.000000 0.000000 0.000000 0.000000 0.000000 0.075643
#
#
# Mechanical properties :
#
#
# Convention : Reuss Voigt Hill
#
# Bulk Modulus (GPa) = 84.46083 85.95293 85.20688
# Shear Modulus (GPa) = 119.46433 13.37220 66.41827
#
# Velocity S-wave (km/s) = 7.01467 2.34687 5.23036
# Velocity P-wave (km/s) = 10.01976 6.53808 8.45997
#
# Compressibility (1/GPa) = 0.01183981
#
# Stress axis : x y z
#
# Youngs Moduli (GPa) = 124.69574 123.22219 149.95954
#
# Poissons Ratio (x) = 0.31006 0.36242
# Poissons Ratio (y) = 0.31377 0.08229
# Poissons Ratio (z) = 0.30137 0.06761
#
# Static dielectric constant tensor:
#      x y z
#    x 1.904930 0.000000 0.000000 
#    y 0.000000 1.716550 0.000000 
#    z 0.000000 0.000000 2.453110 
# 
# From -- ./inp_files/7645.got.cif
#   From: 2010.05.17/outbox.cif.g08.bks.cpg/sg35_4_cif.got.tgz:7645.got - 2010.06.03 17:29:28.
