data_PCOD9350147
_publ_section_title
;
Structure prediction by ZEFSAII (Michael W. Deem and Ramdas Pophale) SiO2 
 PCOD9350147
Probable space group: C M M 2
;
_chemical_formula_sum "Si O2"
_cell_formula_units_Z 28
_cell_length_a 9.000000
_cell_length_b 21.000000
_cell_length_c 15.000000
_cell_angle_alpha 90.000000
_cell_angle_beta 90.000000
_cell_angle_gamma 90.000000
_cell_volume 2835.000000
_symmetry_space_group_name_H-M "C M M 2"
_symmetry_group_IT_number 35
_symmetry_cell_setting 'orthorhombic'
loop_
_space_group_symop_operation_xyz
x,y,z
-x,-y,z
-x,y,z
x,-y,z
1/2+x,1/2+y,z
1/2-x,1/2-y,z
1/2-x,1/2+y,z
1/2+x,1/2-y,z
loop_
_atom_site_type_symbol
_atom_site_label
_atom_site_fract_x
_atom_site_fract_y
_atom_site_fract_z
Si Si1 0.840951 0.000000 0.204031
Si Si2 0.822849 0.178739 0.598193
Si Si3 0.831473 0.693674 0.097828
Si Si4 0.176654 0.875164 0.944883
Si Si5 0.330948 0.183948 0.432537
Si Si6 0.176143 0.500000 0.025733
Si Si7 0.822549 0.679856 0.773870
Si Si8 0.339643 0.898898 0.259732
O O1 0.713710 0.000000 0.130007
O O2 0.807651 0.939991 0.263693
O O3 0.000000 0.000000 0.160057
O O4 0.750000 0.250000 0.595595
O O5 0.764567 0.148061 0.507497
O O6 0.747028 0.149945 0.684933
O O7 0.000000 0.181738 0.605215
O O8 0.750000 0.750000 0.149156
O O9 0.837494 0.635549 0.164990
O O10 0.000000 0.707613 0.069768
O O11 0.725391 0.678239 0.015649
O O12 0.264989 0.860495 0.855820
O O13 0.000000 0.876859 0.933130
O O14 0.243043 0.939363 0.984789
O O15 0.500000 0.193366 0.465378
O O16 0.250000 0.250000 0.416740
O O17 0.336441 0.149553 0.339639
O O18 0.000000 0.500000 0.010667
O O19 0.750000 0.750000 0.784294
O O20 0.000000 0.685223 0.769601
O O21 0.500000 0.931945 0.267601
#
# Coordination Sequence:
#
# PCOD9350147 Si02
#       8
#     4   8   8   8   8   4   8   8
#     4  12  24  38  60  83 106 143 192 238 280 326
#     4  10  18  31  52  80 113 149 184 228 276 332
#     4  11  22  36  54  79 112 150 183 226 278 332
#     4  12  24  39  58  83 111 145 188 233 277 331
#     4  10  19  33  54  83 114 150 186 226 278 334
#     4  12  24  42  62  81 108 145 190 234 280 330
#     4  11  21  36  57  84 116 151 187 230 280 337
#     4  10  22  38  57  78 110 149 188 231 279 330
#
# _framework density 9.8765429999999999
#
# number of rings (size 3 to 8) (size 9 to 14) (size 15 to 20)
#    0.000    1.143    1.429    8.571    0.000    1.714 
#    0.000    0.000    0.000    0.857    0.000    3.000 
#    0.000    0.000    0.000    0.000    0.000    0.000 
#
# Total GULP energy -155985.334186 kJ/mol
# GULP energy per Si atom -5570.904792 kJ/mol
# Density = 0.985406 g / cm^3
# Si number density = 9.876543 Si / 1000 Ang^3
#
#
#
# Elastic Constant Matrix: (Units=GPa)
#
#
# Indices 1 2 3 4 5 6 
#
# 1 190.5012 34.3453 46.4735 0.0000 0.0000 0.0000
# 2 34.3453 57.5109 18.6095 0.0000 0.0000 0.0000
# 3 46.4735 18.6095 99.8267 0.0000 0.0000 0.0000
# 4 0.0000 0.0000 0.0000 18.3741 0.0000 0.0000
# 5 0.0000 0.0000 0.0000 0.0000 22.5178 0.0000
# 6 0.0000 0.0000 0.0000 0.0000 0.0000 16.9584
#
#
#
# Elastic Compliance Matrix: (Units=1/GPa)
#
#
# Indices 1 2 3 4 5 6 
#
# 1 0.006383 -0.003033 -0.002406 0.000000 0.000000 0.000000
# 2 -0.003033 0.019946 -0.002306 0.000000 0.000000 0.000000
# 3 -0.002406 -0.002306 0.011567 0.000000 0.000000 0.000000
# 4 0.000000 0.000000 0.000000 0.054424 0.000000 0.000000
# 5 0.000000 0.000000 0.000000 0.000000 0.044409 0.000000
# 6 0.000000 0.000000 0.000000 0.000000 0.000000 0.058968
#
#
# Mechanical properties :
#
#
# Convention : Reuss Voigt Hill
#
# Bulk Modulus (GPa) = 44.63278 60.74395 52.68836
# Shear Modulus (GPa) = 22.86681 28.13076 25.49879
#
# Velocity S-wave (km/s) = 3.40609 3.77785 3.59677
# Velocity P-wave (km/s) = 6.17357 7.06030 6.63177
#
# Compressibility (1/GPa) = 0.02240506
#
# Stress axis : x y z
#
# Youngs Moduli (GPa) = 156.66133 50.13598 86.44969
#
# Poissons Ratio (x) = 0.15208 0.20801
# Poissons Ratio (y) = 0.47522 0.19936
# Poissons Ratio (z) = 0.37695 0.11562
#
# Static dielectric constant tensor:
#      x y z
#    x 1.713640 0.000000 0.000000 
#    y 0.000000 1.802240 0.000000 
#    z 0.000000 0.000000 1.782840 
# 
# From -- ./inp_files/15783.got.cif
#   From: 2010.05.17/outbox.ucp.g08.bks.cvg/sg35_8_cif.got.tgz:15783.got - 2010.06.11 10:36:28.
