data_PCOD9350813
_publ_section_title
;
Structure prediction by ZEFSAII (Michael W. Deem and Ramdas Pophale) SiO2 
 PCOD9350813
Probable space group: C M C 21
;
_chemical_formula_sum "Si O2"
_cell_formula_units_Z 56
_cell_length_a 25.382099
_cell_length_b 19.058930
_cell_length_c 5.364253
_cell_angle_alpha 90.000000
_cell_angle_beta 90.000000
_cell_angle_gamma 90.000000
_cell_volume 2594.987687
_symmetry_space_group_name_H-M "C M C 21"
_symmetry_group_IT_number 36
_symmetry_cell_setting 'orthorhombic'
loop_
_space_group_symop_operation_xyz
x,y,z
-x,-y,1/2+z
x,-y,1/2+z
-x,y,z
1/2+x,1/2+y,z
1/2-x,1/2-y,1/2+z
1/2+x,1/2-y,1/2+z
1/2-x,1/2+y,z
loop_
_atom_site_type_symbol
_atom_site_label
_atom_site_fract_x
_atom_site_fract_y
_atom_site_fract_z
Si Si1 0.672207 0.617483 0.220910
Si Si2 0.387589 0.623617 0.721190
Si Si3 0.896615 0.458227 0.810040
Si Si4 0.277447 0.038830 0.324350
Si Si5 0.295284 0.219166 0.725552
Si Si6 0.674601 0.236405 0.223762
Si Si7 0.000000 0.951248 0.237811
Si Si8 0.000000 0.547084 0.161594
O O1 0.637969 0.597663 0.462436
O O2 0.729886 0.587063 0.243582
O O3 0.682708 0.700904 0.224285
O O4 0.643154 0.596705 0.966457
O O5 0.372892 0.707612 0.722697
O O6 0.447582 0.597638 0.735016
O O7 0.902567 0.520104 0.599383
O O8 0.836813 0.438267 0.774788
O O9 0.946126 0.411656 0.722717
O O10 0.271527 0.024349 0.620433
O O11 0.319689 0.191955 0.473144
O O12 0.231606 0.220313 0.723113
O O13 0.319639 0.190612 0.976785
O O14 0.000000 0.999381 0.489184
O O15 0.000000 0.486973 0.384763
#
# Coordination Sequence:
#
# PCOD9350813 Si02
#       8
#     8   8   8   8   8   8   4   4
#     4  10  19  31  48  69  92 119 154 196 249 300
#     4  10  21  35  50  67  88 120 160 201 245 293
#     4   8  14  23  34  50  71  97 131 167 200 236
#     4  10  19  28  39  58  86 118 151 186 223 271
#     4   8  14  25  44  69  91 108 130 171 226 286
#     4   8  14  27  46  67  89 108 133 174 228 285
#     4  12  26  40  52  68  95 132 179 226 254 284
#     4   8  12  20  34  48  65  90 121 156 190 224
#
# _framework density 21.580065000000001
#
# number of rings (size 3 to 8) (size 9 to 14) (size 15 to 20)
#    0.000    2.857    0.000    1.714    0.000    3.429 
#    0.000    0.000    0.000    0.000    0.000    1.000 
#    0.000    0.000    0.000   45.429    0.000    2.000 
#
# Total GULP energy -155912.241833 kJ/mol
# GULP energy per Si atom -5568.294351 kJ/mol
# Density = 2.153095 g / cm^3
# Si number density = 21.580065 Si / 1000 Ang^3
#
#
#
# Elastic Constant Matrix: (Units=GPa)
#
#
# Indices 1 2 3 4 5 6 
#
# 1 147.0955 25.1492 39.0595 0.0000 0.0000 0.0000
# 2 25.1492 30.7629 17.6966 0.0000 0.0000 0.0000
# 3 39.0595 17.6966 179.4552 0.0000 0.0000 0.0000
# 4 0.0000 0.0000 0.0000 11.6759 0.0000 0.0000
# 5 0.0000 0.0000 0.0000 0.0000 33.9950 0.0000
# 6 0.0000 0.0000 0.0000 0.0000 0.0000 11.7302
#
#
#
# Elastic Compliance Matrix: (Units=1/GPa)
#
#
# Indices 1 2 3 4 5 6 
#
# 1 0.008133 -0.005969 -0.001181 0.000000 0.000000 0.000000
# 2 -0.005969 0.038842 -0.002531 0.000000 0.000000 0.000000
# 3 -0.001181 -0.002531 0.006079 0.000000 0.000000 0.000000
# 4 0.000000 0.000000 0.000000 0.085646 0.000000 0.000000
# 5 0.000000 0.000000 0.000000 0.000000 0.029416 0.000000
# 6 0.000000 0.000000 0.000000 0.000000 0.000000 0.085250
#
#
# Mechanical properties :
#
#
# Convention : Reuss Voigt Hill
#
# Bulk Modulus (GPa) = 29.68145 57.90268 43.79207
# Shear Modulus (GPa) = 17.60809 29.84078 23.72444
#
# Velocity S-wave (km/s) = 2.85957 3.72263 3.31927
# Velocity P-wave (km/s) = 4.96858 6.73551 5.91836
#
# Compressibility (1/GPa) = 0.03369108
#
# Stress axis : x y z
#
# Youngs Moduli (GPa) = 122.96283 25.74506 164.49561
#
# Poissons Ratio (x) = 0.15367 0.19435
# Poissons Ratio (y) = 0.73394 0.41637
# Poissons Ratio (z) = 0.14528 0.06517
#
# Static dielectric constant tensor:
#      x y z
#    x 1.832950 0.000000 0.000000 
#    y 0.000000 1.808450 0.000000 
#    z 0.000000 0.000000 1.947670 
# 
# From -- ./inp_files/1619.got.cif
#   From: 2010.05.17/outbox.cif.g08.bks.cpg/sg36_1_cif.got.tgz:1619.got - 2010.06.03 17:41:39.
