data_PCOD9350063
_publ_section_title
;
Structure prediction by ZEFSAII (Michael W. Deem and Ramdas Pophale) SiO2 
 PCOD9350063
Probable space group: C M M 2
;
_chemical_formula_sum "Si O2"
_cell_formula_units_Z 32
_cell_length_a 15.927126
_cell_length_b 10.946156
_cell_length_c 9.837618
_cell_angle_alpha 90.000000
_cell_angle_beta 90.000000
_cell_angle_gamma 90.000000
_cell_volume 1715.098250
_symmetry_space_group_name_H-M "C M M 2"
_symmetry_group_IT_number 35
_symmetry_cell_setting 'orthorhombic'
loop_
_space_group_symop_operation_xyz
x,y,z
-x,-y,z
-x,y,z
x,-y,z
1/2+x,1/2+y,z
1/2-x,1/2-y,z
1/2-x,1/2+y,z
1/2+x,1/2-y,z
loop_
_atom_site_type_symbol
_atom_site_label
_atom_site_fract_x
_atom_site_fract_y
_atom_site_fract_z
Si Si1 0.156149 0.703843 0.452750
Si Si2 0.094000 0.145511 0.671864
Si Si3 0.175088 0.500000 0.947023
Si Si4 0.599002 0.000000 0.654849
Si Si5 0.099323 0.500000 0.245086
Si Si6 0.250000 0.250000 0.847606
O O1 0.250000 0.750000 0.434283
O O2 0.104544 0.817955 0.512863
O O3 0.143413 0.611784 0.579437
O O4 0.128663 0.621865 0.325718
O O5 0.170160 0.203539 0.758543
O O6 0.000000 0.186732 0.715679
O O7 0.099198 0.000000 0.686561
O O8 0.114618 0.500000 0.814635
O O9 0.225052 0.371916 0.930955
O O10 0.131065 0.500000 0.091899
O O11 0.500000 0.000000 0.623185
O O12 0.000000 0.500000 0.249233
#
# Coordination Sequence:
#
# PCOD9350063 Si02
#       6
#     8   8   4   4   4   4
#     4  11  22  38  64  93 130 168 213 271 328 388
#     4  11  22  37  63 102 139 172 213 276 342 397
#     4  12  25  42  69  95 134 177 221 276 341 399
#     4  11  21  37  65  96 122 159 219 279 324 384
#     4  11  27  45  65  93 128 174 230 281 327 391
#     4  12  24  42  68 104 136 170 224 282 336 406
#
# _framework density 18.657824000000002
#
# number of rings (size 3 to 8) (size 9 to 14) (size 15 to 20)
#    0.000    0.750    5.000    3.375    5.250    1.000 
#    0.000    0.000    0.000    0.000    0.000    0.000 
#    0.000    0.000    0.000    0.000    0.000    0.000 
#
# Total GULP energy -89192.842757 kJ/mol
# GULP energy per Si atom -5574.552672 kJ/mol
# Density = 1.861536 g / cm^3
# Si number density = 18.657824 Si / 1000 Ang^3
#
#
#
# Elastic Constant Matrix: (Units=GPa)
#
#
# Indices 1 2 3 4 5 6 
#
# 1 175.7676 73.7726 70.9544 0.0000 0.0000 0.0000
# 2 73.7726 114.8077 45.4450 0.0000 0.0000 0.0000
# 3 70.9544 45.4450 137.7931 0.0000 0.0000 0.0000
# 4 0.0000 0.0000 0.0000 23.9693 0.0000 0.0000
# 5 0.0000 0.0000 0.0000 0.0000 22.9208 0.0000
# 6 0.0000 0.0000 0.0000 0.0000 0.0000 22.5599
#
#
#
# Elastic Compliance Matrix: (Units=1/GPa)
#
#
# Indices 1 2 3 4 5 6 
#
# 1 0.008786 -0.004434 -0.003062 0.000000 0.000000 0.000000
# 2 -0.004434 0.012255 -0.001759 0.000000 0.000000 0.000000
# 3 -0.003062 -0.001759 0.009414 0.000000 0.000000 0.000000
# 4 0.000000 0.000000 0.000000 0.041720 0.000000 0.000000
# 5 0.000000 0.000000 0.000000 0.000000 0.043628 0.000000
# 6 0.000000 0.000000 0.000000 0.000000 0.000000 0.044326
#
#
# Mechanical properties :
#
#
# Convention : Reuss Voigt Hill
#
# Bulk Modulus (GPa) = 83.70655 89.85695 86.78175
# Shear Modulus (GPa) = 27.37887 29.76976 28.57432
#
# Velocity S-wave (km/s) = 3.83485 3.99879 3.91767
# Velocity P-wave (km/s) = 8.03552 8.34179 8.19008
#
# Compressibility (1/GPa) = 0.01194650
#
# Stress axis : x y z
#
# Youngs Moduli (GPa) = 113.81210 81.59614 106.22352
#
# Poissons Ratio (x) = 0.36178 0.32527
# Poissons Ratio (y) = 0.50462 0.18683
# Poissons Ratio (z) = 0.34851 0.14351
#
# Static dielectric constant tensor:
#      x y z
#    x 1.665190 0.000000 0.000000 
#    y 0.000000 1.721540 0.000000 
#    z 0.000000 0.000000 1.631840 
# 
# From -- ./inp_files/6759.got.cif
#   From: 2010.05.17/outbox.cif.g08.bks.cpg/sg35_4_cif.got.tgz:6759.got - 2010.06.03 17:29:28.
