data_PCOD9350393
_publ_section_title
;
Structure prediction by ZEFSAII (Michael W. Deem and Ramdas Pophale) SiO2 
 PCOD9350393
Probable space group: C M M 2
;
_chemical_formula_sum "Si O2"
_cell_formula_units_Z 64
_cell_length_a 15.158471
_cell_length_b 17.886318
_cell_length_c 14.261612
_cell_angle_alpha 90.000000
_cell_angle_beta 90.000000
_cell_angle_gamma 90.000000
_cell_volume 3866.739919
_symmetry_space_group_name_H-M "C M M 2"
_symmetry_group_IT_number 35
_symmetry_cell_setting 'orthorhombic'
loop_
_space_group_symop_operation_xyz
x,y,z
-x,-y,z
-x,y,z
x,-y,z
1/2+x,1/2+y,z
1/2-x,1/2-y,z
1/2-x,1/2+y,z
1/2+x,1/2-y,z
loop_
_atom_site_type_symbol
_atom_site_label
_atom_site_fract_x
_atom_site_fract_y
_atom_site_fract_z
Si Si1 0.395665 0.168809 0.075480
Si Si2 0.097389 0.670137 0.571854
Si Si3 0.398842 0.167138 0.855326
Si Si4 0.729211 0.088706 0.218877
Si Si5 0.772768 0.587976 0.707931
Si Si6 0.100495 0.189549 0.202940
Si Si7 0.652088 0.285872 0.716546
Si Si8 0.838630 0.704993 0.368478
O O1 0.500000 0.151866 0.090020
O O2 0.333652 0.112335 0.132287
O O3 0.380509 0.250963 0.119927
O O4 0.377772 0.168336 0.964917
O O5 0.172808 0.618539 0.617735
O O6 0.104838 0.749152 0.627394
O O7 0.111611 0.683314 0.462509
O O8 0.000000 0.638840 0.590610
O O9 0.500000 0.141713 0.843267
O O10 0.332163 0.115895 0.795998
O O11 0.391220 0.249692 0.808522
O O12 0.825357 0.126000 0.203948
O O13 0.688338 0.132123 0.308481
O O14 0.733082 0.000000 0.230304
O O15 0.765999 0.500000 0.706172
O O16 0.676943 0.627724 0.713250
O O17 0.110700 0.239820 0.297128
O O18 0.000000 0.162616 0.194943
O O19 0.750000 0.250000 0.714745
O O20 0.750000 0.750000 0.395442
#
# Coordination Sequence:
#
# PCOD9350393 Si02
#       8
#     8   8   8   8   8   8   8   8
#     4   9  18  33  52  72  94 126 165 201 240 284
#     4  10  18  30  51  72  90 118 158 201 237 273
#     4   9  17  31  52  72  91 119 157 200 237 273
#     4  10  21  33  47  72 103 130 156 192 241 296
#     4  10  20  31  44  68 100 128 154 186 232 289
#     4   9  18  33  53  73  93 122 164 207 239 278
#     4   8  16  30  47  68  91 119 157 193 227 268
#     4   9  17  32  51  70  93 122 158 197 237 281
#
# _framework density 16.551410000000001
#
# number of rings (size 3 to 8) (size 9 to 14) (size 15 to 20)
#    0.000    3.000    0.000    4.125    0.000    6.000 
#    0.000    1.250    0.000    1.500    0.000    1.750 
#    0.000    0.000    0.000    0.000    0.000    0.500 
#
# Total GULP energy -178192.729994 kJ/mol
# GULP energy per Si atom -5568.522812 kJ/mol
# Density = 1.651374 g / cm^3
# Si number density = 16.551410 Si / 1000 Ang^3
#
#
#
# Elastic Constant Matrix: (Units=GPa)
#
#
# Indices 1 2 3 4 5 6 
#
# 1 55.6921 39.7783 22.4700 0.0000 0.0000 0.0000
# 2 39.7783 126.8955 40.9318 0.0000 0.0000 0.0000
# 3 22.4700 40.9318 97.5390 0.0000 0.0000 0.0000
# 4 0.0000 0.0000 0.0000 5.2452 0.0000 0.0000
# 5 0.0000 0.0000 0.0000 0.0000 24.6214 0.0000
# 6 0.0000 0.0000 0.0000 0.0000 0.0000 11.2640
#
#
#
# Elastic Compliance Matrix: (Units=1/GPa)
#
#
# Indices 1 2 3 4 5 6 
#
# 1 0.023741 -0.006567 -0.002713 0.000000 0.000000 0.000000
# 2 -0.006567 0.010931 -0.003074 0.000000 0.000000 0.000000
# 3 -0.002713 -0.003074 0.012167 0.000000 0.000000 0.000000
# 4 0.000000 0.000000 0.000000 0.190649 0.000000 0.000000
# 5 0.000000 0.000000 0.000000 0.000000 0.040615 0.000000
# 6 0.000000 0.000000 0.000000 0.000000 0.000000 0.088778
#
#
# Mechanical properties :
#
#
# Convention : Reuss Voigt Hill
#
# Bulk Modulus (GPa) = 45.18728 54.05408 49.62068
# Shear Modulus (GPa) = 12.53235 20.02258 16.27746
#
# Velocity S-wave (km/s) = 2.75467 3.48188 3.13940
# Velocity P-wave (km/s) = 6.12193 6.99241 6.57160
#
# Compressibility (1/GPa) = 0.02213012
#
# Stress axis : x y z
#
# Youngs Moduli (GPa) = 42.12106 91.48565 82.18631
#
# Poissons Ratio (x) = 0.60078 0.22301
# Poissons Ratio (y) = 0.27661 0.25266
# Poissons Ratio (z) = 0.11429 0.28124
#
# Static dielectric constant tensor:
#      x y z
#    x 1.577210 0.000000 0.000000 
#    y 0.000000 1.564170 0.000000 
#    z 0.000000 0.000000 1.554310 
# 
# From -- ./inp_files/16890.got.cif
#   From: 2010.05.17/outbox.cif.g08.bks.cpg/sg35_9_cif.got.tgz:16890.got - 2010.06.03 17:29:28.
