data_PCOD9350489
_publ_section_title
;
Structure prediction by ZEFSAII (Michael W. Deem and Ramdas Pophale) SiO2 
 PCOD9350489
Probable space group: C M C 21
;
_chemical_formula_sum "Si O2"
_cell_formula_units_Z 64
_cell_length_a 7.283108
_cell_length_b 22.249315
_cell_length_c 14.476070
_cell_angle_alpha 90.000000
_cell_angle_beta 90.000000
_cell_angle_gamma 90.000000
_cell_volume 2345.762662
_symmetry_space_group_name_H-M "C M C 21"
_symmetry_group_IT_number 36
_symmetry_cell_setting 'orthorhombic'
loop_
_space_group_symop_operation_xyz
x,y,z
-x,-y,1/2+z
x,-y,1/2+z
-x,y,z
1/2+x,1/2+y,z
1/2-x,1/2-y,1/2+z
1/2+x,1/2-y,1/2+z
1/2-x,1/2+y,z
loop_
_atom_site_type_symbol
_atom_site_label
_atom_site_fract_x
_atom_site_fract_y
_atom_site_fract_z
Si Si1 0.206386 0.475870 0.352860
Si Si2 0.211871 0.855944 0.456775
Si Si3 0.778220 0.265390 0.193765
Si Si4 0.223302 0.535198 0.528550
Si Si5 0.225033 0.725278 0.478984
Si Si6 0.790668 0.648925 0.314421
Si Si7 0.721475 0.916393 0.640888
Si Si8 0.724315 0.104099 0.696205
O O1 0.193764 0.413683 0.412182
O O2 0.288736 0.523321 0.424701
O O3 0.291705 0.450332 0.259862
O O4 0.000000 0.495565 0.329142
O O5 0.282651 0.789588 0.436372
O O6 0.221838 0.865460 0.567643
O O7 0.000000 0.859976 0.430019
O O8 0.705448 0.209082 0.250398
O O9 0.721713 0.330803 0.232223
O O10 0.000000 0.260862 0.196395
O O11 0.722668 0.271010 0.086141
O O12 0.277859 0.477848 0.591058
O O13 0.275805 0.591765 0.590274
O O14 0.000000 0.534760 0.522466
O O15 0.288612 0.671970 0.411509
O O16 0.000000 0.723587 0.478211
O O17 0.712284 0.599179 0.243875
O O18 0.000000 0.631168 0.335150
O O19 0.500000 0.916643 0.644526
O O20 0.500000 0.102595 0.698850
#
# Coordination Sequence:
#
# PCOD9350489 Si02
#       8
#     8   8   8   8   8   8   8   8
#     4   9  17  30  49  73  97 123 164 206 238 282
#     4  10  17  28  48  69  95 126 158 199 241 283
#     4  10  19  33  50  71 100 131 164 203 244 293
#     4   8  15  29  46  69  96 119 152 201 242 275
#     4   9  18  30  44  68 100 127 156 197 244 295
#     4  10  19  32  49  71  98 130 162 198 247 297
#     4   9  17  30  49  69  94 123 159 202 239 283
#     4   9  17  30  49  72  98 129 163 200 243 288
#
# _framework density 27.283238000000001
#
# number of rings (size 3 to 8) (size 9 to 14) (size 15 to 20)
#    0.000    2.750    1.250    1.875    0.000    0.000 
#    2.250    1.250    0.000    6.000    0.000    0.000 
#    0.000    0.000    0.000    0.000    0.000    0.000 
#
# Total GULP energy -178989.872035 kJ/mol
# GULP energy per Si atom -5593.433501 kJ/mol
# Density = 2.722114 g / cm^3
# Si number density = 27.283238 Si / 1000 Ang^3
#
#
#
# Elastic Constant Matrix: (Units=GPa)
#
#
# Indices 1 2 3 4 5 6 
#
# 1 128.0957 2.2686 -0.5682 0.0000 0.0000 0.0000
# 2 2.2686 101.9068 32.0994 0.0000 0.0000 0.0000
# 3 -0.5682 32.0994 166.9181 0.0000 0.0000 0.0000
# 4 0.0000 0.0000 0.0000 63.3683 0.0000 0.0000
# 5 0.0000 0.0000 0.0000 0.0000 3.7997 0.0000
# 6 0.0000 0.0000 0.0000 0.0000 0.0000 -54.4271
#
#
#
# Elastic Compliance Matrix: (Units=1/GPa)
#
#
# Indices 1 2 3 4 5 6 
#
# 1 0.007810 -0.000194 0.000064 0.000000 0.000000 0.000000
# 2 -0.000194 0.010450 -0.002010 0.000000 0.000000 0.000000
# 3 0.000064 -0.002010 0.006378 0.000000 0.000000 0.000000
# 4 0.000000 0.000000 0.000000 0.015781 0.000000 0.000000
# 5 0.000000 0.000000 0.000000 0.000000 0.263176 0.000000
# 6 0.000000 0.000000 0.000000 0.000000 0.000000 -0.018373
#
#
# Mechanical properties :
#
#
# Convention : Reuss Voigt Hill
#
# Bulk Modulus (GPa) = 49.12144 51.61336 50.36740
# Shear Modulus (GPa) = 16.87544 26.75624 21.81584
#
# Velocity S-wave (km/s) = 2.48972 3.13499 2.83080
# Velocity P-wave (km/s) = 5.12916 5.66241 5.40237
#
# Compressibility (1/GPa) = 0.02035771
#
# Stress axis : x y z
#
# Youngs Moduli (GPa) = 128.03474 95.68972 156.79431
#
# Poissons Ratio (x) = 0.01856 -0.01002
# Poissons Ratio (y) = 0.02484 0.31521
# Poissons Ratio (z) = -0.00818 0.19237
#
# Static dielectric constant tensor:
#      x y z
#    x 1.877410 0.000000 0.000000 
#    y 0.000000 2.108660 0.000000 
#    z 0.000000 0.000000 2.155620 
# 
# From -- ./inp_files/11185.got.cif
#   From: 2010.05.17/outbox.cif.g08.bks.cpg/sg36_6_cif.got.tgz:11185.got - 2010.06.03 17:41:39.
