data_PCOD9350256
_publ_section_title
;
Structure prediction by ZEFSAII (Michael W. Deem and Ramdas Pophale) SiO2 
 PCOD9350256
Probable space group: C M M 2
;
_chemical_formula_sum "Si O2"
_cell_formula_units_Z 56
_cell_length_a 8.700534
_cell_length_b 18.833247
_cell_length_c 19.093234
_cell_angle_alpha 90.000000
_cell_angle_beta 90.000000
_cell_angle_gamma 90.000000
_cell_volume 3128.604070
_symmetry_space_group_name_H-M "C M M 2"
_symmetry_group_IT_number 35
_symmetry_cell_setting 'orthorhombic'
loop_
_space_group_symop_operation_xyz
x,y,z
-x,-y,z
-x,y,z
x,-y,z
1/2+x,1/2+y,z
1/2-x,1/2-y,z
1/2-x,1/2+y,z
1/2+x,1/2-y,z
loop_
_atom_site_type_symbol
_atom_site_label
_atom_site_fract_x
_atom_site_fract_y
_atom_site_fract_z
Si Si1 0.685440 0.329338 0.754420
Si Si2 0.683212 0.169444 0.050606
Si Si3 0.184357 0.830420 0.908173
Si Si4 0.812229 0.918088 0.620610
Si Si5 0.820249 0.415064 0.320674
Si Si6 0.818255 0.170917 0.194539
Si Si7 0.821737 0.913594 0.467210
O O1 0.500000 0.325867 0.752057
O O2 0.750000 0.250000 0.750138
O O3 0.724413 0.360756 0.831400
O O4 0.739289 0.373941 0.687695
O O5 0.500000 0.171936 0.049892
O O6 0.750000 0.250000 0.051112
O O7 0.743845 0.138620 0.123750
O O8 0.744863 0.136032 0.978306
O O9 0.250000 0.750000 0.905676
O O10 0.000000 0.827934 0.915301
O O11 0.764374 0.890005 0.543880
O O12 0.000000 0.917629 0.619364
O O13 0.764375 0.000000 0.627637
O O14 0.794991 0.500000 0.316334
O O15 0.723424 0.375374 0.261846
O O16 0.772548 0.392051 0.399012
O O17 0.000000 0.400941 0.308978
O O18 0.750000 0.250000 0.204234
O O19 0.000000 0.176444 0.184641
O O20 0.000000 0.892565 0.458296
O O21 0.819240 0.000000 0.470251
#
# Coordination Sequence:
#
# PCOD9350256 Si02
#       7
#     8   8   8   8   8   8   8
#     4   9  17  28  44  67  94 122 152 190 236 280
#     4  10  17  27  44  66  92 122 157 194 234 277
#     4   9  15  24  39  61  88 118 153 191 230 274
#     4   8  14  27  48  70  90 117 157 199 234 272
#     4  10  20  34  52  74 100 128 160 198 240 286
#     4  11  21  34  52  74 101 128 159 198 241 288
#     4   8  14  27  48  70  90 118 159 200 234 274
#
# _framework density 17.899356000000001
#
# number of rings (size 3 to 8) (size 9 to 14) (size 15 to 20)
#    0.000    2.714    0.000    6.000    0.000    1.429 
#    0.000    1.429    0.000    3.857    0.000    2.000 
#    0.000    0.000    0.000    0.000    0.000    0.000 
#
# Total GULP energy -155957.742727 kJ/mol
# GULP energy per Si atom -5569.919383 kJ/mol
# Density = 1.785862 g / cm^3
# Si number density = 17.899356 Si / 1000 Ang^3
#
#
#
# Elastic Constant Matrix: (Units=GPa)
#
#
# Indices 1 2 3 4 5 6 
#
# 1 84.6676 14.3919 50.4678 0.0000 0.0000 0.0000
# 2 14.3919 14.0311 30.5630 0.0000 0.0000 0.0000
# 3 50.4678 30.5630 176.6995 0.0000 0.0000 0.0000
# 4 0.0000 0.0000 0.0000 40.7575 0.0000 0.0000
# 5 0.0000 0.0000 0.0000 0.0000 13.3667 0.0000
# 6 0.0000 0.0000 0.0000 0.0000 0.0000 13.3174
#
#
#
# Elastic Compliance Matrix: (Units=1/GPa)
#
#
# Indices 1 2 3 4 5 6 
#
# 1 0.015018 -0.009725 -0.002607 0.000000 0.000000 0.000000
# 2 -0.009725 0.120652 -0.018091 0.000000 0.000000 0.000000
# 3 -0.002607 -0.018091 0.009533 0.000000 0.000000 0.000000
# 4 0.000000 0.000000 0.000000 0.024535 0.000000 0.000000
# 5 0.000000 0.000000 0.000000 0.000000 0.074813 0.000000
# 6 0.000000 0.000000 0.000000 0.000000 0.000000 0.075090
#
#
# Mechanical properties :
#
#
# Convention : Reuss Voigt Hill
#
# Bulk Modulus (GPa) = 11.85445 51.80484 31.82965
# Shear Modulus (GPa) = 12.23670 25.48669 18.86169
#
# Velocity S-wave (km/s) = 2.61749 3.77754 3.24969
# Velocity P-wave (km/s) = 3.97142 6.93048 5.64817
#
# Compressibility (1/GPa) = 0.08435651
#
# Stress axis : x y z
#
# Youngs Moduli (GPa) = 66.58635 8.28829 104.89738
#
# Poissons Ratio (x) = 0.08060 0.27349
# Poissons Ratio (y) = 0.64756 1.89770
# Poissons Ratio (z) = 0.17361 0.14994
#
# Static dielectric constant tensor:
#      x y z
#    x 1.613290 0.000000 0.000000 
#    y 0.000000 1.588580 0.000000 
#    z 0.000000 0.000000 1.680980 
# 
# From -- ./inp_files/18273.got.cif
#   From: 2010.05.17/outbox.cif.g08.bks.cpg/sg35_10_cif.got.tgz:18273.got - 2010.06.03 17:29:28.
