data_PCOD9350915
_publ_section_title
;
Structure prediction by ZEFSAII (Michael W. Deem and Ramdas Pophale) SiO2 
 PCOD9350915
Probable space group: C M C 21
;
_chemical_formula_sum "Si O2"
_cell_formula_units_Z 64
_cell_length_a 7.677205
_cell_length_b 23.763272
_cell_length_c 16.481099
_cell_angle_alpha 90.000000
_cell_angle_beta 90.000000
_cell_angle_gamma 90.000000
_cell_volume 3006.737712
_symmetry_space_group_name_H-M "C M C 21"
_symmetry_group_IT_number 36
_symmetry_cell_setting 'orthorhombic'
loop_
_space_group_symop_operation_xyz
x,y,z
-x,-y,1/2+z
x,-y,1/2+z
-x,y,z
1/2+x,1/2+y,z
1/2-x,1/2-y,1/2+z
1/2+x,1/2-y,1/2+z
1/2-x,1/2+y,z
loop_
_atom_site_type_symbol
_atom_site_label
_atom_site_fract_x
_atom_site_fract_y
_atom_site_fract_z
Si Si1 0.296320 0.444038 0.615050
Si Si2 0.298015 0.450682 0.196924
Si Si3 0.786692 0.405679 0.892934
Si Si4 0.202330 0.468716 0.435788
Si Si5 0.211125 0.363672 0.066023
Si Si6 0.206953 0.347939 0.726149
Si Si7 0.790684 0.282652 0.210077
Si Si8 0.194970 0.370816 0.333406
O O1 0.500000 0.456132 0.603673
O O2 0.234210 0.486142 0.685824
O O3 0.207412 0.460961 0.531906
O O4 0.273311 0.381788 0.648002
O O5 0.500000 0.449548 0.222811
O O6 0.279930 0.419335 0.111063
O O7 0.188076 0.414374 0.258540
O O8 0.727323 0.470674 0.906618
O O9 0.726347 0.376872 0.809426
O O10 0.000000 0.406911 0.892504
O O11 0.735502 0.368742 0.972166
O O12 0.282718 0.410885 0.400066
O O13 0.000000 0.468277 0.409829
O O14 0.268059 0.312511 0.125689
O O15 0.000000 0.364753 0.067193
O O16 0.249969 0.282485 0.718239
O O17 0.000000 0.353840 0.727263
O O18 0.721748 0.317060 0.288869
O O19 0.000000 0.289662 0.211846
O O20 0.000000 0.354742 0.361687
#
# Coordination Sequence:
#
# PCOD9350915 Si02
#       8
#     8   8   8   8   8   8   8   8
#     4  11  23  37  53  80 119 153 181 225 290 343
#     4  10  19  31  52  83 115 144 180 223 275 337
#     4   9  18  34  59  88 111 140 189 241 283 334
#     4  10  19  35  60  87 113 142 188 235 278 342
#     4   9  17  34  60  83 109 147 188 232 283 337
#     4  11  23  39  59  82 111 151 200 241 279 334
#     4   9  19  37  57  79 113 150 187 230 284 340
#     4   9  19  35  58  84 111 147 185 227 280 337
#
# _framework density 21.285529
#
# number of rings (size 3 to 8) (size 9 to 14) (size 15 to 20)
#    0.000    2.250    1.250    2.625    0.000    5.000 
#    2.250    2.500    0.000    0.000    0.000    0.000 
#    0.000    0.000    0.000    0.000    0.000    0.000 
#
# Total GULP energy -178433.144312 kJ/mol
# GULP energy per Si atom -5576.035760 kJ/mol
# Density = 2.123708 g / cm^3
# Si number density = 21.285529 Si / 1000 Ang^3
#
#
#
# Elastic Constant Matrix: (Units=GPa)
#
#
# Indices 1 2 3 4 5 6 
#
# 1 44.3142 0.7095 2.4370 0.0000 0.0000 0.0000
# 2 0.7095 143.4370 42.8676 0.0000 0.0000 0.0000
# 3 2.4370 42.8676 73.1313 0.0000 0.0000 0.0000
# 4 0.0000 0.0000 0.0000 29.4958 0.0000 0.0000
# 5 0.0000 0.0000 0.0000 0.0000 -13.9842 0.0000
# 6 0.0000 0.0000 0.0000 0.0000 0.0000 15.9648
#
#
#
# Elastic Compliance Matrix: (Units=1/GPa)
#
#
# Indices 1 2 3 4 5 6 
#
# 1 0.022610 0.000137 -0.000834 0.000000 0.000000 0.000000
# 2 0.000137 0.008453 -0.004960 0.000000 0.000000 0.000000
# 3 -0.000834 -0.004960 0.016609 0.000000 0.000000 0.000000
# 4 0.000000 0.000000 0.000000 0.033903 0.000000 0.000000
# 5 0.000000 0.000000 0.000000 0.000000 -0.071509 0.000000
# 6 0.000000 0.000000 0.000000 0.000000 0.000000 0.062638
#
#
# Mechanical properties :
#
#
# Convention : Reuss Voigt Hill
#
# Bulk Modulus (GPa) = 27.50301 39.21229 33.35765
# Shear Modulus (GPa) = 52.00949 20.61983 36.31466
#
# Velocity S-wave (km/s) = 4.94846 3.11581 4.13494
# Velocity P-wave (km/s) = 6.75268 5.60414 6.20504
#
# Compressibility (1/GPa) = 0.03635966
#
# Stress axis : x y z
#
# Youngs Moduli (GPa) = 44.22863 118.29756 60.20819
#
# Poissons Ratio (x) = -0.01625 0.05021
# Poissons Ratio (y) = -0.00608 0.29861
# Poissons Ratio (z) = 0.03689 0.58671
#
# Static dielectric constant tensor:
#      x y z
#    x 1.810320 0.000000 0.000000 
#    y 0.000000 1.780850 0.000000 
#    z 0.000000 0.000000 1.826810 
# 
# From -- ./inp_files/13956.got.cif
#   From: 2010.05.17/outbox.cif.g08.bks.cpg/sg36_7_cif.got.tgz:13956.got - 2010.06.03 17:41:39.
