data_PCOD9350964
_publ_section_title
;
Structure prediction by ZEFSAII (Michael W. Deem and Ramdas Pophale) SiO2 
 PCOD9350964
Probable space group: C M C 21
;
_chemical_formula_sum "Si O2"
_cell_formula_units_Z 56
_cell_length_a 30.734438
_cell_length_b 18.200098
_cell_length_c 5.045320
_cell_angle_alpha 90.000000
_cell_angle_beta 90.000000
_cell_angle_gamma 90.000000
_cell_volume 2822.199556
_symmetry_space_group_name_H-M "C M C 21"
_symmetry_group_IT_number 36
_symmetry_cell_setting 'orthorhombic'
loop_
_space_group_symop_operation_xyz
x,y,z
-x,-y,1/2+z
x,-y,1/2+z
-x,y,z
1/2+x,1/2+y,z
1/2-x,1/2-y,1/2+z
1/2+x,1/2-y,1/2+z
1/2-x,1/2+y,z
loop_
_atom_site_type_symbol
_atom_site_label
_atom_site_fract_x
_atom_site_fract_y
_atom_site_fract_z
Si Si1 0.434923 0.951763 0.332250
Si Si2 0.450236 0.781718 0.442551
Si Si3 0.785352 0.679692 0.056750
Si Si4 0.447959 0.451177 0.290563
Si Si5 0.308438 0.731795 0.058342
Si Si6 0.169189 0.458829 0.308123
Si Si7 0.592305 0.705905 0.931469
O O1 0.450201 0.868882 0.381622
O O2 0.382405 0.945959 0.331931
O O3 0.447836 0.009543 0.559197
O O4 0.500000 0.759164 0.501110
O O5 0.420044 0.760977 0.691535
O O6 0.432260 0.737465 0.189715
O O7 0.733197 0.679200 0.021527
O O8 0.804830 0.742062 0.861421
O O9 0.805791 0.606900 0.942442
O O10 0.798176 0.701411 0.354627
O O11 0.437413 0.513791 0.506760
O O12 0.500000 0.438146 0.303653
O O13 0.424550 0.374788 0.353015
O O14 0.356321 0.704260 0.990489
O O15 0.179202 0.527248 0.502020
#
# Coordination Sequence:
#
# PCOD9350964 Si02
#       7
#     8   8   8   8   8   8   8
#     4  10  21  36  55  80 114 156 196 232 281 340
#     4  12  25  39  60  87 117 154 195 247 292 329
#     4  10  20  37  56  84 113 144 187 225 276 337
#     4  10  21  38  59  82 112 150 186 228 287 352
#     4  10  21  36  60  82 111 148 181 230 281 330
#     4  10  19  32  52  78 108 144 184 225 267 322
#     4  12  23  40  62  89 117 148 195 243 288 344
#
# _framework density 19.842680999999999
#
# number of rings (size 3 to 8) (size 9 to 14) (size 15 to 20)
#    0.000    1.429    0.000    6.429    0.000    4.000 
#    0.000    1.429    0.000    0.000    0.000    0.000 
#    0.000    0.000    0.000    0.000    0.000    0.000 
#
# Total GULP energy -156451.719913 kJ/mol
# GULP energy per Si atom -5587.561425 kJ/mol
# Density = 1.979752 g / cm^3
# Si number density = 19.842681 Si / 1000 Ang^3
#
#
#
# Elastic Constant Matrix: (Units=GPa)
#
#
# Indices 1 2 3 4 5 6 
#
# 1 57.5930 15.1343 -12.9008 0.0000 0.0000 0.0000
# 2 15.1343 46.9312 -24.1027 0.0000 0.0000 0.0000
# 3 -12.9008 -24.1027 59.8107 0.0000 0.0000 0.0000
# 4 0.0000 0.0000 0.0000 24.9563 0.0000 0.0000
# 5 0.0000 0.0000 0.0000 0.0000 14.4478 0.0000
# 6 0.0000 0.0000 0.0000 0.0000 0.0000 26.2629
#
#
#
# Elastic Compliance Matrix: (Units=1/GPa)
#
#
# Indices 1 2 3 4 5 6 
#
# 1 0.019172 -0.005118 0.002073 0.000000 0.000000 0.000000
# 2 -0.005118 0.028235 0.010274 0.000000 0.000000 0.000000
# 3 0.002073 0.010274 0.021307 0.000000 0.000000 0.000000
# 4 0.000000 0.000000 0.000000 0.040070 0.000000 0.000000
# 5 0.000000 0.000000 0.000000 0.000000 0.069215 0.000000
# 6 0.000000 0.000000 0.000000 0.000000 0.000000 0.038077
#
#
# Mechanical properties :
#
#
# Convention : Reuss Voigt Hill
#
# Bulk Modulus (GPa) = 12.02326 13.39961 12.71143
# Shear Modulus (GPa) = 21.80153 25.54700 23.67427
#
# Velocity S-wave (km/s) = 3.31829 3.59204 3.45787
# Velocity P-wave (km/s) = 4.55564 4.89604 4.72890
#
# Compressibility (1/GPa) = 0.08317213
#
# Stress axis : x y z
#
# Youngs Moduli (GPa) = 52.15804 35.41715 46.93324
#
# Poissons Ratio (x) = 0.18127 -0.09729
# Poissons Ratio (y) = 0.26695 -0.48220
# Poissons Ratio (z) = -0.10812 -0.36388
#
# Static dielectric constant tensor:
#      x y z
#    x 1.692660 0.000000 0.000000 
#    y 0.000000 1.684140 0.000000 
#    z 0.000000 0.000000 1.701360 
# 
# From -- ./inp_files/1859.got.cif
#   From: 2010.05.17/outbox.cif.g08.bks.cpg/sg36_1_cif.got.tgz:1859.got - 2010.06.03 17:41:39.
