data_PCOD9350838
_publ_section_title
;
Structure prediction by ZEFSAII (Michael W. Deem and Ramdas Pophale) SiO2 
 PCOD9350838
Probable space group: C M C 21
;
_chemical_formula_sum "Si O2"
_cell_formula_units_Z 64
_cell_length_a 9.287910
_cell_length_b 15.975563
_cell_length_c 18.804381
_cell_angle_alpha 90.000000
_cell_angle_beta 90.000000
_cell_angle_gamma 90.000000
_cell_volume 2790.186368
_symmetry_space_group_name_H-M "C M C 21"
_symmetry_group_IT_number 36
_symmetry_cell_setting 'orthorhombic'
loop_
_space_group_symop_operation_xyz
x,y,z
-x,-y,1/2+z
x,-y,1/2+z
-x,y,z
1/2+x,1/2+y,z
1/2-x,1/2-y,1/2+z
1/2+x,1/2-y,1/2+z
1/2-x,1/2+y,z
loop_
_atom_site_type_symbol
_atom_site_label
_atom_site_fract_x
_atom_site_fract_y
_atom_site_fract_z
Si Si1 0.326548 0.931124 0.006320
Si Si2 0.334745 0.739074 0.769882
Si Si3 0.831462 0.650180 0.647785
Si Si4 0.662110 0.912672 0.678384
Si Si5 0.827081 0.085543 0.930387
Si Si6 0.333552 0.322314 0.560854
Si Si7 0.166224 0.167554 0.388304
Si Si8 0.664078 0.496484 0.292665
O O1 0.500000 0.929406 0.999341
O O2 0.291431 0.919946 0.089781
O O3 0.257139 0.858201 0.957489
O O4 0.257474 0.013871 0.972970
O O5 0.500000 0.719050 0.789437
O O6 0.266477 0.671893 0.715450
O O7 0.338549 0.826840 0.725297
O O8 0.239860 0.763258 0.838169
O O9 0.819777 0.732559 0.597021
O O10 0.000000 0.642682 0.668591
O O11 0.500000 0.936792 0.662567
O O12 0.741930 0.885898 0.607481
O O13 0.736336 0.982879 0.726420
O O14 0.000000 0.069205 0.930950
O O15 0.786472 0.074793 0.848039
O O16 0.799369 0.167565 0.977525
O O17 0.500000 0.346573 0.568965
O O18 0.163907 0.081885 0.340391
O O19 0.000000 0.187863 0.405351
O O20 0.500000 0.482145 0.269455
#
# Coordination Sequence:
#
# PCOD9350838 Si02
#       8
#     8   8   8   8   8   8   8   8
#     4  10  19  30  46  69  96 123 152 188 230 274
#     4   9  16  26  43  67  92 117 150 192 231 268
#     4   9  18  31  47  68  94 124 154 186 227 273
#     4   9  16  25  40  65  91 114 145 185 227 265
#     4   9  18  31  48  69  91 119 154 189 227 270
#     4   9  17  31  49  67  90 120 153 186 221 268
#     4   9  16  27  44  65  90 119 153 191 228 269
#     4   8  14  25  41  62  86 112 145 185 225 263
#
# _framework density 22.937533999999999
#
# number of rings (size 3 to 8) (size 9 to 14) (size 15 to 20)
#    0.000    3.000    0.000    2.250    0.000    7.500 
#    0.000    0.000    0.000    1.500    0.000    7.000 
#    0.000    0.000    0.000    0.000    0.000    0.000 
#
# Total GULP energy -178837.949362 kJ/mol
# GULP energy per Si atom -5588.685918 kJ/mol
# Density = 2.288533 g / cm^3
# Si number density = 22.937534 Si / 1000 Ang^3
#
#
#
# Elastic Constant Matrix: (Units=GPa)
#
#
# Indices 1 2 3 4 5 6 
#
# 1 56.5214 32.4537 61.6896 0.0000 0.0000 0.0000
# 2 32.4537 78.4650 21.5533 0.0000 0.0000 0.0000
# 3 61.6896 21.5533 135.7694 0.0000 0.0000 0.0000
# 4 0.0000 0.0000 0.0000 50.9867 0.0000 0.0000
# 5 0.0000 0.0000 0.0000 0.0000 29.3801 0.0000
# 6 0.0000 0.0000 0.0000 0.0000 0.0000 10.3936
#
#
#
# Elastic Compliance Matrix: (Units=1/GPa)
#
#
# Indices 1 2 3 4 5 6 
#
# 1 0.046192 -0.013948 -0.018774 0.000000 0.000000 0.000000
# 2 -0.013948 0.017538 0.003554 0.000000 0.000000 0.000000
# 3 -0.018774 0.003554 0.015332 0.000000 0.000000 0.000000
# 4 0.000000 0.000000 0.000000 0.019613 0.000000 0.000000
# 5 0.000000 0.000000 0.000000 0.000000 0.034037 0.000000
# 6 0.000000 0.000000 0.000000 0.000000 0.000000 0.096213
#
#
# Mechanical properties :
#
#
# Convention : Reuss Voigt Hill
#
# Bulk Modulus (GPa) = 48.25380 55.79433 52.02407
# Shear Modulus (GPa) = 16.99704 28.48937 22.74320
#
# Velocity S-wave (km/s) = 2.72511 3.52808 3.15227
# Velocity P-wave (km/s) = 5.56636 6.40108 5.99826
#
# Compressibility (1/GPa) = 0.02072376
#
# Stress axis : x y z
#
# Youngs Moduli (GPa) = 21.64880 57.02052 65.22470
#
# Poissons Ratio (x) = 0.79534 1.22453
# Poissons Ratio (y) = 0.30197 -0.23179
# Poissons Ratio (z) = 0.40643 -0.20263
#
# Static dielectric constant tensor:
#      x y z
#    x 1.765250 0.000000 0.000000 
#    y 0.000000 1.959440 0.000000 
#    z 0.000000 0.000000 1.821220 
# 
# From -- ./inp_files/14008.got.cif
#   From: 2010.05.17/outbox.cif.g08.bks.cpg/sg36_8_cif.got.tgz:14008.got - 2010.06.03 17:41:39.
