data_PCOD9350276
_publ_section_title
;
Structure prediction by ZEFSAII (Michael W. Deem and Ramdas Pophale) SiO2 
 PCOD9350276
Probable space group: C M M 2
;
_chemical_formula_sum "Si O2"
_cell_formula_units_Z 56
_cell_length_a 18.975996
_cell_length_b 14.778451
_cell_length_c 10.207511
_cell_angle_alpha 90.000000
_cell_angle_beta 90.000000
_cell_angle_gamma 90.000000
_cell_volume 2862.551790
_symmetry_space_group_name_H-M "C M M 2"
_symmetry_group_IT_number 35
_symmetry_cell_setting 'orthorhombic'
loop_
_space_group_symop_operation_xyz
x,y,z
-x,-y,z
-x,y,z
x,-y,z
1/2+x,1/2+y,z
1/2-x,1/2-y,z
1/2-x,1/2+y,z
1/2+x,1/2-y,z
loop_
_atom_site_type_symbol
_atom_site_label
_atom_site_fract_x
_atom_site_fract_y
_atom_site_fract_z
Si Si1 0.830530 0.229968 0.682950
Si Si2 0.423211 0.891315 0.264064
Si Si3 0.580986 0.391830 0.879200
Si Si4 0.229045 0.646322 0.216777
Si Si5 0.672326 0.604953 0.428509
Si Si6 0.917319 0.605669 0.573492
Si Si7 0.125773 0.102567 0.155439
O O1 0.750000 0.250000 0.719131
O O2 0.869591 0.168829 0.789757
O O3 0.831178 0.170666 0.549600
O O4 0.870904 0.323528 0.653564
O O5 0.500000 0.855978 0.220989
O O6 0.352724 0.862697 0.189207
O O7 0.414036 0.870727 0.418471
O O8 0.425398 0.000000 0.255161
O O9 0.500000 0.383960 0.836385
O O10 0.599145 0.500000 0.875737
O O11 0.588172 0.358477 0.029817
O O12 0.250000 0.750000 0.218500
O O13 0.249862 0.892294 0.360491
O O14 0.210481 0.898218 0.127292
O O15 0.655963 0.500000 0.459347
O O16 0.624153 0.638503 0.304809
O O17 0.896394 0.500000 0.588911
O O18 0.000000 0.612885 0.610345
O O19 0.100114 0.000000 0.167737
#
# Coordination Sequence:
#
# PCOD9350276 Si02
#       7
#     8   8   8   8   8   8   8
#     4  12  23  34  57  94 125 159 195 252 306 361
#     4   9  16  27  45  72 108 146 180 220 279 342
#     4  10  22  43  65  85 117 161 207 255 310 370
#     4  10  17  28  50  77 109 146 188 237 282 338
#     4   9  18  33  55  87 122 154 198 251 302 354
#     4   9  19  35  53  77 116 162 200 236 288 358
#     4   8  18  36  58  80 108 153 201 248 299 359
#
# _framework density 19.562963
#
# number of rings (size 3 to 8) (size 9 to 14) (size 15 to 20)
#    0.857    1.571    0.000    4.714    0.000    2.857 
#    0.000    2.143    0.000    3.429    0.000    1.000 
#    0.000    8.000    0.000    0.286    0.000    0.000 
#
# Total GULP energy -155873.903956 kJ/mol
# GULP energy per Si atom -5566.925141 kJ/mol
# Density = 1.951844 g / cm^3
# Si number density = 19.562963 Si / 1000 Ang^3
#
#
#
# Elastic Constant Matrix: (Units=GPa)
#
#
# Indices 1 2 3 4 5 6 
#
# 1 99.9746 36.3726 33.8410 0.0000 0.0000 0.0000
# 2 36.3726 77.4526 14.2348 0.0000 0.0000 0.0000
# 3 33.8410 14.2348 48.9882 0.0000 0.0000 0.0000
# 4 0.0000 0.0000 0.0000 11.1276 0.0000 0.0000
# 5 0.0000 0.0000 0.0000 0.0000 18.4083 0.0000
# 6 0.0000 0.0000 0.0000 0.0000 0.0000 1.4542
#
#
#
# Elastic Compliance Matrix: (Units=1/GPa)
#
#
# Indices 1 2 3 4 5 6 
#
# 1 0.014927 -0.005403 -0.008742 0.000000 0.000000 0.000000
# 2 -0.005403 0.015595 -0.000799 0.000000 0.000000 0.000000
# 3 -0.008742 -0.000799 0.026684 0.000000 0.000000 0.000000
# 4 0.000000 0.000000 0.000000 0.089867 0.000000 0.000000
# 5 0.000000 0.000000 0.000000 0.000000 0.054323 0.000000
# 6 0.000000 0.000000 0.000000 0.000000 0.000000 0.687672
#
#
# Mechanical properties :
#
#
# Convention : Reuss Voigt Hill
#
# Bulk Modulus (GPa) = 36.60513 43.92360 40.26436
# Shear Modulus (GPa) = 5.38756 15.66248 10.52502
#
# Velocity S-wave (km/s) = 1.66131 2.83259 2.32202
# Velocity P-wave (km/s) = 4.73624 5.76188 5.27405
#
# Compressibility (1/GPa) = 0.02731858
#
# Stress axis : x y z
#
# Youngs Moduli (GPa) = 66.99063 64.12108 37.47565
#
# Poissons Ratio (x) = 0.34648 0.32760
# Poissons Ratio (y) = 0.36198 0.02994
# Poissons Ratio (z) = 0.58561 0.05123
#
# Static dielectric constant tensor:
#      x y z
#    x 1.832100 0.000000 0.000000 
#    y 0.000000 1.709020 0.000000 
#    z 0.000000 0.000000 1.683970 
# 
# From -- ./inp_files/9300.got.cif
#   From: 2010.05.17/outbox.cif.g08.bks.cpg/sg35_5_cif.got.tgz:9300.got - 2010.06.03 17:29:28.
