data_PCOD9350986
_publ_section_title
;
Structure prediction by ZEFSAII (Michael W. Deem and Ramdas Pophale) SiO2 
 PCOD9350986
Probable space group: C M C 21
;
_chemical_formula_sum "Si O2"
_cell_formula_units_Z 64
_cell_length_a 8.790181
_cell_length_b 20.534953
_cell_length_c 20.328147
_cell_angle_alpha 90.000000
_cell_angle_beta 90.000000
_cell_angle_gamma 90.000000
_cell_volume 3669.351561
_symmetry_space_group_name_H-M "C M C 21"
_symmetry_group_IT_number 36
_symmetry_cell_setting 'orthorhombic'
loop_
_space_group_symop_operation_xyz
x,y,z
-x,-y,1/2+z
x,-y,1/2+z
-x,y,z
1/2+x,1/2+y,z
1/2-x,1/2-y,1/2+z
1/2+x,1/2-y,1/2+z
1/2-x,1/2+y,z
loop_
_atom_site_type_symbol
_atom_site_label
_atom_site_fract_x
_atom_site_fract_y
_atom_site_fract_z
Si Si1 0.183423 0.914708 0.485540
Si Si2 0.818927 0.698593 0.755790
Si Si3 0.182147 0.842823 0.717369
Si Si4 0.181614 0.692270 0.075470
Si Si5 0.318750 0.979341 0.734116
Si Si6 0.681767 0.334312 0.115017
Si Si7 0.182996 0.979607 0.093484
Si Si8 0.318008 0.415740 0.334278
O O1 0.253235 0.849212 0.515729
O O2 0.227288 0.925582 0.410073
O O3 0.000000 0.909909 0.487938
O O4 0.229739 0.973636 0.533893
O O5 0.781481 0.775433 0.754828
O O6 0.767985 0.672156 0.684247
O O7 0.734913 0.655052 0.809358
O O8 0.000000 0.691367 0.762743
O O9 0.244899 0.834139 0.643173
O O10 0.255581 0.907070 0.747644
O O11 0.000000 0.849788 0.714479
O O12 0.216410 0.769421 0.073635
O O13 0.000000 0.684280 0.079360
O O14 0.500000 0.979582 0.734249
O O15 0.258683 0.998794 0.661685
O O16 0.256242 0.031128 0.786378
O O17 0.500000 0.333388 0.128874
O O18 0.717865 0.403449 0.082516
O O19 0.000000 0.985710 0.101274
O O20 0.500000 0.420793 0.328786
#
# Coordination Sequence:
#
# PCOD9350986 Si02
#       8
#     8   8   8   8   8   8   8   8
#     4  10  22  38  57  80 111 154 196 231 282 349
#     4  10  20  34  55  83 111 142 186 237 281 332
#     4  10  20  35  56  82 113 146 183 231 287 338
#     4  10  19  32  53  83 114 143 181 231 282 331
#     4  12  23  35  56  87 115 146 192 241 288 337
#     4   9  18  32  54  82 111 143 179 225 281 333
#     4  10  19  35  58  82 111 149 189 233 282 337
#     4  11  23  39  57  79 114 159 196 233 287 347
#
# _framework density 17.441773999999999
#
# number of rings (size 3 to 8) (size 9 to 14) (size 15 to 20)
#    0.000    1.750    2.500    2.625    0.000    3.000 
#    0.000    1.250    0.000    3.000    0.000    0.000 
#    0.000    0.000    0.000    0.000    0.000    0.000 
#
# Total GULP energy -178660.517980 kJ/mol
# GULP energy per Si atom -5583.141187 kJ/mol
# Density = 1.740208 g / cm^3
# Si number density = 17.441774 Si / 1000 Ang^3
#
#
#
# Elastic Constant Matrix: (Units=GPa)
#
#
# Indices 1 2 3 4 5 6 
#
# 1 48.6393 52.0288 45.6754 0.0000 0.0000 0.0000
# 2 52.0288 143.6767 75.8487 0.0000 0.0000 0.0000
# 3 45.6754 75.8487 120.4127 0.0000 0.0000 0.0000
# 4 0.0000 0.0000 0.0000 24.8674 0.0000 0.0000
# 5 0.0000 0.0000 0.0000 0.0000 18.0467 0.0000
# 6 0.0000 0.0000 0.0000 0.0000 0.0000 29.8516
#
#
#
# Elastic Compliance Matrix: (Units=1/GPa)
#
#
# Indices 1 2 3 4 5 6 
#
# 1 0.038951 -0.009447 -0.008825 0.000000 0.000000 0.000000
# 2 -0.009447 0.012719 -0.004428 0.000000 0.000000 0.000000
# 3 -0.008825 -0.004428 0.014442 0.000000 0.000000 0.000000
# 4 0.000000 0.000000 0.000000 0.040213 0.000000 0.000000
# 5 0.000000 0.000000 0.000000 0.000000 0.055412 0.000000
# 6 0.000000 0.000000 0.000000 0.000000 0.000000 0.033499
#
#
# Mechanical properties :
#
#
# Convention : Reuss Voigt Hill
#
# Bulk Modulus (GPa) = 48.28001 73.31496 60.79748
# Shear Modulus (GPa) = 20.19885 23.83153 22.01519
#
# Velocity S-wave (km/s) = 3.40674 3.70042 3.55661
# Velocity P-wave (km/s) = 6.57383 7.77064 7.19716
#
# Compressibility (1/GPa) = 0.02071251
#
# Stress axis : x y z
#
# Youngs Moduli (GPa) = 25.67306 78.62498 69.24444
#
# Poissons Ratio (x) = 0.74273 0.61107
# Poissons Ratio (y) = 0.24252 0.30663
# Poissons Ratio (z) = 0.22656 0.34817
#
# Static dielectric constant tensor:
#      x y z
#    x 1.584570 0.000000 0.000000 
#    y 0.000000 1.614190 0.000000 
#    z 0.000000 0.000000 1.557830 
# 
# From -- ./inp_files/13858.got.cif
#   From: 2010.05.17/outbox.cif.g08.bks.cpg/sg36_7_cif.got.tgz:13858.got - 2010.06.03 17:41:39.
