data_PCOD9350553
_publ_section_title
;
Structure prediction by ZEFSAII (Michael W. Deem and Ramdas Pophale) SiO2 
 PCOD9350553
Probable space group: C M C 21
;
_chemical_formula_sum "Si O2"
_cell_formula_units_Z 64
_cell_length_a 7.550745
_cell_length_b 21.645463
_cell_length_c 18.205480
_cell_angle_alpha 90.000000
_cell_angle_beta 90.000000
_cell_angle_gamma 90.000000
_cell_volume 2975.492209
_symmetry_space_group_name_H-M "C M C 21"
_symmetry_group_IT_number 36
_symmetry_cell_setting 'orthorhombic'
loop_
_space_group_symop_operation_xyz
x,y,z
-x,-y,1/2+z
x,-y,1/2+z
-x,y,z
1/2+x,1/2+y,z
1/2-x,1/2-y,1/2+z
1/2+x,1/2-y,1/2+z
1/2-x,1/2+y,z
loop_
_atom_site_type_symbol
_atom_site_label
_atom_site_fract_x
_atom_site_fract_y
_atom_site_fract_z
Si Si1 0.783421 0.876102 0.844770
Si Si2 0.716580 0.246951 0.908763
Si Si3 0.287370 0.749476 0.570394
Si Si4 0.295357 0.856303 0.296696
Si Si5 0.710405 0.509286 0.151794
Si Si6 0.787769 0.139705 0.177067
Si Si7 0.708317 0.489985 0.327940
Si Si8 0.294961 0.622272 0.629796
O O1 0.730604 0.817711 0.893262
O O2 0.725873 0.860472 0.761323
O O3 0.000000 0.878342 0.845444
O O4 0.724499 0.946039 0.863709
O O5 0.500000 0.245028 0.906190
O O6 0.777109 0.198919 0.846707
O O7 0.774612 0.229155 0.990421
O O8 0.500000 0.744188 0.566518
O O9 0.249679 0.798560 0.633415
O O10 0.215616 0.681774 0.590596
O O11 0.500000 0.842643 0.279997
O O12 0.287161 0.922097 0.339057
O O13 0.205837 0.864497 0.217499
O O14 0.500000 0.509141 0.135283
O O15 0.780791 0.577732 0.136395
O O16 0.726859 0.502361 0.240254
O O17 0.785700 0.445919 0.118937
O O18 0.000000 0.133269 0.181400
O O19 0.500000 0.484469 0.344254
O O20 0.500000 0.618142 0.606223
#
# Coordination Sequence:
#
# PCOD9350553 Si02
#       8
#     8   8   8   8   8   8   8   8
#     4   8  14  28  51  72  89 117 156 193 225 263
#     4   9  18  31  45  65  94 126 157 185 221 272
#     4  10  20  32  46  66  94 125 154 188 228 268
#     4  10  18  29  49  72  93 119 150 185 226 275
#     4   7  12  25  45  67  89 113 141 179 225 265
#     4   9  16  29  50  71  91 116 149 188 228 272
#     4   8  14  27  48  72  94 113 143 190 233 266
#     4   9  17  31  50  69  90 117 152 192 228 263
#
# _framework density 21.509048
#
# number of rings (size 3 to 8) (size 9 to 14) (size 15 to 20)
#    0.000    3.250    0.000    3.375    0.000    1.500 
#    0.000    8.125    0.000    6.000    0.000    0.000 
#    0.000    0.000    0.000    0.000    0.000    0.000 
#
# Total GULP energy -178287.691654 kJ/mol
# GULP energy per Si atom -5571.490364 kJ/mol
# Density = 2.146009 g / cm^3
# Si number density = 21.509048 Si / 1000 Ang^3
#
#
#
# Elastic Constant Matrix: (Units=GPa)
#
#
# Indices 1 2 3 4 5 6 
#
# 1 45.6878 -0.5219 -10.4744 0.0000 0.0000 0.0000
# 2 -0.5219 75.1023 0.2112 0.0000 0.0000 0.0000
# 3 -10.4744 0.2112 13.1991 0.0000 0.0000 0.0000
# 4 0.0000 0.0000 0.0000 -0.0828 0.0000 0.0000
# 5 0.0000 0.0000 0.0000 0.0000 6.3505 0.0000
# 6 0.0000 0.0000 0.0000 0.0000 0.0000 -185.1371
#
#
#
# Elastic Compliance Matrix: (Units=1/GPa)
#
#
# Indices 1 2 3 4 5 6 
#
# 1 0.026757 0.000126 0.021231 0.000000 0.000000 0.000000
# 2 0.000126 0.013316 -0.000113 0.000000 0.000000 0.000000
# 3 0.021231 -0.000113 0.092613 0.000000 0.000000 0.000000
# 4 0.000000 0.000000 0.000000-12.076544 0.000000 0.000000
# 5 0.000000 0.000000 0.000000 0.000000 0.157469 0.000000
# 6 0.000000 0.000000 0.000000 0.000000 0.000000 -0.005401
#
#
# Mechanical properties :
#
#
# Convention : Reuss Voigt Hill
#
# Bulk Modulus (GPa) = 5.70860 12.49100 9.09980
# Shear Modulus (GPa) = -0.42460 -26.12228 -13.27344
#
# Velocity S-wave (km/s) = -0.44478 -3.48872 -2.48686
# Velocity P-wave (km/s) = 1.54791 3.22619 2.00153
#
# Compressibility (1/GPa) = 0.17517445
#
# Stress axis : x y z
#
# Youngs Moduli (GPa) = 37.37400 75.09552 10.79766
#
# Poissons Ratio (x) = -0.00948 -0.22925
# Poissons Ratio (y) = -0.00472 0.00122
# Poissons Ratio (z) = -0.79349 0.00848
#
# Static dielectric constant tensor:
#      x y z
#    x 1.829670 0.000000 0.000000 
#    y 0.000000 1.834300 0.000000 
#    z 0.000000 0.000000 1.750990 
# 
# From -- ./inp_files/15828.got.cif
#   From: 2010.05.17/outbox.cif.g08.bks.cpg/sg36_8_cif.got.tgz:15828.got - 2010.06.03 17:41:39.
