data_PCOD9350304
_publ_section_title
;
Structure prediction by ZEFSAII (Michael W. Deem and Ramdas Pophale) SiO2 
 PCOD9350304
Probable space group: C M M 2
;
_chemical_formula_sum "Si O2"
_cell_formula_units_Z 48
_cell_length_a 26.913486
_cell_length_b 9.123425
_cell_length_c 11.808774
_cell_angle_alpha 90.000000
_cell_angle_beta 90.000000
_cell_angle_gamma 90.000000
_cell_volume 2899.563814
_symmetry_space_group_name_H-M "C M M 2"
_symmetry_group_IT_number 35
_symmetry_cell_setting 'orthorhombic'
loop_
_space_group_symop_operation_xyz
x,y,z
-x,-y,z
-x,y,z
x,-y,z
1/2+x,1/2+y,z
1/2-x,1/2-y,z
1/2-x,1/2+y,z
1/2+x,1/2-y,z
loop_
_atom_site_type_symbol
_atom_site_label
_atom_site_fract_x
_atom_site_fract_y
_atom_site_fract_z
Si Si1 0.302650 0.325654 0.142540
Si Si2 0.443110 0.823940 0.780698
Si Si3 0.382088 0.334403 0.965738
Si Si4 0.697092 0.326404 0.411638
Si Si5 0.205088 0.835539 0.782768
Si Si6 0.857831 0.324645 0.602297
O O1 0.298102 0.500000 0.118114
O O2 0.250000 0.250000 0.113890
O O3 0.310378 0.307131 0.276932
O O4 0.351179 0.273240 0.072868
O O5 0.500000 0.780225 0.760119
O O6 0.423521 0.757674 0.899368
O O7 0.407055 0.783009 0.675025
O O8 0.440393 0.000000 0.788933
O O9 0.399891 0.500000 0.991533
O O10 0.339311 0.344833 0.870829
O O11 0.699845 0.500000 0.435956
O O12 0.750000 0.250000 0.439389
O O13 0.652847 0.252313 0.482918
O O14 0.250000 0.750000 0.838984
O O15 0.186924 0.736691 0.679321
O O16 0.218452 0.000000 0.747107
O O17 0.856412 0.500000 0.591700
#
# Coordination Sequence:
#
# PCOD9350304 Si02
#       6
#     8   8   8   8   8   8
#     4   9  18  31  47  69  98 130 161 191 223 264
#     4   9  19  35  53  72  92 116 150 195 244 287
#     4   9  18  31  47  69  94 121 153 188 229 277
#     4  10  19  31  47  68  97 130 162 193 224 265
#     4  10  18  27  41  63  92 121 150 184 224 273
#     4  10  19  31  47  66  90 120 154 191 233 279
#
# _framework density 16.554214999999999
#
# number of rings (size 3 to 8) (size 9 to 14) (size 15 to 20)
#    0.000    2.500    0.000    2.500    0.000    3.000 
#    0.000    0.000    0.000    1.000    0.000    4.667 
#    0.000    0.000    0.000    0.000    0.000    0.000 
#
# Total GULP energy -133642.714249 kJ/mol
# GULP energy per Si atom -5568.446427 kJ/mol
# Density = 1.651654 g / cm^3
# Si number density = 16.554215 Si / 1000 Ang^3
#
#
#
# Elastic Constant Matrix: (Units=GPa)
#
#
# Indices 1 2 3 4 5 6 
#
# 1 89.2241 45.9379 41.4472 0.0000 0.0000 0.0000
# 2 45.9379 61.4749 36.7023 0.0000 0.0000 0.0000
# 3 41.4472 36.7023 84.5869 0.0000 0.0000 0.0000
# 4 0.0000 0.0000 0.0000 21.7381 0.0000 0.0000
# 5 0.0000 0.0000 0.0000 0.0000 22.8230 0.0000
# 6 0.0000 0.0000 0.0000 0.0000 0.0000 20.8238
#
#
#
# Elastic Compliance Matrix: (Units=1/GPa)
#
#
# Indices 1 2 3 4 5 6 
#
# 1 0.019320 -0.011857 -0.004322 0.000000 0.000000 0.000000
# 2 -0.011857 0.029230 -0.006873 0.000000 0.000000 0.000000
# 3 -0.004322 -0.006873 0.016922 0.000000 0.000000 0.000000
# 4 0.000000 0.000000 0.000000 0.046002 0.000000 0.000000
# 5 0.000000 0.000000 0.000000 0.000000 0.043815 0.000000
# 6 0.000000 0.000000 0.000000 0.000000 0.000000 0.048022
#
#
# Mechanical properties :
#
#
# Convention : Reuss Voigt Hill
#
# Bulk Modulus (GPa) = 51.63032 53.71783 52.67408
# Shear Modulus (GPa) = 19.54096 20.49022 20.01559
#
# Velocity S-wave (km/s) = 3.43945 3.52200 3.48097
# Velocity P-wave (km/s) = 6.85780 7.00424 6.93141
#
# Compressibility (1/GPa) = 0.01936846
#
# Stress axis : x y z
#
# Youngs Moduli (GPa) = 51.75985 34.21089 59.09354
#
# Poissons Ratio (x) = 0.40563 0.25541
# Poissons Ratio (y) = 0.61370 0.40617
# Poissons Ratio (z) = 0.22371 0.23514
#
# Static dielectric constant tensor:
#      x y z
#    x 1.581210 0.000000 0.000000 
#    y 0.000000 1.605580 0.000000 
#    z 0.000000 0.000000 1.586580 
# 
# From -- ./inp_files/11366.got.cif
#   From: 2010.05.17/outbox.cif.g08.bks.cpg/sg35_6_cif.got.tgz:11366.got - 2010.06.03 17:29:28.
