data_PCOD9350777
_publ_section_title
;
Structure prediction by ZEFSAII (Michael W. Deem and Ramdas Pophale) SiO2 
 PCOD9350777
Probable space group: C M C 21
;
_chemical_formula_sum "Si O2"
_cell_formula_units_Z 64
_cell_length_a 8.513799
_cell_length_b 15.911003
_cell_length_c 24.429798
_cell_angle_alpha 90.000000
_cell_angle_beta 90.000000
_cell_angle_gamma 90.000000
_cell_volume 3309.335716
_symmetry_space_group_name_H-M "C M C 21"
_symmetry_group_IT_number 36
_symmetry_cell_setting 'orthorhombic'
loop_
_space_group_symop_operation_xyz
x,y,z
-x,-y,1/2+z
x,-y,1/2+z
-x,y,z
1/2+x,1/2+y,z
1/2-x,1/2-y,1/2+z
1/2+x,1/2-y,1/2+z
1/2-x,1/2+y,z
loop_
_atom_site_type_symbol
_atom_site_label
_atom_site_fract_x
_atom_site_fract_y
_atom_site_fract_z
Si Si1 0.313379 0.403968 0.292010
Si Si2 0.686621 0.903966 0.035550
Si Si3 0.312177 0.649930 0.419103
Si Si4 0.312177 0.149929 0.908457
Si Si5 0.691683 0.408745 0.799545
Si Si6 0.187570 0.746794 0.102391
Si Si7 0.191683 0.591253 0.028016
Si Si8 0.812429 0.246796 0.225169
O O1 0.500000 0.400246 0.284050
O O2 0.273526 0.384549 0.355181
O O3 0.258613 0.499053 0.280138
O O4 0.236373 0.332667 0.254927
O O5 0.500000 0.900243 0.043510
O O6 0.763628 0.832665 0.072632
O O7 0.741386 0.999051 0.047422
O O8 0.726473 0.884547 0.972379
O O9 0.500000 0.637023 0.425924
O O10 0.286970 0.750001 0.413780
O O11 0.260321 0.607557 0.362345
O O12 0.500000 0.137021 0.901636
O O13 0.260320 0.107555 0.965216
O O14 0.500000 0.407266 0.799838
O O15 0.745545 0.332428 0.761253
O O16 0.245545 0.667569 0.066308
O O17 0.250001 0.743295 0.163780
O O18 0.000000 0.742628 0.103481
O O19 0.000000 0.592732 0.027721
O O20 0.000000 0.242631 0.224080
#
# Coordination Sequence:
#
# PCOD9350777 Si02
#       8
#     8   8   8   8   8   8   8   8
#     4  11  22  37  59  91 122 151 191 240 287 342
#     4  11  22  37  59  91 122 151 191 240 287 342
#     4  10  18  35  61  86 118 160 193 230 289 348
#     4  10  18  35  61  86 118 160 193 230 289 348
#     4   9  20  38  60  85 119 156 192 234 288 348
#     4  11  23  43  63  83 113 154 197 241 291 345
#     4   9  20  38  60  85 119 156 192 234 288 348
#     4  11  23  43  63  83 113 154 197 241 291 345
#
# _framework density 19.339227999999999
#
# number of rings (size 3 to 8) (size 9 to 14) (size 15 to 20)
#    0.000    1.750    2.500    2.250    0.000    1.500 
#    0.000    8.750    0.000    0.000    0.000    0.000 
#    0.000    0.000    0.000    0.000    0.000    0.000 
#
# Total GULP energy -178800.721179 kJ/mol
# GULP energy per Si atom -5587.522537 kJ/mol
# Density = 1.929521 g / cm^3
# Si number density = 19.339228 Si / 1000 Ang^3
#
#
#
# Elastic Constant Matrix: (Units=GPa)
#
#
# Indices 1 2 3 4 5 6 
#
# 1 28.2522 21.1643 13.0089 0.0000 0.0000 0.0000
# 2 21.1643 105.6979 34.2036 0.0000 0.0000 0.0000
# 3 13.0089 34.2036 109.9330 0.0000 0.0000 0.0000
# 4 0.0000 0.0000 0.0000 -1.0395 0.0000 0.0000
# 5 0.0000 0.0000 0.0000 0.0000 35.8987 0.0000
# 6 0.0000 0.0000 0.0000 0.0000 0.0000 5.1891
#
#
#
# Elastic Compliance Matrix: (Units=1/GPa)
#
#
# Indices 1 2 3 4 5 6 
#
# 1 0.042318 -0.007620 -0.002637 0.000000 0.000000 0.000000
# 2 -0.007620 0.011892 -0.002798 0.000000 0.000000 0.000000
# 3 -0.002637 -0.002798 0.010279 0.000000 0.000000 0.000000
# 4 0.000000 0.000000 0.000000 -0.961960 0.000000 0.000000
# 5 0.000000 0.000000 0.000000 0.000000 0.027856 0.000000
# 6 0.000000 0.000000 0.000000 0.000000 0.000000 0.192712
#
#
# Mechanical properties :
#
#
# Convention : Reuss Voigt Hill
#
# Bulk Modulus (GPa) = 26.05606 42.29296 34.17451
# Shear Modulus (GPa) = -7.83701 19.71006 5.93653
#
# Velocity S-wave (km/s) = -2.01524 3.19592 1.75395
# Velocity P-wave (km/s) = 2.84385 5.96112 4.67025
#
# Compressibility (1/GPa) = 0.03837878
#
# Stress axis : x y z
#
# Youngs Moduli (GPa) = 23.63051 84.08813 97.28455
#
# Poissons Ratio (x) = 0.64077 0.25652
# Poissons Ratio (y) = 0.18007 0.27223
# Poissons Ratio (z) = 0.06231 0.23531
#
# Static dielectric constant tensor:
#      x y z
#    x 1.666160 0.000000 0.000000 
#    y 0.000000 1.681210 0.000000 
#    z 0.000000 0.000000 1.636730 
# 
# From -- ./inp_files/16655.got.cif
#   From: 2010.05.17/outbox.cif.g08.bks.cpg/sg36_9_cif.got.tgz:16655.got - 2010.06.03 17:41:39.
