data_PCOD9350552
_publ_section_title
;
Structure prediction by ZEFSAII (Michael W. Deem and Ramdas Pophale) SiO2 
 PCOD9350552
Probable space group: C M C 21
;
_chemical_formula_sum "Si O2"
_cell_formula_units_Z 56
_cell_length_a 13.587896
_cell_length_b 17.457358
_cell_length_c 9.934432
_cell_angle_alpha 90.000000
_cell_angle_beta 90.000000
_cell_angle_gamma 90.000000
_cell_volume 2356.534345
_symmetry_space_group_name_H-M "C M C 21"
_symmetry_group_IT_number 36
_symmetry_cell_setting 'orthorhombic'
loop_
_space_group_symop_operation_xyz
x,y,z
-x,-y,1/2+z
x,-y,1/2+z
-x,y,z
1/2+x,1/2+y,z
1/2-x,1/2-y,1/2+z
1/2+x,1/2-y,1/2+z
1/2-x,1/2+y,z
loop_
_atom_site_type_symbol
_atom_site_label
_atom_site_fract_x
_atom_site_fract_y
_atom_site_fract_z
Si Si1 0.118124 0.534743 0.990420
Si Si2 0.119433 0.871956 0.436249
Si Si3 0.881044 0.827401 0.140467
Si Si4 0.699576 0.326238 0.720950
Si Si5 0.616896 0.089070 0.281970
Si Si6 0.618475 0.549934 0.426814
Si Si7 0.119084 0.294682 0.414898
O O1 0.149912 0.459729 0.910573
O O2 0.000000 0.533775 0.973017
O O3 0.135573 0.537149 0.149549
O O4 0.149587 0.617119 0.931605
O O5 0.147860 0.832889 0.295469
O O6 0.167444 0.834986 0.567397
O O7 0.000000 0.868045 0.449617
O O8 0.148162 0.961622 0.428511
O O9 0.851592 0.905071 0.062175
O O10 0.849360 0.759094 0.040749
O O11 0.000000 0.824433 0.141429
O O12 0.813974 0.338598 0.758909
O O13 0.651481 0.398699 0.800747
O O14 0.656443 0.249129 0.783825
O O15 0.500000 0.107712 0.285962
O O16 0.500000 0.550033 0.423433
O O17 0.000000 0.293983 0.413942
#
# Coordination Sequence:
#
# PCOD9350552 Si02
#       7
#     8   8   8   8   8   8   8
#     4   9  20  44  72  91 118 161 216 272 320 369
#     4  10  18  29  48  84 133 174 207 247 303 381
#     4   8  15  28  48  79 121 166 204 239 297 377
#     4  11  21  33  59  94 127 164 207 268 313 378
#     4  10  23  44  68  92 120 167 221 274 318 359
#     4   9  17  30  49  80 127 174 209 246 308 381
#     4   9  18  38  66  96 130 170 202 246 323 393
#
# _framework density 23.763711000000001
#
# number of rings (size 3 to 8) (size 9 to 14) (size 15 to 20)
#    0.000    2.571    0.000    3.000    2.000    2.286 
#    0.000    4.286    0.000    6.857    0.000    2.000 
#    0.000    0.000    0.000    0.000    0.000    0.000 
#
# Total GULP energy -156712.675895 kJ/mol
# GULP energy per Si atom -5596.881282 kJ/mol
# Density = 2.370962 g / cm^3
# Si number density = 23.763711 Si / 1000 Ang^3
#
#
#
# Elastic Constant Matrix: (Units=GPa)
#
#
# Indices 1 2 3 4 5 6 
#
# 1 91.0403 33.2842 30.9410 0.0000 0.0000 0.0000
# 2 33.2842 68.4734 22.9213 0.0000 0.0000 0.0000
# 3 30.9410 22.9213 134.2316 0.0000 0.0000 0.0000
# 4 0.0000 0.0000 0.0000 30.0836 0.0000 0.0000
# 5 0.0000 0.0000 0.0000 0.0000 23.1754 0.0000
# 6 0.0000 0.0000 0.0000 0.0000 0.0000 39.6219
#
#
#
# Elastic Compliance Matrix: (Units=1/GPa)
#
#
# Indices 1 2 3 4 5 6 
#
# 1 0.013935 -0.006044 -0.002180 0.000000 0.000000 0.000000
# 2 -0.006044 0.018111 -0.001699 0.000000 0.000000 0.000000
# 3 -0.002180 -0.001699 0.008243 0.000000 0.000000 0.000000
# 4 0.000000 0.000000 0.000000 0.033241 0.000000 0.000000
# 5 0.000000 0.000000 0.000000 0.000000 0.043149 0.000000
# 6 0.000000 0.000000 0.000000 0.000000 0.000000 0.025239
#
#
# Mechanical properties :
#
#
# Convention : Reuss Voigt Hill
#
# Bulk Modulus (GPa) = 48.91977 52.00425 50.46201
# Shear Modulus (GPa) = 29.66008 32.34944 31.00476
#
# Velocity S-wave (km/s) = 3.53671 3.69358 3.61600
# Velocity P-wave (km/s) = 6.10806 6.33415 6.22213
#
# Compressibility (1/GPa) = 0.02044163
#
# Stress axis : x y z
#
# Youngs Moduli (GPa) = 71.76371 55.21538 121.32233
#
# Poissons Ratio (x) = 0.33371 0.26448
# Poissons Ratio (y) = 0.43372 0.20619
# Poissons Ratio (z) = 0.15644 0.09384
#
# Static dielectric constant tensor:
#      x y z
#    x 1.974190 0.000000 0.000000 
#    y 0.000000 1.854210 0.000000 
#    z 0.000000 0.000000 1.866000 
# 
# From -- ./inp_files/4205.got.cif
#   From: 2010.05.17/outbox.cif.g08.bks.cpg/sg36_3_cif.got.tgz:4205.got - 2010.06.03 17:41:39.
