data_PCOD9350784
_publ_section_title
;
Structure prediction by ZEFSAII (Michael W. Deem and Ramdas Pophale) SiO2 
 PCOD9350784
Probable space group: C M C 21
;
_chemical_formula_sum "Si O2"
_cell_formula_units_Z 48
_cell_length_a 8.070010
_cell_length_b 13.429807
_cell_length_c 19.297322
_cell_angle_alpha 90.000000
_cell_angle_beta 90.000000
_cell_angle_gamma 90.000000
_cell_volume 2091.418224
_symmetry_space_group_name_H-M "C M C 21"
_symmetry_group_IT_number 36
_symmetry_cell_setting 'orthorhombic'
loop_
_space_group_symop_operation_xyz
x,y,z
-x,-y,1/2+z
x,-y,1/2+z
-x,y,z
1/2+x,1/2+y,z
1/2-x,1/2-y,1/2+z
1/2+x,1/2-y,1/2+z
1/2-x,1/2+y,z
loop_
_atom_site_type_symbol
_atom_site_label
_atom_site_fract_x
_atom_site_fract_y
_atom_site_fract_z
Si Si1 0.500000 0.317714 0.385641
Si Si2 0.183190 0.619858 0.529765
Si Si3 0.500000 0.591680 0.738653
Si Si4 0.000000 0.066310 0.013700
Si Si5 0.500000 0.344010 0.084539
Si Si6 0.803948 0.438694 0.747055
Si Si7 0.317281 0.098443 0.090985
Si Si8 0.199456 0.167989 0.388558
O O1 0.500000 0.338381 0.304490
O O2 0.500000 0.417717 0.431569
O O3 0.327720 0.259258 0.399846
O O4 0.322315 0.692409 0.559798
O O5 0.173508 0.522729 0.578627
O O6 0.243086 0.595353 0.451447
O O7 0.000000 0.661697 0.526325
O O8 0.500000 0.647413 0.666090
O O9 0.667838 0.526169 0.742096
O O10 0.160318 0.120033 0.044488
O O11 0.000000 0.955330 0.047391
O O12 0.791429 0.383643 0.672656
O O13 0.746710 0.376017 0.813762
O O14 0.000000 0.466657 0.754738
O O15 0.500000 0.134202 0.070650
O O16 0.000000 0.186783 0.393303
#
# Coordination Sequence:
#
# PCOD9350784 Si02
#       8
#     4   8   4   4   4   8   8   8
#     4  12  30  46  58 100 142 174 208 282 328 398
#     4  10  18  35  64  94 126 162 212 269 313 381
#     4  12  24  42  72 100 133 168 226 278 326 381
#     4  10  20  40  62  88 136 157 208 268 329 366
#     4  10  20  38  68 106 121 159 222 276 323 379
#     4  11  21  39  71 101 127 172 227 271 321 392
#     4   9  19  34  64 103 126 150 217 280 315 369
#     4  12  25  43  67  90 137 188 220 258 338 408
#
# _framework density 22.950932999999999
#
# number of rings (size 3 to 8) (size 9 to 14) (size 15 to 20)
#    0.000    1.333    6.667    0.000    4.667    1.333 
#    0.000    1.667    0.000    0.000    0.000    0.000 
#    0.000    0.000    0.000    0.000    0.000    0.000 
#
# Total GULP energy -133944.567410 kJ/mol
# GULP energy per Si atom -5581.023642 kJ/mol
# Density = 2.289870 g / cm^3
# Si number density = 22.950933 Si / 1000 Ang^3
#
#
#
# Elastic Constant Matrix: (Units=GPa)
#
#
# Indices 1 2 3 4 5 6 
#
# 1 209.9968 12.8220 17.1241 0.0000 0.0000 0.0000
# 2 12.8220 28.2132 4.3823 0.0000 0.0000 0.0000
# 3 17.1241 4.3823 126.1738 0.0000 0.0000 0.0000
# 4 0.0000 0.0000 0.0000 -7.8174 0.0000 0.0000
# 5 0.0000 0.0000 0.0000 0.0000 42.0417 0.0000
# 6 0.0000 0.0000 0.0000 0.0000 0.0000 44.1269
#
#
#
# Elastic Compliance Matrix: (Units=1/GPa)
#
#
# Indices 1 2 3 4 5 6 
#
# 1 0.004942 -0.002153 -0.000596 0.000000 0.000000 0.000000
# 2 -0.002153 0.036575 -0.000978 0.000000 0.000000 0.000000
# 3 -0.000596 -0.000978 0.008040 0.000000 0.000000 0.000000
# 4 0.000000 0.000000 0.000000 -0.127919 0.000000 0.000000
# 5 0.000000 0.000000 0.000000 0.000000 0.023786 0.000000
# 6 0.000000 0.000000 0.000000 0.000000 0.000000 0.022662
#
#
# Mechanical properties :
#
#
# Convention : Reuss Voigt Hill
#
# Bulk Modulus (GPa) = 23.75149 48.11561 35.93355
# Shear Modulus (GPa) = -479.63098 37.67393 -220.97852
#
# Velocity S-wave (km/s) = -14.47186 4.05594 -9.82304
# Velocity P-wave (km/s) = 16.39741 6.55318 10.62852
#
# Compressibility (1/GPa) = 0.04210262
#
# Stress axis : x y z
#
# Youngs Moduli (GPa) = 202.34482 27.34106 124.37154
#
# Poissons Ratio (x) = 0.05888 0.07412
# Poissons Ratio (y) = 0.43574 0.12164
# Poissons Ratio (z) = 0.12058 0.02674
#
# Static dielectric constant tensor:
#      x y z
#    x 1.939150 0.000000 0.000000 
#    y 0.000000 1.941230 0.000000 
#    z 0.000000 0.000000 1.822420 
# 
# From -- ./inp_files/13521.got.cif
#   From: 2010.05.17/outbox.cif.g08.bks.cpg/sg36_7_cif.got.tgz:13521.got - 2010.06.03 17:41:39.
