data_PCOD9350050
_publ_section_title
;
Structure prediction by ZEFSAII (Michael W. Deem and Ramdas Pophale) SiO2 
 PCOD9350050
Probable space group: C M M 2
;
_chemical_formula_sum "Si O2"
_cell_formula_units_Z 40
_cell_length_a 27.069334
_cell_length_b 8.809709
_cell_length_c 9.381208
_cell_angle_alpha 90.000000
_cell_angle_beta 90.000000
_cell_angle_gamma 90.000000
_cell_volume 2237.164397
_symmetry_space_group_name_H-M "C M M 2"
_symmetry_group_IT_number 35
_symmetry_cell_setting 'orthorhombic'
loop_
_space_group_symop_operation_xyz
x,y,z
-x,-y,z
-x,y,z
x,-y,z
1/2+x,1/2+y,z
1/2-x,1/2-y,z
1/2-x,1/2+y,z
1/2+x,1/2-y,z
loop_
_atom_site_type_symbol
_atom_site_label
_atom_site_fract_x
_atom_site_fract_y
_atom_site_fract_z
Si Si1 0.700010 0.173871 0.045890
Si Si2 0.500000 0.816430 0.542992
Si Si3 0.698351 0.823929 0.698520
Si Si4 0.500000 0.815975 0.213846
Si Si5 0.906395 0.181791 0.708337
Si Si6 0.593058 0.814463 0.025820
O O1 0.750000 0.250000 0.097092
O O2 0.646332 0.236191 0.086414
O O3 0.701830 0.000000 0.089978
O O4 0.699827 0.179963 0.872387
O O5 0.500000 0.769678 0.377519
O O6 0.450926 0.751490 0.617170
O O7 0.500000 0.000000 0.553840
O O8 0.750000 0.750000 0.649594
O O9 0.647901 0.738271 0.658014
O O10 0.695627 0.000000 0.656164
O O11 0.548573 0.768873 0.127769
O O12 0.500000 0.000000 0.213089
O O13 0.908134 0.000000 0.707654
O O14 0.913028 0.244555 0.869305
O O15 0.594026 0.000000 0.012026
#
# Coordination Sequence:
#
# PCOD9350050 Si02
#       6
#     8   4   8   4   8   8
#     4   8  14  23  40  67  99 127 154 190 237 287
#     4  11  22  37  54  72  96 133 176 219 264 310
#     4   9  16  28  47  74 105 136 167 207 253 299
#     4   9  19  35  56  74  92 125 170 215 262 308
#     4  11  21  33  51  78 107 137 171 210 254 306
#     4   9  17  32  53  77 100 127 166 212 254 300
#
# _framework density 17.879777000000001
#
# number of rings (size 3 to 8) (size 9 to 14) (size 15 to 20)
#    0.000    2.600    0.000    4.500    0.000    5.600 
#    0.000    2.000    0.000    1.200    0.000    2.800 
#    0.000    0.000    0.000    0.000    0.000    0.000 
#
# Total GULP energy -111466.276419 kJ/mol
# GULP energy per Si atom -5573.313821 kJ/mol
# Density = 1.783908 g / cm^3
# Si number density = 17.879777 Si / 1000 Ang^3
#
#
#
# Elastic Constant Matrix: (Units=GPa)
#
#
# Indices 1 2 3 4 5 6 
#
# 1 228.5954 70.5623 78.6667 0.0000 0.0000 0.0000
# 2 70.5623 87.5950 31.2309 0.0000 0.0000 0.0000
# 3 78.6667 31.2309 59.0190 0.0000 0.0000 0.0000
# 4 0.0000 0.0000 0.0000 5.3839 0.0000 0.0000
# 5 0.0000 0.0000 0.0000 0.0000 -4.9720 0.0000
# 6 0.0000 0.0000 0.0000 0.0000 0.0000 33.3410
#
#
#
# Elastic Compliance Matrix: (Units=1/GPa)
#
#
# Indices 1 2 3 4 5 6 
#
# 1 0.008932 -0.003636 -0.009981 0.000000 0.000000 0.000000
# 2 -0.003636 0.015551 -0.003382 0.000000 0.000000 0.000000
# 3 -0.009981 -0.003382 0.032037 0.000000 0.000000 0.000000
# 4 0.000000 0.000000 0.000000 0.185737 0.000000 0.000000
# 5 0.000000 0.000000 0.000000 0.000000 -0.201126 0.000000
# 6 0.000000 0.000000 0.000000 0.000000 0.000000 0.029993
#
#
# Mechanical properties :
#
#
# Convention : Reuss Voigt Hill
#
# Bulk Modulus (GPa) = 44.40292 81.79214 63.09753
# Shear Modulus (GPa) = 44.39270 19.73388 32.06329
#
# Velocity S-wave (km/s) = 4.98822 3.32580 4.23930
# Velocity P-wave (km/s) = 7.62001 7.78414 7.70251
#
# Compressibility (1/GPa) = 0.02252104
#
# Stress axis : x y z
#
# Youngs Moduli (GPa) = 111.95989 64.30284 31.21383
#
# Poissons Ratio (x) = 0.23383 0.31154
# Poissons Ratio (y) = 0.40714 0.10557
# Poissons Ratio (z) = 1.11746 0.21749
#
# Static dielectric constant tensor:
#      x y z
#    x 1.638410 0.000000 0.000000 
#    y 0.000000 1.611020 0.000000 
#    z 0.000000 0.000000 1.579060 
# 
# From -- ./inp_files/10070.got.cif
#   From: 2010.05.17/outbox.cif.g08.bks.cpg/sg35_6_cif.got.tgz:10070.got - 2010.06.03 17:29:28.
