data_PCOD9350537
_publ_section_title
;
Structure prediction by ZEFSAII (Michael W. Deem and Ramdas Pophale) SiO2 
 PCOD9350537
Probable space group: C M C 21
;
_chemical_formula_sum "Si O2"
_cell_formula_units_Z 64
_cell_length_a 7.507489
_cell_length_b 21.142091
_cell_length_c 20.179848
_cell_angle_alpha 90.000000
_cell_angle_beta 90.000000
_cell_angle_gamma 90.000000
_cell_volume 3203.026509
_symmetry_space_group_name_H-M "C M C 21"
_symmetry_group_IT_number 36
_symmetry_cell_setting 'orthorhombic'
loop_
_space_group_symop_operation_xyz
x,y,z
-x,-y,1/2+z
x,-y,1/2+z
-x,y,z
1/2+x,1/2+y,z
1/2-x,1/2-y,1/2+z
1/2+x,1/2-y,1/2+z
1/2-x,1/2+y,z
loop_
_atom_site_type_symbol
_atom_site_label
_atom_site_fract_x
_atom_site_fract_y
_atom_site_fract_z
Si Si1 0.211006 0.061596 0.740110
Si Si2 0.214962 0.312686 0.158265
Si Si3 0.208340 0.750485 0.874636
Si Si4 0.781746 0.936741 0.666228
Si Si5 0.714638 0.239666 0.522567
Si Si6 0.217104 0.189656 0.241210
Si Si7 0.794478 0.104505 0.880441
Si Si8 0.282152 0.386183 0.526398
O O1 0.230822 0.124391 0.696176
O O2 0.285539 0.074524 0.813908
O O3 0.000000 0.051106 0.748474
O O4 0.281203 0.000831 0.700946
O O5 0.276501 0.304446 0.082512
O O6 0.272900 0.250263 0.198144
O O7 0.000000 0.312002 0.158035
O O8 0.273525 0.796062 0.816394
O O9 0.293454 0.680814 0.872165
O O10 0.000000 0.738907 0.862419
O O11 0.229747 0.777298 0.948344
O O12 0.724531 0.875645 0.708540
O O13 0.726088 0.926195 0.590053
O O14 0.000000 0.937396 0.665434
O O15 0.500000 0.239877 0.523295
O O16 0.770739 0.312552 0.535229
O O17 0.000000 0.187792 0.239693
O O18 0.000000 0.083946 0.883700
O O19 0.717741 0.092324 0.953742
O O20 0.500000 0.386292 0.524860
#
# Coordination Sequence:
#
# PCOD9350537 Si02
#       8
#     8   8   8   8   8   8   8   8
#     4  10  20  31  47  74 104 128 157 207 255 287
#     4  10  18  32  53  72  95 130 167 198 237 298
#     4  10  18  28  47  75 101 124 156 206 253 286
#     4   9  16  29  48  71  97 126 165 208 243 282
#     4   9  17  30  50  73  95 126 164 202 243 292
#     4   9  16  28  48  73  96 123 162 201 241 286
#     4   9  17  29  45  69  98 128 162 197 242 301
#     4   8  13  25  46  67  88 119 163 201 230 280
#
# _framework density 19.981102
#
# number of rings (size 3 to 8) (size 9 to 14) (size 15 to 20)
#    0.000    2.750    2.500    1.125    0.000    0.500 
#    0.000    1.250    0.000    9.750    0.000    0.000 
#    0.000    0.000    0.000    0.000    0.000    0.000 
#
# Total GULP energy -178473.604590 kJ/mol
# GULP energy per Si atom -5577.300143 kJ/mol
# Density = 1.993562 g / cm^3
# Si number density = 19.981102 Si / 1000 Ang^3
#
#
#
# Elastic Constant Matrix: (Units=GPa)
#
#
# Indices 1 2 3 4 5 6 
#
# 1 52.0211 -2.0361 2.2408 0.0000 0.0000 0.0000
# 2 -2.0361 118.4831 96.0034 0.0000 0.0000 0.0000
# 3 2.2408 96.0034 226.1109 0.0000 0.0000 0.0000
# 4 0.0000 0.0000 0.0000 28.2906 0.0000 0.0000
# 5 0.0000 0.0000 0.0000 0.0000 11.1267 0.0000
# 6 0.0000 0.0000 0.0000 0.0000 0.0000 -0.9998
#
#
#
# Elastic Compliance Matrix: (Units=1/GPa)
#
#
# Indices 1 2 3 4 5 6 
#
# 1 0.019274 0.000741 -0.000506 0.000000 0.000000 0.000000
# 2 0.000741 0.012895 -0.005482 0.000000 0.000000 0.000000
# 3 -0.000506 -0.005482 0.006755 0.000000 0.000000 0.000000
# 4 0.000000 0.000000 0.000000 0.035347 0.000000 0.000000
# 5 0.000000 0.000000 0.000000 0.000000 0.089874 0.000000
# 6 0.000000 0.000000 0.000000 0.000000 0.000000 -1.000234
#
#
# Mechanical properties :
#
#
# Convention : Reuss Voigt Hill
#
# Bulk Modulus (GPa) = 35.17418 65.44791 50.31104
# Shear Modulus (GPa) = -6.12657 27.71065 10.79204
#
# Velocity S-wave (km/s) = -1.75295 3.72807 2.32655
# Velocity P-wave (km/s) = 3.68033 7.16641 5.69659
#
# Compressibility (1/GPa) = 0.02842995
#
# Stress axis : x y z
#
# Youngs Moduli (GPa) = 51.88401 77.54984 148.03106
#
# Poissons Ratio (x) = -0.05745 0.07484
# Poissons Ratio (y) = -0.03844 0.81156
# Poissons Ratio (z) = 0.02623 0.42515
#
# Static dielectric constant tensor:
#      x y z
#    x 1.807700 0.000000 0.000000 
#    y 0.000000 1.650800 0.000000 
#    z 0.000000 0.000000 1.737660 
# 
# From -- ./inp_files/15786.got.cif
#   From: 2010.05.17/outbox.cif.g08.bks.cpg/sg36_8_cif.got.tgz:15786.got - 2010.06.03 17:41:39.
