data_PCOD9350189
_publ_section_title
;
Structure prediction by ZEFSAII (Michael W. Deem and Ramdas Pophale) SiO2 
 PCOD9350189
Probable space group: C M M 2
;
_chemical_formula_sum "Si O2"
_cell_formula_units_Z 32
_cell_length_a 30.000000
_cell_length_b 9.000000
_cell_length_c 12.000000
_cell_angle_alpha 90.000000
_cell_angle_beta 90.000000
_cell_angle_gamma 90.000000
_cell_volume 3240.000000
_symmetry_space_group_name_H-M "C M M 2"
_symmetry_group_IT_number 35
_symmetry_cell_setting 'orthorhombic'
loop_
_space_group_symop_operation_xyz
x,y,z
-x,-y,z
-x,y,z
x,-y,z
1/2+x,1/2+y,z
1/2-x,1/2-y,z
1/2-x,1/2+y,z
1/2+x,1/2-y,z
loop_
_atom_site_type_symbol
_atom_site_label
_atom_site_fract_x
_atom_site_fract_y
_atom_site_fract_z
Si Si1 0.707115 0.823871 0.337930
Si Si2 0.129180 0.175382 0.468258
Si Si3 0.310459 0.168958 0.089335
Si Si4 0.051526 0.830994 0.305647
Si Si5 0.450796 0.678532 0.876910
Si Si6 0.876307 0.818712 0.718238
Si Si7 0.206704 0.824472 0.862112
Si Si8 0.583189 0.165330 0.091263
O O1 0.750000 0.750000 0.392539
O O2 0.663108 0.766976 0.395320
O O3 0.704622 0.776254 0.209233
O O4 0.710248 0.000000 0.340549
O O5 0.080889 0.190678 0.414388
O O6 0.130034 0.230495 0.593490
O O7 0.141163 0.000000 0.464889
O O8 0.363679 0.162566 0.095755
O O9 0.294058 0.000000 0.068972
O O10 0.297321 0.274197 0.989264
O O11 0.064881 0.720049 0.208556
O O12 0.000000 0.818017 0.331367
O O13 0.060379 0.000000 0.264731
O O14 0.500000 0.738535 0.869738
O O15 0.451754 0.500000 0.872205
O O16 0.421197 0.733268 0.775484
O O17 0.430558 0.724613 0.994062
O O18 0.836555 0.770859 0.797577
O O19 0.876759 0.000000 0.716523
O O20 0.250000 0.750000 0.811409
O O21 0.209562 0.000000 0.854528
O O22 0.566729 0.000000 0.065637
#
# Coordination Sequence:
#
# PCOD9350189 Si02
#       8
#     8   8   8   8   8   8   8   8
#     4  11  23  40  60  86 117 148 188 233 286 343
#     4  10  21  39  61  83 113 151 195 240 283 331
#     4  10  21  37  58  85 115 147 185 229 281 340
#     4  10  21  36  57  86 117 151 191 234 282 338
#     4  10  20  36  59  86 116 150 189 232 280 337
#     4   9  20  38  58  83 112 148 191 235 281 328
#     4  11  22  37  59  84 115 148 185 229 279 336
#     4  11  21  35  57  85 118 151 185 231 285 339
#
# _framework density 9.8765429999999999
#
# number of rings (size 3 to 8) (size 9 to 14) (size 15 to 20)
#    0.000    1.750    2.500    1.875    0.000    5.500 
#    0.000    5.625    0.000    0.000    0.000    1.750 
#    0.000    0.000    0.000    0.000    0.000    0.000 
#
# Total GULP energy -178492.128519 kJ/mol
# GULP energy per Si atom -5577.879016 kJ/mol
# Density = 0.985406 g / cm^3
# Si number density = 9.876543 Si / 1000 Ang^3
#
#
#
# Elastic Constant Matrix: (Units=GPa)
#
#
# Indices 1 2 3 4 5 6 
#
# 1 81.5343 15.7541 34.1697 0.0000 0.0000 0.0000
# 2 15.7541 -12.6679 23.4013 0.0000 0.0000 0.0000
# 3 34.1697 23.4013 86.6056 0.0000 0.0000 0.0000
# 4 0.0000 0.0000 0.0000 -384.6848 0.0000 0.0000
# 5 0.0000 0.0000 0.0000 0.0000 434.8734 0.0000
# 6 0.0000 0.0000 0.0000 0.0000 0.0000 15.3085
#
#
#
# Elastic Compliance Matrix: (Units=1/GPa)
#
#
# Indices 1 2 3 4 5 6 
#
# 1 0.014226 0.004885 -0.006933 0.000000 0.000000 0.000000
# 2 0.004885 -0.050979 0.011847 0.000000 0.000000 0.000000
# 3 -0.006933 0.011847 0.011081 0.000000 0.000000 0.000000
# 4 0.000000 0.000000 0.000000 -0.002600 0.000000 0.000000
# 5 0.000000 0.000000 0.000000 0.000000 0.002300 0.000000
# 6 0.000000 0.000000 0.000000 0.000000 0.000000 0.065323
#
#
# Mechanical properties :
#
#
# Convention : Reuss Voigt Hill
#
# Bulk Modulus (GPa) = -164.67076 33.56911 -65.55082
# Shear Modulus (GPa) = 282.04677 18.57591 150.31134
#
# Velocity S-wave (km/s) = 11.96228 3.06993 8.73271
# Velocity P-wave (km/s) = 10.35612 5.44033 8.27184
#
# Compressibility (1/GPa) = -0.00607272
#
# Stress axis : x y z
#
# Youngs Moduli (GPa) = 70.29221 -19.61593 90.24706
#
# Poissons Ratio (x) = 0.09583 0.62567
# Poissons Ratio (y) = -0.34339 -1.06919
# Poissons Ratio (z) = 0.48733 0.23240
#
# Static dielectric constant tensor:
#      x y z
#    x 1.686130 0.000000 0.000000 
#    y 0.000000 1.829460 0.000000 
#    z 0.000000 0.000000 1.655240 
# 
# From -- ./inp_files/11847.got.cif
#   From: 2010.05.17/outbox.ucp.g08.bks.cvg/sg35_6_cif.got.tgz:11847.got - 2010.06.11 10:36:28.
