data_PCOD9350286
_publ_section_title
;
Structure prediction by ZEFSAII (Michael W. Deem and Ramdas Pophale) SiO2 
 PCOD9350286
Probable space group: C M M 2
;
_chemical_formula_sum "Si O2"
_cell_formula_units_Z 64
_cell_length_a 7.547969
_cell_length_b 39.742292
_cell_length_c 10.781020
_cell_angle_alpha 90.000000
_cell_angle_beta 90.000000
_cell_angle_gamma 90.000000
_cell_volume 3234.021252
_symmetry_space_group_name_H-M "C M M 2"
_symmetry_group_IT_number 35
_symmetry_cell_setting 'orthorhombic'
loop_
_space_group_symop_operation_xyz
x,y,z
-x,-y,z
-x,y,z
x,-y,z
1/2+x,1/2+y,z
1/2-x,1/2-y,z
1/2-x,1/2+y,z
1/2+x,1/2-y,z
loop_
_atom_site_type_symbol
_atom_site_label
_atom_site_fract_x
_atom_site_fract_y
_atom_site_fract_z
Si Si1 0.211946 0.712153 0.878460
Si Si2 0.789533 0.608476 0.521916
Si Si3 0.217623 0.357917 0.774767
Si Si4 0.713731 0.537882 0.134872
Si Si5 0.717403 0.856518 0.271324
Si Si6 0.707550 0.893532 0.023982
Si Si7 0.711667 0.212341 0.162467
Si Si8 0.713181 0.537847 0.418380
O O1 0.250000 0.750000 0.834444
O O2 0.273133 0.680819 0.795980
O O3 0.000000 0.709198 0.885509
O O4 0.280533 0.708954 0.020617
O O5 0.719863 0.624790 0.648298
O O6 0.718828 0.626444 0.397664
O O7 0.763553 0.568536 0.506312
O O8 0.000000 0.614243 0.522536
O O9 0.000000 0.358627 0.772350
O O10 0.278115 0.378583 0.896154
O O11 0.500000 0.538235 0.136357
O O12 0.770860 0.500000 0.103508
O O13 0.773950 0.566727 0.042335
O O14 0.774356 0.545084 0.276629
O O15 0.500000 0.857900 0.273724
O O16 0.779764 0.876626 0.149366
O O17 0.772716 0.817983 0.249217
O O18 0.500000 0.884816 0.023206
O O19 0.500000 0.208996 0.154368
O O20 0.750000 0.250000 0.206249
O O21 0.500000 0.536889 0.414546
O O22 0.773827 0.500000 0.451712
#
# Coordination Sequence:
#
# PCOD9350286 Si02
#       8
#     8   8   8   8   8   8   8   8
#     4   9  16  29  48  68  92 124 159 194 237 286
#     4  10  19  32  51  75  97 125 166 203 236 282
#     4   9  18  32  50  72 101 131 158 197 248 288
#     4   9  18  32  49  72 101 128 156 197 247 290
#     4   9  16  28  48  71  94 120 155 198 239 279
#     4  10  17  30  51  73  95 123 160 199 239 283
#     4   9  16  28  46  68  94 123 157 197 240 284
#     4   9  18  33  51  71  98 130 159 193 244 294
#
# _framework density 19.789603
#
# number of rings (size 3 to 8) (size 9 to 14) (size 15 to 20)
#    0.000    2.750    2.500    0.750    0.000    0.500 
#    0.000    5.625    0.000    3.750    0.000    0.000 
#    0.000    0.000    0.000    0.000    0.000    0.000 
#
# Total GULP energy -178463.714980 kJ/mol
# GULP energy per Si atom -5576.991093 kJ/mol
# Density = 1.974456 g / cm^3
# Si number density = 19.789603 Si / 1000 Ang^3
#
#
#
# Elastic Constant Matrix: (Units=GPa)
#
#
# Indices 1 2 3 4 5 6 
#
# 1 44.1589 -5.5428 9.6532 0.0000 0.0000 0.0000
# 2 -5.5428 181.5463 103.9411 0.0000 0.0000 0.0000
# 3 9.6532 103.9411 140.4412 0.0000 0.0000 0.0000
# 4 0.0000 0.0000 0.0000 29.9846 0.0000 0.0000
# 5 0.0000 0.0000 0.0000 0.0000 2.8618 0.0000
# 6 0.0000 0.0000 0.0000 0.0000 0.0000 22.3995
#
#
#
# Elastic Compliance Matrix: (Units=1/GPa)
#
#
# Indices 1 2 3 4 5 6 
#
# 1 0.023834 0.002890 -0.003777 0.000000 0.000000 0.000000
# 2 0.002890 0.009909 -0.007532 0.000000 0.000000 0.000000
# 3 -0.003777 -0.007532 0.012955 0.000000 0.000000 0.000000
# 4 0.000000 0.000000 0.000000 0.033350 0.000000 0.000000
# 5 0.000000 0.000000 0.000000 0.000000 0.349429 0.000000
# 6 0.000000 0.000000 0.000000 0.000000 0.000000 0.044644
#
#
# Mechanical properties :
#
#
# Convention : Reuss Voigt Hill
#
# Bulk Modulus (GPa) = 33.49069 64.69436 49.09252
# Shear Modulus (GPa) = 9.98177 28.25553 19.11865
#
# Velocity S-wave (km/s) = 2.24831 3.78272 3.11158
# Velocity P-wave (km/s) = 4.86826 7.20005 6.14576
#
# Compressibility (1/GPa) = 0.02985904
#
# Stress axis : x y z
#
# Youngs Moduli (GPa) = 41.95681 100.91847 77.19165
#
# Poissons Ratio (x) = -0.29169 0.29158
# Poissons Ratio (y) = -0.12127 0.58143
# Poissons Ratio (z) = 0.15849 0.76015
#
# Static dielectric constant tensor:
#      x y z
#    x 1.748080 0.000000 0.000000 
#    y 0.000000 1.709260 0.000000 
#    z 0.000000 0.000000 1.673220 
# 
# From -- ./inp_files/6568.got.cif
#   From: 2010.05.17/outbox.cif.g08.bks.cpg/sg35_4_cif.got.tgz:6568.got - 2010.06.03 17:29:28.
