data_PCOD9350634
_publ_section_title
;
Structure prediction by ZEFSAII (Michael W. Deem and Ramdas Pophale) SiO2 
 PCOD9350634
Probable space group: C M C 21
;
_chemical_formula_sum "Si O2"
_cell_formula_units_Z 64
_cell_length_a 7.615033
_cell_length_b 21.960688
_cell_length_c 14.635942
_cell_angle_alpha 90.000000
_cell_angle_beta 90.000000
_cell_angle_gamma 90.000000
_cell_volume 2447.588541
_symmetry_space_group_name_H-M "C M C 21"
_symmetry_group_IT_number 36
_symmetry_cell_setting 'orthorhombic'
loop_
_space_group_symop_operation_xyz
x,y,z
-x,-y,1/2+z
x,-y,1/2+z
-x,y,z
1/2+x,1/2+y,z
1/2-x,1/2-y,1/2+z
1/2+x,1/2-y,1/2+z
1/2-x,1/2+y,z
loop_
_atom_site_type_symbol
_atom_site_label
_atom_site_fract_x
_atom_site_fract_y
_atom_site_fract_z
Si Si1 0.295430 0.285752 0.800820
Si Si2 0.700309 0.539717 0.260270
Si Si3 0.796944 0.851406 0.976065
Si Si4 0.785931 0.032596 0.922784
Si Si5 0.285344 0.600284 0.090055
Si Si6 0.698242 0.074081 0.645974
Si Si7 0.286918 0.733624 0.093745
Si Si8 0.790024 0.153520 0.809882
O O1 0.500000 0.301800 0.787665
O O2 0.221632 0.332534 0.876530
O O3 0.223641 0.273835 0.698846
O O4 0.285025 0.217580 0.841541
O O5 0.500000 0.557594 0.278951
O O6 0.781179 0.520286 0.356516
O O7 0.692737 0.478799 0.196222
O O8 0.779351 0.589348 0.192807
O O9 0.000000 0.866387 0.962423
O O10 0.727789 0.904826 0.042088
O O11 0.784422 0.789686 0.036408
O O12 0.724341 0.045851 0.024663
O O13 0.742655 0.095595 0.871186
O O14 0.000000 0.027459 0.924763
O O15 0.500000 0.597724 0.092685
O O16 0.243165 0.666999 0.053822
O O17 0.500000 0.054041 0.657987
O O18 0.728687 0.134152 0.708508
O O19 0.500000 0.740576 0.094112
O O20 0.000000 0.158528 0.810612
#
# Coordination Sequence:
#
# PCOD9350634 Si02
#       8
#     8   8   8   8   8   8   8   8
#     4  10  21  34  50  79 116 147 181 224 278 335
#     4   9  18  34  55  80 106 138 181 229 275 324
#     4  11  22  36  54  82 114 148 186 227 278 336
#     4   8  15  28  49  80 106 131 177 227 265 315
#     4   9  17  32  54  80 109 142 183 224 270 327
#     4  11  21  35  55  77 105 141 182 231 281 326
#     4  10  20  36  56  81 113 150 185 229 280 331
#     4  10  18  31  55  81 107 139 181 227 273 328
#
# _framework density 26.148188000000001
#
# number of rings (size 3 to 8) (size 9 to 14) (size 15 to 20)
#    0.000    2.250    1.250    3.375    0.000    2.000 
#    2.250    0.625    0.000    3.750    0.000    0.000 
#    0.000    0.000    0.000    0.000    0.000    0.000 
#
# Total GULP energy -178899.112896 kJ/mol
# GULP energy per Si atom -5590.597278 kJ/mol
# Density = 2.608867 g / cm^3
# Si number density = 26.148188 Si / 1000 Ang^3
#
#
#
# Elastic Constant Matrix: (Units=GPa)
#
#
# Indices 1 2 3 4 5 6 
#
# 1 70.3412 7.4777 2.6212 0.0000 0.0000 0.0000
# 2 7.4777 113.6895 23.1617 0.0000 0.0000 0.0000
# 3 2.6212 23.1617 157.9921 0.0000 0.0000 0.0000
# 4 0.0000 0.0000 0.0000 53.1129 0.0000 0.0000
# 5 0.0000 0.0000 0.0000 0.0000 -1.3406 0.0000
# 6 0.0000 0.0000 0.0000 0.0000 0.0000 2.1186
#
#
#
# Elastic Compliance Matrix: (Units=1/GPa)
#
#
# Indices 1 2 3 4 5 6 
#
# 1 0.014318 -0.000921 -0.000103 0.000000 0.000000 0.000000
# 2 -0.000921 0.009126 -0.001323 0.000000 0.000000 0.000000
# 3 -0.000103 -0.001323 0.006525 0.000000 0.000000 0.000000
# 4 0.000000 0.000000 0.000000 0.018828 0.000000 0.000000
# 5 0.000000 0.000000 0.000000 0.000000 -0.745946 0.000000
# 6 0.000000 0.000000 0.000000 0.000000 0.000000 0.472000
#
#
# Mechanical properties :
#
#
# Convention : Reuss Voigt Hill
#
# Bulk Modulus (GPa) = 39.56152 45.39377 42.47764
# Shear Modulus (GPa) = -23.58133 31.36233 3.89050
#
# Velocity S-wave (km/s) = -3.00631 3.46700 1.22110
# Velocity P-wave (km/s) = 1.76409 5.78141 4.27415
#
# Compressibility (1/GPa) = 0.02527709
#
# Stress axis : x y z
#
# Youngs Moduli (GPa) = 69.84149 109.57823 153.25612
#
# Poissons Ratio (x) = 0.10091 0.01572
# Poissons Ratio (y) = 0.06431 0.20269
# Poissons Ratio (z) = 0.00716 0.14493
#
# Static dielectric constant tensor:
#      x y z
#    x 1.969020 0.000000 0.000000 
#    y 0.000000 2.070760 0.000000 
#    z 0.000000 0.000000 2.132700 
# 
# From -- ./inp_files/10959.got.cif
#   From: 2010.05.17/outbox.cif.g08.bks.cpg/sg36_6_cif.got.tgz:10959.got - 2010.06.03 17:41:39.
