data_PCOD9350593
_publ_section_title
;
Structure prediction by ZEFSAII (Michael W. Deem and Ramdas Pophale) SiO2 
 PCOD9350593
Probable space group: C M C 21
;
_chemical_formula_sum "Si O2"
_cell_formula_units_Z 48
_cell_length_a 8.480935
_cell_length_b 18.881055
_cell_length_c 16.890501
_cell_angle_alpha 90.000000
_cell_angle_beta 90.000000
_cell_angle_gamma 90.000000
_cell_volume 2704.659038
_symmetry_space_group_name_H-M "C M C 21"
_symmetry_group_IT_number 36
_symmetry_cell_setting 'orthorhombic'
loop_
_space_group_symop_operation_xyz
x,y,z
-x,-y,1/2+z
x,-y,1/2+z
-x,y,z
1/2+x,1/2+y,z
1/2-x,1/2-y,1/2+z
1/2+x,1/2-y,1/2+z
1/2-x,1/2+y,z
loop_
_atom_site_type_symbol
_atom_site_label
_atom_site_fract_x
_atom_site_fract_y
_atom_site_fract_z
Si Si1 0.184877 0.212605 0.284540
Si Si2 0.186263 0.842684 0.012844
Si Si3 0.190664 0.077213 0.844027
Si Si4 0.190379 0.832763 0.189302
Si Si5 0.185531 0.419016 0.857806
Si Si6 0.684903 0.289942 0.436844
O O1 0.232060 0.256540 0.207268
O O2 0.226266 0.130291 0.293226
O O3 0.288609 0.249446 0.353340
O O4 0.000000 0.222576 0.301474
O O5 0.234567 0.859952 0.102377
O O6 0.000000 0.854632 0.003785
O O7 0.270860 0.887158 0.944175
O O8 0.222401 0.759517 0.997521
O O9 0.236331 0.114543 0.760802
O O10 0.237504 0.130566 0.915446
O O11 0.000000 0.073342 0.845099
O O12 0.261133 0.999856 0.852293
O O13 0.000000 0.825121 0.191232
O O14 0.000000 0.412593 0.845556
O O15 0.500000 0.289979 0.456685
#
# Coordination Sequence:
#
# PCOD9350593 Si02
#       6
#     8   8   8   8   8   8
#     4  10  18  30  51  74  97 128 166 203 242 295
#     4  10  19  33  54  77 102 132 167 208 255 304
#     4   9  18  34  53  73 100 134 170 205 249 302
#     4   9  19  35  54  76 102 131 165 211 259 301
#     4  11  21  33  51  75 104 135 170 210 251 298
#     4   9  17  31  51  73  99 130 164 203 244 292
#
# _framework density 17.747152
#
# number of rings (size 3 to 8) (size 9 to 14) (size 15 to 20)
#    0.000    2.333    0.000    7.000    0.000    4.667 
#    0.000    1.667    0.000    2.000    0.000    0.000 
#    0.000    0.000    0.000    0.000    0.000    0.000 
#
# Total GULP energy -133737.922795 kJ/mol
# GULP energy per Si atom -5572.413450 kJ/mol
# Density = 1.770676 g / cm^3
# Si number density = 17.747152 Si / 1000 Ang^3
#
#
#
# Elastic Constant Matrix: (Units=GPa)
#
#
# Indices 1 2 3 4 5 6 
#
# 1 26.6915 16.2976 12.6070 0.0000 0.0000 0.0000
# 2 16.2976 120.9427 28.6410 0.0000 0.0000 0.0000
# 3 12.6070 28.6410 68.4754 0.0000 0.0000 0.0000
# 4 0.0000 0.0000 0.0000 16.9195 0.0000 0.0000
# 5 0.0000 0.0000 0.0000 0.0000 19.5575 0.0000
# 6 0.0000 0.0000 0.0000 0.0000 0.0000 30.4302
#
#
#
# Elastic Compliance Matrix: (Units=1/GPa)
#
#
# Indices 1 2 3 4 5 6 
#
# 1 0.043002 -0.004351 -0.006097 0.000000 0.000000 0.000000
# 2 -0.004351 0.009618 -0.003222 0.000000 0.000000 0.000000
# 3 -0.006097 -0.003222 0.017074 0.000000 0.000000 0.000000
# 4 0.000000 0.000000 0.000000 0.059103 0.000000 0.000000
# 5 0.000000 0.000000 0.000000 0.000000 0.051131 0.000000
# 6 0.000000 0.000000 0.000000 0.000000 0.000000 0.032862
#
#
# Mechanical properties :
#
#
# Convention : Reuss Voigt Hill
#
# Bulk Modulus (GPa) = 23.61073 36.80010 30.20541
# Shear Modulus (GPa) = 19.66593 23.95239 21.80916
#
# Velocity S-wave (km/s) = 3.33245 3.67774 3.50934
# Velocity P-wave (km/s) = 5.30470 6.23018 5.78597
#
# Compressibility (1/GPa) = 0.04235363
#
# Stress axis : x y z
#
# Youngs Moduli (GPa) = 23.25500 103.97593 58.56903
#
# Poissons Ratio (x) = 0.45237 0.35711
# Poissons Ratio (y) = 0.10118 0.18869
# Poissons Ratio (z) = 0.14179 0.33498
#
# Static dielectric constant tensor:
#      x y z
#    x 1.597070 0.000000 0.000000 
#    y 0.000000 1.627330 0.000000 
#    z 0.000000 0.000000 1.629730 
# 
# From -- ./inp_files/10387.got.cif
#   From: 2010.05.17/outbox.cif.g08.bks.cpg/sg36_6_cif.got.tgz:10387.got - 2010.06.03 17:41:39.
