data_PCOD9350718
_publ_section_title
;
Structure prediction by ZEFSAII (Michael W. Deem and Ramdas Pophale) SiO2 
 PCOD9350718
Probable space group: C M C 21
;
_chemical_formula_sum "Si O2"
_cell_formula_units_Z 64
_cell_length_a 8.813631
_cell_length_b 25.150611
_cell_length_c 14.285356
_cell_angle_alpha 90.000000
_cell_angle_beta 90.000000
_cell_angle_gamma 90.000000
_cell_volume 3166.609219
_symmetry_space_group_name_H-M "C M C 21"
_symmetry_group_IT_number 36
_symmetry_cell_setting 'orthorhombic'
loop_
_space_group_symop_operation_xyz
x,y,z
-x,-y,1/2+z
x,-y,1/2+z
-x,y,z
1/2+x,1/2+y,z
1/2-x,1/2-y,1/2+z
1/2+x,1/2-y,1/2+z
1/2-x,1/2+y,z
loop_
_atom_site_type_symbol
_atom_site_label
_atom_site_fract_x
_atom_site_fract_y
_atom_site_fract_z
Si Si1 0.680564 0.713528 0.563520
Si Si2 0.678890 0.456200 0.888913
Si Si3 0.674650 0.864338 0.212002
Si Si4 0.678667 0.690207 0.164452
Si Si5 0.177800 0.415102 0.597148
Si Si6 0.180137 0.568745 0.875857
Si Si7 0.673874 0.031367 0.585944
Si Si8 0.814640 0.836330 0.865905
O O1 0.500000 0.714319 0.558629
O O2 0.734126 0.676469 0.648994
O O3 0.740095 0.771490 0.590964
O O4 0.736570 0.689563 0.464070
O O5 0.500000 0.458265 0.871717
O O6 0.751479 0.511017 0.852917
O O7 0.736808 0.398024 0.857215
O O8 0.715034 0.457444 0.000128
O O9 0.500000 0.845126 0.220458
O O10 0.737187 0.882356 0.312587
O O11 0.674408 0.919876 0.155743
O O12 0.500000 0.700324 0.160282
O O13 0.716566 0.629688 0.138748
O O14 0.729781 0.696054 0.272928
O O15 0.202106 0.419521 0.485275
O O16 0.209626 0.474767 0.632451
O O17 0.000000 0.402369 0.614214
O O18 0.000000 0.565646 0.858169
O O19 0.500000 0.025712 0.548049
O O20 0.000000 0.837713 0.867668
#
# Coordination Sequence:
#
# PCOD9350718 Si02
#       8
#     8   8   8   8   8   8   8   8
#     4  11  23  43  64  85 116 154 197 246 299 350
#     4  10  18  33  56  84 116 154 198 239 288 345
#     4  10  20  36  59  88 119 157 197 237 289 348
#     4  11  24  42  62  86 114 153 202 245 293 351
#     4   9  19  37  56  83 120 156 192 237 292 344
#     4   9  20  36  56  85 125 165 195 234 293 353
#     4   9  18  33  55  84 119 153 189 235 290 346
#     4   9  21  40  60  83 115 152 188 237 298 353
#
# _framework density 20.210892000000001
#
# number of rings (size 3 to 8) (size 9 to 14) (size 15 to 20)
#    0.000    2.250    1.250    1.875    1.750    3.500 
#    0.000    9.375    0.000    0.000    0.000    0.000 
#    0.000    0.000    0.000    0.000    0.000    0.000 
#
# Total GULP energy -178558.402617 kJ/mol
# GULP energy per Si atom -5579.950082 kJ/mol
# Density = 2.016489 g / cm^3
# Si number density = 20.210892 Si / 1000 Ang^3
#
#
#
# Elastic Constant Matrix: (Units=GPa)
#
#
# Indices 1 2 3 4 5 6 
#
# 1 24.5752 10.9705 11.9655 0.0000 0.0000 0.0000
# 2 10.9705 58.5650 5.4843 0.0000 0.0000 0.0000
# 3 11.9655 5.4843 52.9826 0.0000 0.0000 0.0000
# 4 0.0000 0.0000 0.0000 22.9651 0.0000 0.0000
# 5 0.0000 0.0000 0.0000 0.0000 19.4804 0.0000
# 6 0.0000 0.0000 0.0000 0.0000 0.0000 31.6683
#
#
#
# Elastic Compliance Matrix: (Units=1/GPa)
#
#
# Indices 1 2 3 4 5 6 
#
# 1 0.049407 -0.008291 -0.010300 0.000000 0.000000 0.000000
# 2 -0.008291 0.018633 -0.000056 0.000000 0.000000 0.000000
# 3 -0.010300 -0.000056 0.021206 0.000000 0.000000 0.000000
# 4 0.000000 0.000000 0.000000 0.043544 0.000000 0.000000
# 5 0.000000 0.000000 0.000000 0.000000 0.051334 0.000000
# 6 0.000000 0.000000 0.000000 0.000000 0.000000 0.031577
#
#
# Mechanical properties :
#
#
# Convention : Reuss Voigt Hill
#
# Bulk Modulus (GPa) = 19.24816 21.44038 20.34427
# Shear Modulus (GPa) = 18.49704 22.00294 20.24999
#
# Velocity S-wave (km/s) = 3.02851 3.30308 3.16877
# Velocity P-wave (km/s) = 4.66621 5.01781 4.84520
#
# Compressibility (1/GPa) = 0.05195301
#
# Stress axis : x y z
#
# Youngs Moduli (GPa) = 20.23988 53.66726 47.15637
#
# Poissons Ratio (x) = 0.44493 0.48570
# Poissons Ratio (y) = 0.16780 0.00266
# Poissons Ratio (z) = 0.20847 0.00303
#
# Static dielectric constant tensor:
#      x y z
#    x 1.693980 0.000000 0.000000 
#    y 0.000000 1.720030 0.000000 
#    z 0.000000 0.000000 1.744070 
# 
# From -- ./inp_files/11065.got.cif
#   From: 2010.05.17/outbox.cif.g08.bks.cpg/sg36_6_cif.got.tgz:11065.got - 2010.06.03 17:41:39.
