data_PCOD9350439
_publ_section_title
;
Structure prediction by ZEFSAII (Michael W. Deem and Ramdas Pophale) SiO2 
 PCOD9350439
Probable space group: C M M 2
;
_chemical_formula_sum "Si O2"
_cell_formula_units_Z 48
_cell_length_a 8.669565
_cell_length_b 18.424991
_cell_length_c 16.022842
_cell_angle_alpha 90.000000
_cell_angle_beta 90.000000
_cell_angle_gamma 90.000000
_cell_volume 2559.435218
_symmetry_space_group_name_H-M "C M M 2"
_symmetry_group_IT_number 35
_symmetry_cell_setting 'orthorhombic'
loop_
_space_group_symop_operation_xyz
x,y,z
-x,-y,z
-x,y,z
x,-y,z
1/2+x,1/2+y,z
1/2-x,1/2-y,z
1/2-x,1/2+y,z
1/2+x,1/2-y,z
loop_
_atom_site_type_symbol
_atom_site_label
_atom_site_fract_x
_atom_site_fract_y
_atom_site_fract_z
Si Si1 0.315733 0.832333 0.492910
Si Si2 0.316342 0.331644 0.319976
Si Si3 0.313869 0.583916 0.834209
Si Si4 0.185320 0.168275 0.665895
Si Si5 0.814320 0.414901 0.161724
Si Si6 0.315220 0.831012 0.992958
O O1 0.500000 0.830985 0.492752
O O2 0.250000 0.750000 0.493020
O O3 0.252966 0.863670 0.406079
O O4 0.252951 0.863764 0.579749
O O5 0.500000 0.327154 0.327147
O O6 0.250000 0.250000 0.309509
O O7 0.266000 0.378464 0.240877
O O8 0.500000 0.586468 0.840199
O O9 0.265328 0.500000 0.836113
O O10 0.271653 0.621618 0.746738
O O11 0.244568 0.627323 0.911617
O O12 0.250000 0.250000 0.676076
O O13 0.000000 0.171902 0.659178
O O14 0.777826 0.500000 0.155696
O O15 0.000000 0.407644 0.171163
O O16 0.768843 0.373941 0.076759
O O17 0.500000 0.828245 0.990474
O O18 0.250000 0.750000 0.994893
#
# Coordination Sequence:
#
# PCOD9350439 Si02
#       6
#     8   8   8   8   8   8
#     4  10  18  31  53  80 110 144 184 232 282 328
#     4  11  21  35  57  84 113 147 189 233 278 329
#     4  10  22  39  58  82 114 150 186 229 280 331
#     4  10  19  33  54  80 110 144 185 232 279 330
#     4  10  22  40  59  82 114 148 183 227 279 332
#     4  11  23  39  61  87 113 145 185 230 277 328
#
# _framework density 18.754138000000001
#
# number of rings (size 3 to 8) (size 9 to 14) (size 15 to 20)
#    0.000    1.667    0.000    7.500    0.000    6.667 
#    0.000    0.833    0.000    3.000    0.000    0.000 
#    0.000    0.000    0.000    0.000    0.000    0.000 
#
# Total GULP energy -134092.858212 kJ/mol
# GULP energy per Si atom -5587.202425 kJ/mol
# Density = 1.871145 g / cm^3
# Si number density = 18.754138 Si / 1000 Ang^3
#
#
#
# Elastic Constant Matrix: (Units=GPa)
#
#
# Indices 1 2 3 4 5 6 
#
# 1 92.6382 50.0149 81.5229 0.0000 0.0000 0.0000
# 2 50.0149 115.1168 94.7709 0.0000 0.0000 0.0000
# 3 81.5229 94.7709 226.3611 0.0000 0.0000 0.0000
# 4 0.0000 0.0000 0.0000 -19.4604 0.0000 0.0000
# 5 0.0000 0.0000 0.0000 0.0000 52.9353 0.0000
# 6 0.0000 0.0000 0.0000 0.0000 0.0000 9.4574
#
#
#
# Elastic Compliance Matrix: (Units=1/GPa)
#
#
# Indices 1 2 3 4 5 6 
#
# 1 0.016685 -0.003513 -0.004538 0.000000 0.000000 0.000000
# 2 -0.003513 0.013995 -0.004594 0.000000 0.000000 0.000000
# 3 -0.004538 -0.004594 0.007976 0.000000 0.000000 0.000000
# 4 0.000000 0.000000 0.000000 -0.051386 0.000000 0.000000
# 5 0.000000 0.000000 0.000000 0.000000 0.018891 0.000000
# 6 0.000000 0.000000 0.000000 0.000000 0.000000 0.105738
#
#
# Mechanical properties :
#
#
# Convention : Reuss Voigt Hill
#
# Bulk Modulus (GPa) = 74.82221 98.52595 86.67408
# Shear Modulus (GPa) = 35.29962 22.44029 28.86995
#
# Velocity S-wave (km/s) = 4.34318 3.46287 3.92776
# Velocity P-wave (km/s) = 8.07056 8.28482 8.17839
#
# Compressibility (1/GPa) = 0.01336501
#
# Stress axis : x y z
#
# Youngs Moduli (GPa) = 59.93383 71.45199 125.38189
#
# Poissons Ratio (x) = 0.25101 0.56901
# Poissons Ratio (y) = 0.21055 0.57604
# Poissons Ratio (z) = 0.27199 0.32827
#
# Static dielectric constant tensor:
#      x y z
#    x 1.631700 0.000000 0.000000 
#    y 0.000000 1.622790 0.000000 
#    z 0.000000 0.000000 1.659900 
# 
# From -- ./inp_files/15167.got.cif
#   From: 2010.05.17/outbox.cif.g08.bks.cpg/sg35_8_cif.got.tgz:15167.got - 2010.06.03 17:29:28.
