data_PCOD9350874
_publ_section_title
;
Structure prediction by ZEFSAII (Michael W. Deem and Ramdas Pophale) SiO2 
 PCOD9350874
Probable space group: C M C 21
;
_chemical_formula_sum "Si O2"
_cell_formula_units_Z 56
_cell_length_a 29.186302
_cell_length_b 20.914473
_cell_length_c 5.288197
_cell_angle_alpha 90.000000
_cell_angle_beta 90.000000
_cell_angle_gamma 90.000000
_cell_volume 3228.000722
_symmetry_space_group_name_H-M "C M C 21"
_symmetry_group_IT_number 36
_symmetry_cell_setting 'orthorhombic'
loop_
_space_group_symop_operation_xyz
x,y,z
-x,-y,1/2+z
x,-y,1/2+z
-x,y,z
1/2+x,1/2+y,z
1/2-x,1/2-y,1/2+z
1/2+x,1/2-y,1/2+z
1/2-x,1/2+y,z
loop_
_atom_site_type_symbol
_atom_site_label
_atom_site_fract_x
_atom_site_fract_y
_atom_site_fract_z
Si Si1 0.500000 0.753348 0.713790
Si Si2 0.751842 0.834958 0.696037
Si Si3 0.846993 0.464156 0.175701
Si Si4 0.196422 0.208537 0.695724
Si Si5 0.099307 0.748756 0.128366
Si Si6 0.400382 0.162432 0.628478
Si Si7 0.746356 0.481866 0.672014
Si Si8 0.500000 0.836457 0.214531
O O1 0.451249 0.720870 0.658687
O O2 0.500000 0.810660 0.502799
O O3 0.500000 0.779512 0.002005
O O4 0.784617 0.818104 0.459739
O O5 0.710748 0.783810 0.685770
O O6 0.738152 0.908567 0.674283
O O7 0.777740 0.823800 0.960595
O O8 0.864029 0.496463 0.433180
O O9 0.862009 0.391319 0.155268
O O10 0.791936 0.473752 0.174821
O O11 0.142188 0.205043 0.665647
O O12 0.101943 0.696822 0.356903
O O13 0.103465 0.713734 0.856505
O O14 0.451067 0.131192 0.663200
O O15 0.719705 0.499931 0.422112
#
# Coordination Sequence:
#
# PCOD9350874 Si02
#       8
#     4   8   8   8   8   8   8   4
#     4   8  16  30  46  73  96 116 164 193 240 304
#     4  10  21  36  46  72 103 123 170 202 240 306
#     4  10  21  32  43  68  84 117 162 205 252 267
#     4  10  21  33  52  71  97 135 154 202 257 282
#     4  10  19  31  53  73  94 131 157 201 249 287
#     4  10  19  31  49  67  96 117 168 206 238 300
#     4  10  21  33  51  68  92 129 163 207 245 274
#     4   8  16  30  44  65  90 128 144 203 262 272
#
# _framework density 17.348199999999999
#
# number of rings (size 3 to 8) (size 9 to 14) (size 15 to 20)
#    0.000    2.286    0.000    2.571    8.000    0.000 
#    0.000    0.714    0.000    0.000    0.000    0.000 
#    0.000    0.000    0.000   12.857    0.000    0.000 
#
# Total GULP energy -156055.387164 kJ/mol
# GULP energy per Si atom -5573.406684 kJ/mol
# Density = 1.730871 g / cm^3
# Si number density = 17.348200 Si / 1000 Ang^3
#
#
#
# Elastic Constant Matrix: (Units=GPa)
#
#
# Indices 1 2 3 4 5 6 
#
# 1 74.5413 2.7122 -14.8664 0.0000 0.0000 0.0000
# 2 2.7122 32.2338 5.5143 0.0000 0.0000 0.0000
# 3 -14.8664 5.5143 104.0238 0.0000 0.0000 0.0000
# 4 0.0000 0.0000 0.0000 14.7107 0.0000 0.0000
# 5 0.0000 0.0000 0.0000 0.0000 12.3255 0.0000
# 6 0.0000 0.0000 0.0000 0.0000 0.0000 15.2003
#
#
#
# Elastic Compliance Matrix: (Units=1/GPa)
#
#
# Indices 1 2 3 4 5 6 
#
# 1 0.013883 -0.001521 0.002065 0.000000 0.000000 0.000000
# 2 -0.001521 0.031474 -0.001886 0.000000 0.000000 0.000000
# 3 0.002065 -0.001886 0.010008 0.000000 0.000000 0.000000
# 4 0.000000 0.000000 0.000000 0.067978 0.000000 0.000000
# 5 0.000000 0.000000 0.000000 0.000000 0.081133 0.000000
# 6 0.000000 0.000000 0.000000 0.000000 0.000000 0.065788
#
#
# Mechanical properties :
#
#
# Convention : Reuss Voigt Hill
#
# Bulk Modulus (GPa) = 18.98265 21.94655 20.46460
# Shear Modulus (GPa) = 17.21123 22.94322 20.07723
#
# Velocity S-wave (km/s) = 3.15319 3.64058 3.40562
# Velocity P-wave (km/s) = 4.92165 5.50907 5.22363
#
# Compressibility (1/GPa) = 0.05267969
#
# Stress axis : x y z
#
# Youngs Moduli (GPa) = 72.03308 31.77231 99.91790
#
# Poissons Ratio (x) = 0.04834 -0.20630
# Poissons Ratio (y) = 0.10958 0.18843
# Poissons Ratio (z) = -0.14872 0.05992
#
# Static dielectric constant tensor:
#      x y z
#    x 1.620040 0.000000 0.000000 
#    y 0.000000 1.571020 0.000000 
#    z 0.000000 0.000000 1.687210 
# 
# From -- ./inp_files/1781.got.cif
#   From: 2010.05.17/outbox.cif.g08.bks.cpg/sg36_1_cif.got.tgz:1781.got - 2010.06.03 17:41:39.
