data_PCOD9350903
_publ_section_title
;
Structure prediction by ZEFSAII (Michael W. Deem and Ramdas Pophale) SiO2 
 PCOD9350903
Probable space group: C M C 21
;
_chemical_formula_sum "Si O2"
_cell_formula_units_Z 40
_cell_length_a 10.024236
_cell_length_b 24.518237
_cell_length_c 7.935431
_cell_angle_alpha 90.000000
_cell_angle_beta 90.000000
_cell_angle_gamma 90.000000
_cell_volume 1950.343203
_symmetry_space_group_name_H-M "C M C 21"
_symmetry_group_IT_number 36
_symmetry_cell_setting 'orthorhombic'
loop_
_space_group_symop_operation_xyz
x,y,z
-x,-y,1/2+z
x,-y,1/2+z
-x,y,z
1/2+x,1/2+y,z
1/2-x,1/2-y,1/2+z
1/2+x,1/2-y,1/2+z
1/2-x,1/2+y,z
loop_
_atom_site_type_symbol
_atom_site_label
_atom_site_fract_x
_atom_site_fract_y
_atom_site_fract_z
Si Si1 0.000000 0.472351 0.506450
Si Si2 0.500000 0.638480 0.953336
Si Si3 0.000000 0.253745 0.116555
Si Si4 0.000000 0.585013 0.365540
Si Si5 0.000000 0.695114 0.988449
Si Si6 0.787939 0.660197 0.519116
Si Si7 0.288218 0.108703 0.893925
Si Si8 0.000000 0.190884 0.581158
O O1 0.000000 0.537077 0.503717
O O2 0.129715 0.446746 0.415982
O O3 0.000000 0.446969 0.691751
O O4 0.638581 0.606105 0.963335
O O5 0.500000 0.662741 0.763400
O O6 0.500000 0.690283 0.076924
O O7 0.000000 0.272201 0.311053
O O8 0.870082 0.283647 0.039216
O O9 0.129431 0.622663 0.391876
O O10 0.127450 0.655776 0.990160
O O11 0.000000 0.744332 0.117974
O O12 0.792052 0.629066 0.700094
O O13 0.634497 0.673431 0.485989
#
# Coordination Sequence:
#
# PCOD9350903 Si02
#       8
#     4   4   4   4   4   8   8   4
#     4  11  22  38  60  79  96 127 168 213 261 312
#     4  10  19  31  51  77 109 143 172 208 254 298
#     4   9  17  29  47  72 109 148 178 209 244 290
#     4  11  22  38  60  79  96 127 168 213 261 312
#     4   9  17  29  47  72 109 148 178 209 244 290
#     4   9  19  35  52  76 107 138 173 213 253 298
#     4   9  19  35  52  76 107 138 173 213 253 298
#     4  10  19  31  51  77 109 143 172 208 254 298
#
# _framework density 20.509212999999999
#
# number of rings (size 3 to 8) (size 9 to 14) (size 15 to 20)
#    0.000    2.400    0.000    4.200    0.000    4.800 
#    0.000    1.000    0.000    0.000    0.000    0.000 
#    0.000    0.000    0.000    0.000    0.000    0.000 
#
# Total GULP energy -111728.686932 kJ/mol
# GULP energy per Si atom -5586.434347 kJ/mol
# Density = 2.046253 g / cm^3
# Si number density = 20.509213 Si / 1000 Ang^3
#
#
#
# Elastic Constant Matrix: (Units=GPa)
#
#
# Indices 1 2 3 4 5 6 
#
# 1 170.7232 23.1501 17.0854 0.0000 0.0000 0.0000
# 2 23.1501 48.5267 2.4623 0.0000 0.0000 0.0000
# 3 17.0854 2.4623 43.8349 0.0000 0.0000 0.0000
# 4 0.0000 0.0000 0.0000 32.4921 0.0000 0.0000
# 5 0.0000 0.0000 0.0000 0.0000 10.3421 0.0000
# 6 0.0000 0.0000 0.0000 0.0000 0.0000 8.1709
#
#
#
# Elastic Compliance Matrix: (Units=1/GPa)
#
#
# Indices 1 2 3 4 5 6 
#
# 1 0.006498 -0.002980 -0.002365 0.000000 0.000000 0.000000
# 2 -0.002980 0.022033 -0.000076 0.000000 0.000000 0.000000
# 3 -0.002365 -0.000076 0.023739 0.000000 0.000000 0.000000
# 4 0.000000 0.000000 0.000000 0.030777 0.000000 0.000000
# 5 0.000000 0.000000 0.000000 0.000000 0.096692 0.000000
# 6 0.000000 0.000000 0.000000 0.000000 0.000000 0.122385
#
#
# Mechanical properties :
#
#
# Convention : Reuss Voigt Hill
#
# Bulk Modulus (GPa) = 24.13886 38.72005 31.42945
# Shear Modulus (GPa) = 15.30098 24.89348 20.09723
#
# Velocity S-wave (km/s) = 2.73436 3.48770 3.13375
# Velocity P-wave (km/s) = 4.66522 5.92782 5.33401
#
# Compressibility (1/GPa) = 0.04142698
#
# Stress axis : x y z
#
# Youngs Moduli (GPa) = 153.88760 45.38701 42.12455
#
# Poissons Ratio (x) = 0.13525 0.09964
# Poissons Ratio (y) = 0.45859 0.00321
# Poissons Ratio (z) = 0.36401 0.00346
#
# Static dielectric constant tensor:
#      x y z
#    x 1.728920 0.000000 0.000000 
#    y 0.000000 1.694120 0.000000 
#    z 0.000000 0.000000 1.797430 
# 
# From -- ./inp_files/2478.got.cif
#   From: 2010.05.17/outbox.cif.g08.bks.cpg/sg36_2_cif.got.tgz:2478.got - 2010.06.03 17:41:39.
