data_PCOD9350826
_publ_section_title
;
Structure prediction by ZEFSAII (Michael W. Deem and Ramdas Pophale) SiO2 
 PCOD9350826
Probable space group: C M C 21
;
_chemical_formula_sum "Si O2"
_cell_formula_units_Z 64
_cell_length_a 7.779001
_cell_length_b 21.146093
_cell_length_c 20.005480
_cell_angle_alpha 90.000000
_cell_angle_beta 90.000000
_cell_angle_gamma 90.000000
_cell_volume 3290.811007
_symmetry_space_group_name_H-M "C M C 21"
_symmetry_group_IT_number 36
_symmetry_cell_setting 'orthorhombic'
loop_
_space_group_symop_operation_xyz
x,y,z
-x,-y,1/2+z
x,-y,1/2+z
-x,y,z
1/2+x,1/2+y,z
1/2-x,1/2-y,1/2+z
1/2+x,1/2-y,1/2+z
1/2-x,1/2+y,z
loop_
_atom_site_type_symbol
_atom_site_label
_atom_site_fract_x
_atom_site_fract_y
_atom_site_fract_z
Si Si1 0.200362 0.604322 0.859950
Si Si2 0.707377 0.693636 0.496753
Si Si3 0.207332 0.440938 0.499250
Si Si4 0.295063 0.430316 0.074244
Si Si5 0.789027 0.682649 0.078816
Si Si6 0.703175 0.877872 0.212088
Si Si7 0.204482 0.752699 0.361899
Si Si8 0.299046 0.764753 0.714735
O O1 0.274242 0.566394 0.923100
O O2 0.272159 0.599243 0.784459
O O3 0.213765 0.678963 0.877795
O O4 0.000000 0.586556 0.854907
O O5 0.500000 0.692733 0.498547
O O6 0.771115 0.630315 0.532563
O O7 0.764994 0.756020 0.536631
O O8 0.761694 0.703522 0.420499
O O9 0.249740 0.505793 0.535945
O O10 0.268375 0.381287 0.543124
O O11 0.000000 0.435785 0.495592
O O12 0.500000 0.425388 0.077764
O O13 0.230015 0.424391 0.150200
O O14 0.727160 0.693532 0.154566
O O15 0.000000 0.682598 0.079581
O O16 0.500000 0.866201 0.220026
O O17 0.784818 0.809548 0.195759
O O18 0.272866 0.730717 0.289588
O O19 0.000000 0.763695 0.356213
O O20 0.500000 0.781036 0.719578
#
# Coordination Sequence:
#
# PCOD9350826 Si02
#       8
#     8   8   8   8   8   8   8   8
#     4   9  18  34  55  79 108 143 179 215 266 328
#     4  10  19  35  56  74 101 142 180 212 261 324
#     4  10  20  36  57  79 105 139 180 224 264 317
#     4  11  23  38  55  77 109 147 181 221 272 322
#     4   9  16  32  57  77  99 137 178 213 259 320
#     4  10  19  32  54  82 108 138 180 224 264 316
#     4  10  19  29  50  83 113 136 171 227 270 307
#     4   9  17  32  52  79 111 142 175 214 270 324
#
# _framework density 19.448093
#
# number of rings (size 3 to 8) (size 9 to 14) (size 15 to 20)
#    0.000    2.250    2.500    1.125    0.000    2.500 
#    0.000    1.875    0.000    6.000    0.000    0.000 
#    0.000    0.000    0.000    0.000    0.000    0.000 
#
# Total GULP energy -178506.815931 kJ/mol
# GULP energy per Si atom -5578.337998 kJ/mol
# Density = 1.940383 g / cm^3
# Si number density = 19.448093 Si / 1000 Ang^3
#
#
#
# Elastic Constant Matrix: (Units=GPa)
#
#
# Indices 1 2 3 4 5 6 
#
# 1 25.0589 -3.8461 -1.3231 0.0000 0.0000 0.0000
# 2 -3.8461 106.9674 72.7893 0.0000 0.0000 0.0000
# 3 -1.3231 72.7893 165.0008 0.0000 0.0000 0.0000
# 4 0.0000 0.0000 0.0000 30.7705 0.0000 0.0000
# 5 0.0000 0.0000 0.0000 0.0000 15.1535 0.0000
# 6 0.0000 0.0000 0.0000 0.0000 0.0000 16.7883
#
#
#
# Elastic Compliance Matrix: (Units=1/GPa)
#
#
# Indices 1 2 3 4 5 6 
#
# 1 0.040151 0.001750 -0.000450 0.000000 0.000000 0.000000
# 2 0.001750 0.013435 -0.005913 0.000000 0.000000 0.000000
# 3 -0.000450 -0.005913 0.008665 0.000000 0.000000 0.000000
# 4 0.000000 0.000000 0.000000 0.032499 0.000000 0.000000
# 5 0.000000 0.000000 0.000000 0.000000 0.065991 0.000000
# 6 0.000000 0.000000 0.000000 0.000000 0.000000 0.059565
#
#
# Mechanical properties :
#
#
# Convention : Reuss Voigt Hill
#
# Bulk Modulus (GPa) = 18.85891 48.02971 33.44431
# Shear Modulus (GPa) = 20.22593 27.83627 24.03110
#
# Velocity S-wave (km/s) = 3.22839 3.78737 3.51900
# Velocity P-wave (km/s) = 4.85951 6.62386 5.80906
#
# Compressibility (1/GPa) = 0.05302533
#
# Stress axis : x y z
#
# Youngs Moduli (GPa) = 24.90615 74.43184 115.40190
#
# Poissons Ratio (x) = -0.13024 0.05193
# Poissons Ratio (y) = -0.04358 0.68235
# Poissons Ratio (z) = 0.01121 0.44010
#
# Static dielectric constant tensor:
#      x y z
#    x 1.717950 0.000000 0.000000 
#    y 0.000000 1.636210 0.000000 
#    z 0.000000 0.000000 1.728330 
# 
# From -- ./inp_files/14093.got.cif
#   From: 2010.05.17/outbox.cif.g08.bks.cpg/sg36_8_cif.got.tgz:14093.got - 2010.06.03 17:41:39.
