data_PCOD9350451
_publ_section_title
;
Structure prediction by ZEFSAII (Michael W. Deem and Ramdas Pophale) SiO2 
 PCOD9350451
Probable space group: C M M 2
;
_chemical_formula_sum "Si O2"
_cell_formula_units_Z 32
_cell_length_a 8.643996
_cell_length_b 25.315972
_cell_length_c 7.408741
_cell_angle_alpha 90.000000
_cell_angle_beta 90.000000
_cell_angle_gamma 90.000000
_cell_volume 1621.263392
_symmetry_space_group_name_H-M "C M M 2"
_symmetry_group_IT_number 35
_symmetry_cell_setting 'orthorhombic'
loop_
_space_group_symop_operation_xyz
x,y,z
-x,-y,z
-x,y,z
x,-y,z
1/2+x,1/2+y,z
1/2-x,1/2-y,z
1/2-x,1/2+y,z
1/2+x,1/2-y,z
loop_
_atom_site_type_symbol
_atom_site_label
_atom_site_fract_x
_atom_site_fract_y
_atom_site_fract_z
Si Si1 0.683775 0.500000 0.509990
Si Si2 0.685059 0.808850 0.806484
Si Si3 0.815597 0.500000 0.102619
Si Si4 0.184578 0.390020 0.492275
Si Si5 0.184048 0.109572 0.089038
O O1 0.500000 0.500000 0.529676
O O2 0.732245 0.500000 0.298246
O O3 0.754527 0.554992 0.576904
O O4 0.500000 0.807778 0.828998
O O5 0.750000 0.750000 0.797879
O O6 0.719960 0.841729 0.624555
O O7 0.759480 0.841765 0.969569
O O8 0.761064 0.555063 0.018363
O O9 0.000000 0.500000 0.124376
O O10 0.261358 0.383221 0.296152
O O11 0.000000 0.394272 0.468319
O O12 0.000000 0.104202 0.083254
#
# Coordination Sequence:
#
# PCOD9350451 Si02
#       5
#     4   8   4   8   8
#     4  10  18  31  56  89 121 151 189 236 290 351
#     4  11  25  43  62  85 115 154 201 248 292 344
#     4  10  18  33  58  87 121 155 193 238 288 349
#     4  10  21  39  62  87 119 156 194 239 293 350
#     4  11  22  38  62  90 122 156 193 240 294 351
#
# _framework density 19.737694999999999
#
# number of rings (size 3 to 8) (size 9 to 14) (size 15 to 20)
#    0.000    1.500    0.000    9.000    0.000    6.000 
#    0.000    3.750    0.000    0.000    0.000    0.000 
#    0.000    0.000    0.000    0.000    0.000    0.000 
#
# Total GULP energy -89451.560072 kJ/mol
# GULP energy per Si atom -5590.722504 kJ/mol
# Density = 1.969277 g / cm^3
# Si number density = 19.737695 Si / 1000 Ang^3
#
#
#
# Elastic Constant Matrix: (Units=GPa)
#
#
# Indices 1 2 3 4 5 6 
#
# 1 73.2060 55.5564 33.1444 0.0000 0.0000 0.0000
# 2 55.5564 198.9145 61.7112 0.0000 0.0000 0.0000
# 3 33.1444 61.7112 91.2997 0.0000 0.0000 0.0000
# 4 0.0000 0.0000 0.0000 32.5742 0.0000 0.0000
# 5 0.0000 0.0000 0.0000 0.0000 7.4987 0.0000
# 6 0.0000 0.0000 0.0000 0.0000 0.0000 40.2521
#
#
#
# Elastic Compliance Matrix: (Units=1/GPa)
#
#
# Indices 1 2 3 4 5 6 
#
# 1 0.018456 -0.003892 -0.004069 0.000000 0.000000 0.000000
# 2 -0.003892 0.007182 -0.003441 0.000000 0.000000 0.000000
# 3 -0.004069 -0.003441 0.014756 0.000000 0.000000 0.000000
# 4 0.000000 0.000000 0.000000 0.030699 0.000000 0.000000
# 5 0.000000 0.000000 0.000000 0.000000 0.133357 0.000000
# 6 0.000000 0.000000 0.000000 0.000000 0.000000 0.024843
#
#
# Mechanical properties :
#
#
# Convention : Reuss Voigt Hill
#
# Bulk Modulus (GPa) = 56.85492 73.80490 65.32991
# Shear Modulus (GPa) = 19.38259 30.26554 24.82406
#
# Velocity S-wave (km/s) = 3.13710 3.92010 3.55025
# Velocity P-wave (km/s) = 6.47994 7.61338 7.06941
#
# Compressibility (1/GPa) = 0.01758863
#
# Stress axis : x y z
#
# Youngs Moduli (GPa) = 54.18170 139.23500 67.76743
#
# Poissons Ratio (x) = 0.54196 0.27576
# Poissons Ratio (y) = 0.21090 0.23322
# Poissons Ratio (z) = 0.22048 0.47917
#
# Static dielectric constant tensor:
#      x y z
#    x 1.656550 0.000000 0.000000 
#    y 0.000000 1.698800 0.000000 
#    z 0.000000 0.000000 1.718350 
# 
# From -- ./inp_files/4767.got.cif
#   From: 2010.05.17/outbox.cif.g08.bks.cpg/sg35_3_cif.got.tgz:4767.got - 2010.06.03 17:29:28.
