data_PCOD9350840
_publ_section_title
;
Structure prediction by ZEFSAII (Michael W. Deem and Ramdas Pophale) SiO2 
 PCOD9350840
Probable space group: C M C 21
;
_chemical_formula_sum "Si O2"
_cell_formula_units_Z 64
_cell_length_a 9.003731
_cell_length_b 13.883186
_cell_length_c 21.777115
_cell_angle_alpha 90.000000
_cell_angle_beta 90.000000
_cell_angle_gamma 90.000000
_cell_volume 2722.149657
_symmetry_space_group_name_H-M "C M C 21"
_symmetry_group_IT_number 36
_symmetry_cell_setting 'orthorhombic'
loop_
_space_group_symop_operation_xyz
x,y,z
-x,-y,1/2+z
x,-y,1/2+z
-x,y,z
1/2+x,1/2+y,z
1/2-x,1/2-y,1/2+z
1/2+x,1/2-y,1/2+z
1/2-x,1/2+y,z
loop_
_atom_site_type_symbol
_atom_site_label
_atom_site_fract_x
_atom_site_fract_y
_atom_site_fract_z
Si Si1 0.166439 0.329331 0.432170
Si Si2 0.680411 0.212542 0.062487
Si Si3 0.667784 0.081200 0.337831
Si Si4 0.672840 0.232922 0.683946
Si Si5 0.332412 0.305463 0.306133
Si Si6 0.830994 0.447148 0.970869
Si Si7 0.827661 0.037924 0.219136
Si Si8 0.320851 0.502732 0.088699
O O1 0.222066 0.267311 0.490931
O O2 0.259372 0.335742 0.370237
O O3 0.158243 0.437748 0.458252
O O4 0.000000 0.296295 0.416370
O O5 0.500000 0.206100 0.064285
O O6 0.736117 0.274787 0.120341
O O7 0.758557 0.109672 0.075156
O O8 0.500000 0.042278 0.344969
O O9 0.658454 0.189763 0.314223
O O10 0.735463 0.087291 0.405916
O O11 0.750914 0.024096 0.284630
O O12 0.500000 0.208121 0.674974
O O13 0.742824 0.180689 0.743156
O O14 0.678868 0.347530 0.702262
O O15 0.500000 0.341688 0.301414
O O16 0.000000 0.409713 0.978523
O O17 0.739065 0.438199 0.033166
O O18 0.767028 0.984834 0.158401
O O19 0.000000 0.014821 0.224501
O O20 0.500000 0.502564 0.088108
#
# Coordination Sequence:
#
# PCOD9350840 Si02
#       8
#     8   8   8   8   8   8   8   8
#     4   9  18  31  47  67  93 123 151 185 228 272
#     4   9  16  27  44  66  91 119 153 191 229 268
#     4   9  18  31  47  68  92 119 152 187 224 268
#     4   9  16  27  44  66  92 119 150 190 231 271
#     4  10  19  30  47  70  95 122 153 190 229 273
#     4   9  18  32  48  67  92 121 153 188 227 271
#     4   8  15  26  41  64  91 116 145 183 225 267
#     4   9  16  26  42  66  92 117 149 188 229 270
#
# _framework density 23.510832000000001
#
# number of rings (size 3 to 8) (size 9 to 14) (size 15 to 20)
#    0.000    3.000    0.000    3.000    0.000    7.000 
#    0.000    0.000    0.000    1.500    0.000    5.250 
#    0.000    0.000    0.000    0.000    0.000    0.000 
#
# Total GULP energy -178645.435423 kJ/mol
# GULP energy per Si atom -5582.669857 kJ/mol
# Density = 2.345732 g / cm^3
# Si number density = 23.510832 Si / 1000 Ang^3
#
#
#
# Elastic Constant Matrix: (Units=GPa)
#
#
# Indices 1 2 3 4 5 6 
#
# 1 93.8841 -1.3090 95.6820 0.0000 0.0000 0.0000
# 2 -1.3090 50.9217 37.0823 0.0000 0.0000 0.0000
# 3 95.6820 37.0823 262.1471 0.0000 0.0000 0.0000
# 4 0.0000 0.0000 0.0000 50.7709 0.0000 0.0000
# 5 0.0000 0.0000 0.0000 0.0000 45.2620 0.0000
# 6 0.0000 0.0000 0.0000 0.0000 0.0000 0.6633
#
#
#
# Elastic Compliance Matrix: (Units=1/GPa)
#
#
# Indices 1 2 3 4 5 6 
#
# 1 0.018472 0.006003 -0.007591 0.000000 0.000000 0.000000
# 2 0.006003 0.023844 -0.005564 0.000000 0.000000 0.000000
# 3 -0.007591 -0.005564 0.007372 0.000000 0.000000 0.000000
# 4 0.000000 0.000000 0.000000 0.019696 0.000000 0.000000
# 5 0.000000 0.000000 0.000000 0.000000 0.022094 0.000000
# 6 0.000000 0.000000 0.000000 0.000000 0.000000 1.507675
#
#
# Mechanical properties :
#
#
# Convention : Reuss Voigt Hill
#
# Bulk Modulus (GPa) = 28.26151 74.42926 51.34539
# Shear Modulus (GPa) = 3.07645 37.70574 20.39109
#
# Velocity S-wave (km/s) = 1.14515 4.00904 2.94820
# Velocity P-wave (km/s) = 3.71419 7.29082 5.78581
#
# Compressibility (1/GPa) = 0.03538381
#
# Stress axis : x y z
#
# Youngs Moduli (GPa) = 54.13688 41.93916 135.64037
#
# Poissons Ratio (x) = -0.25176 1.02967
# Poissons Ratio (y) = -0.32498 0.75469
# Poissons Ratio (z) = 0.41096 0.23335
#
# Static dielectric constant tensor:
#      x y z
#    x 1.832090 0.000000 0.000000 
#    y 0.000000 2.019230 0.000000 
#    z 0.000000 0.000000 1.912770 
# 
# From -- ./inp_files/14007.got.cif
#   From: 2010.05.17/outbox.cif.g08.bks.cpg/sg36_8_cif.got.tgz:14007.got - 2010.06.03 17:41:39.
