data_PCOD9350763
_publ_section_title
;
Structure prediction by ZEFSAII (Michael W. Deem and Ramdas Pophale) SiO2 
 PCOD9350763
Probable space group: C M C 21
;
_chemical_formula_sum "Si O2"
_cell_formula_units_Z 64
_cell_length_a 17.602898
_cell_length_b 10.250656
_cell_length_c 19.572757
_cell_angle_alpha 90.000000
_cell_angle_beta 90.000000
_cell_angle_gamma 90.000000
_cell_volume 3531.732778
_symmetry_space_group_name_H-M "C M C 21"
_symmetry_group_IT_number 36
_symmetry_cell_setting 'orthorhombic'
loop_
_space_group_symop_operation_xyz
x,y,z
-x,-y,1/2+z
x,-y,1/2+z
-x,y,z
1/2+x,1/2+y,z
1/2-x,1/2-y,1/2+z
1/2+x,1/2-y,1/2+z
1/2-x,1/2+y,z
loop_
_atom_site_type_symbol
_atom_site_label
_atom_site_fract_x
_atom_site_fract_y
_atom_site_fract_z
Si Si1 0.590031 0.477953 0.501390
Si Si2 0.910091 0.157542 0.132722
Si Si3 0.589886 0.216527 0.018626
Si Si4 0.589537 0.580916 0.736291
Si Si5 0.686493 0.495078 0.866162
Si Si6 0.591910 0.877391 0.235472
Si Si7 0.673660 0.809895 0.375244
Si Si8 0.092532 0.352582 0.668364
O O1 0.500000 0.456221 0.490826
O O2 0.620295 0.376608 0.557866
O O3 0.597341 0.626908 0.528099
O O4 0.634174 0.471858 0.431070
O O5 0.879171 0.274804 0.178489
O O6 0.000000 0.184548 0.123277
O O7 0.904579 0.026625 0.177143
O O8 0.500000 0.188986 0.010295
O O9 0.617293 0.149937 0.088990
O O10 0.631945 0.180025 0.948595
O O11 0.500000 0.589070 0.755561
O O12 0.639471 0.532633 0.798963
O O13 0.614864 0.720374 0.706993
O O14 0.701825 0.339830 0.868096
O O15 0.760458 0.583869 0.870743
O O16 0.500000 0.873198 0.235799
O O17 0.619604 0.837693 0.310388
O O18 0.616429 0.020576 0.210631
O O19 0.000000 0.351642 0.665995
#
# Coordination Sequence:
#
# PCOD9350763 Si02
#       8
#     8   8   8   8   8   8   8   8
#     4   9  17  34  61  86 106 139 188 235 274 323
#     4   9  16  31  58  88 109 130 178 237 279 318
#     4   9  17  35  62  85 106 142 187 227 275 333
#     4  10  18  34  61  86 108 139 183 231 275 324
#     4  11  24  39  55  79 114 151 189 229 274 331
#     4  10  20  36  59  87 114 143 183 231 281 328
#     4  11  24  40  56  78 113 153 189 228 273 329
#     4   9  18  33  58  91 116 137 177 234 285 328
#
# _framework density 18.121417000000001
#
# number of rings (size 3 to 8) (size 9 to 14) (size 15 to 20)
#    0.000    2.250    2.500    0.750    1.750    1.000 
#    2.250    2.500    0.000    0.000    0.000    0.000 
#    0.000    0.000    0.000    0.000    0.000    0.000 
#
# Total GULP energy -178449.828972 kJ/mol
# GULP energy per Si atom -5576.557155 kJ/mol
# Density = 1.808017 g / cm^3
# Si number density = 18.121417 Si / 1000 Ang^3
#
#
#
# Elastic Constant Matrix: (Units=GPa)
#
#
# Indices 1 2 3 4 5 6 
#
# 1 29.2340 21.0150 17.7996 0.0000 0.0000 0.0000
# 2 21.0150 91.1876 26.3361 0.0000 0.0000 0.0000
# 3 17.7996 26.3361 88.5057 0.0000 0.0000 0.0000
# 4 0.0000 0.0000 0.0000 29.1397 0.0000 0.0000
# 5 0.0000 0.0000 0.0000 0.0000 -19.0176 0.0000
# 6 0.0000 0.0000 0.0000 0.0000 0.0000 17.8453
#
#
#
# Elastic Compliance Matrix: (Units=1/GPa)
#
#
# Indices 1 2 3 4 5 6 
#
# 1 0.044072 -0.008311 -0.006390 0.000000 0.000000 0.000000
# 2 -0.008311 0.013565 -0.002365 0.000000 0.000000 0.000000
# 3 -0.006390 -0.002365 0.013288 0.000000 0.000000 0.000000
# 4 0.000000 0.000000 0.000000 0.034317 0.000000 0.000000
# 5 0.000000 0.000000 0.000000 0.000000 -0.052583 0.000000
# 6 0.000000 0.000000 0.000000 0.000000 0.000000 0.056037
#
#
# Mechanical properties :
#
#
# Convention : Reuss Voigt Hill
#
# Bulk Modulus (GPa) = 27.18010 37.69207 32.43609
# Shear Modulus (GPa) = 32.23879 15.17862 23.70870
#
# Velocity S-wave (km/s) = 4.22245 2.89728 3.62100
# Velocity P-wave (km/s) = 6.22925 5.66014 5.95150
#
# Compressibility (1/GPa) = 0.03679162
#
# Stress axis : x y z
#
# Youngs Moduli (GPa) = 22.69009 73.72017 75.25815
#
# Poissons Ratio (x) = 0.61270 0.48093
# Poissons Ratio (y) = 0.18858 0.17798
# Poissons Ratio (z) = 0.14500 0.17434
#
# Static dielectric constant tensor:
#      x y z
#    x 1.618800 0.000000 0.000000 
#    y 0.000000 1.617950 0.000000 
#    z 0.000000 0.000000 1.616180 
# 
# From -- ./inp_files/15029.got.cif
#   From: 2010.05.17/outbox.cif.g08.bks.cpg/sg36_8_cif.got.tgz:15029.got - 2010.06.03 17:41:39.
