data_PCOD9350883
_publ_section_title
;
Structure prediction by ZEFSAII (Michael W. Deem and Ramdas Pophale) SiO2 
 PCOD9350883
Probable space group: C M C 21
;
_chemical_formula_sum "Si O2"
_cell_formula_units_Z 64
_cell_length_a 8.578471
_cell_length_b 29.156747
_cell_length_c 14.616922
_cell_angle_alpha 90.000000
_cell_angle_beta 90.000000
_cell_angle_gamma 90.000000
_cell_volume 3655.989041
_symmetry_space_group_name_H-M "C M C 21"
_symmetry_group_IT_number 36
_symmetry_cell_setting 'orthorhombic'
loop_
_space_group_symop_operation_xyz
x,y,z
-x,-y,1/2+z
x,-y,1/2+z
-x,y,z
1/2+x,1/2+y,z
1/2-x,1/2-y,1/2+z
1/2+x,1/2-y,1/2+z
1/2-x,1/2+y,z
loop_
_atom_site_type_symbol
_atom_site_label
_atom_site_fract_x
_atom_site_fract_y
_atom_site_fract_z
Si Si1 0.312316 0.049206 0.062550
Si Si2 0.688597 0.876617 0.207847
Si Si3 0.688383 0.874185 0.417890
Si Si4 0.688383 0.874185 0.707210
Si Si5 0.187019 0.803276 0.562550
Si Si6 0.688597 0.876617 0.917253
Si Si7 0.684925 0.446967 0.062550
Si Si8 0.689499 0.801499 0.062550
O O1 0.500000 0.044195 0.062550
O O2 0.268389 0.080104 0.150502
O O3 0.237783 0.999476 0.062550
O O4 0.268389 0.080104 0.974598
O O5 0.500000 0.878382 0.206643
O O6 0.740065 0.875665 0.312885
O O7 0.749452 0.919894 0.150694
O O8 0.736928 0.831325 0.150979
O O9 0.500000 0.871238 0.419889
O O10 0.753935 0.831304 0.474450
O O11 0.500000 0.871238 0.705211
O O12 0.753935 0.831304 0.650650
O O13 0.740065 0.875665 0.812215
O O14 0.243866 0.750765 0.562550
O O15 0.000000 0.803338 0.562550
O O16 0.500000 0.878382 0.918457
O O17 0.749452 0.919894 0.974406
O O18 0.736928 0.831325 0.974121
O O19 0.500000 0.443820 0.062550
O O20 0.500000 0.800381 0.062550
#
# Coordination Sequence:
#
# PCOD9350883 Si02
#       8
#     8   8   8   8   8   8   8   8
#     4   9  18  34  52  72  99 130 168 208 249 296
#     4   9  18  36  57  73  97 134 173 210 246 289
#     4   9  19  35  55  76  97 130 176 214 242 287
#     4   9  19  35  55  76  97 130 176 214 242 287
#     4  10  19  31  49  75 108 138 162 200 256 305
#     4   9  18  36  57  73  97 134 173 210 246 289
#     4  11  22  34  50  76 105 130 162 204 255 308
#     4   8  16  31  51  75 102 134 168 202 248 301
#
# _framework density 17.505521999999999
#
# number of rings (size 3 to 8) (size 9 to 14) (size 15 to 20)
#    0.000    2.750    0.000    3.000    0.000    5.000 
#    0.000   10.000    0.000    0.000    0.000    0.000 
#    0.000    0.000    0.000    0.000    0.000    0.000 
#
# Total GULP energy -178451.061078 kJ/mol
# GULP energy per Si atom -5576.595659 kJ/mol
# Density = 1.746568 g / cm^3
# Si number density = 17.505522 Si / 1000 Ang^3
#
#
#
# Elastic Constant Matrix: (Units=GPa)
#
#
# Indices 1 2 3 4 5 6 
#
# 1 16.1602 31.7083 33.8491 0.0000 0.0000 0.0000
# 2 31.7083 186.6306 105.7375 0.0000 0.0000 0.0000
# 3 33.8491 105.7375 202.5900 0.0000 0.0000 0.0000
# 4 0.0000 0.0000 0.0000 5.3312 0.0000 0.0000
# 5 0.0000 0.0000 0.0000 0.0000 13.7070 0.0000
# 6 0.0000 0.0000 0.0000 0.0000 0.0000 24.2910
#
#
#
# Elastic Compliance Matrix: (Units=1/GPa)
#
#
# Indices 1 2 3 4 5 6 
#
# 1 0.111053 -0.011863 -0.012363 0.000000 0.000000 0.000000
# 2 -0.011863 0.008875 -0.002650 0.000000 0.000000 0.000000
# 3 -0.012363 -0.002650 0.008385 0.000000 0.000000 0.000000
# 4 0.000000 0.000000 0.000000 0.187577 0.000000 0.000000
# 5 0.000000 0.000000 0.000000 0.000000 0.072956 0.000000
# 6 0.000000 0.000000 0.000000 0.000000 0.000000 0.041168
#
#
# Mechanical properties :
#
#
# Convention : Reuss Voigt Hill
#
# Bulk Modulus (GPa) = 13.41198 83.10784 48.25991
# Shear Modulus (GPa) = 9.83053 24.27155 17.05104
#
# Velocity S-wave (km/s) = 2.37231 3.72762 3.12434
# Velocity P-wave (km/s) = 3.89641 8.13051 6.37523
#
# Compressibility (1/GPa) = 0.07456019
#
# Stress axis : x y z
#
# Youngs Moduli (GPa) = 9.00469 112.67393 119.26250
#
# Poissons Ratio (x) = 1.33669 1.47446
# Poissons Ratio (y) = 0.10683 0.31605
# Poissons Ratio (z) = 0.11133 0.29859
#
# Static dielectric constant tensor:
#      x y z
#    x 1.592670 0.000000 0.000000 
#    y 0.000000 1.571230 0.000000 
#    z 0.000000 0.000000 1.588780 
# 
# From -- ./inp_files/11210.got.cif
#   From: 2010.05.17/outbox.cif.g08.bks.cpg/sg36_6_cif.got.tgz:11210.got - 2010.06.03 17:41:39.
