data_PCOD9350014
_publ_section_title
;
Structure prediction by ZEFSAII (Michael W. Deem and Ramdas Pophale) SiO2 
 PCOD9350014
Probable space group: C M M 2
;
_chemical_formula_sum "Si O2"
_cell_formula_units_Z 44
_cell_length_a 13.440547
_cell_length_b 24.951037
_cell_length_c 6.406584
_cell_angle_alpha 90.000000
_cell_angle_beta 90.000000
_cell_angle_gamma 90.000000
_cell_volume 2148.483728
_symmetry_space_group_name_H-M "C M M 2"
_symmetry_group_IT_number 35
_symmetry_cell_setting 'orthorhombic'
loop_
_space_group_symop_operation_xyz
x,y,z
-x,-y,z
-x,y,z
x,-y,z
1/2+x,1/2+y,z
1/2-x,1/2-y,z
1/2-x,1/2+y,z
1/2+x,1/2-y,z
loop_
_atom_site_type_symbol
_atom_site_label
_atom_site_fract_x
_atom_site_fract_y
_atom_site_fract_z
Si Si1 0.385795 0.800832 0.390890
Si Si2 0.750002 0.157559 0.744981
Si Si3 0.749995 0.000000 0.244986
Si Si4 0.383555 0.598640 0.413174
Si Si5 0.114205 0.800832 0.099075
Si Si6 0.116445 0.598642 0.076783
O O1 0.500000 0.796014 0.465361
O O2 0.311769 0.807541 0.581559
O O3 0.365565 0.749999 0.244988
O O4 0.377796 0.853949 0.248733
O O5 0.826859 0.120562 0.616962
O O6 0.811769 0.192460 0.908404
O O7 0.673148 0.120560 0.872998
O O8 0.827388 0.952966 0.326814
O O9 0.672603 0.952966 0.163156
O O10 0.500000 0.588609 0.455829
O O11 0.377798 0.646048 0.241220
O O12 0.000000 0.796012 0.024603
O O13 0.000000 0.588614 0.034120
#
# Coordination Sequence:
#
# PCOD9350014 Si02
#       6
#     8   8   4   8   8   8
#     4  10  23  44  69 102 142 182 228 287 351 419
#     4  12  22  44  72 106 138 187 235 284 350 422
#     4  12  22  50  66  96 138 194 224 290 348 404
#     4  11  25  44  68 103 142 183 235 289 343 412
#     4  10  23  44  69 102 142 182 228 287 351 419
#     4  11  25  44  68 103 142 183 235 289 343 412
#
# _framework density 20.479558000000001
#
# number of rings (size 3 to 8) (size 9 to 14) (size 15 to 20)
#    0.000    1.091    3.636    1.636    0.000    6.545 
#    0.000    5.455    0.000    3.273    0.000    0.000 
#    0.000    0.000    0.000    0.000    0.000    0.000 
#
# Total GULP energy -122676.178236 kJ/mol
# GULP energy per Si atom -5576.189920 kJ/mol
# Density = 2.043295 g / cm^3
# Si number density = 20.479558 Si / 1000 Ang^3
#
#
#
# Elastic Constant Matrix: (Units=GPa)
#
#
# Indices 1 2 3 4 5 6 
#
# 1 239.3668 98.8367 116.6886 0.0000 0.0000 0.0000
# 2 98.8367 195.5930 71.6603 0.0000 0.0000 0.0000
# 3 116.6886 71.6603 111.6646 0.0000 0.0000 0.0000
# 4 0.0000 0.0000 0.0000 9.2839 0.0000 0.0000
# 5 0.0000 0.0000 0.0000 0.0000 24.0513 0.0000
# 6 0.0000 0.0000 0.0000 0.0000 0.0000 40.8002
#
#
#
# Elastic Compliance Matrix: (Units=1/GPa)
#
#
# Indices 1 2 3 4 5 6 
#
# 1 0.008803 -0.001409 -0.008295 0.000000 0.000000 0.000000
# 2 -0.001409 0.006910 -0.002962 0.000000 0.000000 0.000000
# 3 -0.008295 -0.002962 0.019524 0.000000 0.000000 0.000000
# 4 0.000000 0.000000 0.000000 0.107713 0.000000 0.000000
# 5 0.000000 0.000000 0.000000 0.000000 0.041578 0.000000
# 6 0.000000 0.000000 0.000000 0.000000 0.000000 0.024510
#
#
# Mechanical properties :
#
#
# Convention : Reuss Voigt Hill
#
# Bulk Modulus (GPa) = 100.95396 124.55507 112.75452
# Shear Modulus (GPa) = 21.03741 32.12299 26.58020
#
# Velocity S-wave (km/s) = 3.20853 3.96478 3.60653
# Velocity P-wave (km/s) = 7.94533 9.05044 8.51583
#
# Compressibility (1/GPa) = 0.00990551
#
# Stress axis : x y z
#
# Youngs Moduli (GPa) = 113.59323 144.71972 51.21884
#
# Poissons Ratio (x) = 0.20397 0.42486
# Poissons Ratio (y) = 0.16010 0.15169
# Poissons Ratio (z) = 0.94225 0.42859
#
# Static dielectric constant tensor:
#      x y z
#    x 1.758230 0.000000 0.000000 
#    y 0.000000 1.687840 0.000000 
#    z 0.000000 0.000000 1.715920 
# 
# From -- ./inp_files/1864.got.cif
#   From: 2010.05.17/outbox.cif.g08.bks.cpg/sg35_1_cif.got.tgz:1864.got - 2010.06.03 17:29:28.
