data_PCOD9350788
_publ_section_title
;
Structure prediction by ZEFSAII (Michael W. Deem and Ramdas Pophale) SiO2 
 PCOD9350788
Probable space group: C M C 21
;
_chemical_formula_sum "Si O2"
_cell_formula_units_Z 64
_cell_length_a 20.129135
_cell_length_b 11.535184
_cell_length_c 14.214688
_cell_angle_alpha 90.000000
_cell_angle_beta 90.000000
_cell_angle_gamma 90.000000
_cell_volume 3300.554974
_symmetry_space_group_name_H-M "C M C 21"
_symmetry_group_IT_number 36
_symmetry_cell_setting 'orthorhombic'
loop_
_space_group_symop_operation_xyz
x,y,z
-x,-y,1/2+z
x,-y,1/2+z
-x,y,z
1/2+x,1/2+y,z
1/2-x,1/2-y,1/2+z
1/2+x,1/2-y,1/2+z
1/2-x,1/2+y,z
loop_
_atom_site_type_symbol
_atom_site_label
_atom_site_fract_x
_atom_site_fract_y
_atom_site_fract_z
Si Si1 0.803332 0.303768 0.048740
Si Si2 0.695932 0.113656 0.847495
Si Si3 0.319142 0.338105 0.727528
Si Si4 0.577008 0.478191 0.253243
Si Si5 0.813452 0.529861 0.169878
Si Si6 0.848334 0.712854 0.032753
Si Si7 0.423278 0.553235 0.529871
Si Si8 0.343218 0.371356 0.403785
O O1 0.837413 0.228661 0.131767
O O2 0.808238 0.434002 0.086897
O O3 0.725468 0.269460 0.043044
O O4 0.834276 0.254020 0.952600
O O5 0.705370 0.239247 0.798339
O O6 0.770080 0.079304 0.879623
O O7 0.665692 0.031450 0.767120
O O8 0.653725 0.131736 0.940967
O O9 0.379438 0.407606 0.773559
O O10 0.259920 0.422761 0.695633
O O11 0.500000 0.488198 0.278300
O O12 0.582807 0.464473 0.141695
O O13 0.612797 0.375558 0.309991
O O14 0.855648 0.634977 0.126315
O O15 0.898889 0.816025 0.015402
O O16 0.500000 0.537793 0.503070
O O17 0.378556 0.460682 0.474931
#
# Coordination Sequence:
#
# PCOD9350788 Si02
#       8
#     8   8   8   8   8   8   8   8
#     4   9  20  33  56  84 122 155 191 253 308 360
#     4  10  22  32  58  92 119 159 192 251 311 368
#     4  10  18  36  55  82 126 156 197 246 303 366
#     4  11  22  36  61  88 121 164 203 248 302 367
#     4  10  20  36  57  86 121 158 191 252 309 359
#     4  10  22  35  59  87 119 160 201 245 308 369
#     4  11  24  42  62  86 124 164 208 257 299 367
#     4  11  21  36  58  89 125 156 199 252 306 366
#
# _framework density 19.390678999999999
#
# number of rings (size 3 to 8) (size 9 to 14) (size 15 to 20)
#    0.000    1.750    2.500    1.875    7.000    1.000 
#    0.000    0.000    0.000    5.250    0.000    0.000 
#    0.000    0.000    0.000    0.000    0.000    0.000 
#
# Total GULP energy -178554.789765 kJ/mol
# GULP energy per Si atom -5579.837180 kJ/mol
# Density = 1.934655 g / cm^3
# Si number density = 19.390679 Si / 1000 Ang^3
#
#
#
# Elastic Constant Matrix: (Units=GPa)
#
#
# Indices 1 2 3 4 5 6 
#
# 1 45.1118 18.4095 29.9707 0.0000 0.0000 0.0000
# 2 18.4095 64.1329 26.1747 0.0000 0.0000 0.0000
# 3 29.9707 26.1747 92.4194 0.0000 0.0000 0.0000
# 4 0.0000 0.0000 0.0000 33.7785 0.0000 0.0000
# 5 0.0000 0.0000 0.0000 0.0000 23.4927 0.0000
# 6 0.0000 0.0000 0.0000 0.0000 0.0000 21.3599
#
#
#
# Elastic Compliance Matrix: (Units=1/GPa)
#
#
# Indices 1 2 3 4 5 6 
#
# 1 0.029711 -0.005197 -0.008163 0.000000 0.000000 0.000000
# 2 -0.005197 0.018540 -0.003565 0.000000 0.000000 0.000000
# 3 -0.008163 -0.003565 0.014477 0.000000 0.000000 0.000000
# 4 0.000000 0.000000 0.000000 0.029605 0.000000 0.000000
# 5 0.000000 0.000000 0.000000 0.000000 0.042566 0.000000
# 6 0.000000 0.000000 0.000000 0.000000 0.000000 0.046817
#
#
# Mechanical properties :
#
#
# Convention : Reuss Voigt Hill
#
# Bulk Modulus (GPa) = 34.62969 38.97485 36.80227
# Shear Modulus (GPa) = 22.20320 24.20017 23.20169
#
# Velocity S-wave (km/s) = 3.38752 3.53658 3.46285
# Velocity P-wave (km/s) = 5.76178 6.06795 5.91684
#
# Compressibility (1/GPa) = 0.02887696
#
# Stress axis : x y z
#
# Youngs Moduli (GPa) = 33.65724 53.93864 69.07392
#
# Poissons Ratio (x) = 0.28032 0.56386
# Poissons Ratio (y) = 0.17492 0.24627
# Poissons Ratio (z) = 0.27475 0.19231
#
# Static dielectric constant tensor:
#      x y z
#    x 1.638470 0.000000 0.000000 
#    y 0.000000 1.715310 0.000000 
#    z 0.000000 0.000000 1.738720 
# 
# From -- ./inp_files/12630.got.cif
#   From: 2010.05.17/outbox.cif.g08.bks.cpg/sg36_7_cif.got.tgz:12630.got - 2010.06.03 17:41:39.
