data_PCOD9350856
_publ_section_title
;
Structure prediction by ZEFSAII (Michael W. Deem and Ramdas Pophale) SiO2 
 PCOD9350856
Probable space group: C M C 21
;
_chemical_formula_sum "Si O2"
_cell_formula_units_Z 36
_cell_length_a 12.125558
_cell_length_b 26.618303
_cell_length_c 5.181350
_cell_angle_alpha 90.000000
_cell_angle_beta 90.000000
_cell_angle_gamma 90.000000
_cell_volume 1672.341733
_symmetry_space_group_name_H-M "C M C 21"
_symmetry_group_IT_number 36
_symmetry_cell_setting 'orthorhombic'
loop_
_space_group_symop_operation_xyz
x,y,z
-x,-y,1/2+z
x,-y,1/2+z
-x,y,z
1/2+x,1/2+y,z
1/2-x,1/2-y,1/2+z
1/2+x,1/2-y,1/2+z
1/2-x,1/2+y,z
loop_
_atom_site_type_symbol
_atom_site_label
_atom_site_fract_x
_atom_site_fract_y
_atom_site_fract_z
Si Si1 0.836870 0.305081 0.226300
Si Si2 0.500000 0.469488 0.772680
Si Si3 0.623653 0.304451 0.934512
Si Si4 0.321244 0.860173 0.729551
Si Si5 0.246745 0.033925 0.361559
O O1 0.877260 0.250688 0.308017
O O2 0.861541 0.344921 0.449233
O O3 0.704012 0.300642 0.182576
O O4 0.875729 0.326067 0.951756
O O5 0.500000 0.482213 0.468218
O O6 0.380946 0.447262 0.840816
O O7 0.500000 0.320988 0.988838
O O8 0.693803 0.341229 0.751738
O O9 0.322850 0.918314 0.803725
O O10 0.261348 0.008073 0.639130
#
# Coordination Sequence:
#
# PCOD9350856 Si02
#       5
#     8   4   8   8   8
#     4  10  20  38  50  80 107 137 179 231 257 320
#     4   8  16  28  40  58  92 126 164 212 238 276
#     4  10  21  37  57  78 109 149 177 219 280 324
#     4  10  20  35  52  73 110 139 176 225 263 307
#     4  10  19  31  46  69  97 137 177 210 255 310
#
# _framework density 21.526702
#
# number of rings (size 3 to 8) (size 9 to 14) (size 15 to 20)
#    1.333    0.889    2.222    1.333    1.556    0.889 
#    0.000    0.000    0.000    0.000    0.000    0.000 
#    0.000   17.778    0.000    0.000    0.000    0.000 
#
# Total GULP energy -100269.954495 kJ/mol
# GULP energy per Si atom -5570.553027 kJ/mol
# Density = 2.147771 g / cm^3
# Si number density = 21.526702 Si / 1000 Ang^3
#
#
#
# Elastic Constant Matrix: (Units=GPa)
#
#
# Indices 1 2 3 4 5 6 
#
# 1 74.7957 -5.9748 7.9212 0.0000 0.0000 0.0000
# 2 -5.9748 47.1812 -7.8960 0.0000 0.0000 0.0000
# 3 7.9212 -7.8960 95.9511 0.0000 0.0000 0.0000
# 4 0.0000 0.0000 0.0000 20.7241 0.0000 0.0000
# 5 0.0000 0.0000 0.0000 0.0000 -3.9014 0.0000
# 6 0.0000 0.0000 0.0000 0.0000 0.0000 7.5780
#
#
#
# Elastic Compliance Matrix: (Units=1/GPa)
#
#
# Indices 1 2 3 4 5 6 
#
# 1 0.013599 0.001556 -0.000995 0.000000 0.000000 0.000000
# 2 0.001556 0.021669 0.001655 0.000000 0.000000 0.000000
# 3 -0.000995 0.001655 0.010640 0.000000 0.000000 0.000000
# 4 0.000000 0.000000 0.000000 0.048253 0.000000 0.000000
# 5 0.000000 0.000000 0.000000 0.000000 -0.256315 0.000000
# 6 0.000000 0.000000 0.000000 0.000000 0.000000 0.131960
#
#
# Mechanical properties :
#
#
# Convention : Reuss Voigt Hill
#
# Bulk Modulus (GPa) = 19.86494 22.89209 21.37852
# Shear Modulus (GPa) = -280.18533 19.80532 -130.19001
#
# Velocity S-wave (km/s) = -11.42102 3.03650 -7.78522
# Velocity P-wave (km/s) = 12.83244 4.79073 8.41785
#
# Compressibility (1/GPa) = 0.05033994
#
# Stress axis : x y z
#
# Youngs Moduli (GPa) = 73.53282 46.14932 93.98263
#
# Poissons Ratio (x) = -0.07179 0.09348
# Poissons Ratio (y) = -0.11439 -0.15552
# Poissons Ratio (z) = 0.07314 -0.07636
#
# Static dielectric constant tensor:
#      x y z
#    x 1.864400 0.000000 0.000000 
#    y 0.000000 1.747180 0.000000 
#    z 0.000000 0.000000 1.767570 
# 
# From -- ./inp_files/726.got.cif
#   From: 2010.05.17/outbox.cif.g08.bks.cpg/sg36_1_cif.got.tgz:726.got - 2010.06.03 17:41:39.
