data_PCOD9350963
_publ_section_title
;
Structure prediction by ZEFSAII (Michael W. Deem and Ramdas Pophale) SiO2 
 PCOD9350963
Probable space group: C M C 21
;
_chemical_formula_sum "Si O2"
_cell_formula_units_Z 48
_cell_length_a 9.190152
_cell_length_b 15.942554
_cell_length_c 14.167334
_cell_angle_alpha 90.000000
_cell_angle_beta 90.000000
_cell_angle_gamma 90.000000
_cell_volume 2075.719780
_symmetry_space_group_name_H-M "C M C 21"
_symmetry_group_IT_number 36
_symmetry_cell_setting 'orthorhombic'
loop_
_space_group_symop_operation_xyz
x,y,z
-x,-y,1/2+z
x,-y,1/2+z
-x,y,z
1/2+x,1/2+y,z
1/2-x,1/2-y,1/2+z
1/2+x,1/2-y,1/2+z
1/2-x,1/2+y,z
loop_
_atom_site_type_symbol
_atom_site_label
_atom_site_fract_x
_atom_site_fract_y
_atom_site_fract_z
Si Si1 0.328733 0.397261 0.474950
Si Si2 0.164783 0.030458 0.249866
Si Si3 0.327971 0.284019 0.310682
Si Si4 0.171664 0.544894 0.583235
Si Si5 0.327253 0.637573 0.427235
Si Si6 0.336651 0.286307 0.646495
O O1 0.500000 0.423181 0.485741
O O2 0.301973 0.370255 0.367292
O O3 0.222612 0.463525 0.522731
O O4 0.311695 0.313001 0.538833
O O5 0.271162 0.973525 0.188427
O O6 0.194389 0.056920 0.357486
O O7 0.165546 0.122006 0.197852
O O8 0.000000 0.997192 0.241938
O O9 0.500000 0.268100 0.314623
O O10 0.242812 0.213806 0.370449
O O11 0.271688 0.272142 0.204583
O O12 0.250404 0.618918 0.526079
O O13 0.000000 0.554726 0.581332
O O14 0.500000 0.649163 0.438058
O O15 0.500000 0.252043 0.656478
#
# Coordination Sequence:
#
# PCOD9350963 Si02
#       6
#     8   8   8   8   8   8
#     4   9  19  35  52  71 101 137 166 198 247 302
#     4   8  16  32  52  71  95 132 170 202 244 300
#     4  10  19  32  52  77 101 127 165 210 250 290
#     4  11  21  32  52  79 103 129 166 212 252 292
#     4  10  20  35  54  74 101 136 169 203 248 302
#     4   8  15  30  50  70  95 131 168 199 241 298
#
# _framework density 23.124507999999999
#
# number of rings (size 3 to 8) (size 9 to 14) (size 15 to 20)
#    0.000    2.667    0.000    4.500    0.000    8.000 
#    0.000    1.667    0.000    4.000    0.000    0.000 
#    0.000    0.000    0.000    0.000    0.000    0.000 
#
# Total GULP energy -134167.375722 kJ/mol
# GULP energy per Si atom -5590.307322 kJ/mol
# Density = 2.307188 g / cm^3
# Si number density = 23.124508 Si / 1000 Ang^3
#
#
#
# Elastic Constant Matrix: (Units=GPa)
#
#
# Indices 1 2 3 4 5 6 
#
# 1 117.0299 40.2696 68.0377 0.0000 0.0000 0.0000
# 2 40.2696 73.9165 13.8887 0.0000 0.0000 0.0000
# 3 68.0377 13.8887 128.5450 0.0000 0.0000 0.0000
# 4 0.0000 0.0000 0.0000 44.5617 0.0000 0.0000
# 5 0.0000 0.0000 0.0000 0.0000 33.7284 0.0000
# 6 0.0000 0.0000 0.0000 0.0000 0.0000 11.3716
#
#
#
# Elastic Compliance Matrix: (Units=1/GPa)
#
#
# Indices 1 2 3 4 5 6 
#
# 1 0.015139 -0.006882 -0.007269 0.000000 0.000000 0.000000
# 2 -0.006882 0.016937 0.001812 0.000000 0.000000 0.000000
# 3 -0.007269 0.001812 0.011431 0.000000 0.000000 0.000000
# 4 0.000000 0.000000 0.000000 0.022441 0.000000 0.000000
# 5 0.000000 0.000000 0.000000 0.000000 0.029649 0.000000
# 6 0.000000 0.000000 0.000000 0.000000 0.000000 0.087939
#
#
# Mechanical properties :
#
#
# Convention : Reuss Voigt Hill
#
# Bulk Modulus (GPa) = 53.10633 62.65368 57.88001
# Shear Modulus (GPa) = 23.31112 31.08536 27.19824
#
# Velocity S-wave (km/s) = 3.17846 3.67039 3.43325
# Velocity P-wave (km/s) = 6.04031 6.71679 6.38751
#
# Compressibility (1/GPa) = 0.01883015
#
# Stress axis : x y z
#
# Youngs Moduli (GPa) = 66.05428 59.04081 87.48000
#
# Poissons Ratio (x) = 0.40631 0.63593
# Poissons Ratio (y) = 0.45457 -0.15856
# Poissons Ratio (z) = 0.48018 -0.10701
#
# Static dielectric constant tensor:
#      x y z
#    x 1.765530 0.000000 0.000000 
#    y 0.000000 1.953360 0.000000 
#    z 0.000000 0.000000 1.910500 
# 
# From -- ./inp_files/6748.got.cif
#   From: 2010.05.17/outbox.cif.g08.bks.cpg/sg36_4_cif.got.tgz:6748.got - 2010.06.03 17:41:39.
