data_PCOD9350019
_publ_section_title
;
Structure prediction by ZEFSAII (Michael W. Deem and Ramdas Pophale) SiO2 
 PCOD9350019
Probable space group: C M M 2
;
_chemical_formula_sum "Si O2"
_cell_formula_units_Z 34
_cell_length_a 9.047971
_cell_length_b 19.601000
_cell_length_c 10.188146
_cell_angle_alpha 90.000000
_cell_angle_beta 90.000000
_cell_angle_gamma 90.000000
_cell_volume 1806.860353
_symmetry_space_group_name_H-M "C M M 2"
_symmetry_group_IT_number 35
_symmetry_cell_setting 'orthorhombic'
loop_
_space_group_symop_operation_xyz
x,y,z
-x,-y,z
-x,y,z
x,-y,z
1/2+x,1/2+y,z
1/2-x,1/2-y,z
1/2-x,1/2+y,z
1/2+x,1/2-y,z
loop_
_atom_site_type_symbol
_atom_site_label
_atom_site_fract_x
_atom_site_fract_y
_atom_site_fract_z
Si Si1 0.322531 0.821401 0.133710
Si Si2 0.324550 0.679389 0.692741
Si Si3 0.677799 0.420504 0.927182
Si Si4 0.000000 0.500000 0.428036
Si Si5 0.337293 0.858200 0.429649
O O1 0.500000 0.818764 0.122142
O O2 0.250000 0.750000 0.092669
O O3 0.285636 0.835278 0.286303
O O4 0.258623 0.881689 0.044780
O O5 0.500000 0.686835 0.695211
O O6 0.250000 0.750000 0.735597
O O7 0.283145 0.619061 0.793238
O O8 0.268259 0.661736 0.547567
O O9 0.500000 0.415686 0.944477
O O10 0.717991 0.500000 0.921039
O O11 0.126190 0.561242 0.427256
O O12 0.500000 0.825027 0.454020
#
# Coordination Sequence:
#
# PCOD9350019 Si02
#       5
#     8   8   8   2   8
#     4  11  23  39  63  90 122 159 202 248 300 358
#     4  11  23  40  62  90 123 159 204 250 300 356
#     4  10  24  42  61  87 123 159 200 251 305 361
#     4   8  20  40  62  90 132 152 192 246 312 340
#     4   9  21  38  64  89 123 155 196 243 299 356
#
# _framework density 18.817170999999998
#
# number of rings (size 3 to 8) (size 9 to 14) (size 15 to 20)
#    0.706    1.176    0.000    2.824    3.294    8.000 
#    0.000    0.000    0.000    0.000    0.000    0.000 
#    0.000    0.000    0.000    0.000    0.000    0.000 
#
# Total GULP energy -94636.362082 kJ/mol
# GULP energy per Si atom -5566.844828 kJ/mol
# Density = 1.877434 g / cm^3
# Si number density = 18.817171 Si / 1000 Ang^3
#
#
#
# Elastic Constant Matrix: (Units=GPa)
#
#
# Indices 1 2 3 4 5 6 
#
# 1 50.4135 54.1777 61.4365 0.0000 0.0000 0.0000
# 2 54.1777 175.7106 70.6765 0.0000 0.0000 0.0000
# 3 61.4365 70.6765 132.1179 0.0000 0.0000 0.0000
# 4 0.0000 0.0000 0.0000 22.0062 0.0000 0.0000
# 5 0.0000 0.0000 0.0000 0.0000 36.5999 0.0000
# 6 0.0000 0.0000 0.0000 0.0000 0.0000 31.7496
#
#
#
# Elastic Compliance Matrix: (Units=1/GPa)
#
#
# Indices 1 2 3 4 5 6 
#
# 1 0.053905 -0.008331 -0.020610 0.000000 0.000000 0.000000
# 2 -0.008331 0.008539 -0.000694 0.000000 0.000000 0.000000
# 3 -0.020610 -0.000694 0.017524 0.000000 0.000000 0.000000
# 4 0.000000 0.000000 0.000000 0.045442 0.000000 0.000000
# 5 0.000000 0.000000 0.000000 0.000000 0.027322 0.000000
# 6 0.000000 0.000000 0.000000 0.000000 0.000000 0.031496
#
#
# Mechanical properties :
#
#
# Convention : Reuss Voigt Hill
#
# Bulk Modulus (GPa) = 48.31215 81.20261 64.75738
# Shear Modulus (GPa) = 19.96813 29.53456 24.75134
#
# Velocity S-wave (km/s) = 3.26109 3.96606 3.63072
# Velocity P-wave (km/s) = 6.31742 8.01374 7.21560
#
# Compressibility (1/GPa) = 0.02069873
#
# Stress axis : x y z
#
# Youngs Moduli (GPa) = 18.55099 117.10944 57.06390
#
# Poissons Ratio (x) = 0.97563 1.17609
# Poissons Ratio (y) = 0.15455 0.03960
# Poissons Ratio (z) = 0.38234 0.08127
#
# Static dielectric constant tensor:
#      x y z
#    x 1.661570 0.000000 0.000000 
#    y 0.000000 1.635700 0.000000 
#    z 0.000000 0.000000 1.643660 
# 
# From -- ./inp_files/4663.got.cif
#   From: 2010.05.17/outbox.cif.g08.bks.cpg/sg35_3_cif.got.tgz:4663.got - 2010.06.03 17:29:28.
