data_PCOD9350135
_publ_section_title
;
Structure prediction by ZEFSAII (Michael W. Deem and Ramdas Pophale) SiO2 
 PCOD9350135
Probable space group: C M M 2
;
_chemical_formula_sum "Si O2"
_cell_formula_units_Z 56
_cell_length_a 7.292504
_cell_length_b 28.749991
_cell_length_c 11.251541
_cell_angle_alpha 90.000000
_cell_angle_beta 90.000000
_cell_angle_gamma 90.000000
_cell_volume 2358.991609
_symmetry_space_group_name_H-M "C M M 2"
_symmetry_group_IT_number 35
_symmetry_cell_setting 'orthorhombic'
loop_
_space_group_symop_operation_xyz
x,y,z
-x,-y,z
-x,y,z
x,-y,z
1/2+x,1/2+y,z
1/2-x,1/2-y,z
1/2-x,1/2+y,z
1/2+x,1/2-y,z
loop_
_atom_site_type_symbol
_atom_site_label
_atom_site_fract_x
_atom_site_fract_y
_atom_site_fract_z
Si Si1 0.722378 0.054692 0.613210
Si Si2 0.776324 0.603729 0.112196
Si Si3 0.217853 0.305629 0.483437
Si Si4 0.781475 0.304415 0.743833
Si Si5 0.776323 0.396271 0.854679
Si Si6 0.718525 0.195585 0.223041
Si Si7 0.722378 0.054692 0.353664
O O1 0.500000 0.058550 0.613126
O O2 0.785603 0.077987 0.735109
O O3 0.782267 0.073576 0.483437
O O4 0.767023 0.000000 0.616104
O O5 0.721459 0.657703 0.128223
O O6 0.714397 0.577987 0.231766
O O7 0.000000 0.601150 0.112113
O O8 0.716231 0.585745 0.983437
O O9 0.250000 0.250000 0.483437
O O10 0.289931 0.319285 0.612877
O O11 0.289931 0.319285 0.353997
O O12 0.000000 0.315901 0.483437
O O13 0.750000 0.250000 0.767345
O O14 0.721459 0.342297 0.838651
O O15 0.000000 0.308733 0.736182
O O16 0.000000 0.398850 0.854761
O O17 0.500000 0.191267 0.230693
O O18 0.750000 0.250000 0.199529
O O19 0.500000 0.058550 0.353748
O O20 0.767023 0.000000 0.350770
#
# Coordination Sequence:
#
# PCOD9350135 Si02
#       7
#     8   8   8   8   8   8   8
#     4   8  14  24  38  56  78 106 139 173 211 257
#     4   9  17  26  37  56  81 110 142 174 212 256
#     4   8  14  24  38  56  75 101 137 175 210 244
#     4   9  17  28  42  60  84 114 147 180 214 253
#     4   9  17  26  37  56  81 110 142 174 212 256
#     4   9  17  28  42  60  84 114 147 180 214 253
#     4   8  14  24  38  56  78 106 139 173 211 257
#
# _framework density 23.738958
#
# number of rings (size 3 to 8) (size 9 to 14) (size 15 to 20)
#    0.000    3.429    0.000    0.857    2.000    1.143 
#    0.000    2.857    0.000    0.000    0.000    0.000 
#    0.000    1.143    0.000    5.714    0.000    6.857 
#
# Total GULP energy -156145.708205 kJ/mol
# GULP energy per Si atom -5576.632436 kJ/mol
# Density = 2.368493 g / cm^3
# Si number density = 23.738958 Si / 1000 Ang^3
#
#
#
# Elastic Constant Matrix: (Units=GPa)
#
#
# Indices 1 2 3 4 5 6 
#
# 1 97.9695 -3.3897 5.6971 0.0000 0.0000 0.0000
# 2 -3.3897 75.6405 87.0884 0.0000 0.0000 0.0000
# 3 5.6971 87.0884 242.4204 0.0000 0.0000 0.0000
# 4 0.0000 0.0000 0.0000 25.7106 0.0000 0.0000
# 5 0.0000 0.0000 0.0000 0.0000 -46.4059 0.0000
# 6 0.0000 0.0000 0.0000 0.0000 0.0000 1.0377
#
#
#
# Elastic Compliance Matrix: (Units=1/GPa)
#
#
# Indices 1 2 3 4 5 6 
#
# 1 0.010291 0.001261 -0.000695 0.000000 0.000000 0.000000
# 2 0.001261 0.022700 -0.008185 0.000000 0.000000 0.000000
# 3 -0.000695 -0.008185 0.007082 0.000000 0.000000 0.000000
# 4 0.000000 0.000000 0.000000 0.038894 0.000000 0.000000
# 5 0.000000 0.000000 0.000000 0.000000 -0.021549 0.000000
# 6 0.000000 0.000000 0.000000 0.000000 0.000000 0.963713
#
#
# Mechanical properties :
#
#
# Convention : Reuss Voigt Hill
#
# Bulk Modulus (GPa) = 40.26281 66.09133 53.17707
# Shear Modulus (GPa) = 4.78630 17.84412 11.31521
#
# Velocity S-wave (km/s) = 1.42148 2.74465 2.18560
# Velocity P-wave (km/s) = 4.43752 6.15999 5.36829
#
# Compressibility (1/GPa) = 0.02483681
#
# Stress axis : x y z
#
# Youngs Moduli (GPa) = 97.16929 44.05230 141.20933
#
# Poissons Ratio (x) = -0.05557 0.09814
# Poissons Ratio (y) = -0.12257 1.15574
# Poissons Ratio (z) = 0.06753 0.36055
#
# Static dielectric constant tensor:
#      x y z
#    x 1.928080 0.000000 0.000000 
#    y 0.000000 1.878670 0.000000 
#    z 0.000000 0.000000 1.915020 
# 
# From -- ./inp_files/12494.got.cif
#   From: 2010.05.17/outbox.cif.g08.bks.cpg/sg35_7_cif.got.tgz:12494.got - 2010.06.03 17:29:28.
