data_PCOD9350022
_publ_section_title
;
Structure prediction by ZEFSAII (Michael W. Deem and Ramdas Pophale) SiO2 
 PCOD9350022
Probable space group: C M M 2
;
_chemical_formula_sum "Si O2"
_cell_formula_units_Z 54
_cell_length_a 15.976791
_cell_length_b 31.120434
_cell_length_c 4.899435
_cell_angle_alpha 90.000000
_cell_angle_beta 90.000000
_cell_angle_gamma 90.000000
_cell_volume 2436.021962
_symmetry_space_group_name_H-M "C M M 2"
_symmetry_group_IT_number 35
_symmetry_cell_setting 'orthorhombic'
loop_
_space_group_symop_operation_xyz
x,y,z
-x,-y,z
-x,y,z
x,-y,z
1/2+x,1/2+y,z
1/2-x,1/2-y,z
1/2-x,1/2+y,z
1/2+x,1/2-y,z
loop_
_atom_site_type_symbol
_atom_site_label
_atom_site_fract_x
_atom_site_fract_y
_atom_site_fract_z
Si Si1 0.402739 0.549408 0.053390
Si Si2 0.403058 0.684959 0.832043
Si Si3 0.836378 0.902047 0.569717
Si Si4 0.500000 0.000000 0.153187
Si Si5 0.096911 0.317703 0.001907
Si Si6 0.343446 0.265770 0.313275
Si Si7 0.650000 0.868986 0.524833
Si Si8 0.500000 0.932365 0.653891
O O1 0.500000 0.554530 0.972259
O O2 0.390615 0.500000 0.139363
O O3 0.381190 0.581140 0.299213
O O4 0.345289 0.561145 0.797533
O O5 0.500000 0.686287 0.915718
O O6 0.380855 0.639413 0.699918
O O7 0.386024 0.719621 0.593034
O O8 0.346993 0.694945 0.097238
O O9 0.740943 0.889785 0.511138
O O10 0.500000 0.962632 0.390850
O O11 0.500000 0.962288 0.916820
O O12 0.111851 0.272341 0.147969
O O13 0.120184 0.352488 0.231744
O O14 0.000000 0.320554 0.923127
O O15 0.150570 0.328512 0.733786
O O16 0.250000 0.250000 0.366683
O O17 0.581944 0.902150 0.640637
#
# Coordination Sequence:
#
# PCOD9350022 Si02
#       8
#     8   8   8   2   8   8   8   4
#     4  11  24  46  72  99 131 167 213 264 328 397
#     4  12  24  42  65  95 133 175 219 262 328 395
#     4  12  25  44  68 101 131 172 213 272 327 384
#     4  10  24  42  68  90 128 170 214 266 336 386
#     4  12  22  40  65  91 127 178 223 266 318 375
#     4  12  25  42  63  97 132 170 217 277 325 372
#     4  12  24  43  67  97 132 172 226 269 319 388
#     4  11  22  46  64  98 126 180 216 266 330 394
#
# _framework density 22.167289
#
# number of rings (size 3 to 8) (size 9 to 14) (size 15 to 20)
#    0.000    0.296    1.481    8.889    0.000    1.185 
#    8.000    0.000    0.000    0.000    0.000    0.000 
#    0.000    0.000    0.000    0.000    0.000    0.000 
#
# Total GULP energy -151084.650274 kJ/mol
# GULP energy per Si atom -5595.727788 kJ/mol
# Density = 2.211684 g / cm^3
# Si number density = 22.167289 Si / 1000 Ang^3
#
#
#
# Elastic Constant Matrix: (Units=GPa)
#
#
# Indices 1 2 3 4 5 6 
#
# 1 73.3051 19.8594 -20.4270 0.0000 0.0000 0.0000
# 2 19.8594 76.7218 -0.5508 0.0000 0.0000 0.0000
# 3 -20.4270 -0.5508 90.6682 0.0000 0.0000 0.0000
# 4 0.0000 0.0000 0.0000 -43.2239 0.0000 0.0000
# 5 0.0000 0.0000 0.0000 0.0000 446.1365 0.0000
# 6 0.0000 0.0000 0.0000 0.0000 0.0000 20.1833
#
#
#
# Elastic Compliance Matrix: (Units=1/GPa)
#
#
# Indices 1 2 3 4 5 6 
#
# 1 0.015717 -0.004043 0.003516 0.000000 0.000000 0.000000
# 2 -0.004043 0.014075 -0.000825 0.000000 0.000000 0.000000
# 3 0.003516 -0.000825 0.011816 0.000000 0.000000 0.000000
# 4 0.000000 0.000000 0.000000 -0.023135 0.000000 0.000000
# 5 0.000000 0.000000 0.000000 0.000000 0.002241 0.000000
# 6 0.000000 0.000000 0.000000 0.000000 0.000000 0.049546
#
#
# Mechanical properties :
#
#
# Convention : Reuss Voigt Hill
#
# Bulk Modulus (GPa) = 25.70442 26.49535 26.09989
# Shear Modulus (GPa) = 58.18552 100.74007 79.46280
#
# Velocity S-wave (km/s) = 5.12887 6.74863 5.99372
# Velocity P-wave (km/s) = 6.83335 8.52665 7.72653
#
# Compressibility (1/GPa) = 0.03890381
#
# Stress axis : x y z
#
# Youngs Moduli (GPa) = 63.62623 71.04937 84.62797
#
# Poissons Ratio (x) = 0.28726 -0.29758
# Poissons Ratio (y) = 0.25724 0.06985
# Poissons Ratio (z) = -0.22373 0.05864
#
# Static dielectric constant tensor:
#      x y z
#    x 1.739840 0.000000 0.000000 
#    y 0.000000 1.863350 0.000000 
#    z 0.000000 0.000000 1.774750 
# 
# From -- ./inp_files/2093.got.cif
#   From: 2010.05.17/outbox.cif.g08.bks.cpg/sg35_2_cif.got.tgz:2093.got - 2010.06.03 17:29:28.
