data_PCOD9350491
_publ_section_title
;
Structure prediction by ZEFSAII (Michael W. Deem and Ramdas Pophale) SiO2 
 PCOD9350491
Probable space group: C M C 21
;
_chemical_formula_sum "Si O2"
_cell_formula_units_Z 64
_cell_length_a 7.419198
_cell_length_b 23.935965
_cell_length_c 16.656561
_cell_angle_alpha 90.000000
_cell_angle_beta 90.000000
_cell_angle_gamma 90.000000
_cell_volume 2957.966439
_symmetry_space_group_name_H-M "C M C 21"
_symmetry_group_IT_number 36
_symmetry_cell_setting 'orthorhombic'
loop_
_space_group_symop_operation_xyz
x,y,z
-x,-y,1/2+z
x,-y,1/2+z
-x,y,z
1/2+x,1/2+y,z
1/2-x,1/2-y,1/2+z
1/2+x,1/2-y,1/2+z
1/2-x,1/2+y,z
loop_
_atom_site_type_symbol
_atom_site_label
_atom_site_fract_x
_atom_site_fract_y
_atom_site_fract_z
Si Si1 0.792512 0.797486 0.941660
Si Si2 0.781783 0.615022 0.312138
Si Si3 0.220369 0.593489 0.975043
Si Si4 0.217712 0.720079 0.688347
Si Si5 0.800677 0.376615 0.077685
Si Si6 0.214640 0.652147 0.139511
Si Si7 0.780278 0.310376 0.365247
Si Si8 0.220644 0.465787 0.956142
O O1 0.782040 0.828766 0.856585
O O2 0.726152 0.735180 0.931232
O O3 0.000000 0.796832 0.968552
O O4 0.684038 0.834651 0.002532
O O5 0.719536 0.620048 0.220091
O O6 0.724887 0.565047 0.372828
O O7 0.000000 0.614681 0.311480
O O8 0.281479 0.624467 0.056779
O O9 0.000000 0.593467 0.976508
O O10 0.275075 0.629752 0.897657
O O11 0.276949 0.529549 0.965367
O O12 0.285822 0.664796 0.641937
O O13 0.259109 0.780971 0.651443
O O14 0.281291 0.711394 0.779308
O O15 0.000000 0.716719 0.686505
O O16 0.000000 0.393293 0.107635
O O17 0.716428 0.430049 0.033733
O O18 0.000000 0.644444 0.137813
O O19 0.000000 0.309008 0.362791
O O20 0.000000 0.463574 0.957474
#
# Coordination Sequence:
#
# PCOD9350491 Si02
#       8
#     8   8   8   8   8   8   8   8
#     4  10  17  28  49  72  95 123 158 194 237 291
#     4   9  17  30  48  72  99 126 158 200 245 288
#     4   9  17  30  47  70 100 129 161 204 243 282
#     4  10  19  32  48  71 101 129 159 196 244 297
#     4   9  18  31  48  70  97 125 156 198 242 286
#     4  10  19  31  50  75 100 126 163 207 247 288
#     4   9  17  28  43  67  98 127 156 194 238 285
#     4   8  15  30  47  65  94 127 159 195 242 291
#
# _framework density 21.636485
#
# number of rings (size 3 to 8) (size 9 to 14) (size 15 to 20)
#    0.000    2.750    1.250    1.875    0.000    1.500 
#    2.250    0.000    0.000    3.000    0.000    0.000 
#    0.000    0.000    0.000    0.000    0.000    0.000 
#
# Total GULP energy -178380.962405 kJ/mol
# GULP energy per Si atom -5574.405075 kJ/mol
# Density = 2.158724 g / cm^3
# Si number density = 21.636485 Si / 1000 Ang^3
#
#
#
# Elastic Constant Matrix: (Units=GPa)
#
#
# Indices 1 2 3 4 5 6 
#
# 1 72.1540 -1.6162 -2.1977 0.0000 0.0000 0.0000
# 2 -1.6162 180.7506 54.0659 0.0000 0.0000 0.0000
# 3 -2.1977 54.0659 76.0099 0.0000 0.0000 0.0000
# 4 0.0000 0.0000 0.0000 31.2971 0.0000 0.0000
# 5 0.0000 0.0000 0.0000 0.0000 -33.6294 0.0000
# 6 0.0000 0.0000 0.0000 0.0000 0.0000 11.3256
#
#
#
# Elastic Compliance Matrix: (Units=1/GPa)
#
#
# Indices 1 2 3 4 5 6 
#
# 1 0.013871 0.000005 0.000397 0.000000 0.000000 0.000000
# 2 0.000005 0.007028 -0.004999 0.000000 0.000000 0.000000
# 3 0.000397 -0.004999 0.016723 0.000000 0.000000 0.000000
# 4 0.000000 0.000000 0.000000 0.031952 0.000000 0.000000
# 5 0.000000 0.000000 0.000000 0.000000 -0.029736 0.000000
# 6 0.000000 0.000000 0.000000 0.000000 0.000000 0.088296
#
#
# Mechanical properties :
#
#
# Convention : Reuss Voigt Hill
#
# Bulk Modulus (GPa) = 35.17386 47.71315 41.44351
# Shear Modulus (GPa) = 34.05921 20.37616 27.21769
#
# Velocity S-wave (km/s) = 3.97187 3.07212 3.55061
# Velocity P-wave (km/s) = 6.10953 5.88931 6.00043
#
# Compressibility (1/GPa) = 0.02843021
#
# Stress axis : x y z
#
# Youngs Moduli (GPa) = 72.09046 142.29351 59.79702
#
# Poissons Ratio (x) = -0.00073 -0.02376
# Poissons Ratio (y) = -0.00037 0.29891
# Poissons Ratio (z) = -0.02865 0.71128
#
# Static dielectric constant tensor:
#      x y z
#    x 1.889720 0.000000 0.000000 
#    y 0.000000 1.761860 0.000000 
#    z 0.000000 0.000000 1.852280 
# 
# From -- ./inp_files/13939.got.cif
#   From: 2010.05.17/outbox.cif.g08.bks.cpg/sg36_7_cif.got.tgz:13939.got - 2010.06.03 17:41:39.
