data_PCOD9350213
_publ_section_title
;
Structure prediction by ZEFSAII (Michael W. Deem and Ramdas Pophale) SiO2 
 PCOD9350213
Probable space group: C M M 2
;
_chemical_formula_sum "Si O2"
_cell_formula_units_Z 48
_cell_length_a 8.581573
_cell_length_b 14.922231
_cell_length_c 18.412427
_cell_angle_alpha 90.000000
_cell_angle_beta 90.000000
_cell_angle_gamma 90.000000
_cell_volume 2357.825704
_symmetry_space_group_name_H-M "C M M 2"
_symmetry_group_IT_number 35
_symmetry_cell_setting 'orthorhombic'
loop_
_space_group_symop_operation_xyz
x,y,z
-x,-y,z
-x,y,z
x,-y,z
1/2+x,1/2+y,z
1/2-x,1/2-y,z
1/2-x,1/2+y,z
1/2+x,1/2-y,z
loop_
_atom_site_type_symbol
_atom_site_label
_atom_site_fract_x
_atom_site_fract_y
_atom_site_fract_z
Si Si1 0.685986 0.852341 0.807150
Si Si2 0.812381 0.000000 0.073794
Si Si3 0.187880 0.350561 0.347829
Si Si4 0.685609 0.352590 0.657328
Si Si5 0.187032 0.647840 0.507866
Si Si6 0.811598 0.500000 0.236200
Si Si7 0.312832 0.350835 0.959422
O O1 0.500000 0.851898 0.806210
O O2 0.750000 0.750000 0.807825
O O3 0.748929 0.892985 0.732046
O O4 0.747703 0.889394 0.883379
O O5 0.746031 0.000000 0.154291
O O6 0.765982 0.086607 0.026459
O O7 0.000000 0.000000 0.078078
O O8 0.250000 0.250000 0.340599
O O9 0.229700 0.388302 0.428086
O O10 0.241045 0.413892 0.282713
O O11 0.000000 0.347153 0.346636
O O12 0.500000 0.350772 0.659928
O O13 0.750000 0.250000 0.656248
O O14 0.742141 0.393212 0.581040
O O15 0.250000 0.750000 0.505293
O O16 0.000000 0.647825 0.514928
O O17 0.000000 0.500000 0.235916
O O18 0.500000 0.348307 0.954426
O O19 0.250000 0.250000 0.968584
#
# Coordination Sequence:
#
# PCOD9350213 Si02
#       7
#     8   4   8   8   8   4   8
#     4  10  17  27  45  72 104 140 181 222 266 314
#     4  10  24  42  60  83 112 143 176 219 274 331
#     4   9  19  35  56  81 110 144 181 223 271 322
#     4  10  16  23  38  65 101 139 179 221 264 310
#     4   9  15  25  42  67  99 135 176 219 264 312
#     4  10  22  40  60  83 110 141 178 221 272 329
#     4  10  20  37  58  82 111 144 181 222 270 322
#
# _framework density 20.357738000000001
#
# number of rings (size 3 to 8) (size 9 to 14) (size 15 to 20)
#    0.000    2.333    0.000    7.000    0.000    3.333 
#    0.000    3.333    0.000    1.000    0.000    3.500 
#    0.000    0.000    0.000    0.000    0.000    0.000 
#
# Total GULP energy -133944.814086 kJ/mol
# GULP energy per Si atom -5581.033920 kJ/mol
# Density = 2.031140 g / cm^3
# Si number density = 20.357738 Si / 1000 Ang^3
#
#
#
# Elastic Constant Matrix: (Units=GPa)
#
#
# Indices 1 2 3 4 5 6 
#
# 1 103.2806 24.2962 68.1650 0.0000 0.0000 0.0000
# 2 24.2962 92.0690 76.1536 0.0000 0.0000 0.0000
# 3 68.1650 76.1536 254.3747 0.0000 0.0000 0.0000
# 4 0.0000 0.0000 0.0000 53.7821 0.0000 0.0000
# 5 0.0000 0.0000 0.0000 0.0000 39.3791 0.0000
# 6 0.0000 0.0000 0.0000 0.0000 0.0000 5.0386
#
#
#
# Elastic Compliance Matrix: (Units=1/GPa)
#
#
# Indices 1 2 3 4 5 6 
#
# 1 0.011793 -0.000662 -0.002962 0.000000 0.000000 0.000000
# 2 -0.000662 0.014473 -0.004156 0.000000 0.000000 0.000000
# 3 -0.002962 -0.004156 0.005969 0.000000 0.000000 0.000000
# 4 0.000000 0.000000 0.000000 0.018594 0.000000 0.000000
# 5 0.000000 0.000000 0.000000 0.000000 0.025394 0.000000
# 6 0.000000 0.000000 0.000000 0.000000 0.000000 0.198467
#
#
# Mechanical properties :
#
#
# Convention : Reuss Voigt Hill
#
# Bulk Modulus (GPa) = 59.96604 87.43931 73.70267
# Shear Modulus (GPa) = 16.90286 38.38059 27.64173
#
# Velocity S-wave (km/s) = 2.88460 4.34672 3.68883
# Velocity P-wave (km/s) = 6.37296 8.26055 7.37737
#
# Compressibility (1/GPa) = 0.01667611
#
# Stress axis : x y z
#
# Youngs Moduli (GPa) = 84.79597 69.09251 167.53247
#
# Poissons Ratio (x) = 0.04575 0.49622
# Poissons Ratio (y) = 0.05615 0.69619
# Poissons Ratio (z) = 0.25116 0.28712
#
# Static dielectric constant tensor:
#      x y z
#    x 1.681640 0.000000 0.000000 
#    y 0.000000 1.786880 0.000000 
#    z 0.000000 0.000000 1.761320 
# 
# From -- ./inp_files/15246.got.cif
#   From: 2010.05.17/outbox.cif.g08.bks.cpg/sg35_8_cif.got.tgz:15246.got - 2010.06.03 17:29:28.
