data_PCOD9350359
_publ_section_title
;
Structure prediction by ZEFSAII (Michael W. Deem and Ramdas Pophale) SiO2 
 PCOD9350359
Probable space group: C M M 2
;
_chemical_formula_sum "Si O2"
_cell_formula_units_Z 64
_cell_length_a 30.419279
_cell_length_b 8.692345
_cell_length_c 12.547906
_cell_angle_alpha 90.000000
_cell_angle_beta 90.000000
_cell_angle_gamma 90.000000
_cell_volume 3317.852905
_symmetry_space_group_name_H-M "C M M 2"
_symmetry_group_IT_number 35
_symmetry_cell_setting 'orthorhombic'
loop_
_space_group_symop_operation_xyz
x,y,z
-x,-y,z
-x,y,z
x,-y,z
1/2+x,1/2+y,z
1/2-x,1/2-y,z
1/2-x,1/2+y,z
1/2+x,1/2-y,z
loop_
_atom_site_type_symbol
_atom_site_label
_atom_site_fract_x
_atom_site_fract_y
_atom_site_fract_z
Si Si1 0.432207 0.818860 0.301290
Si Si2 0.951466 0.313980 0.542412
Si Si3 0.360529 0.314449 0.982224
Si Si4 0.951922 0.814490 0.070147
Si Si5 0.200290 0.316777 0.794701
Si Si6 0.659489 0.315977 0.361469
Si Si7 0.142535 0.183016 0.603990
Si Si8 0.206245 0.818220 0.161514
O O1 0.451129 0.768822 0.416583
O O2 0.447355 0.738112 0.193065
O O3 0.381239 0.780389 0.317709
O O4 0.440602 0.000000 0.290249
O O5 0.947276 0.500000 0.546087
O O6 0.908063 0.242860 0.596975
O O7 0.000000 0.272270 0.585879
O O8 0.360359 0.500000 0.967300
O O9 0.330600 0.241461 0.891163
O O10 0.410780 0.261476 0.998448
O O11 0.336210 0.277514 0.093127
O O12 0.000000 0.765160 0.030799
O O13 0.950118 0.000000 0.070439
O O14 0.203664 0.500000 0.797743
O O15 0.250000 0.250000 0.798610
O O16 0.173417 0.263252 0.690196
O O17 0.650500 0.500000 0.347169
O O18 0.662926 0.288827 0.486594
O O19 0.699316 0.273627 0.284274
O O20 0.141674 0.000000 0.623737
O O21 0.250000 0.750000 0.113203
O O22 0.210670 0.000000 0.157009
#
# Coordination Sequence:
#
# PCOD9350359 Si02
#       8
#     8   8   8   8   8   8   8   8
#     4  10  18  29  50  81 119 161 201 242 284 337
#     4   9  18  33  53  82 123 166 204 243 291 346
#     4  10  21  40  62  85 117 152 195 247 294 346
#     4  10  20  35  57  84 117 158 198 238 289 347
#     4  12  26  45  68  90 114 148 196 248 303 359
#     4   9  18  35  55  80 117 158 194 236 288 344
#     4  10  21  38  62  89 118 152 199 250 296 352
#     4  10  20  34  54  81 115 150 185 233 289 349
#
# _framework density 19.289584000000001
#
# number of rings (size 3 to 8) (size 9 to 14) (size 15 to 20)
#    0.000    2.000    1.250    2.625    0.000    5.000 
#    0.000    1.875    0.000    2.250    0.000    0.000 
#    0.000    0.000    0.000    0.000    0.000    0.000 
#
# Total GULP energy -178441.162559 kJ/mol
# GULP energy per Si atom -5576.286330 kJ/mol
# Density = 1.924568 g / cm^3
# Si number density = 19.289584 Si / 1000 Ang^3
#
#
#
# Elastic Constant Matrix: (Units=GPa)
#
#
# Indices 1 2 3 4 5 6 
#
# 1 175.9907 52.7956 69.1810 0.0000 0.0000 0.0000
# 2 52.7956 38.0054 45.5797 0.0000 0.0000 0.0000
# 3 69.1810 45.5797 83.9594 0.0000 0.0000 0.0000
# 4 0.0000 0.0000 0.0000 26.2613 0.0000 0.0000
# 5 0.0000 0.0000 0.0000 0.0000 20.7052 0.0000
# 6 0.0000 0.0000 0.0000 0.0000 0.0000 23.3120
#
#
#
# Elastic Compliance Matrix: (Units=1/GPa)
#
#
# Indices 1 2 3 4 5 6 
#
# 1 0.009855 -0.011324 -0.001972 0.000000 0.000000 0.000000
# 2 -0.011324 0.088421 -0.038671 0.000000 0.000000 0.000000
# 3 -0.001972 -0.038671 0.034529 0.000000 0.000000 0.000000
# 4 0.000000 0.000000 0.000000 0.038079 0.000000 0.000000
# 5 0.000000 0.000000 0.000000 0.000000 0.048297 0.000000
# 6 0.000000 0.000000 0.000000 0.000000 0.000000 0.042896
#
#
# Mechanical properties :
#
#
# Convention : Reuss Voigt Hill
#
# Bulk Modulus (GPa) = 34.63798 70.34089 52.48944
# Shear Modulus (GPa) = 13.31075 22.74898 18.02987
#
# Velocity S-wave (km/s) = 2.62973 3.43788 3.06059
# Velocity P-wave (km/s) = 5.21694 7.23212 6.30555
#
# Compressibility (1/GPa) = 0.02887004
#
# Stress axis : x y z
#
# Youngs Moduli (GPa) = 101.47565 11.30948 28.96079
#
# Poissons Ratio (x) = 0.12807 0.05712
# Poissons Ratio (y) = 1.14913 1.11995
# Poissons Ratio (z) = 0.20014 0.43735
#
# Static dielectric constant tensor:
#      x y z
#    x 1.717750 0.000000 0.000000 
#    y 0.000000 1.660390 0.000000 
#    z 0.000000 0.000000 1.680360 
# 
# From -- ./inp_files/11984.got.cif
#   From: 2010.05.17/outbox.cif.g08.bks.cpg/sg35_6_cif.got.tgz:11984.got - 2010.06.03 17:29:28.
