data_PCOD9350033
_publ_section_title
;
Structure prediction by ZEFSAII (Michael W. Deem and Ramdas Pophale) SiO2 
 PCOD9350033
Probable space group: C M M 2
;
_chemical_formula_sum "Si O2"
_cell_formula_units_Z 32
_cell_length_a 8.165058
_cell_length_b 32.355129
_cell_length_c 4.839979
_cell_angle_alpha 90.000000
_cell_angle_beta 90.000000
_cell_angle_gamma 90.000000
_cell_volume 1278.632936
_symmetry_space_group_name_H-M "C M M 2"
_symmetry_group_IT_number 35
_symmetry_cell_setting 'orthorhombic'
loop_
_space_group_symop_operation_xyz
x,y,z
-x,-y,z
-x,y,z
x,-y,z
1/2+x,1/2+y,z
1/2-x,1/2-y,z
1/2-x,1/2+y,z
1/2+x,1/2-y,z
loop_
_atom_site_type_symbol
_atom_site_label
_atom_site_fract_x
_atom_site_fract_y
_atom_site_fract_z
Si Si1 0.188711 0.404341 0.553590
Si Si2 0.500000 0.797258 0.998504
Si Si3 0.307990 0.453305 0.069604
Si Si4 0.500000 0.739685 0.495393
Si Si5 0.820597 0.829448 0.198789
O O1 0.204446 0.442082 0.337952
O O2 0.279597 0.367305 0.397784
O O3 0.000000 0.393157 0.596027
O O4 0.267477 0.420079 0.835145
O O5 0.500000 0.780355 0.309806
O O6 0.670660 0.821973 0.988792
O O7 0.500000 0.756995 0.803671
O O8 0.500000 0.450780 0.142052
O O9 0.274603 0.500000 0.972678
O O10 0.648930 0.710475 0.396137
O O11 0.000000 0.835559 0.062544
#
# Coordination Sequence:
#
# PCOD9350033 Si02
#       5
#     8   4   8   4   8
#     4  12  25  46  74 109 150 194 248 309 363 444
#     4  12  24  52  68 108 145 180 249 308 366 446
#     4  11  25  45  73 108 150 197 248 301 366 443
#     4  10  28  44  76 104 141 190 241 304 374 436
#     4  10  25  49  73 109 141 196 241 305 370 444
#
# _framework density 25.026730000000001
#
# number of rings (size 3 to 8) (size 9 to 14) (size 15 to 20)
#    0.750    0.250    1.250    4.500    0.000   13.000 
#    2.250    0.000    0.000    0.000    0.000    0.000 
#    0.000    0.000    0.000    0.000    0.000    0.000 
#
# Total GULP energy -89653.929310 kJ/mol
# GULP energy per Si atom -5603.370582 kJ/mol
# Density = 2.496977 g / cm^3
# Si number density = 25.026730 Si / 1000 Ang^3
#
#
#
# Elastic Constant Matrix: (Units=GPa)
#
#
# Indices 1 2 3 4 5 6 
#
# 1 184.2652 41.7006 27.0363 0.0000 0.0000 0.0000
# 2 41.7006 86.8594 -1.0332 0.0000 0.0000 0.0000
# 3 27.0363 -1.0332 73.8395 0.0000 0.0000 0.0000
# 4 0.0000 0.0000 0.0000 44.0600 0.0000 0.0000
# 5 0.0000 0.0000 0.0000 0.0000 30.4267 0.0000
# 6 0.0000 0.0000 0.0000 0.0000 0.0000 59.5610
#
#
#
# Elastic Compliance Matrix: (Units=1/GPa)
#
#
# Indices 1 2 3 4 5 6 
#
# 1 0.006494 -0.003147 -0.002422 0.000000 0.000000 0.000000
# 2 -0.003147 0.013039 0.001335 0.000000 0.000000 0.000000
# 3 -0.002422 0.001335 0.014448 0.000000 0.000000 0.000000
# 4 0.000000 0.000000 0.000000 0.022696 0.000000 0.000000
# 5 0.000000 0.000000 0.000000 0.000000 0.032866 0.000000
# 6 0.000000 0.000000 0.000000 0.000000 0.000000 0.016790
#
#
# Mechanical properties :
#
#
# Convention : Reuss Voigt Hill
#
# Bulk Modulus (GPa) = 39.19401 53.37462 46.28431
# Shear Modulus (GPa) = 40.54923 45.29356 42.92140
#
# Velocity S-wave (km/s) = 4.02958 4.25880 4.14578
# Velocity P-wave (km/s) = 6.11105 6.74956 6.43822
#
# Compressibility (1/GPa) = 0.02551410
#
# Stress axis : x y z
#
# Youngs Moduli (GPa) = 153.97741 76.69026 69.21198
#
# Poissons Ratio (x) = 0.24133 0.16763
# Poissons Ratio (y) = 0.48453 -0.09237
# Poissons Ratio (z) = 0.37293 -0.10235
#
# Static dielectric constant tensor:
#      x y z
#    x 1.997230 0.000000 0.000000 
#    y 0.000000 1.964350 0.000000 
#    z 0.000000 0.000000 1.893230 
# 
# From -- ./inp_files/600.got.cif
#   From: 2010.05.17/outbox.cif.g08.bks.cpg/sg35_1_cif.got.tgz:600.got - 2010.06.03 17:29:28.
