data_PCOD9350689
_publ_section_title
;
Structure prediction by ZEFSAII (Michael W. Deem and Ramdas Pophale) SiO2 
 PCOD9350689
Probable space group: C M C 21
;
_chemical_formula_sum "Si O2"
_cell_formula_units_Z 64
_cell_length_a 7.868544
_cell_length_b 23.711717
_cell_length_c 16.869048
_cell_angle_alpha 90.000000
_cell_angle_beta 90.000000
_cell_angle_gamma 90.000000
_cell_volume 3147.371114
_symmetry_space_group_name_H-M "C M C 21"
_symmetry_group_IT_number 36
_symmetry_cell_setting 'orthorhombic'
loop_
_space_group_symop_operation_xyz
x,y,z
-x,-y,1/2+z
x,-y,1/2+z
-x,y,z
1/2+x,1/2+y,z
1/2-x,1/2-y,1/2+z
1/2+x,1/2-y,1/2+z
1/2-x,1/2+y,z
loop_
_atom_site_type_symbol
_atom_site_label
_atom_site_fract_x
_atom_site_fract_y
_atom_site_fract_z
Si Si1 0.308932 0.403415 0.785290
Si Si2 0.297204 0.314836 0.237960
Si Si3 0.202158 0.900233 0.112033
Si Si4 0.699694 0.778692 0.411408
Si Si5 0.701677 0.970863 0.630072
Si Si6 0.804123 0.628030 0.025313
Si Si7 0.808282 0.304694 0.688040
Si Si8 0.709479 0.349631 0.943888
O O1 0.500000 0.424285 0.796646
O O2 0.230961 0.443319 0.717178
O O3 0.308401 0.341344 0.745006
O O4 0.232862 0.390752 0.871938
O O5 0.500000 0.321364 0.252257
O O6 0.229893 0.368325 0.190080
O O7 0.216463 0.296038 0.320243
O O8 0.270268 0.260693 0.181933
O O9 0.000000 0.889446 0.111708
O O10 0.230897 0.966502 0.120255
O O11 0.264622 0.873788 0.029071
O O12 0.500000 0.776399 0.433709
O O13 0.777002 0.831538 0.459776
O O14 0.765268 0.715384 0.428918
O O15 0.500000 0.971986 0.619466
O O16 0.773287 0.929313 0.561215
O O17 0.809356 0.667275 0.102845
O O18 0.000000 0.615234 0.000580
O O19 0.000000 0.310187 0.721481
O O20 0.500000 0.349700 0.940735
#
# Coordination Sequence:
#
# PCOD9350689 Si02
#       8
#     8   8   8   8   8   8   8   8
#     4  10  18  32  56  85 110 139 179 225 272 327
#     4  10  20  33  52  79 113 144 175 220 275 328
#     4  10  21  39  58  78 108 150 191 231 276 325
#     4  10  18  33  56  82 111 141 178 221 271 336
#     4  10  21  39  57  78 107 144 191 231 272 328
#     4   8  16  31  54  77 100 135 176 218 263 316
#     4   9  16  30  52  78 108 140 174 215 267 324
#     4   9  18  33  57  85 109 139 182 227 274 332
#
# _framework density 20.334430999999999
#
# number of rings (size 3 to 8) (size 9 to 14) (size 15 to 20)
#    0.000    2.500    1.250    2.250    0.000    3.500 
#    2.250    5.000    0.000    1.500    0.000    0.000 
#    0.000    0.000    0.000    0.000    0.000    0.000 
#
# Total GULP energy -178253.487254 kJ/mol
# GULP energy per Si atom -5570.421477 kJ/mol
# Density = 2.028815 g / cm^3
# Si number density = 20.334431 Si / 1000 Ang^3
#
#
#
# Elastic Constant Matrix: (Units=GPa)
#
#
# Indices 1 2 3 4 5 6 
#
# 1 17.9798 -5.1594 2.6044 0.0000 0.0000 0.0000
# 2 -5.1594 126.5618 61.2670 0.0000 0.0000 0.0000
# 3 2.6044 61.2670 80.9603 0.0000 0.0000 0.0000
# 4 0.0000 0.0000 0.0000 22.1492 0.0000 0.0000
# 5 0.0000 0.0000 0.0000 0.0000 15.5250 0.0000
# 6 0.0000 0.0000 0.0000 0.0000 0.0000 13.5272
#
#
#
# Elastic Compliance Matrix: (Units=1/GPa)
#
#
# Indices 1 2 3 4 5 6 
#
# 1 0.057931 0.005151 -0.005761 0.000000 0.000000 0.000000
# 2 0.005151 0.012927 -0.009948 0.000000 0.000000 0.000000
# 3 -0.005761 -0.009948 0.020066 0.000000 0.000000 0.000000
# 4 0.000000 0.000000 0.000000 0.045148 0.000000 0.000000
# 5 0.000000 0.000000 0.000000 0.000000 0.064412 0.000000
# 6 0.000000 0.000000 0.000000 0.000000 0.000000 0.073925
#
#
# Mechanical properties :
#
#
# Convention : Reuss Voigt Hill
#
# Bulk Modulus (GPa) = 14.32561 38.10287 26.21424
# Shear Modulus (GPa) = 15.68403 21.35960 18.52181
#
# Velocity S-wave (km/s) = 2.78025 3.24453 3.02132
# Velocity P-wave (km/s) = 4.16733 5.72841 5.00906
#
# Compressibility (1/GPa) = 0.06980507
#
# Stress axis : x y z
#
# Youngs Moduli (GPa) = 17.26205 77.35672 49.83670
#
# Poissons Ratio (x) = -0.39843 0.28712
# Poissons Ratio (y) = -0.08891 0.49579
# Poissons Ratio (z) = 0.09945 0.76957
#
# Static dielectric constant tensor:
#      x y z
#    x 1.768420 0.000000 0.000000 
#    y 0.000000 1.732620 0.000000 
#    z 0.000000 0.000000 1.745190 
# 
# From -- ./inp_files/14116.got.cif
#   From: 2010.05.17/outbox.cif.g08.bks.cpg/sg36_8_cif.got.tgz:14116.got - 2010.06.03 17:41:39.
