data_PCOD9350262
_publ_section_title
;
Structure prediction by ZEFSAII (Michael W. Deem and Ramdas Pophale) SiO2 
 PCOD9350262
Probable space group: C M M 2
;
_chemical_formula_sum "Si O2"
_cell_formula_units_Z 40
_cell_length_a 7.782979
_cell_length_b 31.636162
_cell_length_c 7.466032
_cell_angle_alpha 90.000000
_cell_angle_beta 90.000000
_cell_angle_gamma 90.000000
_cell_volume 1838.313161
_symmetry_space_group_name_H-M "C M M 2"
_symmetry_group_IT_number 35
_symmetry_cell_setting 'orthorhombic'
loop_
_space_group_symop_operation_xyz
x,y,z
-x,-y,z
-x,y,z
x,-y,z
1/2+x,1/2+y,z
1/2-x,1/2-y,z
1/2-x,1/2+y,z
1/2+x,1/2-y,z
loop_
_atom_site_type_symbol
_atom_site_label
_atom_site_fract_x
_atom_site_fract_y
_atom_site_fract_z
Si Si1 0.807518 0.703485 0.633140
Si Si2 0.700606 0.705852 0.224112
Si Si3 0.789715 0.548219 0.887060
Si Si4 0.711157 0.112935 0.589469
Si Si5 0.792960 0.384695 0.178381
O O1 0.750000 0.750000 0.690155
O O2 0.800880 0.704513 0.414149
O O3 0.723757 0.657802 0.669441
O O4 0.000000 0.699892 0.699889
O O5 0.500000 0.706899 0.268186
O O6 0.750000 0.750000 0.132986
O O7 0.740425 0.662669 0.122142
O O8 0.730620 0.500000 0.896169
O O9 0.738395 0.573167 0.708082
O O10 0.000000 0.547360 0.890240
O O11 0.732649 0.577977 0.050443
O O12 0.500000 0.114616 0.589381
O O13 0.766014 0.109555 0.383302
O O14 0.000000 0.385565 0.177443
#
# Coordination Sequence:
#
# PCOD9350262 Si02
#       5
#     8   8   8   8   8
#     4   9  15  25  43  68  98 129 159 194 235 280
#     4  10  17  27  46  71  99 130 162 195 234 282
#     4   9  17  29  47  71  96 123 159 204 248 285
#     4   8  15  27  43  66  96 125 153 191 238 282
#     4   9  17  30  48  71  99 128 159 197 239 283
#
# _framework density 21.759076
#
# number of rings (size 3 to 8) (size 9 to 14) (size 15 to 20)
#    0.000    3.000    0.000    4.800    0.000    0.800 
#    0.000    5.000    0.000    9.000    0.000    0.000 
#    0.000    0.000    0.000    0.000    0.000    0.000 
#
# Total GULP energy -111522.638326 kJ/mol
# GULP energy per Si atom -5576.131916 kJ/mol
# Density = 2.170955 g / cm^3
# Si number density = 21.759076 Si / 1000 Ang^3
#
#
#
# Elastic Constant Matrix: (Units=GPa)
#
#
# Indices 1 2 3 4 5 6 
#
# 1 36.8294 5.3518 -0.2447 0.0000 0.0000 0.0000
# 2 5.3518 262.1354 79.6739 0.0000 0.0000 0.0000
# 3 -0.2447 79.6739 84.7572 0.0000 0.0000 0.0000
# 4 0.0000 0.0000 0.0000 43.0258 0.0000 0.0000
# 5 0.0000 0.0000 0.0000 0.0000 0.1662 0.0000
# 6 0.0000 0.0000 0.0000 0.0000 0.0000 19.3228
#
#
#
# Elastic Compliance Matrix: (Units=1/GPa)
#
#
# Indices 1 2 3 4 5 6 
#
# 1 0.027276 -0.000813 0.000843 0.000000 0.000000 0.000000
# 2 -0.000813 0.005365 -0.005046 0.000000 0.000000 0.000000
# 3 0.000843 -0.005046 0.016544 0.000000 0.000000 0.000000
# 4 0.000000 0.000000 0.000000 0.023242 0.000000 0.000000
# 5 0.000000 0.000000 0.000000 0.000000 6.018608 0.000000
# 6 0.000000 0.000000 0.000000 0.000000 0.000000 0.051752
#
#
# Mechanical properties :
#
#
# Convention : Reuss Voigt Hill
#
# Bulk Modulus (GPa) = 25.54043 61.47599 43.50821
# Shear Modulus (GPa) = 0.81092 32.43236 16.62164
#
# Velocity S-wave (km/s) = 0.61114 3.86491 2.76686
# Velocity P-wave (km/s) = 3.50161 6.94486 5.49966
#
# Compressibility (1/GPa) = 0.03915361
#
# Stress axis : x y z
#
# Youngs Moduli (GPa) = 36.66230 186.39400 60.44559
#
# Poissons Ratio (x) = 0.15156 -0.05096
# Poissons Ratio (y) = 0.02981 0.30498
# Poissons Ratio (z) = -0.03091 0.94046
#
# Static dielectric constant tensor:
#      x y z
#    x 1.813100 0.000000 0.000000 
#    y 0.000000 1.814500 0.000000 
#    z 0.000000 0.000000 1.802920 
# 
# From -- ./inp_files/4963.got.cif
#   From: 2010.05.17/outbox.cif.g08.bks.cpg/sg35_3_cif.got.tgz:4963.got - 2010.06.03 17:29:28.
