data_PCOD9350973
_publ_section_title
;
Structure prediction by ZEFSAII (Michael W. Deem and Ramdas Pophale) SiO2 
 PCOD9350973
Probable space group: C M C 21
;
_chemical_formula_sum "Si O2"
_cell_formula_units_Z 64
_cell_length_a 7.849252
_cell_length_b 20.879900
_cell_length_c 20.407938
_cell_angle_alpha 90.000000
_cell_angle_beta 90.000000
_cell_angle_gamma 90.000000
_cell_volume 3344.689547
_symmetry_space_group_name_H-M "C M C 21"
_symmetry_group_IT_number 36
_symmetry_cell_setting 'orthorhombic'
loop_
_space_group_symop_operation_xyz
x,y,z
-x,-y,1/2+z
x,-y,1/2+z
-x,y,z
1/2+x,1/2+y,z
1/2-x,1/2-y,1/2+z
1/2+x,1/2-y,1/2+z
1/2-x,1/2+y,z
loop_
_atom_site_type_symbol
_atom_site_label
_atom_site_fract_x
_atom_site_fract_y
_atom_site_fract_z
Si Si1 0.294911 0.338551 0.985740
Si Si2 0.208805 0.954652 0.899085
Si Si3 0.793770 0.764934 0.376526
Si Si4 0.197854 0.564042 0.727823
Si Si5 0.203042 0.925214 0.750799
Si Si6 0.295108 0.782521 0.733844
Si Si7 0.697770 0.593164 0.873469
Si Si8 0.295324 0.675866 0.632714
O O1 0.500000 0.343212 0.989702
O O2 0.233242 0.405368 0.954250
O O3 0.253565 0.282841 0.934381
O O4 0.228896 0.325031 0.058580
O O5 0.260586 0.928982 0.827102
O O6 0.000000 0.955756 0.899268
O O7 0.270688 0.027898 0.904100
O O8 0.732124 0.738886 0.305961
O O9 0.727794 0.837132 0.387839
O O10 0.000000 0.767902 0.372751
O O11 0.225579 0.488602 0.716247
O O12 0.294408 0.582470 0.794921
O O13 0.256896 0.609562 0.669579
O O14 0.000000 0.575812 0.740518
O O15 0.251594 0.856517 0.722541
O O16 0.000000 0.930967 0.750500
O O17 0.500000 0.777181 0.735211
O O18 0.230451 0.733753 0.678472
O O19 0.500000 0.595401 0.893355
O O20 0.500000 0.682712 0.629510
#
# Coordination Sequence:
#
# PCOD9350973 Si02
#       8
#     8   8   8   8   8   8   8   8
#     4  10  20  35  55  79 108 145 187 227 270 331
#     4   8  15  29  51  77 101 130 174 218 259 314
#     4  10  19  32  53  78 109 144 178 226 278 325
#     4  11  21  33  53  81 110 139 179 229 272 326
#     4  10  19  33  55  80 108 137 173 227 278 324
#     4  10  19  33  53  79 108 144 185 225 273 326
#     4   9  17  33  54  77 107 142 178 220 274 325
#     4  10  21  38  56  75 111 155 188 222 276 335
#
# _framework density 19.134809000000001
#
# number of rings (size 3 to 8) (size 9 to 14) (size 15 to 20)
#    0.000    2.250    2.500    2.250    0.000    1.500 
#    0.000    1.250    0.000    1.500    0.000    0.000 
#    0.000    0.000    0.000    0.000    0.000    0.000 
#
# Total GULP energy -178531.976502 kJ/mol
# GULP energy per Si atom -5579.124266 kJ/mol
# Density = 1.909126 g / cm^3
# Si number density = 19.134809 Si / 1000 Ang^3
#
#
#
# Elastic Constant Matrix: (Units=GPa)
#
#
# Indices 1 2 3 4 5 6 
#
# 1 15.9752 -15.2474 -5.6571 0.0000 0.0000 0.0000
# 2 -15.2474 164.7281 74.6333 0.0000 0.0000 0.0000
# 3 -5.6571 74.6333 98.4711 0.0000 0.0000 0.0000
# 4 0.0000 0.0000 0.0000 22.6866 0.0000 0.0000
# 5 0.0000 0.0000 0.0000 0.0000 12.2997 0.0000
# 6 0.0000 0.0000 0.0000 0.0000 0.0000 14.3994
#
#
#
# Elastic Compliance Matrix: (Units=1/GPa)
#
#
# Indices 1 2 3 4 5 6 
#
# 1 0.068778 0.006969 -0.001331 0.000000 0.000000 0.000000
# 2 0.006969 0.009952 -0.007142 0.000000 0.000000 0.000000
# 3 -0.001331 -0.007142 0.015492 0.000000 0.000000 0.000000
# 4 0.000000 0.000000 0.000000 0.044079 0.000000 0.000000
# 5 0.000000 0.000000 0.000000 0.000000 0.081303 0.000000
# 6 0.000000 0.000000 0.000000 0.000000 0.000000 0.069447
#
#
# Mechanical properties :
#
#
# Convention : Reuss Voigt Hill
#
# Bulk Modulus (GPa) = 10.96330 42.95910 26.96120
# Shear Modulus (GPa) = 15.50570 24.90686 20.20628
#
# Velocity S-wave (km/s) = 2.84974 3.61176 3.25313
# Velocity P-wave (km/s) = 4.07062 6.31605 5.31331
#
# Compressibility (1/GPa) = 0.09121341
#
# Stress axis : x y z
#
# Youngs Moduli (GPa) = 14.53963 100.48691 64.54955
#
# Poissons Ratio (x) = -0.70030 0.08590
# Poissons Ratio (y) = -0.10133 0.46102
# Poissons Ratio (z) = 0.01935 0.71769
#
# Static dielectric constant tensor:
#      x y z
#    x 1.695610 0.000000 0.000000 
#    y 0.000000 1.682700 0.000000 
#    z 0.000000 0.000000 1.641630 
# 
# From -- ./inp_files/13911.got.cif
#   From: 2010.05.17/outbox.cif.g08.bks.cpg/sg36_7_cif.got.tgz:13911.got - 2010.06.03 17:41:39.
