data_PCOD9350045
_publ_section_title
;
Structure prediction by ZEFSAII (Michael W. Deem and Ramdas Pophale) SiO2 
 PCOD9350045
Probable space group: C M M 2
;
_chemical_formula_sum "Si O2"
_cell_formula_units_Z 64
_cell_length_a 8.593969
_cell_length_b 29.281827
_cell_length_c 16.223419
_cell_angle_alpha 90.000000
_cell_angle_beta 90.000000
_cell_angle_gamma 90.000000
_cell_volume 4082.576562
_symmetry_space_group_name_H-M "C M M 2"
_symmetry_group_IT_number 35
_symmetry_cell_setting 'orthorhombic'
loop_
_space_group_symop_operation_xyz
x,y,z
-x,-y,z
-x,y,z
x,-y,z
1/2+x,1/2+y,z
1/2-x,1/2-y,z
1/2-x,1/2+y,z
1/2+x,1/2-y,z
loop_
_atom_site_type_symbol
_atom_site_label
_atom_site_fract_x
_atom_site_fract_y
_atom_site_fract_z
Si Si1 0.812524 0.051714 0.359690
Si Si2 0.188263 0.698288 0.582837
Si Si3 0.186340 0.644403 0.105168
Si Si4 0.812524 0.948286 0.166254
Si Si5 0.685569 0.698657 0.262971
Si Si6 0.811737 0.301712 0.943106
Si Si7 0.686340 0.855597 0.420774
Si Si8 0.812365 0.301700 0.762972
O O1 0.771177 0.058218 0.262972
O O2 0.737701 0.092053 0.411557
O O3 0.000000 0.054838 0.364729
O O4 0.767323 0.000000 0.382966
O O5 0.250000 0.750000 0.573707
O O6 0.239098 0.667458 0.506249
O O7 0.236777 0.679621 0.673425
O O8 0.000000 0.700278 0.581417
O O9 0.237703 0.592053 0.114387
O O10 0.256261 0.672127 0.182064
O O11 0.000000 0.647353 0.109740
O O12 0.239099 0.667458 0.019694
O O13 0.000000 0.945163 0.161215
O O14 0.767321 0.000000 0.142978
O O15 0.500000 0.699562 0.262970
O O16 0.750000 0.750000 0.262972
O O17 0.743736 0.672127 0.343879
O O18 0.750000 0.250000 0.952236
O O19 0.763223 0.320379 0.852518
O O20 0.000000 0.299722 0.944526
O O21 0.500000 0.852646 0.416202
O O22 0.750000 0.250000 0.762971
O O23 0.000000 0.301314 0.762972
#
# Coordination Sequence:
#
# PCOD9350045 Si02
#       8
#     8   8   8   8   8   8   8   8
#     4   9  18  33  51  69  90 119 155 193 235 278
#     4   9  18  30  46  68  94 123 155 189 226 270
#     4  11  21  32  47  71  96 121 155 192 231 275
#     4   9  18  33  51  69  90 119 155 193 235 278
#     4  12  24  36  47  62  91 130 164 191 223 267
#     4   9  18  30  46  68  94 123 155 189 226 270
#     4  11  21  32  47  71  96 121 155 192 231 275
#     4   8  14  28  46  64  89 120 151 187 228 267
#
# _framework density 15.676375
#
# number of rings (size 3 to 8) (size 9 to 14) (size 15 to 20)
#    0.000    2.250    1.250    3.375    0.000    4.500 
#    0.000    1.250    0.000    0.000    0.000    0.875 
#    0.000    7.000    0.000    0.000    0.000    0.000 
#
# Total GULP energy -178382.319581 kJ/mol
# GULP energy per Si atom -5574.447487 kJ/mol
# Density = 1.564069 g / cm^3
# Si number density = 15.676375 Si / 1000 Ang^3
#
#
#
# Elastic Constant Matrix: (Units=GPa)
#
#
# Indices 1 2 3 4 5 6 
#
# 1 30.9131 27.6991 32.3605 0.0000 0.0000 0.0000
# 2 27.6991 110.3057 77.5145 0.0000 0.0000 0.0000
# 3 32.3605 77.5145 161.4139 0.0000 0.0000 0.0000
# 4 0.0000 0.0000 0.0000 6.0994 0.0000 0.0000
# 5 0.0000 0.0000 0.0000 0.0000 6.9968 0.0000
# 6 0.0000 0.0000 0.0000 0.0000 0.0000 26.4809
#
#
#
# Elastic Compliance Matrix: (Units=1/GPa)
#
#
# Indices 1 2 3 4 5 6 
#
# 1 0.044638 -0.007427 -0.005383 0.000000 0.000000 0.000000
# 2 -0.007427 0.014919 -0.005676 0.000000 0.000000 0.000000
# 3 -0.005383 -0.005676 0.010000 0.000000 0.000000 0.000000
# 4 0.000000 0.000000 0.000000 0.163950 0.000000 0.000000
# 5 0.000000 0.000000 0.000000 0.000000 0.142922 0.000000
# 6 0.000000 0.000000 0.000000 0.000000 0.000000 0.037763
#
#
# Mechanical properties :
#
#
# Convention : Reuss Voigt Hill
#
# Bulk Modulus (GPa) = 30.68688 64.19790 47.44239
# Shear Modulus (GPa) = 10.82195 18.91934 14.87064
#
# Velocity S-wave (km/s) = 2.63027 3.47777 3.08328
# Velocity P-wave (km/s) = 5.37049 7.56091 6.55781
#
# Compressibility (1/GPa) = 0.03258722
#
# Stress axis : x y z
#
# Youngs Moduli (GPa) = 22.40245 67.02888 100.00115
#
# Poissons Ratio (x) = 0.49780 0.53827
# Poissons Ratio (y) = 0.16637 0.56756
# Poissons Ratio (z) = 0.12059 0.38042
#
# Static dielectric constant tensor:
#      x y z
#    x 1.528640 0.000000 0.000000 
#    y 0.000000 1.497590 0.000000 
#    z 0.000000 0.000000 1.548970 
# 
# From -- ./inp_files/16204.got.cif
#   From: 2010.05.17/outbox.cif.g08.bks.cpg/sg35_9_cif.got.tgz:16204.got - 2010.06.03 17:29:28.
