data_PCOD9350969
_publ_section_title
;
Structure prediction by ZEFSAII (Michael W. Deem and Ramdas Pophale) SiO2 
 PCOD9350969
Probable space group: C M C 21
;
_chemical_formula_sum "Si O2"
_cell_formula_units_Z 64
_cell_length_a 7.805475
_cell_length_b 19.195713
_cell_length_c 21.535752
_cell_angle_alpha 90.000000
_cell_angle_beta 90.000000
_cell_angle_gamma 90.000000
_cell_volume 3226.737427
_symmetry_space_group_name_H-M "C M C 21"
_symmetry_group_IT_number 36
_symmetry_cell_setting 'orthorhombic'
loop_
_space_group_symop_operation_xyz
x,y,z
-x,-y,1/2+z
x,-y,1/2+z
-x,y,z
1/2+x,1/2+y,z
1/2-x,1/2-y,1/2+z
1/2+x,1/2-y,1/2+z
1/2-x,1/2+y,z
loop_
_atom_site_type_symbol
_atom_site_label
_atom_site_fract_x
_atom_site_fract_y
_atom_site_fract_z
Si Si1 0.297196 0.672725 0.681150
Si Si2 0.195736 0.084269 0.433656
Si Si3 0.204666 0.084030 0.071298
Si Si4 0.207024 0.586433 0.801171
Si Si5 0.704043 0.074979 0.937007
Si Si6 0.297335 0.828139 0.690291
Si Si7 0.298390 0.926793 0.797512
Si Si8 0.789479 0.077413 0.568593
O O1 0.500000 0.678872 0.668413
O O2 0.274835 0.633892 0.746375
O O3 0.223790 0.750534 0.684600
O O4 0.228841 0.624739 0.625316
O O5 0.279883 0.100855 0.367804
O O6 0.267775 0.105432 0.500935
O O7 0.000000 0.107703 0.429807
O O8 0.203896 0.999959 0.437955
O O9 0.277516 0.130343 0.126305
O O10 0.000000 0.084192 0.076382
O O11 0.264368 0.003288 0.076784
O O12 0.254215 0.110029 0.002396
O O13 0.252003 0.609648 0.871479
O O14 0.269431 0.506169 0.794065
O O15 0.000000 0.586701 0.796978
O O16 0.500000 0.061273 0.934614
O O17 0.500000 0.819904 0.703557
O O18 0.223544 0.875081 0.746167
O O19 0.500000 0.933744 0.784741
O O20 0.000000 0.076431 0.567089
#
# Coordination Sequence:
#
# PCOD9350969 Si02
#       8
#     8   8   8   8   8   8   8   8
#     4  10  20  34  51  70  98 135 169 203 245 295
#     4   9  16  28  49  76 101 125 160 207 252 293
#     4  10  19  32  53  78 101 127 165 211 250 293
#     4   9  18  32  51  74  98 125 160 203 246 290
#     4   9  17  31  51  75 103 131 160 201 252 302
#     4  10  21  35  50  70 100 137 170 203 248 299
#     4   9  18  33  51  73 100 129 165 204 245 298
#     4   8  16  31  50  74  99 123 159 204 248 294
#
# _framework density 19.834275999999999
#
# number of rings (size 3 to 8) (size 9 to 14) (size 15 to 20)
#    0.000    2.750    0.000    3.375    0.000    3.500 
#    0.000    4.375    0.000    4.500    0.000    0.000 
#    0.000    0.000    0.000    0.000    0.000    0.000 
#
# Total GULP energy -178347.047677 kJ/mol
# GULP energy per Si atom -5573.345240 kJ/mol
# Density = 1.978913 g / cm^3
# Si number density = 19.834276 Si / 1000 Ang^3
#
#
#
# Elastic Constant Matrix: (Units=GPa)
#
#
# Indices 1 2 3 4 5 6 
#
# 1 16.6512 -1.6286 -24.1739 0.0000 0.0000 0.0000
# 2 -1.6286 90.2080 74.6865 0.0000 0.0000 0.0000
# 3 -24.1739 74.6865 162.6418 0.0000 0.0000 0.0000
# 4 0.0000 0.0000 0.0000 -6.8484 0.0000 0.0000
# 5 0.0000 0.0000 0.0000 0.0000 22.3903 0.0000
# 6 0.0000 0.0000 0.0000 0.0000 0.0000 4.4468
#
#
#
# Elastic Compliance Matrix: (Units=1/GPa)
#
#
# Indices 1 2 3 4 5 6 
#
# 1 0.087310 -0.014792 0.019770 0.000000 0.000000 0.000000
# 2 -0.014792 0.020391 -0.011562 0.000000 0.000000 0.000000
# 3 0.019770 -0.011562 0.014396 0.000000 0.000000 0.000000
# 4 0.000000 0.000000 0.000000 -0.146020 0.000000 0.000000
# 5 0.000000 0.000000 0.000000 0.000000 0.044662 0.000000
# 6 0.000000 0.000000 0.000000 0.000000 0.000000 0.224880
#
#
# Mechanical properties :
#
#
# Convention : Reuss Voigt Hill
#
# Bulk Modulus (GPa) = 9.18028 40.80768 24.99398
# Shear Modulus (GPa) = 16.94349 18.70556 17.82452
#
# Velocity S-wave (km/s) = 2.92593 3.07431 3.00104
# Velocity P-wave (km/s) = 4.00666 5.76375 4.96358
#
# Compressibility (1/GPa) = 0.10892912
#
# Stress axis : x y z
#
# Youngs Moduli (GPa) = 11.45341 49.04026 69.46146
#
# Poissons Ratio (x) = 0.72539 -1.37323
# Poissons Ratio (y) = 0.16942 0.80314
# Poissons Ratio (z) = -0.22643 0.56703
#
# Static dielectric constant tensor:
#      x y z
#    x 1.742680 0.000000 0.000000 
#    y 0.000000 1.679470 0.000000 
#    z 0.000000 0.000000 1.721830 
# 
# From -- ./inp_files/15814.got.cif
#   From: 2010.05.17/outbox.cif.g08.bks.cpg/sg36_8_cif.got.tgz:15814.got - 2010.06.03 17:41:39.
