data_PCOD9350652
_publ_section_title
;
Structure prediction by ZEFSAII (Michael W. Deem and Ramdas Pophale) SiO2 
 PCOD9350652
Probable space group: C M C 21
;
_chemical_formula_sum "Si O2"
_cell_formula_units_Z 60
_cell_length_a 17.684524
_cell_length_b 30.296868
_cell_length_c 5.278261
_cell_angle_alpha 90.000000
_cell_angle_beta 90.000000
_cell_angle_gamma 90.000000
_cell_volume 2828.016708
_symmetry_space_group_name_H-M "C M C 21"
_symmetry_group_IT_number 36
_symmetry_cell_setting 'orthorhombic'
loop_
_space_group_symop_operation_xyz
x,y,z
-x,-y,1/2+z
x,-y,1/2+z
-x,y,z
1/2+x,1/2+y,z
1/2-x,1/2-y,1/2+z
1/2+x,1/2-y,1/2+z
1/2-x,1/2+y,z
loop_
_atom_site_type_symbol
_atom_site_label
_atom_site_fract_x
_atom_site_fract_y
_atom_site_fract_z
Si Si1 0.200118 0.254445 0.653650
Si Si2 0.000000 0.470269 0.067698
Si Si3 0.854343 0.122121 0.086233
Si Si4 0.618196 0.480272 0.700100
Si Si5 0.712710 0.016912 0.688249
Si Si6 0.089447 0.828181 0.091211
Si Si7 0.824178 0.644925 0.049935
Si Si8 0.362258 0.097540 0.552263
O O1 0.261272 0.246152 0.430213
O O2 0.137338 0.216490 0.633960
O O3 0.169831 0.303307 0.601119
O O4 0.928510 0.437666 0.084679
O O5 0.000000 0.504067 0.301503
O O6 0.875382 0.071005 0.131005
O O7 0.882799 0.149361 0.330443
O O8 0.764200 0.130418 0.059102
O O9 0.891919 0.140261 0.829450
O O10 0.583665 0.508271 0.471034
O O11 0.703913 0.498605 0.733119
O O12 0.711833 0.066571 0.588477
O O13 0.676246 0.987294 0.466412
O O14 0.000000 0.819908 0.078769
O O15 0.863616 0.619108 0.278993
O O16 0.858414 0.632182 0.779077
#
# Coordination Sequence:
#
# PCOD9350652 Si02
#       8
#     8   4   8   8   8   8   8   8
#     4  12  23  47  72 104 138 172 226 290 356 426
#     4  12  26  46  66  90 146 210 246 288 352 434
#     4  12  23  41  72 102 139 177 227 283 346 407
#     4  10  19  33  56  94 130 162 212 275 331 380
#     4  10  18  32  51  82 122 157 206 266 316 376
#     4  12  26  47  71 103 139 184 228 275 353 443
#     4  12  23  40  71  99 133 169 224 302 351 398
#     4  12  24  40  62  98 134 181 237 284 347 418
#
# _framework density 21.216284000000002
#
# number of rings (size 3 to 8) (size 9 to 14) (size 15 to 20)
#    0.000    0.533    2.667    8.400    0.000    0.000 
#    2.400    0.000    0.000    8.000    0.000    0.000 
#    0.000    0.000    0.000    0.000    0.000    0.000 
#
# Total GULP energy -167843.285444 kJ/mol
# GULP energy per Si atom -5594.776181 kJ/mol
# Density = 2.116799 g / cm^3
# Si number density = 21.216284 Si / 1000 Ang^3
#
#
#
# Elastic Constant Matrix: (Units=GPa)
#
#
# Indices 1 2 3 4 5 6 
#
# 1 95.8724 26.0788 17.8111 0.0000 0.0000 0.0000
# 2 26.0788 93.3954 -14.9784 0.0000 0.0000 0.0000
# 3 17.8111 -14.9784 110.0968 0.0000 0.0000 0.0000
# 4 0.0000 0.0000 0.0000 39.3869 0.0000 0.0000
# 5 0.0000 0.0000 0.0000 0.0000 16.1947 0.0000
# 6 0.0000 0.0000 0.0000 0.0000 0.0000 23.1868
#
#
#
# Elastic Compliance Matrix: (Units=1/GPa)
#
#
# Indices 1 2 3 4 5 6 
#
# 1 0.011891 -0.003710 -0.002428 0.000000 0.000000 0.000000
# 2 -0.003710 0.012103 0.002247 0.000000 0.000000 0.000000
# 3 -0.002428 0.002247 0.009781 0.000000 0.000000 0.000000
# 4 0.000000 0.000000 0.000000 0.025389 0.000000 0.000000
# 5 0.000000 0.000000 0.000000 0.000000 0.061748 0.000000
# 6 0.000000 0.000000 0.000000 0.000000 0.000000 0.043128
#
#
# Mechanical properties :
#
#
# Convention : Reuss Voigt Hill
#
# Bulk Modulus (GPa) = 38.47189 39.68750 39.07969
# Shear Modulus (GPa) = 27.70268 33.78390 30.74329
#
# Velocity S-wave (km/s) = 3.61741 3.99476 3.81076
# Velocity P-wave (km/s) = 5.96825 6.32647 6.14997
#
# Compressibility (1/GPa) = 0.02599301
#
# Stress axis : x y z
#
# Youngs Moduli (GPa) = 84.09890 82.62175 102.23448
#
# Poissons Ratio (x) = 0.30650 0.24826
# Poissons Ratio (y) = 0.31198 -0.22970
# Poissons Ratio (z) = 0.20422 -0.18563
#
# Static dielectric constant tensor:
#      x y z
#    x 0.804830 0.000000 0.000000 
#    y 0.000000 1.758970 0.000000 
#    z 0.000000 0.000000 1.821740 
# 
# From -- ./inp_files/1186.got.cif
#   From: 2010.05.17/outbox.cif.g08.bks.cpg/sg36_1_cif.got.tgz:1186.got - 2010.06.03 17:41:39.
