data_PCOD9350253
_publ_section_title
;
Structure prediction by ZEFSAII (Michael W. Deem and Ramdas Pophale) SiO2 
 PCOD9350253
Probable space group: C M M 2
;
_chemical_formula_sum "Si O2"
_cell_formula_units_Z 48
_cell_length_a 8.600990
_cell_length_b 19.100849
_cell_length_c 16.269090
_cell_angle_alpha 90.000000
_cell_angle_beta 90.000000
_cell_angle_gamma 90.000000
_cell_volume 2672.787156
_symmetry_space_group_name_H-M "C M M 2"
_symmetry_group_IT_number 35
_symmetry_cell_setting 'orthorhombic'
loop_
_space_group_symop_operation_xyz
x,y,z
-x,-y,z
-x,y,z
x,-y,z
1/2+x,1/2+y,z
1/2-x,1/2-y,z
1/2-x,1/2+y,z
1/2+x,1/2-y,z
loop_
_atom_site_type_symbol
_atom_site_label
_atom_site_fract_x
_atom_site_fract_y
_atom_site_fract_z
Si Si1 0.184058 0.828540 0.937200
Si Si2 0.185504 0.583694 0.788025
Si Si3 0.314741 0.170255 0.107796
Si Si4 0.312787 0.828972 0.448117
Si Si5 0.689322 0.919613 0.604074
Si Si6 0.314453 0.670076 0.276928
O O1 0.250000 0.750000 0.925473
O O2 0.227777 0.874729 0.858855
O O3 0.000000 0.823920 0.948451
O O4 0.258503 0.859764 0.020823
O O5 0.208524 0.500000 0.795114
O O6 0.236309 0.604309 0.695493
O O7 0.000000 0.596731 0.795535
O O8 0.500000 0.171869 0.111884
O O9 0.250000 0.250000 0.105784
O O10 0.247498 0.137799 0.191744
O O11 0.500000 0.827509 0.444032
O O12 0.250000 0.750000 0.455327
O O13 0.261761 0.872185 0.528032
O O14 0.248536 0.860311 0.362524
O O15 0.500000 0.919882 0.604737
O O16 0.739453 0.000000 0.592893
O O17 0.500000 0.671769 0.276669
O O18 0.250000 0.750000 0.277223
#
# Coordination Sequence:
#
# PCOD9350253 Si02
#       6
#     8   8   8   8   8   8
#     4  11  21  33  50  75 105 133 166 207 251 295
#     4   9  18  35  56  75  98 131 169 206 249 302
#     4  10  17  28  46  69  97 128 163 200 243 292
#     4  10  18  29  47  72 100 127 160 201 243 286
#     4   8  16  32  53  73  94 126 166 203 240 288
#     4  10  17  27  43  66  97 129 161 196 239 289
#
# _framework density 17.958781999999999
#
# number of rings (size 3 to 8) (size 9 to 14) (size 15 to 20)
#    0.000    2.333    0.000    9.000    0.000    1.000 
#    0.000    3.333    0.000    5.000    0.000    2.333 
#    0.000    0.000    0.000    0.000    0.000    0.000 
#
# Total GULP energy -133802.654611 kJ/mol
# GULP energy per Si atom -5575.110609 kJ/mol
# Density = 1.791791 g / cm^3
# Si number density = 17.958782 Si / 1000 Ang^3
#
#
#
# Elastic Constant Matrix: (Units=GPa)
#
#
# Indices 1 2 3 4 5 6 
#
# 1 119.9234 20.4564 61.3609 0.0000 0.0000 0.0000
# 2 20.4564 22.2073 48.9404 0.0000 0.0000 0.0000
# 3 61.3609 48.9404 202.7036 0.0000 0.0000 0.0000
# 4 0.0000 0.0000 0.0000 -19.4706 0.0000 0.0000
# 5 0.0000 0.0000 0.0000 0.0000 70.6389 0.0000
# 6 0.0000 0.0000 0.0000 0.0000 0.0000 14.3152
#
#
#
# Elastic Compliance Matrix: (Units=1/GPa)
#
#
# Indices 1 2 3 4 5 6 
#
# 1 0.010174 -0.005524 -0.001746 0.000000 0.000000 0.000000
# 2 -0.005524 0.099234 -0.022287 0.000000 0.000000 0.000000
# 3 -0.001746 -0.022287 0.010843 0.000000 0.000000 0.000000
# 4 0.000000 0.000000 0.000000 -0.051360 0.000000 0.000000
# 5 0.000000 0.000000 0.000000 0.000000 0.014157 0.000000
# 6 0.000000 0.000000 0.000000 0.000000 0.000000 0.069856
#
#
# Mechanical properties :
#
#
# Convention : Reuss Voigt Hill
#
# Bulk Modulus (GPa) = 16.35662 67.37219 41.86440
# Shear Modulus (GPa) = 21.51498 27.36847 24.44173
#
# Velocity S-wave (km/s) = 3.46500 3.90803 3.69316
# Velocity P-wave (km/s) = 5.01357 7.61314 6.44577
#
# Compressibility (1/GPa) = 0.06113731
#
# Stress axis : x y z
#
# Youngs Moduli (GPa) = 98.28578 10.07723 92.22739
#
# Poissons Ratio (x) = 0.05567 0.16105
# Poissons Ratio (y) = 0.54292 2.05544
# Poissons Ratio (z) = 0.17163 0.22459
#
# Static dielectric constant tensor:
#      x y z
#    x -0.170710 0.000000 0.000000 
#    y 0.000000 1.591310 0.000000 
#    z 0.000000 0.000000 1.674180 
# 
# From -- ./inp_files/14071.got.cif
#   From: 2010.05.17/outbox.cif.g08.bks.cpg/sg35_8_cif.got.tgz:14071.got - 2010.06.03 17:29:28.
