data_PCOD9350987
_publ_section_title
;
Structure prediction by ZEFSAII (Michael W. Deem and Ramdas Pophale) SiO2 
 PCOD9350987
Probable space group: C M C 21
;
_chemical_formula_sum "Si O2"
_cell_formula_units_Z 64
_cell_length_a 8.562586
_cell_length_b 20.768889
_cell_length_c 20.266589
_cell_angle_alpha 90.000000
_cell_angle_beta 90.000000
_cell_angle_gamma 90.000000
_cell_volume 3604.116925
_symmetry_space_group_name_H-M "C M C 21"
_symmetry_group_IT_number 36
_symmetry_cell_setting 'orthorhombic'
loop_
_space_group_symop_operation_xyz
x,y,z
-x,-y,1/2+z
x,-y,1/2+z
-x,y,z
1/2+x,1/2+y,z
1/2-x,1/2-y,1/2+z
1/2+x,1/2-y,1/2+z
1/2-x,1/2+y,z
loop_
_atom_site_type_symbol
_atom_site_label
_atom_site_fract_x
_atom_site_fract_y
_atom_site_fract_z
Si Si1 0.310390 0.331368 0.654050
Si Si2 0.686918 0.661192 0.764401
Si Si3 0.311653 0.483392 0.283271
Si Si4 0.687015 0.420103 0.030140
Si Si5 0.190377 0.026057 0.135481
Si Si6 0.814938 0.589044 0.384059
Si Si7 0.187279 0.691859 0.619050
Si Si8 0.686993 0.294023 0.803001
O O1 0.500000 0.332155 0.653055
O O2 0.256301 0.400212 0.627781
O O3 0.261873 0.266737 0.616203
O O4 0.265831 0.322276 0.730896
O O5 0.500000 0.662872 0.755813
O O6 0.728328 0.591547 0.793847
O O7 0.764102 0.668201 0.692157
O O8 0.741389 0.722723 0.806220
O O9 0.500000 0.490189 0.287111
O O10 0.264813 0.501841 0.208448
O O11 0.238485 0.532218 0.335093
O O12 0.500000 0.423328 0.025683
O O13 0.742501 0.477361 0.078770
O O14 0.735690 0.353747 0.065269
O O15 0.757618 0.424755 0.957750
O O16 0.000000 0.025616 0.134385
O O17 0.742244 0.655691 0.357365
O O18 0.000000 0.594740 0.382661
O O19 0.000000 0.688783 0.613245
O O20 0.500000 0.289065 0.803611
#
# Coordination Sequence:
#
# PCOD9350987 Si02
#       8
#     8   8   8   8   8   8   8   8
#     4   8  15  29  54  83 109 137 177 229 280 331
#     4  10  19  33  56  87 118 148 190 239 285 338
#     4  10  19  36  60  85 115 153 195 238 284 346
#     4  11  22  38  59  81 110 155 196 238 293 355
#     4   9  16  32  58  85 109 142 191 236 281 340
#     4  12  25  39  56  83 117 154 195 245 296 354
#     4  10  19  32  53  83 115 148 186 237 290 339
#     4  10  19  35  58  83 113 149 188 236 291 347
#
# _framework density 17.757470999999999
#
# number of rings (size 3 to 8) (size 9 to 14) (size 15 to 20)
#    0.000    2.000    2.500    3.375    0.000    1.000 
#    0.000    1.250    0.000    6.000    0.000    0.000 
#    0.000    0.000    0.000    0.000    0.000    0.000 
#
# Total GULP energy -178587.193858 kJ/mol
# GULP energy per Si atom -5580.849808 kJ/mol
# Density = 1.771705 g / cm^3
# Si number density = 17.757471 Si / 1000 Ang^3
#
#
#
# Elastic Constant Matrix: (Units=GPa)
#
#
# Indices 1 2 3 4 5 6 
#
# 1 25.6902 11.6278 -1.3613 0.0000 0.0000 0.0000
# 2 11.6278 133.3419 41.6806 0.0000 0.0000 0.0000
# 3 -1.3613 41.6806 73.3978 0.0000 0.0000 0.0000
# 4 0.0000 0.0000 0.0000 25.2924 0.0000 0.0000
# 5 0.0000 0.0000 0.0000 0.0000 25.0017 0.0000
# 6 0.0000 0.0000 0.0000 0.0000 0.0000 28.5462
#
#
#
# Elastic Compliance Matrix: (Units=1/GPa)
#
#
# Indices 1 2 3 4 5 6 
#
# 1 0.041215 -0.004660 0.003411 0.000000 0.000000 0.000000
# 2 -0.004660 0.009645 -0.005564 0.000000 0.000000 0.000000
# 3 0.003411 -0.005564 0.016847 0.000000 0.000000 0.000000
# 4 0.000000 0.000000 0.000000 0.039538 0.000000 0.000000
# 5 0.000000 0.000000 0.000000 0.000000 0.039997 0.000000
# 6 0.000000 0.000000 0.000000 0.000000 0.000000 0.035031
#
#
# Mechanical properties :
#
#
# Convention : Reuss Voigt Hill
#
# Bulk Modulus (GPa) = 18.49065 37.36935 27.93000
# Shear Modulus (GPa) = 23.37254 27.80025 25.58640
#
# Velocity S-wave (km/s) = 3.63190 3.96100 3.80001
# Velocity P-wave (km/s) = 5.29368 6.48146 5.91745
#
# Compressibility (1/GPa) = 0.05408140
#
# Stress axis : x y z
#
# Youngs Moduli (GPa) = 24.26281 103.68072 59.35763
#
# Poissons Ratio (x) = 0.48318 -0.20246
# Poissons Ratio (y) = 0.11307 0.33024
# Poissons Ratio (z) = -0.08276 0.57683
#
# Static dielectric constant tensor:
#      x y z
#    x 1.604000 0.000000 0.000000 
#    y 0.000000 1.625210 0.000000 
#    z 0.000000 0.000000 1.571450 
# 
# From -- ./inp_files/13922.got.cif
#   From: 2010.05.17/outbox.cif.g08.bks.cpg/sg36_7_cif.got.tgz:13922.got - 2010.06.03 17:41:39.
