data_PCOD9350336
_publ_section_title
;
Structure prediction by ZEFSAII (Michael W. Deem and Ramdas Pophale) SiO2 
 PCOD9350336
Probable space group: C M M 2
;
_chemical_formula_sum "Si O2"
_cell_formula_units_Z 64
_cell_length_a 29.476412
_cell_length_b 7.750677
_cell_length_c 16.266888
_cell_angle_alpha 90.000000
_cell_angle_beta 90.000000
_cell_angle_gamma 90.000000
_cell_volume 3716.368182
_symmetry_space_group_name_H-M "C M M 2"
_symmetry_group_IT_number 35
_symmetry_cell_setting 'orthorhombic'
loop_
_space_group_symop_operation_xyz
x,y,z
-x,-y,z
-x,y,z
x,-y,z
1/2+x,1/2+y,z
1/2-x,1/2-y,z
1/2-x,1/2+y,z
1/2+x,1/2-y,z
loop_
_atom_site_type_symbol
_atom_site_label
_atom_site_fract_x
_atom_site_fract_y
_atom_site_fract_z
Si Si1 0.551896 0.794198 0.789290
Si Si2 0.103671 0.795521 0.269229
Si Si3 0.108092 0.294985 0.942914
Si Si4 0.199500 0.294802 0.208415
Si Si5 0.800515 0.292379 0.020100
Si Si6 0.052873 0.207480 0.610278
Si Si7 0.552537 0.709257 0.105789
Si Si8 0.553114 0.289047 0.430687
O O1 0.500000 0.724689 0.793067
O O2 0.582882 0.723327 0.862628
O O3 0.571636 0.765187 0.698025
O O4 0.548475 0.000000 0.800737
O O5 0.157339 0.770399 0.260929
O O6 0.079494 0.727448 0.186488
O O7 0.081862 0.726173 0.353116
O O8 0.094518 0.000000 0.269562
O O9 0.113478 0.500000 0.929498
O O10 0.157870 0.225257 0.965847
O O11 0.076879 0.270081 0.023045
O O12 0.195858 0.500000 0.205038
O O13 0.250000 0.250000 0.237936
O O14 0.195198 0.226636 0.114341
O O15 0.804140 0.500000 0.023930
O O16 0.750000 0.250000 0.990585
O O17 0.070443 0.266430 0.521128
O O18 0.000000 0.262386 0.611271
O O19 0.053983 0.000000 0.610404
O O20 0.500000 0.762607 0.108629
O O21 0.553723 0.500000 0.105316
O O22 0.500000 0.241378 0.421844
O O23 0.554098 0.500000 0.430948
#
# Coordination Sequence:
#
# PCOD9350336 Si02
#       8
#     8   8   8   8   8   8   8   8
#     4   9  17  28  43  63  88 118 149 181 220 265
#     4  10  18  29  46  67  91 120 152 185 222 264
#     4  10  19  32  46  63  87 120 154 183 220 268
#     4  10  19  32  48  66  88 115 150 190 230 269
#     4   9  18  31  47  64  84 111 146 186 225 264
#     4   8  14  26  44  64  86 114 149 187 222 256
#     4  10  20  30  41  62  92 123 153 183 213 251
#     4   8  14  26  45  67  91 121 154 185 220 265
#
# _framework density 17.221114
#
# number of rings (size 3 to 8) (size 9 to 14) (size 15 to 20)
#    0.000    2.750    1.250    1.875    0.000    3.750 
#    0.000    1.875    0.000    1.875    0.000    0.875 
#    0.000    4.000    0.000    0.000    0.000    0.000 
#
# Total GULP energy -178325.660481 kJ/mol
# GULP energy per Si atom -5572.676890 kJ/mol
# Density = 1.718192 g / cm^3
# Si number density = 17.221114 Si / 1000 Ang^3
#
#
#
# Elastic Constant Matrix: (Units=GPa)
#
#
# Indices 1 2 3 4 5 6 
#
# 1 107.7944 -6.1775 73.9185 0.0000 0.0000 0.0000
# 2 -6.1775 18.7371 0.1550 0.0000 0.0000 0.0000
# 3 73.9185 0.1550 154.1452 0.0000 0.0000 0.0000
# 4 0.0000 0.0000 0.0000-1099.4620 0.0000 0.0000
# 5 0.0000 0.0000 0.0000 0.0000 6.2253 0.0000
# 6 0.0000 0.0000 0.0000 0.0000 0.0000 12.4701
#
#
#
# Elastic Compliance Matrix: (Units=1/GPa)
#
#
# Indices 1 2 3 4 5 6 
#
# 1 0.014233 0.004749 -0.006830 0.000000 0.000000 0.000000
# 2 0.004749 0.054955 -0.002333 0.000000 0.000000 0.000000
# 3 -0.006830 -0.002333 0.009765 0.000000 0.000000 0.000000
# 4 0.000000 0.000000 0.000000 -0.000910 0.000000 0.000000
# 5 0.000000 0.000000 0.000000 0.000000 0.160636 0.000000
# 6 0.000000 0.000000 0.000000 0.000000 0.000000 0.080192
#
#
# Mechanical properties :
#
#
# Convention : Reuss Voigt Hill
#
# Bulk Modulus (GPa) = 14.26015 46.27432 30.26724
# Shear Modulus (GPa) = 14.24205 -201.96796 -93.86295
#
# Velocity S-wave (km/s) = 2.87890 -10.84130 -7.39073
# Velocity P-wave (km/s) = 4.39879 11.39223 7.43080
#
# Compressibility (1/GPa) = 0.07012547
#
# Stress axis : x y z
#
# Youngs Moduli (GPa) = 70.26169 18.19670 102.40774
#
# Poissons Ratio (x) = -0.08641 0.69943
# Poissons Ratio (y) = -0.33366 0.23887
# Poissons Ratio (z) = 0.47987 0.04244
#
# Static dielectric constant tensor:
#      x y z
#    x 1.585110 0.000000 0.000000 
#    y 0.000000 2.046450 0.000000 
#    z 0.000000 0.000000 1.606270 
# 
# From -- ./inp_files/16196.got.cif
#   From: 2010.05.17/outbox.cif.g08.bks.cpg/sg35_9_cif.got.tgz:16196.got - 2010.06.03 17:29:28.
