data_PCOD9350980
_publ_section_title
;
Structure prediction by ZEFSAII (Michael W. Deem and Ramdas Pophale) SiO2 
 PCOD9350980
Probable space group: C M C 21
;
_chemical_formula_sum "Si O2"
_cell_formula_units_Z 48
_cell_length_a 28.357887
_cell_length_b 8.960206
_cell_length_c 9.724771
_cell_angle_alpha 90.000000
_cell_angle_beta 90.000000
_cell_angle_gamma 90.000000
_cell_volume 2470.991465
_symmetry_space_group_name_H-M "C M C 21"
_symmetry_group_IT_number 36
_symmetry_cell_setting 'orthorhombic'
loop_
_space_group_symop_operation_xyz
x,y,z
-x,-y,1/2+z
x,-y,1/2+z
-x,y,z
1/2+x,1/2+y,z
1/2-x,1/2-y,1/2+z
1/2+x,1/2-y,1/2+z
1/2-x,1/2+y,z
loop_
_atom_site_type_symbol
_atom_site_label
_atom_site_fract_x
_atom_site_fract_y
_atom_site_fract_z
Si Si1 0.000000 0.149100 0.802531
Si Si2 0.396298 0.655679 0.126765
Si Si3 0.000000 0.850900 0.623669
Si Si4 0.817711 0.258578 0.612063
Si Si5 0.817711 0.741422 0.814136
Si Si6 0.603702 0.344321 0.299434
Si Si7 0.247005 0.000000 0.213100
O O1 0.051002 0.222426 0.778327
O O2 0.000000 0.106117 0.963100
O O3 0.000000 1.000000 0.713100
O O4 0.448998 0.722426 0.147873
O O5 0.355501 0.756246 0.191909
O O6 0.394316 0.500000 0.213100
O O7 0.389259 0.631017 0.963100
O O8 0.841337 0.261670 0.463100
O O9 0.855501 0.256246 0.734290
O O10 0.781056 0.393241 0.626603
O O11 0.786701 0.108575 0.626979
O O12 0.786701 0.891425 0.799220
O O13 0.781056 0.606759 0.799596
#
# Coordination Sequence:
#
# PCOD9350980 Si02
#       7
#     4   8   4   8   8   8   8
#     4   8  16  30  48  75 108 141 176 220 274 324
#     4  10  19  32  53  80 111 144 181 226 274 326
#     4   8  16  30  48  75 108 141 176 220 274 324
#     4  11  22  38  58  82 111 146 186 227 274 328
#     4  11  22  38  58  82 111 146 186 227 274 328
#     4  10  19  32  53  80 111 144 181 226 274 326
#     4  10  24  38  56  80 112 146 186 226 274 324
#
# _framework density 19.425401000000001
#
# number of rings (size 3 to 8) (size 9 to 14) (size 15 to 20)
#    0.000    2.000    1.667    2.000    0.000    8.000 
#    0.000    0.000    0.000    1.000    0.000    0.000 
#    0.000    0.000    0.000    0.000    0.000    0.000 
#
# Total GULP energy -133776.165759 kJ/mol
# GULP energy per Si atom -5574.006907 kJ/mol
# Density = 1.938119 g / cm^3
# Si number density = 19.425401 Si / 1000 Ang^3
#
#
#
# Elastic Constant Matrix: (Units=GPa)
#
#
# Indices 1 2 3 4 5 6 
#
# 1 138.3111 19.8086 54.7775 0.0000 0.0000 0.0000
# 2 19.8086 49.5015 13.2025 0.0000 0.0000 0.0000
# 3 54.7775 13.2025 115.7442 0.0000 0.0000 0.0000
# 4 0.0000 0.0000 0.0000 -1.9846 0.0000 0.0000
# 5 0.0000 0.0000 0.0000 0.0000 18.7482 0.0000
# 6 0.0000 0.0000 0.0000 0.0000 0.0000 9.1575
#
#
#
# Elastic Compliance Matrix: (Units=1/GPa)
#
#
# Indices 1 2 3 4 5 6 
#
# 1 0.009212 -0.002603 -0.004063 0.000000 0.000000 0.000000
# 2 -0.002603 0.021571 -0.001229 0.000000 0.000000 0.000000
# 3 -0.004063 -0.001229 0.010703 0.000000 0.000000 0.000000
# 4 0.000000 0.000000 0.000000 -0.503889 0.000000 0.000000
# 5 0.000000 0.000000 0.000000 0.000000 0.053339 0.000000
# 6 0.000000 0.000000 0.000000 0.000000 0.000000 0.109200
#
#
# Mechanical properties :
#
#
# Convention : Reuss Voigt Hill
#
# Bulk Modulus (GPa) = 38.91533 53.23710 46.07621
# Shear Modulus (GPa) = -18.14805 19.56877 0.71036
#
# Velocity S-wave (km/s) = -3.05986 3.17737 0.60538
# Velocity P-wave (km/s) = 2.75556 6.39737 4.92541
#
# Compressibility (1/GPa) = 0.02569682
#
# Stress axis : x y z
#
# Youngs Moduli (GPa) = 108.55570 46.35938 93.43475
#
# Poissons Ratio (x) = 0.12066 0.37960
# Poissons Ratio (y) = 0.28253 0.11481
# Poissons Ratio (z) = 0.44104 0.05696
#
# Static dielectric constant tensor:
#      x y z
#    x 1.723840 0.000000 0.000000 
#    y 0.000000 1.654720 0.000000 
#    z 0.000000 0.000000 1.681630 
# 
# From -- ./inp_files/5997.got.cif
#   From: 2010.05.17/outbox.cif.g08.bks.cpg/sg36_3_cif.got.tgz:5997.got - 2010.06.03 17:41:39.
