data_PCOD9350869
_publ_section_title
;
Structure prediction by ZEFSAII (Michael W. Deem and Ramdas Pophale) SiO2 
 PCOD9350869
Probable space group: C M C 21
;
_chemical_formula_sum "Si O2"
_cell_formula_units_Z 56
_cell_length_a 14.547900
_cell_length_b 37.115868
_cell_length_c 5.075069
_cell_angle_alpha 90.000000
_cell_angle_beta 90.000000
_cell_angle_gamma 90.000000
_cell_volume 2740.323783
_symmetry_space_group_name_H-M "C M C 21"
_symmetry_group_IT_number 36
_symmetry_cell_setting 'orthorhombic'
loop_
_space_group_symop_operation_xyz
x,y,z
-x,-y,1/2+z
x,-y,1/2+z
-x,y,z
1/2+x,1/2+y,z
1/2-x,1/2-y,1/2+z
1/2+x,1/2-y,1/2+z
1/2-x,1/2+y,z
loop_
_atom_site_type_symbol
_atom_site_label
_atom_site_fract_x
_atom_site_fract_y
_atom_site_fract_z
Si Si1 0.389702 0.022754 0.589090
Si Si2 0.310706 0.899080 0.979475
Si Si3 0.872129 0.162836 0.923714
Si Si4 0.858669 0.277056 0.689659
Si Si5 0.401193 0.381498 0.934902
Si Si6 0.339839 0.852290 0.466408
Si Si7 0.636719 0.264194 0.688328
O O1 0.500000 0.027400 0.578015
O O2 0.344427 0.060527 0.518107
O O3 0.364812 0.992286 0.375551
O O4 0.198439 0.898607 0.001026
O O5 0.334785 0.881674 0.698422
O O6 0.360185 0.873647 0.198243
O O7 0.903566 0.152657 0.633078
O O8 0.762268 0.162579 0.908775
O O9 0.896993 0.131912 0.134184
O O10 0.901388 0.200056 0.053384
O O11 0.886519 0.316259 0.580888
O O12 0.747157 0.271685 0.698066
O O13 0.891379 0.247234 0.479950
O O14 0.885512 0.268251 0.987670
O O15 0.500000 0.400826 0.974598
#
# Coordination Sequence:
#
# PCOD9350869 Si02
#       7
#     8   8   8   8   8   8   8
#     4  10  21  38  61  88 112 132 158 193 240 300
#     4  10  19  33  53  77 107 136 165 204 248 297
#     4   9  17  28  42  65  96 130 175 225 264 298
#     4   9  15  23  37  61  92 123 162 211 255 302
#     4  10  19  31  48  71 100 136 177 217 253 290
#     4   9  17  28  45  72 102 132 168 208 253 306
#     4   9  15  23  37  58  88 125 165 214 264 297
#
# _framework density 20.435542000000002
#
# number of rings (size 3 to 8) (size 9 to 14) (size 15 to 20)
#    0.000    2.571    0.000    3.000    0.000    6.857 
#    0.000    0.000    0.000    0.857    0.000   20.000 
#    0.000    0.000    0.000    0.000    0.000    0.000 
#
# Total GULP energy -156089.597466 kJ/mol
# GULP energy per Si atom -5574.628481 kJ/mol
# Density = 2.038903 g / cm^3
# Si number density = 20.435542 Si / 1000 Ang^3
#
#
#
# Elastic Constant Matrix: (Units=GPa)
#
#
# Indices 1 2 3 4 5 6 
#
# 1 41.3083 4.2137 -6.0731 0.0000 0.0000 0.0000
# 2 4.2137 51.1449 -24.5300 0.0000 0.0000 0.0000
# 3 -6.0731 -24.5300 58.9096 0.0000 0.0000 0.0000
# 4 0.0000 0.0000 0.0000 19.5972 0.0000 0.0000
# 5 0.0000 0.0000 0.0000 0.0000 -3.8472 0.0000
# 6 0.0000 0.0000 0.0000 0.0000 0.0000 6037.0223
#
#
#
# Elastic Compliance Matrix: (Units=1/GPa)
#
#
# Indices 1 2 3 4 5 6 
#
# 1 0.024623 -0.001014 0.002116 0.000000 0.000000 0.000000
# 2 -0.001014 0.024473 0.010086 0.000000 0.000000 0.000000
# 3 0.002116 0.010086 0.021393 0.000000 0.000000 0.000000
# 4 0.000000 0.000000 0.000000 0.051028 0.000000 0.000000
# 5 0.000000 0.000000 0.000000 0.000000 -0.259931 0.000000
# 6 0.000000 0.000000 0.000000 0.000000 0.000000 0.000166
#
#
# Mechanical properties :
#
#
# Convention : Reuss Voigt Hill
#
# Bulk Modulus (GPa) = 10.76804 10.95377 10.86091
# Shear Modulus (GPa) = -38.55915 1222.40461 591.92273
#
# Velocity S-wave (km/s) = -4.34852 24.48417 17.03767
# Velocity P-wave (km/s) = 4.46454 28.36672 19.80832
#
# Compressibility (1/GPa) = 0.09286739
#
# Stress axis : x y z
#
# Youngs Moduli (GPa) = 40.61281 40.86078 46.74372
#
# Poissons Ratio (x) = 0.04142 -0.09893
# Poissons Ratio (y) = 0.04116 -0.47147
# Poissons Ratio (z) = -0.08595 -0.41213
#
# Static dielectric constant tensor:
#      x y z
#    x 1.804860 0.000000 0.000000 
#    y 0.000000 1.696250 0.000000 
#    z 0.000000 0.000000 1.714160 
# 
# From -- ./inp_files/926.got.cif
#   From: 2010.05.17/outbox.cif.g08.bks.cpg/sg36_1_cif.got.tgz:926.got - 2010.06.03 17:41:39.
