data_PCOD9350176
_publ_section_title
;
Structure prediction by ZEFSAII (Michael W. Deem and Ramdas Pophale) SiO2 
 PCOD9350176
Probable space group: C M M 2
;
_chemical_formula_sum "Si O2"
_cell_formula_units_Z 32
_cell_length_a 9.000000
_cell_length_b 21.000000
_cell_length_c 18.000000
_cell_angle_alpha 90.000000
_cell_angle_beta 90.000000
_cell_angle_gamma 90.000000
_cell_volume 3402.000000
_symmetry_space_group_name_H-M "C M M 2"
_symmetry_group_IT_number 35
_symmetry_cell_setting 'orthorhombic'
loop_
_space_group_symop_operation_xyz
x,y,z
-x,-y,z
-x,y,z
x,-y,z
1/2+x,1/2+y,z
1/2-x,1/2-y,z
1/2-x,1/2+y,z
1/2+x,1/2-y,z
loop_
_atom_site_type_symbol
_atom_site_label
_atom_site_fract_x
_atom_site_fract_y
_atom_site_fract_z
Si Si1 0.322039 0.071778 0.549550
Si Si2 0.333678 0.188859 0.329337
Si Si3 0.320782 0.678516 0.650903
Si Si4 0.325406 0.430194 0.389144
Si Si5 0.832209 0.423131 0.932827
Si Si6 0.165544 0.311498 0.153248
Si Si7 0.321982 0.574257 0.778019
Si Si8 0.823016 0.926686 0.084994
O O1 0.500000 0.077291 0.555581
O O2 0.244733 0.133248 0.585994
O O3 0.267829 0.070930 0.464852
O O4 0.280596 0.000000 0.579453
O O5 0.500000 0.181511 0.360379
O O6 0.250000 0.250000 0.362211
O O7 0.235607 0.126852 0.340968
O O8 0.347398 0.198678 0.241349
O O9 0.500000 0.684720 0.644390
O O10 0.250000 0.750000 0.654375
O O11 0.287546 0.630984 0.720482
O O12 0.500000 0.422441 0.405687
O O13 0.305873 0.500000 0.353842
O O14 0.839779 0.500000 0.934578
O O15 0.755017 0.408063 0.855313
O O16 0.000000 0.398219 0.937451
O O17 0.735204 0.405756 0.004001
O O18 0.250000 0.250000 0.121759
O O19 0.253713 0.376250 0.140541
O O20 0.000000 0.316930 0.121786
O O21 0.500000 0.572704 0.786517
O O22 0.277925 0.500000 0.758643
O O23 0.000000 0.924852 0.087316
O O24 0.775633 0.000000 0.098444
#
# Coordination Sequence:
#
# PCOD9350176 Si02
#       8
#     8   8   8   8   8   8   8   8
#     4  10  21  38  60  84 110 141 179 222 267 319
#     4  10  21  37  57  80 108 143 182 223 268 320
#     4  11  23  38  56  80 112 146 181 223 269 317
#     4  10  21  37  58  84 113 143 177 220 268 318
#     4   9  17  30  51  79 108 137 174 222 271 320
#     4  10  21  37  56  78 107 143 182 224 269 321
#     4   9  18  34  56  79 104 138 178 219 267 324
#     4  10  20  34  54  80 110 143 180 224 271 319
#
# _framework density 9.4062319999999993
#
# number of rings (size 3 to 8) (size 9 to 14) (size 15 to 20)
#    0.000    2.125    0.000    3.000    0.000    7.750 
#    0.000    6.875    0.000    1.500    0.000    0.000 
#    0.000    0.000    0.000    0.000    0.000    0.000 
#
# Total GULP energy -178309.342356 kJ/mol
# GULP energy per Si atom -5572.166949 kJ/mol
# Density = 0.938482 g / cm^3
# Si number density = 9.406232 Si / 1000 Ang^3
#
#
#
# Elastic Constant Matrix: (Units=GPa)
#
#
# Indices 1 2 3 4 5 6 
#
# 1 58.2730 56.8873 18.5847 0.0000 0.0000 0.0000
# 2 56.8873 135.3733 17.9414 0.0000 0.0000 0.0000
# 3 18.5847 17.9414 13.7453 0.0000 0.0000 0.0000
# 4 0.0000 0.0000 0.0000 2.2198 0.0000 0.0000
# 5 0.0000 0.0000 0.0000 0.0000 23.3387 0.0000
# 6 0.0000 0.0000 0.0000 0.0000 0.0000 27.7115
#
#
#
# Elastic Compliance Matrix: (Units=1/GPa)
#
#
# Indices 1 2 3 4 5 6 
#
# 1 0.042310 -0.012331 -0.041110 0.000000 0.000000 0.000000
# 2 -0.012331 0.012526 0.000323 0.000000 0.000000 0.000000
# 3 -0.041110 0.000323 0.127915 0.000000 0.000000 0.000000
# 4 0.000000 0.000000 0.000000 0.450483 0.000000 0.000000
# 5 0.000000 0.000000 0.000000 0.000000 0.042847 0.000000
# 6 0.000000 0.000000 0.000000 0.000000 0.000000 0.036086
#
#
# Mechanical properties :
#
#
# Convention : Reuss Voigt Hill
#
# Bulk Modulus (GPa) = 13.06966 43.80204 28.43585
# Shear Modulus (GPa) = 5.92481 18.25255 12.08868
#
# Velocity S-wave (km/s) = 1.77658 3.11824 2.53768
# Velocity P-wave (km/s) = 3.34227 6.02484 4.87183
#
# Compressibility (1/GPa) = 0.07651309
#
# Stress axis : x y z
#
# Youngs Moduli (GPa) = 23.63533 79.83350 7.81771
#
# Poissons Ratio (x) = 0.98444 0.32139
# Poissons Ratio (y) = 0.29145 -0.00252
# Poissons Ratio (z) = 0.97165 -0.02576
#
# Static dielectric constant tensor:
#      x y z
#    x 1.661870 0.000000 0.000000 
#    y 0.000000 1.646100 0.000000 
#    z 0.000000 0.000000 1.674960 
# 
# From -- ./inp_files/18422.got.cif
#   From: 2010.05.17/outbox.ucp.g08.bks.cvg/sg35_10_cif.got.tgz:18422.got - 2010.06.11 10:36:28.
