data_PCOD9350787
_publ_section_title
;
Structure prediction by ZEFSAII (Michael W. Deem and Ramdas Pophale) SiO2 
 PCOD9350787
Probable space group: C M C 21
;
_chemical_formula_sum "Si O2"
_cell_formula_units_Z 44
_cell_length_a 9.813396
_cell_length_b 22.756688
_cell_length_c 7.945159
_cell_angle_alpha 90.000000
_cell_angle_beta 90.000000
_cell_angle_gamma 90.000000
_cell_volume 1774.316014
_symmetry_space_group_name_H-M "C M C 21"
_symmetry_group_IT_number 36
_symmetry_cell_setting 'orthorhombic'
loop_
_space_group_symop_operation_xyz
x,y,z
-x,-y,1/2+z
x,-y,1/2+z
-x,y,z
1/2+x,1/2+y,z
1/2-x,1/2-y,1/2+z
1/2+x,1/2-y,1/2+z
1/2-x,1/2+y,z
loop_
_atom_site_type_symbol
_atom_site_label
_atom_site_fract_x
_atom_site_fract_y
_atom_site_fract_z
Si Si1 0.337876 0.835254 0.730370
Si Si2 0.000000 0.593661 0.655780
Si Si3 0.500000 0.998930 0.932014
Si Si4 0.296810 0.370083 0.243365
Si Si5 0.154142 0.765333 0.467781
Si Si6 0.000000 0.046564 0.609360
Si Si7 0.722829 0.446010 0.570706
O O1 0.500000 0.838114 0.692857
O O2 0.262058 0.795243 0.590130
O O3 0.318595 0.800652 0.905223
O O4 0.266277 0.898255 0.709129
O O5 0.135895 0.625870 0.713055
O O6 0.000000 0.571223 0.463265
O O7 0.000000 0.530600 0.751418
O O8 0.640149 0.023750 0.006320
O O9 0.341145 0.305824 0.300001
O O10 0.381451 0.402191 0.100641
O O11 0.333502 0.410346 0.408733
O O12 0.000000 0.767954 0.537793
O O13 0.882263 0.994890 0.627451
#
# Coordination Sequence:
#
# PCOD9350787 Si02
#       7
#     8   4   4   8   8   4   8
#     4  10  22  42  64  90 124 167 213 261 319 381
#     4  10  20  36  57  79 113 148 194 231 284 361
#     4  10  18  36  55  79 107 146 194 227 284 345
#     4  10  21  37  58  87 117 162 199 251 312 370
#     4  10  22  41  64  90 125 160 212 269 316 378
#     4  12  20  34  58  86 126 150 206 246 310 366
#     4  10  21  36  59  84 117 162 200 251 301 373
#
# _framework density 24.798286999999998
#
# number of rings (size 3 to 8) (size 9 to 14) (size 15 to 20)
#    0.000    1.818    3.636    0.545    7.636    0.727 
#    0.000    5.455    0.000    0.000    0.000    0.000 
#    0.000    0.000    0.000    0.000    0.000    0.000 
#
# Total GULP energy -122611.466807 kJ/mol
# GULP energy per Si atom -5573.248491 kJ/mol
# Density = 2.474185 g / cm^3
# Si number density = 24.798287 Si / 1000 Ang^3
#
#
#
# Elastic Constant Matrix: (Units=GPa)
#
#
# Indices 1 2 3 4 5 6 
#
# 1 165.6187 33.0660 27.7348 0.0000 0.0000 0.0000
# 2 33.0660 87.0657 26.2474 0.0000 0.0000 0.0000
# 3 27.7348 26.2474 51.4071 0.0000 0.0000 0.0000
# 4 0.0000 0.0000 0.0000 45.4795 0.0000 0.0000
# 5 0.0000 0.0000 0.0000 0.0000 4.0688 0.0000
# 6 0.0000 0.0000 0.0000 0.0000 0.0000 140.3679
#
#
#
# Elastic Compliance Matrix: (Units=1/GPa)
#
#
# Indices 1 2 3 4 5 6 
#
# 1 0.006859 -0.001760 -0.002802 0.000000 0.000000 0.000000
# 2 -0.001760 0.014027 -0.006212 0.000000 0.000000 0.000000
# 3 -0.002802 -0.006212 0.024136 0.000000 0.000000 0.000000
# 4 0.000000 0.000000 0.000000 0.021988 0.000000 0.000000
# 5 0.000000 0.000000 0.000000 0.000000 0.245772 0.000000
# 6 0.000000 0.000000 0.000000 0.000000 0.000000 0.007124
#
#
# Mechanical properties :
#
#
# Convention : Reuss Voigt Hill
#
# Bulk Modulus (GPa) = 42.60141 53.13199 47.86670
# Shear Modulus (GPa) = 14.31525 52.45281 33.38403
#
# Velocity S-wave (km/s) = 2.40525 4.60410 3.67307
# Velocity P-wave (km/s) = 4.99300 7.05236 6.11007
#
# Compressibility (1/GPa) = 0.02347340
#
# Stress axis : x y z
#
# Youngs Moduli (GPa) = 145.80362 71.29205 41.43216
#
# Poissons Ratio (x) = 0.12549 0.11608
# Poissons Ratio (y) = 0.25664 0.25738
# Poissons Ratio (z) = 0.40848 0.44288
#
# Static dielectric constant tensor:
#      x y z
#    x 1.831950 0.000000 0.000000 
#    y 0.000000 1.965860 0.000000 
#    z 0.000000 0.000000 2.193280 
# 
# From -- ./inp_files/6681.got.cif
#   From: 2010.05.17/outbox.cif.g08.bks.cpg/sg36_4_cif.got.tgz:6681.got - 2010.06.03 17:41:39.
