data_PCOD9350927
_publ_section_title
;
Structure prediction by ZEFSAII (Michael W. Deem and Ramdas Pophale) SiO2 
 PCOD9350927
Probable space group: C M C 21
;
_chemical_formula_sum "Si O2"
_cell_formula_units_Z 64
_cell_length_a 7.211264
_cell_length_b 21.859426
_cell_length_c 14.671879
_cell_angle_alpha 90.000000
_cell_angle_beta 90.000000
_cell_angle_gamma 90.000000
_cell_volume 2312.788321
_symmetry_space_group_name_H-M "C M C 21"
_symmetry_group_IT_number 36
_symmetry_cell_setting 'orthorhombic'
loop_
_space_group_symop_operation_xyz
x,y,z
-x,-y,1/2+z
x,-y,1/2+z
-x,y,z
1/2+x,1/2+y,z
1/2-x,1/2-y,1/2+z
1/2+x,1/2-y,1/2+z
1/2-x,1/2+y,z
loop_
_atom_site_type_symbol
_atom_site_label
_atom_site_fract_x
_atom_site_fract_y
_atom_site_fract_z
Si Si1 0.224722 0.469033 0.639510
Si Si2 0.711977 0.854564 0.097145
Si Si3 0.224357 0.737005 0.975169
Si Si4 0.722759 0.847292 0.752772
Si Si5 0.287924 0.213839 0.769758
Si Si6 0.725097 0.103762 0.974930
Si Si7 0.275470 0.038212 0.807033
Si Si8 0.274360 0.081056 0.424595
O O1 0.271756 0.406488 0.693659
O O2 0.286766 0.452205 0.538417
O O3 0.288507 0.524004 0.704812
O O4 0.000000 0.473941 0.635482
O O5 0.500000 0.873401 0.116592
O O6 0.791768 0.832310 0.193942
O O7 0.706014 0.793650 0.033545
O O8 0.790491 0.904767 0.026762
O O9 0.288471 0.730109 0.869827
O O10 0.275430 0.669872 0.013064
O O11 0.000000 0.742203 0.976153
O O12 0.500000 0.844384 0.750077
O O13 0.791495 0.781206 0.724110
O O14 0.780541 0.864299 0.856041
O O15 0.500000 0.193673 0.786096
O O16 0.500000 0.102118 0.975277
O O17 0.783651 0.094343 0.870175
O O18 0.500000 0.039255 0.803190
O O19 0.223830 0.979658 0.869403
O O20 0.500000 0.080048 0.429187
#
# Coordination Sequence:
#
# PCOD9350927 Si02
#       8
#     8   8   8   8   8   8   8   8
#     4   8  14  24  41  65  85 110 155 197 221 260
#     4  10  19  32  48  68  94 125 158 191 231 281
#     4  10  20  33  47  69 100 128 153 191 239 283
#     4   9  15  27  48  66  86 120 159 191 218 266
#     4  10  20  30  42  67 100 123 147 190 240 281
#     4   9  16  27  41  61  92 123 148 184 235 279
#     4   8  14  25  40  61  86 112 147 190 228 265
#     4   8  14  26  44  63  83 113 155 192 218 259
#
# _framework density 27.672226999999999
#
# number of rings (size 3 to 8) (size 9 to 14) (size 15 to 20)
#    0.000    3.000    1.250    2.250    0.000    1.500 
#    2.250    0.000    0.000    0.000    0.000    4.375 
#    0.000    0.000    0.000    0.000    0.000    0.000 
#
# Total GULP energy -178903.867746 kJ/mol
# GULP energy per Si atom -5590.745867 kJ/mol
# Density = 2.760924 g / cm^3
# Si number density = 27.672227 Si / 1000 Ang^3
#
#
#
# Elastic Constant Matrix: (Units=GPa)
#
#
# Indices 1 2 3 4 5 6 
#
# 1 132.6587 -7.3598 -2.1297 0.0000 0.0000 0.0000
# 2 -7.3598 115.0434 30.6810 0.0000 0.0000 0.0000
# 3 -2.1297 30.6810 183.9303 0.0000 0.0000 0.0000
# 4 0.0000 0.0000 0.0000 62.7375 0.0000 0.0000
# 5 0.0000 0.0000 0.0000 0.0000 -2.7920 0.0000
# 6 0.0000 0.0000 0.0000 0.0000 0.0000 -53.5432
#
#
#
# Elastic Compliance Matrix: (Units=1/GPa)
#
#
# Indices 1 2 3 4 5 6 
#
# 1 0.007565 0.000482 0.000007 0.000000 0.000000 0.000000
# 2 0.000482 0.009128 -0.001517 0.000000 0.000000 0.000000
# 3 0.000007 -0.001517 0.005690 0.000000 0.000000 0.000000
# 4 0.000000 0.000000 0.000000 0.015939 0.000000 0.000000
# 5 0.000000 0.000000 0.000000 0.000000 -0.358161 0.000000
# 6 0.000000 0.000000 0.000000 0.000000 0.000000 -0.018677
#
#
# Mechanical properties :
#
#
# Convention : Reuss Voigt Hill
#
# Bulk Modulus (GPa) = 49.19514 52.66838 50.93176
# Shear Modulus (GPa) = -15.16605 28.64317 6.73856
#
# Velocity S-wave (km/s) = -2.34361 3.22077 1.56218
# Velocity P-wave (km/s) = 3.23930 5.73632 4.65824
#
# Compressibility (1/GPa) = 0.02032721
#
# Stress axis : x y z
#
# Youngs Moduli (GPa) = 132.18767 109.55565 175.74775
#
# Poissons Ratio (x) = -0.05281 -0.00126
# Poissons Ratio (y) = -0.06372 0.26661
# Poissons Ratio (z) = -0.00095 0.16620
#
# Static dielectric constant tensor:
#      x y z
#    x 2.100530 0.000000 0.000000 
#    y 0.000000 2.143090 0.000000 
#    z 0.000000 0.000000 2.160170 
# 
# From -- ./inp_files/11081.got.cif
#   From: 2010.05.17/outbox.cif.g08.bks.cpg/sg36_6_cif.got.tgz:11081.got - 2010.06.03 17:41:39.
