data_PCOD9350321
_publ_section_title
;
Structure prediction by ZEFSAII (Michael W. Deem and Ramdas Pophale) SiO2 
 PCOD9350321
Probable space group: C M M 2
;
_chemical_formula_sum "Si O2"
_cell_formula_units_Z 56
_cell_length_a 21.915498
_cell_length_b 7.383069
_cell_length_c 14.865130
_cell_angle_alpha 90.000000
_cell_angle_beta 90.000000
_cell_angle_gamma 90.000000
_cell_volume 2405.232052
_symmetry_space_group_name_H-M "C M M 2"
_symmetry_group_IT_number 35
_symmetry_cell_setting 'orthorhombic'
loop_
_space_group_symop_operation_xyz
x,y,z
-x,-y,z
-x,y,z
x,-y,z
1/2+x,1/2+y,z
1/2-x,1/2-y,z
1/2-x,1/2+y,z
1/2+x,1/2-y,z
loop_
_atom_site_type_symbol
_atom_site_label
_atom_site_fract_x
_atom_site_fract_y
_atom_site_fract_z
Si Si1 0.317686 0.716644 0.807080
Si Si2 0.867140 0.777719 0.420305
Si Si3 0.316549 0.715707 0.240119
Si Si4 0.500000 0.702822 0.401511
Si Si5 0.066995 0.220650 0.130454
Si Si6 0.932948 0.779483 0.920678
Si Si7 0.500000 0.784443 0.609867
Si Si8 0.136089 0.787831 0.623607
O O1 0.325012 0.500000 0.802408
O O2 0.250000 0.750000 0.843083
O O3 0.374216 0.784989 0.866096
O O4 0.324484 0.788693 0.705070
O O5 0.820524 0.720041 0.343592
O O6 0.856947 0.713038 0.522344
O O7 0.933813 0.716922 0.384268
O O8 0.869839 0.000000 0.424524
O O9 0.323880 0.500000 0.243622
O O10 0.250000 0.750000 0.200732
O O11 0.374073 0.785738 0.184163
O O12 0.500000 0.500000 0.362195
O O13 0.500000 0.695742 0.510844
O O14 0.000000 0.277169 0.165378
O O15 0.067423 0.000000 0.133040
O O16 0.071274 0.271749 0.025562
O O17 0.000000 0.722050 0.886189
O O18 0.932581 0.000000 0.918249
O O19 0.435362 0.729866 0.651709
O O20 0.500000 0.000000 0.598956
O O21 0.150247 0.000000 0.615807
#
# Coordination Sequence:
#
# PCOD9350321 Si02
#       8
#     8   8   8   4   8   8   4   8
#     4  10  21  34  52  75 102 135 171 209 252 300
#     4   8  15  28  47  69  93 124 166 207 239 283
#     4  10  20  32  48  73 103 133 166 202 250 299
#     4   8  14  28  48  68  91 122 164 212 253 294
#     4   8  15  29  51  77 100 123 162 213 252 287
#     4   8  15  30  52  77 100 125 163 209 252 297
#     4  10  18  28  46  74 101 126 162 214 263 294
#     4   9  18  33  50  69  97 137 176 206 245 300
#
# _framework density 23.282578000000001
#
# number of rings (size 3 to 8) (size 9 to 14) (size 15 to 20)
#    0.000    3.143    0.000    2.357    2.000    1.714 
#    0.000    2.857    0.000    0.429    0.000    2.000 
#    0.000    0.000    0.000    0.000    0.000    0.000 
#
# Total GULP energy -156241.468425 kJ/mol
# GULP energy per Si atom -5580.052444 kJ/mol
# Density = 2.322959 g / cm^3
# Si number density = 23.282578 Si / 1000 Ang^3
#
#
#
# Elastic Constant Matrix: (Units=GPa)
#
#
# Indices 1 2 3 4 5 6 
#
# 1 192.6281 -7.0266 88.1132 0.0000 0.0000 0.0000
# 2 -7.0266 84.6016 6.2043 0.0000 0.0000 0.0000
# 3 88.1132 6.2043 91.0740 0.0000 0.0000 0.0000
# 4 0.0000 0.0000 0.0000 -13.7372 0.0000 0.0000
# 5 0.0000 0.0000 0.0000 0.0000 21.8707 0.0000
# 6 0.0000 0.0000 0.0000 0.0000 0.0000 5.6053
#
#
#
# Elastic Compliance Matrix: (Units=1/GPa)
#
#
# Indices 1 2 3 4 5 6 
#
# 1 0.009491 0.001469 -0.009283 0.000000 0.000000 0.000000
# 2 0.001469 0.012107 -0.002246 0.000000 0.000000 0.000000
# 3 -0.009283 -0.002246 0.020114 0.000000 0.000000 0.000000
# 4 0.000000 0.000000 0.000000 -0.072795 0.000000 0.000000
# 5 0.000000 0.000000 0.000000 0.000000 0.045723 0.000000
# 6 0.000000 0.000000 0.000000 0.000000 0.000000 0.178403
#
#
# Mechanical properties :
#
#
# Convention : Reuss Voigt Hill
#
# Bulk Modulus (GPa) = 46.31215 60.32062 53.31639
# Shear Modulus (GPa) = 22.69020 21.48194 22.08607
#
# Velocity S-wave (km/s) = 3.12518 3.04083 3.08329
# Velocity P-wave (km/s) = 5.74080 6.18815 5.96867
#
# Compressibility (1/GPa) = 0.02159260
#
# Stress axis : x y z
#
# Youngs Moduli (GPa) = 105.36276 82.59803 49.71694
#
# Poissons Ratio (x) = -0.12134 0.46150
# Poissons Ratio (y) = -0.15478 0.11167
# Poissons Ratio (z) = 0.97803 0.18552
#
# Static dielectric constant tensor:
#      x y z
#    x 1.888770 0.000000 0.000000 
#    y 0.000000 1.965650 0.000000 
#    z 0.000000 0.000000 1.865370 
# 
# From -- ./inp_files/17501.got.cif
#   From: 2010.05.17/outbox.cif.g08.bks.cpg/sg35_9_cif.got.tgz:17501.got - 2010.06.03 17:29:28.
