data_PCOD9350004
_publ_section_title
;
Structure prediction by ZEFSAII (Michael W. Deem and Ramdas Pophale) SiO2 
 PCOD9350004
Probable space group: C M M 2
;
_chemical_formula_sum "Si O2"
_cell_formula_units_Z 34
_cell_length_a 7.698561
_cell_length_b 19.830154
_cell_length_c 10.244974
_cell_angle_alpha 90.000000
_cell_angle_beta 90.000000
_cell_angle_gamma 90.000000
_cell_volume 1564.035127
_symmetry_space_group_name_H-M "C M M 2"
_symmetry_group_IT_number 35
_symmetry_cell_setting 'orthorhombic'
loop_
_space_group_symop_operation_xyz
x,y,z
-x,-y,z
-x,y,z
x,-y,z
1/2+x,1/2+y,z
1/2-x,1/2-y,z
1/2-x,1/2+y,z
1/2+x,1/2-y,z
loop_
_atom_site_type_symbol
_atom_site_label
_atom_site_fract_x
_atom_site_fract_y
_atom_site_fract_z
Si Si1 0.797087 0.177037 0.741450
Si Si2 0.207232 0.327318 0.202494
Si Si3 0.299163 0.885628 0.482285
Si Si4 0.290300 0.923061 0.972280
Si Si5 0.500000 0.500000 0.514840
O O1 0.750000 0.250000 0.798959
O O2 0.701638 0.164575 0.605228
O O3 0.754390 0.117501 0.841828
O O4 0.000000 0.176360 0.715396
O O5 0.250000 0.250000 0.173944
O O6 0.256507 0.348834 0.348534
O O7 0.000000 0.332568 0.197016
O O8 0.276905 0.379692 0.095039
O O9 0.500000 0.910432 0.466015
O O10 0.155254 0.941840 0.511953
O O11 0.500000 0.925914 0.980325
O O12 0.225895 0.000000 0.971359
#
# Coordination Sequence:
#
# PCOD9350004 Si02
#       5
#     8   8   8   8   2
#     4  12  25  44  67 100 134 179 235 283 341 413
#     4  10  23  42  68  98 133 178 229 281 342 408
#     4  11  25  45  71 103 141 180 225 285 338 403
#     4  10  23  43  66  96 135 179 225 281 348 409
#     4  12  26  44  68 108 144 176 228 270 352 414
#
# _framework density 21.738641999999999
#
# number of rings (size 3 to 8) (size 9 to 14) (size 15 to 20)
#    0.000    1.176    1.176    3.882    4.941    5.176 
#    0.000    0.000    0.000    0.000    0.000    0.000 
#    0.000    0.000    0.000    0.000    0.000    0.000 
#
# Total GULP energy -94786.637943 kJ/mol
# GULP energy per Si atom -5575.684585 kJ/mol
# Density = 2.168916 g / cm^3
# Si number density = 21.738642 Si / 1000 Ang^3
#
#
#
# Elastic Constant Matrix: (Units=GPa)
#
#
# Indices 1 2 3 4 5 6 
#
# 1 102.9977 27.8032 3.8521 0.0000 0.0000 0.0000
# 2 27.8032 171.5219 54.8025 0.0000 0.0000 0.0000
# 3 3.8521 54.8025 133.7929 0.0000 0.0000 0.0000
# 4 0.0000 0.0000 0.0000 -39.6777 0.0000 0.0000
# 5 0.0000 0.0000 0.0000 0.0000 42.2387 0.0000
# 6 0.0000 0.0000 0.0000 0.0000 0.0000 36.1930
#
#
#
# Elastic Compliance Matrix: (Units=1/GPa)
#
#
# Indices 1 2 3 4 5 6 
#
# 1 0.010176 -0.001790 0.000440 0.000000 0.000000 0.000000
# 2 -0.001790 0.007023 -0.002825 0.000000 0.000000 0.000000
# 3 0.000440 -0.002825 0.008619 0.000000 0.000000 0.000000
# 4 0.000000 0.000000 0.000000 -0.025203 0.000000 0.000000
# 5 0.000000 0.000000 0.000000 0.000000 0.023675 0.000000
# 6 0.000000 0.000000 0.000000 0.000000 0.000000 0.027630
#
#
# Mechanical properties :
#
#
# Convention : Reuss Voigt Hill
#
# Bulk Modulus (GPa) = 57.24917 64.58089 60.91503
# Shear Modulus (GPa) = 75.65284 29.20780 52.43032
#
# Velocity S-wave (km/s) = 5.90564 3.66948 4.91639
# Velocity P-wave (km/s) = 8.53783 6.90838 7.76596
#
# Compressibility (1/GPa) = 0.01746750
#
# Stress axis : x y z
#
# Youngs Moduli (GPa) = 98.27317 142.38974 116.02616
#
# Poissons Ratio (x) = 0.25489 -0.05108
# Poissons Ratio (y) = 0.17592 0.32779
# Poissons Ratio (z) = -0.04327 0.40227
#
# Static dielectric constant tensor:
#      x y z
#    x 1.792950 0.000000 0.000000 
#    y 0.000000 1.805940 0.000000 
#    z 0.000000 0.000000 1.784410 
# 
# From -- ./inp_files/4648.got.cif
#   From: 2010.05.17/outbox.cif.g08.bks.cpg/sg35_3_cif.got.tgz:4648.got - 2010.06.03 17:29:28.
