data_PCOD9350460
_publ_section_title
;
Structure prediction by ZEFSAII (Michael W. Deem and Ramdas Pophale) SiO2 
 PCOD9350460
Probable space group: C M C 21
;
_chemical_formula_sum "Si O2"
_cell_formula_units_Z 40
_cell_length_a 28.334095
_cell_length_b 7.066254
_cell_length_c 7.549369
_cell_angle_alpha 90.000000
_cell_angle_beta 90.000000
_cell_angle_gamma 90.000000
_cell_volume 1511.503800
_symmetry_space_group_name_H-M "C M C 21"
_symmetry_group_IT_number 36
_symmetry_cell_setting 'orthorhombic'
loop_
_space_group_symop_operation_xyz
x,y,z
-x,-y,1/2+z
x,-y,1/2+z
-x,y,z
1/2+x,1/2+y,z
1/2-x,1/2-y,1/2+z
1/2+x,1/2-y,1/2+z
1/2-x,1/2+y,z
loop_
_atom_site_type_symbol
_atom_site_label
_atom_site_fract_x
_atom_site_fract_y
_atom_site_fract_z
Si Si1 0.098929 0.306993 0.790000
Si Si2 0.000000 0.887397 0.716990
Si Si3 0.799755 0.084230 0.428577
Si Si4 0.699770 0.196036 0.300751
Si Si5 0.000000 0.305472 0.836239
Si Si6 0.902077 0.105710 0.409431
O O1 0.149226 0.408977 0.812477
O O2 0.049302 0.412454 0.809308
O O3 0.099091 0.208912 0.597532
O O4 0.095930 0.124407 0.919941
O O5 0.049486 0.843334 0.812690
O O6 0.000000 0.784245 0.530532
O O7 0.000000 0.119335 0.707931
O O8 0.749436 0.099162 0.331889
O O9 0.798346 0.201680 0.609753
O O10 0.849164 0.138771 0.333148
O O11 0.803510 0.858898 0.448931
#
# Coordination Sequence:
#
# PCOD9350460 Si02
#       6
#     8   4   8   8   4   8
#     4   9  16  26  40  60  87 118 150 187 230 276
#     4  10  16  22  36  58  85 116 147 184 229 276
#     4  10  20  33  50  71  97 128 162 199 239 282
#     4  10  20  33  50  71  97 128 162 199 239 282
#     4  10  16  22  36  58  85 116 147 184 229 276
#     4   9  16  26  40  60  87 118 150 187 230 276
#
# _framework density 26.463712999999998
#
# number of rings (size 3 to 8) (size 9 to 14) (size 15 to 20)
#    0.000    2.400    0.000    6.600    0.000    4.800 
#    0.000    0.000    0.000    0.000    0.000    1.400 
#    0.000    0.000    0.000    0.000    0.000    0.000 
#
# Total GULP energy -111688.788724 kJ/mol
# GULP energy per Si atom -5584.439436 kJ/mol
# Density = 2.640348 g / cm^3
# Si number density = 26.463713 Si / 1000 Ang^3
#
#
#
# Elastic Constant Matrix: (Units=GPa)
#
#
# Indices 1 2 3 4 5 6 
#
# 1 379.3750 20.8071 51.8804 0.0000 0.0000 0.0000
# 2 20.8071 59.1691 -13.9486 0.0000 0.0000 0.0000
# 3 51.8804 -13.9486 66.0982 0.0000 0.0000 0.0000
# 4 0.0000 0.0000 0.0000 6.4549 0.0000 0.0000
# 5 0.0000 0.0000 0.0000 0.0000 44.7484 0.0000
# 6 0.0000 0.0000 0.0000 0.0000 0.0000 7.5663
#
#
#
# Elastic Compliance Matrix: (Units=1/GPa)
#
#
# Indices 1 2 3 4 5 6 
#
# 1 0.003118 -0.001761 -0.002819 0.000000 0.000000 0.000000
# 2 -0.001761 0.018780 0.005345 0.000000 0.000000 0.000000
# 3 -0.002819 0.005345 0.018470 0.000000 0.000000 0.000000
# 4 0.000000 0.000000 0.000000 0.154921 0.000000 0.000000
# 5 0.000000 0.000000 0.000000 0.000000 0.022347 0.000000
# 6 0.000000 0.000000 0.000000 0.000000 0.000000 0.132165
#
#
# Mechanical properties :
#
#
# Convention : Reuss Voigt Hill
#
# Bulk Modulus (GPa) = 23.86715 69.12445 46.49580
# Shear Modulus (GPa) = 13.80315 41.48082 27.64198
#
# Velocity S-wave (km/s) = 2.28631 3.96341 3.23542
# Velocity P-wave (km/s) = 4.00100 6.86455 5.61827
#
# Compressibility (1/GPa) = 0.04189859
#
# Stress axis : x y z
#
# Youngs Moduli (GPa) = 320.71911 53.24780 54.14297
#
# Poissons Ratio (x) = 0.09377 0.15263
# Poissons Ratio (y) = 0.56479 -0.28941
# Poissons Ratio (z) = 0.90409 -0.28463
#
# Static dielectric constant tensor:
#      x y z
#    x 2.151840 0.000000 0.000000 
#    y 0.000000 2.075150 0.000000 
#    z 0.000000 0.000000 2.089010 
# 
# From -- ./inp_files/5502.got.cif
#   From: 2010.05.17/outbox.cif.g08.bks.cpg/sg36_3_cif.got.tgz:5502.got - 2010.06.03 17:41:39.
