data_PCOD9350355
_publ_section_title
;
Structure prediction by ZEFSAII (Michael W. Deem and Ramdas Pophale) SiO2 
 PCOD9350355
Probable space group: C M M 2
;
_chemical_formula_sum "Si O2"
_cell_formula_units_Z 64
_cell_length_a 7.810294
_cell_length_b 30.614052
_cell_length_c 12.623194
_cell_angle_alpha 90.000000
_cell_angle_beta 90.000000
_cell_angle_gamma 90.000000
_cell_volume 3018.265603
_symmetry_space_group_name_H-M "C M M 2"
_symmetry_group_IT_number 35
_symmetry_cell_setting 'orthorhombic'
loop_
_space_group_symop_operation_xyz
x,y,z
-x,-y,z
-x,y,z
x,-y,z
1/2+x,1/2+y,z
1/2-x,1/2-y,z
1/2-x,1/2+y,z
1/2+x,1/2-y,z
loop_
_atom_site_type_symbol
_atom_site_label
_atom_site_fract_x
_atom_site_fract_y
_atom_site_fract_z
Si Si1 0.295650 0.577611 0.205970
Si Si2 0.804101 0.670272 0.280458
Si Si3 0.293644 0.952161 0.971141
Si Si4 0.208027 0.047495 0.438611
Si Si5 0.705274 0.203575 0.070479
Si Si6 0.301801 0.642061 0.507257
Si Si7 0.289565 0.138991 0.890021
Si Si8 0.696684 0.800508 0.701745
O O1 0.500000 0.585552 0.208757
O O2 0.200377 0.623382 0.221779
O O3 0.250510 0.556091 0.094589
O O4 0.252615 0.551186 0.313087
O O5 0.725185 0.700829 0.190089
O O6 0.710289 0.663511 0.390898
O O7 0.000000 0.682561 0.304657
O O8 0.500000 0.952586 0.964062
O O9 0.229006 0.000000 0.939361
O O10 0.231827 0.911013 0.902072
O O11 0.269149 0.092435 0.493891
O O12 0.000000 0.048391 0.446380
O O13 0.267296 0.000000 0.478343
O O14 0.500000 0.200148 0.078625
O O15 0.750000 0.250000 0.021005
O O16 0.764618 0.164702 0.995714
O O17 0.500000 0.638684 0.537887
O O18 0.215218 0.673452 0.591986
O O19 0.500000 0.137899 0.888018
O O20 0.224565 0.167868 0.791808
O O21 0.500000 0.797776 0.731837
O O22 0.750000 0.750000 0.694585
#
# Coordination Sequence:
#
# PCOD9350355 Si02
#       8
#     8   8   8   8   8   8   8   8
#     4  10  18  29  49  79 116 155 193 236 279 329
#     4  10  19  34  55  79 115 155 190 231 282 339
#     4  10  19  33  55  81 113 154 194 230 278 342
#     4   8  15  29  50  77 111 151 188 223 269 326
#     4  10  20  34  54  79 111 144 179 226 280 342
#     4  10  21  37  58  85 117 148 190 238 288 344
#     4   9  19  38  58  81 112 145 185 235 287 336
#     4  11  23  41  65  85 108 143 191 246 296 349
#
# _framework density 21.204229999999999
#
# number of rings (size 3 to 8) (size 9 to 14) (size 15 to 20)
#    0.000    2.250    1.250    3.000    0.000    2.250 
#    0.000    3.750    0.000    8.250    0.000    0.000 
#    0.000    0.000    0.000    0.000    0.000    0.000 
#
# Total GULP energy -178479.578039 kJ/mol
# GULP energy per Si atom -5577.486814 kJ/mol
# Density = 2.115597 g / cm^3
# Si number density = 21.204230 Si / 1000 Ang^3
#
#
#
# Elastic Constant Matrix: (Units=GPa)
#
#
# Indices 1 2 3 4 5 6 
#
# 1 27.9558 6.1769 -4.7954 0.0000 0.0000 0.0000
# 2 6.1769 182.0707 72.8295 0.0000 0.0000 0.0000
# 3 -4.7954 72.8295 87.6986 0.0000 0.0000 0.0000
# 4 0.0000 0.0000 0.0000 17.5534 0.0000 0.0000
# 5 0.0000 0.0000 0.0000 0.0000 -1.1041 0.0000
# 6 0.0000 0.0000 0.0000 0.0000 0.0000 10.4133
#
#
#
# Elastic Compliance Matrix: (Units=1/GPa)
#
#
# Indices 1 2 3 4 5 6 
#
# 1 0.037251 -0.003112 0.004622 0.000000 0.000000 0.000000
# 2 -0.003112 0.008484 -0.007216 0.000000 0.000000 0.000000
# 3 0.004622 -0.007216 0.017648 0.000000 0.000000 0.000000
# 4 0.000000 0.000000 0.000000 0.056969 0.000000 0.000000
# 5 0.000000 0.000000 0.000000 0.000000 -0.905690 0.000000
# 6 0.000000 0.000000 0.000000 0.000000 0.000000 0.096031
#
#
# Mechanical properties :
#
#
# Convention : Reuss Voigt Hill
#
# Bulk Modulus (GPa) = 19.24188 49.57188 34.40688
# Shear Modulus (GPa) = -7.56923 20.27345 6.35211
#
# Velocity S-wave (km/s) = -1.89141 3.09545 1.73268
# Velocity P-wave (km/s) = 2.07951 6.01704 4.50162
#
# Compressibility (1/GPa) = 0.05196996
#
# Stress axis : x y z
#
# Youngs Moduli (GPa) = 26.84470 117.86247 56.66349
#
# Poissons Ratio (x) = 0.36684 -0.26188
# Poissons Ratio (y) = 0.08355 0.40889
# Poissons Ratio (z) = -0.12407 0.85051
#
# Static dielectric constant tensor:
#      x y z
#    x 1.786500 0.000000 0.000000 
#    y 0.000000 1.823010 0.000000 
#    z 0.000000 0.000000 1.749580 
# 
# From -- ./inp_files/11926.got.cif
#   From: 2010.05.17/outbox.cif.g08.bks.cpg/sg35_6_cif.got.tgz:11926.got - 2010.06.03 17:29:28.
