data_PCOD9350342
_publ_section_title
;
Structure prediction by ZEFSAII (Michael W. Deem and Ramdas Pophale) SiO2 
 PCOD9350342
Probable space group: C M M 2
;
_chemical_formula_sum "Si O2"
_cell_formula_units_Z 64
_cell_length_a 15.255063
_cell_length_b 17.773127
_cell_length_c 12.053495
_cell_angle_alpha 90.000000
_cell_angle_beta 90.000000
_cell_angle_gamma 90.000000
_cell_volume 3268.066174
_symmetry_space_group_name_H-M "C M M 2"
_symmetry_group_IT_number 35
_symmetry_cell_setting 'orthorhombic'
loop_
_space_group_symop_operation_xyz
x,y,z
-x,-y,z
-x,y,z
x,-y,z
1/2+x,1/2+y,z
1/2-x,1/2-y,z
1/2-x,1/2+y,z
1/2+x,1/2-y,z
loop_
_atom_site_type_symbol
_atom_site_label
_atom_site_fract_x
_atom_site_fract_y
_atom_site_fract_z
Si Si1 0.339367 0.199139 0.853170
Si Si2 0.336407 0.803836 0.108315
Si Si3 0.798391 0.911256 0.160091
Si Si4 0.107064 0.269684 0.529706
Si Si5 0.393511 0.912243 0.677116
Si Si6 0.399286 0.589415 0.934396
Si Si7 0.099032 0.206571 0.296689
Si Si8 0.097220 0.829559 0.721432
O O1 0.250000 0.250000 0.845462
O O2 0.344786 0.121433 0.785787
O O3 0.407625 0.251989 0.789873
O O4 0.363280 0.190939 0.981149
O O5 0.250000 0.750000 0.112743
O O6 0.301215 0.883894 0.150110
O O7 0.400178 0.764544 0.194131
O O8 0.844763 0.864598 0.257273
O O9 0.808388 0.000000 0.172926
O O10 0.843492 0.887856 0.041701
O O11 0.129983 0.351381 0.580374
O O12 0.133459 0.250266 0.404842
O O13 0.140496 0.201336 0.609171
O O14 0.000000 0.266883 0.534550
O O15 0.500000 0.909149 0.692064
O O16 0.371357 0.000000 0.656024
O O17 0.500000 0.617224 0.945720
O O18 0.401757 0.500000 0.935293
O O19 0.364021 0.615531 0.814738
O O20 0.000000 0.181417 0.319008
O O21 0.000000 0.859433 0.695070
#
# Coordination Sequence:
#
# PCOD9350342 Si02
#       8
#     8   8   8   8   8   8   8   8
#     4  10  18  29  47  75 104 129 162 201 246 296
#     4   9  19  33  49  71 100 138 172 199 242 297
#     4  10  20  34  51  72 102 135 164 201 252 304
#     4   8  16  31  51  74  98 127 165 208 250 290
#     4   9  18  34  56  78 100 129 164 203 249 299
#     4   9  16  26  45  74 102 129 164 204 246 295
#     4  10  19  33  54  76  97 127 172 216 247 284
#     4   9  16  29  48  69  97 130 163 203 249 296
#
# _framework density 19.583447
#
# number of rings (size 3 to 8) (size 9 to 14) (size 15 to 20)
#    0.000    2.750    0.000    3.750    0.000    3.250 
#    0.000    9.375    0.000    3.375    0.000    0.000 
#    0.000    0.000    0.000    0.000    0.000    0.000 
#
# Total GULP energy -178155.448899 kJ/mol
# GULP energy per Si atom -5567.357778 kJ/mol
# Density = 1.953887 g / cm^3
# Si number density = 19.583447 Si / 1000 Ang^3
#
#
#
# Elastic Constant Matrix: (Units=GPa)
#
#
# Indices 1 2 3 4 5 6 
#
# 1 30.1739 9.9502 5.3918 0.0000 0.0000 0.0000
# 2 9.9502 97.5071 54.3542 0.0000 0.0000 0.0000
# 3 5.3918 54.3542 123.0131 0.0000 0.0000 0.0000
# 4 0.0000 0.0000 0.0000 24.9955 0.0000 0.0000
# 5 0.0000 0.0000 0.0000 0.0000 -5.0234 0.0000
# 6 0.0000 0.0000 0.0000 0.0000 0.0000 19.7320
#
#
#
# Elastic Compliance Matrix: (Units=1/GPa)
#
#
# Indices 1 2 3 4 5 6 
#
# 1 0.034296 -0.003532 0.000057 0.000000 0.000000 0.000000
# 2 -0.003532 0.013971 -0.006018 0.000000 0.000000 0.000000
# 3 0.000057 -0.006018 0.010786 0.000000 0.000000 0.000000
# 4 0.000000 0.000000 0.000000 0.040007 0.000000 0.000000
# 5 0.000000 0.000000 0.000000 0.000000 -0.199067 0.000000
# 6 0.000000 0.000000 0.000000 0.000000 0.000000 0.050679
#
#
# Mechanical properties :
#
#
# Convention : Reuss Voigt Hill
#
# Bulk Modulus (GPa) = 24.95821 43.34294 34.15058
# Shear Modulus (GPa) = -294.33534 20.00735 -137.16399
#
# Velocity S-wave (km/s) = -12.27291 3.19979 -8.37812
# Velocity P-wave (km/s) = 13.71350 5.98598 8.72434
#
# Compressibility (1/GPa) = 0.04006698
#
# Stress axis : x y z
#
# Youngs Moduli (GPa) = 29.15829 71.57726 92.71313
#
# Poissons Ratio (x) = 0.25279 -0.00531
# Poissons Ratio (y) = 0.10298 0.55798
# Poissons Ratio (z) = -0.00167 0.43078
#
# Static dielectric constant tensor:
#      x y z
#    x 1.774580 0.000000 0.000000 
#    y 0.000000 1.714500 0.000000 
#    z 0.000000 0.000000 1.723790 
# 
# From -- ./inp_files/13696.got.cif
#   From: 2010.05.17/outbox.cif.g08.bks.cpg/sg35_7_cif.got.tgz:13696.got - 2010.06.03 17:29:28.
