data_PCOD9350804
_publ_section_title
;
Structure prediction by ZEFSAII (Michael W. Deem and Ramdas Pophale) SiO2 
 PCOD9350804
Probable space group: C M C 21
;
_chemical_formula_sum "Si O2"
_cell_formula_units_Z 48
_cell_length_a 13.232206
_cell_length_b 18.212524
_cell_length_c 9.714065
_cell_angle_alpha 90.000000
_cell_angle_beta 90.000000
_cell_angle_gamma 90.000000
_cell_volume 2341.010683
_symmetry_space_group_name_H-M "C M C 21"
_symmetry_group_IT_number 36
_symmetry_cell_setting 'orthorhombic'
loop_
_space_group_symop_operation_xyz
x,y,z
-x,-y,1/2+z
x,-y,1/2+z
-x,y,z
1/2+x,1/2+y,z
1/2-x,1/2-y,1/2+z
1/2+x,1/2-y,1/2+z
1/2-x,1/2+y,z
loop_
_atom_site_type_symbol
_atom_site_label
_atom_site_fract_x
_atom_site_fract_y
_atom_site_fract_z
Si Si1 0.170844 0.328509 0.258160
Si Si2 0.890748 0.869137 0.357182
Si Si3 0.827530 0.164481 0.167413
Si Si4 0.890181 0.374809 0.561527
Si Si5 0.818302 0.029186 0.349227
Si Si6 0.182212 0.468250 0.109742
O O1 0.292782 0.339394 0.276302
O O2 0.148841 0.246033 0.215181
O O3 0.124456 0.345994 0.406723
O O4 0.135889 0.389977 0.148683
O O5 0.873867 0.849642 0.517335
O O6 0.000000 0.842478 0.308381
O O7 0.888049 0.957776 0.352541
O O8 0.706027 0.154424 0.146606
O O9 0.859700 0.101860 0.275898
O O10 0.882567 0.463612 0.555398
O O11 0.000000 0.353829 0.616588
O O12 0.772008 0.043311 0.499415
O O13 0.727750 0.000223 0.251398
#
# Coordination Sequence:
#
# PCOD9350804 Si02
#       6
#     8   8   8   8   8   8
#     4  10  22  39  62  87 124 160 195 251 310 358
#     4  10  21  39  60  88 119 156 207 253 295 359
#     4  10  22  39  62  87 124 160 195 251 310 358
#     4  10  21  39  60  88 119 156 207 253 295 359
#     4  10  18  38  61  85 113 158 207 242 295 355
#     4  10  18  38  61  85 113 158 207 242 295 355
#
# _framework density 20.503965000000001
#
# number of rings (size 3 to 8) (size 9 to 14) (size 15 to 20)
#    0.000    2.000    6.667    0.000    4.667    2.667 
#    0.000    0.000    0.000    0.000    0.000    0.000 
#    0.000    0.000    0.000    0.000    0.000    0.000 
#
# Total GULP energy -133864.136033 kJ/mol
# GULP energy per Si atom -5577.672335 kJ/mol
# Density = 2.045730 g / cm^3
# Si number density = 20.503965 Si / 1000 Ang^3
#
#
#
# Elastic Constant Matrix: (Units=GPa)
#
#
# Indices 1 2 3 4 5 6 
#
# 1 67.9038 -1.6736 -2.7047 0.0000 0.0000 0.0000
# 2 -1.6736 168.5034 29.3336 0.0000 0.0000 0.0000
# 3 -2.7047 29.3336 51.7827 0.0000 0.0000 0.0000
# 4 0.0000 0.0000 0.0000 30.2306 0.0000 0.0000
# 5 0.0000 0.0000 0.0000 0.0000 -7.6360 0.0000
# 6 0.0000 0.0000 0.0000 0.0000 0.0000 -14.9800
#
#
#
# Elastic Compliance Matrix: (Units=1/GPa)
#
#
# Indices 1 2 3 4 5 6 
#
# 1 0.014757 0.000014 0.000763 0.000000 0.000000 0.000000
# 2 0.000014 0.006584 -0.003729 0.000000 0.000000 0.000000
# 3 0.000763 -0.003729 0.021464 0.000000 0.000000 0.000000
# 4 0.000000 0.000000 0.000000 0.033079 0.000000 0.000000
# 5 0.000000 0.000000 0.000000 0.000000 -0.130959 0.000000
# 6 0.000000 0.000000 0.000000 0.000000 0.000000 -0.066756
#
#
# Mechanical properties :
#
#
# Convention : Reuss Voigt Hill
#
# Bulk Modulus (GPa) = 27.09974 37.56673 32.33324
# Shear Modulus (GPa) = -48.25016 19.07190 -14.58913
#
# Velocity S-wave (km/s) = -4.85625 3.05316 -2.67034
# Velocity P-wave (km/s) = 4.26600 5.54892 2.50916
#
# Compressibility (1/GPa) = 0.03690072
#
# Stress axis : x y z
#
# Youngs Moduli (GPa) = 67.76240 151.88629 46.59045
#
# Poissons Ratio (x) = -0.00209 -0.03555
# Poissons Ratio (y) = -0.00093 0.17373
# Poissons Ratio (z) = -0.05170 0.56637
#
# Static dielectric constant tensor:
#      x y z
#    x 1.748650 0.000000 0.000000 
#    y 0.000000 1.736870 0.000000 
#    z 0.000000 0.000000 1.694690 
# 
# From -- ./inp_files/4073.got.cif
#   From: 2010.05.17/outbox.cif.g08.bks.cpg/sg36_3_cif.got.tgz:4073.got - 2010.06.03 17:41:39.
