data_PCOD9350643
_publ_section_title
;
Structure prediction by ZEFSAII (Michael W. Deem and Ramdas Pophale) SiO2 
 PCOD9350643
Probable space group: C M C 21
;
_chemical_formula_sum "Si O2"
_cell_formula_units_Z 48
_cell_length_a 29.803143
_cell_length_b 12.694113
_cell_length_c 5.236858
_cell_angle_alpha 90.000000
_cell_angle_beta 90.000000
_cell_angle_gamma 90.000000
_cell_volume 1981.231501
_symmetry_space_group_name_H-M "C M C 21"
_symmetry_group_IT_number 36
_symmetry_cell_setting 'orthorhombic'
loop_
_space_group_symop_operation_xyz
x,y,z
-x,-y,1/2+z
x,-y,1/2+z
-x,y,z
1/2+x,1/2+y,z
1/2-x,1/2-y,1/2+z
1/2+x,1/2-y,1/2+z
1/2-x,1/2+y,z
loop_
_atom_site_type_symbol
_atom_site_label
_atom_site_fract_x
_atom_site_fract_y
_atom_site_fract_z
Si Si1 0.500000 0.429348 0.832201
Si Si2 0.690694 0.701811 0.411555
Si Si3 0.373006 0.898065 0.737120
Si Si4 0.092675 0.631629 0.732940
Si Si5 0.000000 0.570267 0.898367
Si Si6 0.212539 0.661643 0.412727
Si Si7 0.400639 0.430235 0.918435
O O1 0.500000 0.476924 0.545810
O O2 0.450426 0.377934 0.876646
O O3 0.736063 0.628951 0.390713
O O4 0.699227 0.754833 0.689424
O O5 0.644797 0.636958 0.381848
O O6 0.700727 0.784568 0.181772
O O7 0.375034 0.841165 0.465827
O O8 0.324507 0.926061 0.849131
O O9 0.399116 0.006212 0.686052
O O10 0.396679 0.826360 0.953203
O O11 0.043124 0.638641 0.835523
O O12 0.000000 0.476549 0.684005
O O13 0.399632 0.520846 0.701606
#
# Coordination Sequence:
#
# PCOD9350643 Si02
#       7
#     4   8   8   8   4   8   8
#     4   8  16  30  54  81 109 136 160 204 278 330
#     4  10  21  38  56  79 104 145 181 205 257 326
#     4  10  18  32  47  73  97 133 174 218 258 307
#     4  10  19  30  50  74 101 128 179 220 274 287
#     4  12  16  30  48  69  99 142 170 224 262 326
#     4  10  21  37  56  72 107 151 179 205 257 324
#     4  10  19  35  58  86 110 134 174 226 271 315
#
# _framework density 24.227354999999999
#
# number of rings (size 3 to 8) (size 9 to 14) (size 15 to 20)
#    0.000    2.000    3.333    2.000    0.000    0.000 
#    6.000    0.000    0.000    8.000    0.000    0.000 
#    0.000    0.000    0.000    0.000    0.000    0.000 
#
# Total GULP energy -133830.985366 kJ/mol
# GULP energy per Si atom -5576.291057 kJ/mol
# Density = 2.417221 g / cm^3
# Si number density = 24.227355 Si / 1000 Ang^3
#
#
#
# Elastic Constant Matrix: (Units=GPa)
#
#
# Indices 1 2 3 4 5 6 
#
# 1 210.4512 27.7784 -3.4266 0.0000 0.0000 0.0000
# 2 27.7784 38.0696 -8.7885 0.0000 0.0000 0.0000
# 3 -3.4266 -8.7885 136.7186 0.0000 0.0000 0.0000
# 4 0.0000 0.0000 0.0000 14.1789 0.0000 0.0000
# 5 0.0000 0.0000 0.0000 0.0000 32.9145 0.0000
# 6 0.0000 0.0000 0.0000 0.0000 0.0000 46.8769
#
#
#
# Elastic Compliance Matrix: (Units=1/GPa)
#
#
# Indices 1 2 3 4 5 6 
#
# 1 0.005260 -0.003865 -0.000117 0.000000 0.000000 0.000000
# 2 -0.003865 0.029503 0.001800 0.000000 0.000000 0.000000
# 3 -0.000117 0.001800 0.007427 0.000000 0.000000 0.000000
# 4 0.000000 0.000000 0.000000 0.070527 0.000000 0.000000
# 5 0.000000 0.000000 0.000000 0.000000 0.030382 0.000000
# 6 0.000000 0.000000 0.000000 0.000000 0.000000 0.021332
#
#
# Mechanical properties :
#
#
# Convention : Reuss Voigt Hill
#
# Bulk Modulus (GPa) = 26.43652 46.26289 36.34971
# Shear Modulus (GPa) = 27.56270 43.43914 35.50092
#
# Velocity S-wave (km/s) = 3.37659 4.23895 3.83211
# Velocity P-wave (km/s) = 5.11247 6.56468 5.88355
#
# Compressibility (1/GPa) = 0.03782646
#
# Stress axis : x y z
#
# Youngs Moduli (GPa) = 190.11580 33.89448 134.64286
#
# Poissons Ratio (x) = 0.13100 0.01570
# Poissons Ratio (y) = 0.73479 -0.24231
# Poissons Ratio (z) = 0.02217 -0.06100
#
# Static dielectric constant tensor:
#      x y z
#    x 2.068500 0.000000 0.000000 
#    y 0.000000 2.009830 0.000000 
#    z 0.000000 0.000000 2.003260 
# 
# From -- ./inp_files/1852.got.cif
#   From: 2010.05.17/outbox.cif.g08.bks.cpg/sg36_1_cif.got.tgz:1852.got - 2010.06.03 17:41:39.
