data_PCOD9350188
_publ_section_title
;
Structure prediction by ZEFSAII (Michael W. Deem and Ramdas Pophale) SiO2 
 PCOD9350188
Probable space group: C M M 2
;
_chemical_formula_sum "Si O2"
_cell_formula_units_Z 20
_cell_length_a 9.000000
_cell_length_b 27.000000
_cell_length_c 9.000000
_cell_angle_alpha 90.000000
_cell_angle_beta 90.000000
_cell_angle_gamma 90.000000
_cell_volume 2187.000000
_symmetry_space_group_name_H-M "C M M 2"
_symmetry_group_IT_number 35
_symmetry_cell_setting 'orthorhombic'
loop_
_space_group_symop_operation_xyz
x,y,z
-x,-y,z
-x,y,z
x,-y,z
1/2+x,1/2+y,z
1/2-x,1/2-y,z
1/2-x,1/2+y,z
1/2+x,1/2-y,z
loop_
_atom_site_type_symbol
_atom_site_label
_atom_site_fract_x
_atom_site_fract_y
_atom_site_fract_z
Si Si1 0.177552 0.500000 0.404570
Si Si2 0.821225 0.000000 0.079661
Si Si3 0.177650 0.897244 0.910607
Si Si4 0.320453 0.698792 0.393517
Si Si5 0.176725 0.904605 0.558930
Si Si6 0.679387 0.197998 0.064863
O O1 0.240344 0.500000 0.237283
O O2 0.237538 0.549649 0.484929
O O3 0.000000 0.500000 0.404469
O O4 0.784666 0.949356 0.990928
O O5 0.000000 0.000000 0.101898
O O6 0.204704 0.902666 0.734992
O O7 0.265799 0.850210 0.975163
O O8 0.000000 0.888766 0.932730
O O9 0.500000 0.703976 0.380533
O O10 0.250000 0.750000 0.455686
O O11 0.288634 0.649060 0.487021
O O12 0.246164 0.692568 0.231339
O O13 0.000000 0.913096 0.536162
O O14 0.500000 0.201257 0.067891
O O15 0.750000 0.250000 0.007196
#
# Coordination Sequence:
#
# PCOD9350188 Si02
#       6
#     4   4   8   8   8   8
#     4  12  25  38  58  86 116 148 189 238 282 328
#     4  10  21  38  62  84 110 150 191 230 280 342
#     4  10  21  39  61  86 114 148 189 233 282 339
#     4  10  20  36  59  85 113 149 191 236 282 335
#     4  10  22  40  61  84 115 152 189 229 283 345
#     4  11  22  37  58  84 115 152 192 236 281 332
#
# _framework density 9.1449470000000002
#
# number of rings (size 3 to 8) (size 9 to 14) (size 15 to 20)
#    0.000    1.600    0.000    6.300    0.000   10.400 
#    0.000    3.000    0.000    0.000    0.000    0.000 
#    0.000    0.000    0.000    0.000    0.000    0.000 
#
# Total GULP energy -111759.629043 kJ/mol
# GULP energy per Si atom -5587.981452 kJ/mol
# Density = 0.912413 g / cm^3
# Si number density = 9.144947 Si / 1000 Ang^3
#
#
#
# Elastic Constant Matrix: (Units=GPa)
#
#
# Indices 1 2 3 4 5 6 
#
# 1 119.2121 100.8794 68.3252 0.0000 0.0000 0.0000
# 2 100.8794 221.1425 100.1327 0.0000 0.0000 0.0000
# 3 68.3252 100.1327 110.8964 0.0000 0.0000 0.0000
# 4 0.0000 0.0000 0.0000 26.5282 0.0000 0.0000
# 5 0.0000 0.0000 0.0000 0.0000 18.9663 0.0000
# 6 0.0000 0.0000 0.0000 0.0000 0.0000 42.3882
#
#
#
# Elastic Compliance Matrix: (Units=1/GPa)
#
#
# Indices 1 2 3 4 5 6 
#
# 1 0.015298 -0.004585 -0.005285 0.000000 0.000000 0.000000
# 2 -0.004585 0.009024 -0.005323 0.000000 0.000000 0.000000
# 3 -0.005285 -0.005323 0.017080 0.000000 0.000000 0.000000
# 4 0.000000 0.000000 0.000000 0.037696 0.000000 0.000000
# 5 0.000000 0.000000 0.000000 0.000000 0.052725 0.000000
# 6 0.000000 0.000000 0.000000 0.000000 0.000000 0.023591
#
#
# Mechanical properties :
#
#
# Convention : Reuss Voigt Hill
#
# Bulk Modulus (GPa) = 90.78466 109.99172 100.38819
# Shear Modulus (GPa) = 26.38921 29.70410 28.04665
#
# Velocity S-wave (km/s) = 3.80258 4.03435 3.92018
# Velocity P-wave (km/s) = 8.30805 9.05372 8.68889
#
# Compressibility (1/GPa) = 0.01101508
#
# Stress axis : x y z
#
# Youngs Moduli (GPa) = 65.36974 110.81661 58.54920
#
# Poissons Ratio (x) = 0.50815 0.30942
# Poissons Ratio (y) = 0.29975 0.31165
# Poissons Ratio (z) = 0.34546 0.58986
#
# Static dielectric constant tensor:
#      x y z
#    x 1.614040 0.000000 0.000000 
#    y 0.000000 1.619800 0.000000 
#    z 0.000000 0.000000 1.615660 
# 
# From -- ./inp_files/5020.got.cif
#   From: 2010.05.17/outbox.ucp.g08.bks.cvg/sg35_3_cif.got.tgz:5020.got - 2010.06.11 10:36:28.
