data_PCOD9350363
_publ_section_title
;
Structure prediction by ZEFSAII (Michael W. Deem and Ramdas Pophale) SiO2 
 PCOD9350363
Probable space group: C M M 2
;
_chemical_formula_sum "Si O2"
_cell_formula_units_Z 64
_cell_length_a 14.246522
_cell_length_b 19.049373
_cell_length_c 15.702787
_cell_angle_alpha 90.000000
_cell_angle_beta 90.000000
_cell_angle_gamma 90.000000
_cell_volume 4261.537147
_symmetry_space_group_name_H-M "C M M 2"
_symmetry_group_IT_number 35
_symmetry_cell_setting 'orthorhombic'
loop_
_space_group_symop_operation_xyz
x,y,z
-x,-y,z
-x,y,z
x,-y,z
1/2+x,1/2+y,z
1/2-x,1/2-y,z
1/2-x,1/2+y,z
1/2+x,1/2-y,z
loop_
_atom_site_type_symbol
_atom_site_label
_atom_site_fract_x
_atom_site_fract_y
_atom_site_fract_z
Si Si1 0.391883 0.585072 0.057570
Si Si2 0.107491 0.420031 0.674922
Si Si3 0.113461 0.083857 0.246471
Si Si4 0.220783 0.173133 0.732271
Si Si5 0.278049 0.668855 0.390507
Si Si6 0.893187 0.635107 0.494350
Si Si7 0.109974 0.204524 0.557840
Si Si8 0.613613 0.417494 0.870556
O O1 0.500000 0.609194 0.057701
O O2 0.393974 0.500000 0.056714
O O3 0.353593 0.604115 0.150492
O O4 0.351718 0.604794 0.965396
O O5 0.116824 0.500000 0.704475
O O6 0.185051 0.370952 0.715781
O O7 0.121138 0.417148 0.572767
O O8 0.000000 0.396030 0.690203
O O9 0.167786 0.129773 0.315551
O O10 0.000000 0.094186 0.251890
O O11 0.129202 0.000000 0.258403
O O12 0.250000 0.250000 0.763833
O O13 0.165915 0.184316 0.642776
O O14 0.157118 0.130782 0.798246
O O15 0.250000 0.750000 0.370680
O O16 0.182757 0.630727 0.420431
O O17 0.343573 0.669940 0.474769
O O18 0.882022 0.712147 0.538403
O O19 0.000000 0.629696 0.463297
O O20 0.000000 0.187457 0.565992
O O21 0.500000 0.413047 0.870007
O O22 0.637037 0.500000 0.857181
#
# Coordination Sequence:
#
# PCOD9350363 Si02
#       8
#     8   8   8   8   8   8   8   8
#     4   7  12  27  49  69  91 120 150 181 223 281
#     4  10  20  33  47  62  85 122 165 201 225 255
#     4   9  17  30  50  74  97 120 148 186 234 284
#     4  12  20  31  46  70  95 125 155 192 235 277
#     4  10  18  30  44  69  95 126 154 187 228 277
#     4   9  17  31  46  60  84 124 166 193 216 254
#     4  10  18  30  46  65  94 126 156 184 225 282
#     4   9  18  32  50  72  95 119 151 190 234 283
#
# _framework density 15.018055
#
# number of rings (size 3 to 8) (size 9 to 14) (size 15 to 20)
#    0.000    2.500    2.500    3.000    0.000    1.500 
#    0.000    0.625    0.000    2.250    0.000    0.875 
#    0.000    3.000    0.000    0.000    0.000    0.000 
#
# Total GULP energy -178171.600090 kJ/mol
# GULP energy per Si atom -5567.862503 kJ/mol
# Density = 1.498387 g / cm^3
# Si number density = 15.018055 Si / 1000 Ang^3
#
#
#
# Elastic Constant Matrix: (Units=GPa)
#
#
# Indices 1 2 3 4 5 6 
#
# 1 72.7875 36.5765 39.0447 0.0000 0.0000 0.0000
# 2 36.5765 54.1998 45.1984 0.0000 0.0000 0.0000
# 3 39.0447 45.1984 111.9833 0.0000 0.0000 0.0000
# 4 0.0000 0.0000 0.0000 18.3492 0.0000 0.0000
# 5 0.0000 0.0000 0.0000 0.0000 15.9694 0.0000
# 6 0.0000 0.0000 0.0000 0.0000 0.0000 22.9448
#
#
#
# Elastic Compliance Matrix: (Units=1/GPa)
#
#
# Indices 1 2 3 4 5 6 
#
# 1 0.021222 -0.012286 -0.002440 0.000000 0.000000 0.000000
# 2 -0.012286 0.034924 -0.009812 0.000000 0.000000 0.000000
# 3 -0.002440 -0.009812 0.013741 0.000000 0.000000 0.000000
# 4 0.000000 0.000000 0.000000 0.054498 0.000000 0.000000
# 5 0.000000 0.000000 0.000000 0.000000 0.062620 0.000000
# 6 0.000000 0.000000 0.000000 0.000000 0.000000 0.043583
#
#
# Mechanical properties :
#
#
# Convention : Reuss Voigt Hill
#
# Bulk Modulus (GPa) = 48.05525 53.40109 50.72817
# Shear Modulus (GPa) = 17.44579 19.32942 18.38761
#
# Velocity S-wave (km/s) = 3.41200 3.59148 3.50289
# Velocity P-wave (km/s) = 6.89856 7.26866 7.08603
#
# Compressibility (1/GPa) = 0.02080938
#
# Stress axis : x y z
#
# Youngs Moduli (GPa) = 47.12167 28.63335 72.77421
#
# Poissons Ratio (x) = 0.35180 0.17759
# Poissons Ratio (y) = 0.57895 0.71408
# Poissons Ratio (z) = 0.11499 0.28096
#
# Static dielectric constant tensor:
#      x y z
#    x 1.502280 0.000000 0.000000 
#    y 0.000000 1.502980 0.000000 
#    z 0.000000 0.000000 1.503280 
# 
# From -- ./inp_files/16884.got.cif
#   From: 2010.05.17/outbox.cif.g08.bks.cpg/sg35_9_cif.got.tgz:16884.got - 2010.06.03 17:29:28.
