data_PCOD9350328
_publ_section_title
;
Structure prediction by ZEFSAII (Michael W. Deem and Ramdas Pophale) SiO2 
 PCOD9350328
Probable space group: C M M 2
;
_chemical_formula_sum "Si O2"
_cell_formula_units_Z 40
_cell_length_a 26.789104
_cell_length_b 8.824727
_cell_length_c 9.635411
_cell_angle_alpha 90.000000
_cell_angle_beta 90.000000
_cell_angle_gamma 90.000000
_cell_volume 2277.874074
_symmetry_space_group_name_H-M "C M M 2"
_symmetry_group_IT_number 35
_symmetry_cell_setting 'orthorhombic'
loop_
_space_group_symop_operation_xyz
x,y,z
-x,-y,z
-x,y,z
x,-y,z
1/2+x,1/2+y,z
1/2-x,1/2-y,z
1/2-x,1/2+y,z
1/2+x,1/2-y,z
loop_
_atom_site_type_symbol
_atom_site_label
_atom_site_fract_x
_atom_site_fract_y
_atom_site_fract_z
Si Si1 0.197561 0.680592 0.796800
Si Si2 0.000000 0.678722 0.291853
Si Si3 0.610041 0.680835 0.617866
Si Si4 0.500000 0.680941 0.597615
Si Si5 0.103164 0.181351 0.290631
Si Si6 0.302488 0.317554 0.103614
O O1 0.201818 0.500000 0.806296
O O2 0.250000 0.750000 0.744332
O O3 0.151841 0.729597 0.700356
O O4 0.189797 0.750897 0.949833
O O5 0.051922 0.745728 0.236376
O O6 0.000000 0.500000 0.278697
O O7 0.000000 0.728972 0.453495
O O8 0.618968 0.500000 0.632005
O O9 0.553145 0.712073 0.668459
O O10 0.610857 0.718583 0.453534
O O11 0.500000 0.500000 0.563534
O O12 0.151367 0.224506 0.201711
O O13 0.097340 0.000000 0.283773
O O14 0.299133 0.500000 0.096237
O O15 0.250000 0.250000 0.155416
#
# Coordination Sequence:
#
# PCOD9350328 Si02
#       6
#     8   4   8   4   8   8
#     4  11  22  36  53  74 102 137 172 210 255 304
#     4  10  18  28  49  78 107 136 168 208 252 294
#     4   9  17  33  55  79 104 133 170 209 248 298
#     4   8  16  32  53  74 103 138 168 202 252 308
#     4   9  19  35  55  77 104 137 171 206 252 307
#     4  10  20  36  56  76 100 134 171 210 256 306
#
# _framework density 17.560234000000001
#
# number of rings (size 3 to 8) (size 9 to 14) (size 15 to 20)
#    0.000    2.400    0.000    5.700    0.000    5.600 
#    0.000    3.000    0.000    2.400    0.000    0.000 
#    0.000    0.000    0.000    0.000    0.000    0.000 
#
# Total GULP energy -111524.755602 kJ/mol
# GULP energy per Si atom -5576.237780 kJ/mol
# Density = 1.752027 g / cm^3
# Si number density = 17.560234 Si / 1000 Ang^3
#
#
#
# Elastic Constant Matrix: (Units=GPa)
#
#
# Indices 1 2 3 4 5 6 
#
# 1 202.4095 74.1506 70.1412 0.0000 0.0000 0.0000
# 2 74.1506 70.4813 31.4382 0.0000 0.0000 0.0000
# 3 70.1412 31.4382 38.9283 0.0000 0.0000 0.0000
# 4 0.0000 0.0000 0.0000 21.6035 0.0000 0.0000
# 5 0.0000 0.0000 0.0000 0.0000 -100.2303 0.0000
# 6 0.0000 0.0000 0.0000 0.0000 0.0000 35.2121
#
#
#
# Elastic Compliance Matrix: (Units=1/GPa)
#
#
# Indices 1 2 3 4 5 6 
#
# 1 0.014444 -0.005607 -0.021497 0.000000 0.000000 0.000000
# 2 -0.005607 0.024354 -0.009565 0.000000 0.000000 0.000000
# 3 -0.021497 -0.009565 0.072146 0.000000 0.000000 0.000000
# 4 0.000000 0.000000 0.000000 0.046289 0.000000 0.000000
# 5 0.000000 0.000000 0.000000 0.000000 -0.009977 0.000000
# 6 0.000000 0.000000 0.000000 0.000000 0.000000 0.028399
#
#
# Mechanical properties :
#
#
# Convention : Reuss Voigt Hill
#
# Bulk Modulus (GPa) = 26.59164 73.69768 50.14466
# Shear Modulus (GPa) = 19.11846 0.38965 9.75406
#
# Velocity S-wave (km/s) = 3.30318 0.47156 2.35938
# Velocity P-wave (km/s) = 5.45197 6.50816 6.00334
#
# Compressibility (1/GPa) = 0.03760581
#
# Stress axis : x y z
#
# Youngs Moduli (GPa) = 69.23324 41.06158 13.86083
#
# Poissons Ratio (x) = 0.23024 0.29796
# Poissons Ratio (y) = 0.38821 0.13258
# Poissons Ratio (z) = 1.48829 0.39274
#
# Static dielectric constant tensor:
#      x y z
#    x 1.622250 0.000000 0.000000 
#    y 0.000000 1.585220 0.000000 
#    z 0.000000 0.000000 1.577310 
# 
# From -- ./inp_files/5025.got.cif
#   From: 2010.05.17/outbox.cif.g08.bks.cpg/sg35_3_cif.got.tgz:5025.got - 2010.06.03 17:29:28.
