data_PCOD9350186
_publ_section_title
;
Structure prediction by ZEFSAII (Michael W. Deem and Ramdas Pophale) SiO2 
 PCOD9350186
Probable space group: C M M 2
;
_chemical_formula_sum "Si O2"
_cell_formula_units_Z 24
_cell_length_a 9.000000
_cell_length_b 18.000000
_cell_length_c 15.000000
_cell_angle_alpha 90.000000
_cell_angle_beta 90.000000
_cell_angle_gamma 90.000000
_cell_volume 2430.000000
_symmetry_space_group_name_H-M "C M M 2"
_symmetry_group_IT_number 35
_symmetry_cell_setting 'orthorhombic'
loop_
_space_group_symop_operation_xyz
x,y,z
-x,-y,z
-x,y,z
x,-y,z
1/2+x,1/2+y,z
1/2-x,1/2-y,z
1/2-x,1/2+y,z
1/2+x,1/2-y,z
loop_
_atom_site_type_symbol
_atom_site_label
_atom_site_fract_x
_atom_site_fract_y
_atom_site_fract_z
Si Si1 0.177219 0.415635 0.212600
Si Si2 0.176648 0.330562 0.033748
Si Si3 0.164479 0.588970 0.710375
Si Si4 0.327065 0.328916 0.854910
Si Si5 0.671030 0.325819 0.366621
Si Si6 0.164282 0.588899 0.506581
O O1 0.227989 0.500000 0.226357
O O2 0.205420 0.386891 0.113496
O O3 0.255304 0.360413 0.279657
O O4 0.000000 0.413536 0.227637
O O5 0.250000 0.250000 0.051706
O O6 0.000000 0.320914 0.024334
O O7 0.247708 0.359763 0.942881
O O8 0.166514 0.500000 0.710536
O O9 0.291955 0.620040 0.771670
O O10 0.178607 0.613936 0.608383
O O11 0.000000 0.612835 0.743328
O O12 0.500000 0.319166 0.870963
O O13 0.250000 0.250000 0.837859
O O14 0.500000 0.313211 0.351168
O O15 0.750000 0.250000 0.390988
O O16 0.705447 0.381833 0.446146
O O17 0.164017 0.500000 0.505758
O O18 0.000000 0.612899 0.472736
#
# Coordination Sequence:
#
# PCOD9350186 Si02
#       6
#     8   8   8   8   8   8
#     4  10  22  40  61  85 114 148 184 225 276 333
#     4  10  20  36  58  82 110 147 189 232 279 330
#     4   9  19  37  60  84 112 148 187 228 278 334
#     4  11  22  36  56  82 114 151 189 232 280 329
#     4  12  25  39  58  84 114 149 187 230 278 329
#     4   9  19  38  62  85 112 147 185 228 279 333
#
# _framework density 9.8765429999999999
#
# number of rings (size 3 to 8) (size 9 to 14) (size 15 to 20)
#    0.000    1.833    0.000    6.500    0.000    7.667 
#    0.000    3.333    0.000    0.000    0.000    0.000 
#    0.000    0.000    0.000    0.000    0.000    0.000 
#
# Total GULP energy -133961.191213 kJ/mol
# GULP energy per Si atom -5581.716301 kJ/mol
# Density = 0.985406 g / cm^3
# Si number density = 9.876543 Si / 1000 Ang^3
#
#
#
# Elastic Constant Matrix: (Units=GPa)
#
#
# Indices 1 2 3 4 5 6 
#
# 1 14.3194 11.0722 21.6810 0.0000 0.0000 0.0000
# 2 11.0722 5.3350 14.4166 0.0000 0.0000 0.0000
# 3 21.6810 14.4166 48.9115 0.0000 0.0000 0.0000
# 4 0.0000 0.0000 0.0000 26.6493 0.0000 0.0000
# 5 0.0000 0.0000 0.0000 0.0000 -20.4003 0.0000
# 6 0.0000 0.0000 0.0000 0.0000 0.0000 22.7290
#
#
#
# Elastic Compliance Matrix: (Units=1/GPa)
#
#
# Indices 1 2 3 4 5 6 
#
# 1 -0.064604 0.278578 -0.053473 0.000000 0.000000 0.000000
# 2 0.278578 -0.280194 -0.040898 0.000000 0.000000 0.000000
# 3 -0.053473 -0.040898 0.056203 0.000000 0.000000 0.000000
# 4 0.000000 0.000000 0.000000 0.037524 0.000000 0.000000
# 5 0.000000 0.000000 0.000000 0.000000 -0.049019 0.000000
# 6 0.000000 0.000000 0.000000 0.000000 0.000000 0.043997
#
#
# Mechanical properties :
#
#
# Convention : Reuss Voigt Hill
#
# Bulk Modulus (GPa) = 12.52871 18.10062 15.31466
# Shear Modulus (GPa) = -8.36261 7.22200 -0.57031
#
# Velocity S-wave (km/s) = -2.05980 1.91418 -0.53791
# Velocity P-wave (km/s) = 0.83631 3.75083 2.71737
#
# Compressibility (1/GPa) = 0.07981669
#
# Stress axis : x y z
#
# Youngs Moduli (GPa) = -15.47884 -3.56896 17.79263
#
# Poissons Ratio (x) = 0.99423 0.95143
# Poissons Ratio (y) = 4.31206 0.72769
# Poissons Ratio (z) = -0.82771 -0.14596
#
# Static dielectric constant tensor:
#      x y z
#    x 1.682510 0.000000 0.000000 
#    y 0.000000 1.683090 0.000000 
#    z 0.000000 0.000000 1.695190 
# 
# From -- ./inp_files/15122.got.cif
#   From: 2010.05.17/outbox.ucp.g08.bks.cvg/sg35_8_cif.got.tgz:15122.got - 2010.06.11 10:36:28.
