data_PCOD9350145
_publ_section_title
;
Structure prediction by ZEFSAII (Michael W. Deem and Ramdas Pophale) SiO2 
 PCOD9350145
Probable space group: C M M 2
;
_chemical_formula_sum "Si O2"
_cell_formula_units_Z 32
_cell_length_a 30.000000
_cell_length_b 9.000000
_cell_length_c 12.000000
_cell_angle_alpha 90.000000
_cell_angle_beta 90.000000
_cell_angle_gamma 90.000000
_cell_volume 3240.000000
_symmetry_space_group_name_H-M "C M M 2"
_symmetry_group_IT_number 35
_symmetry_cell_setting 'orthorhombic'
loop_
_space_group_symop_operation_xyz
x,y,z
-x,-y,z
-x,y,z
x,-y,z
1/2+x,1/2+y,z
1/2-x,1/2-y,z
1/2-x,1/2+y,z
1/2+x,1/2-y,z
loop_
_atom_site_type_symbol
_atom_site_label
_atom_site_fract_x
_atom_site_fract_y
_atom_site_fract_z
Si Si1 0.798337 0.320537 0.327150
Si Si2 0.948215 0.322881 0.595016
Si Si3 0.120160 0.175399 0.761360
Si Si4 0.891059 0.678079 0.381288
Si Si5 0.700786 0.821061 0.863617
Si Si6 0.299550 0.319373 0.092373
Si Si7 0.049682 0.321321 0.189457
Si Si8 0.549854 0.673870 0.954470
O O1 0.792835 0.500000 0.319869
O O2 0.750000 0.250000 0.352989
O O3 0.840034 0.277118 0.406172
O O4 0.814570 0.253472 0.208146
O O5 0.945094 0.500000 0.620547
O O6 0.913302 0.231054 0.667054
O O7 0.929245 0.299674 0.471619
O O8 0.000000 0.279781 0.606935
O O9 0.165291 0.270389 0.770958
O O10 0.089311 0.199922 0.869533
O O11 0.130414 0.000000 0.752141
O O12 0.886888 0.500000 0.368237
O O13 0.911935 0.740544 0.268147
O O14 0.750000 0.750000 0.844349
O O15 0.704151 0.000000 0.874071
O O16 0.681404 0.746036 0.977611
O O17 0.300115 0.500000 0.094234
O O18 0.250000 0.250000 0.086453
O O19 0.050630 0.500000 0.193858
O O20 0.000000 0.274061 0.226028
O O21 0.055574 0.270122 0.063925
O O22 0.500000 0.704393 0.906881
O O23 0.550681 0.500000 0.985470
#
# Coordination Sequence:
#
# PCOD9350145 Si02
#       8
#     8   8   8   8   8   8   8   8
#     4  10  19  33  52  78 113 153 195 239 288 344
#     4  10  21  40  65  89 113 147 196 250 302 358
#     4  11  23  39  59  85 117 155 198 242 296 352
#     4   9  19  35  57  83 111 146 190 242 298 350
#     4  11  22  38  59  85 118 155 197 243 292 348
#     4  10  18  31  51  78 113 153 194 235 283 338
#     4   9  17  31  53  81 110 140 179 229 287 350
#     4   9  19  35  53  77 113 151 184 228 289 350
#
# _framework density 9.8765429999999999
#
# number of rings (size 3 to 8) (size 9 to 14) (size 15 to 20)
#    0.000    2.125    0.000    5.250    1.750    3.250 
#    0.000    4.375    0.000    3.000    0.000    0.000 
#    0.000    0.000    0.000    0.000    0.000    0.000 
#
# Total GULP energy -178265.238680 kJ/mol
# GULP energy per Si atom -5570.788709 kJ/mol
# Density = 0.985406 g / cm^3
# Si number density = 9.876543 Si / 1000 Ang^3
#
#
#
# Elastic Constant Matrix: (Units=GPa)
#
#
# Indices 1 2 3 4 5 6 
#
# 1 -64.6555 73.2439 -26.9865 0.0000 0.0000 0.0000
# 2 73.2439 60.1379 19.3430 0.0000 0.0000 0.0000
# 3 -26.9865 19.3430 -15.6849 0.0000 0.0000 0.0000
# 4 0.0000 0.0000 0.0000 16.2368 0.0000 0.0000
# 5 0.0000 0.0000 0.0000 0.0000 22.3591 0.0000
# 6 0.0000 0.0000 0.0000 0.0000 0.0000 25.2571
#
#
#
# Elastic Compliance Matrix: (Units=1/GPa)
#
#
# Indices 1 2 3 4 5 6 
#
# 1 -0.026854 0.012777 0.061960 0.000000 0.000000 0.000000
# 2 0.012777 0.005827 -0.014798 0.000000 0.000000 0.000000
# 3 0.061960 -0.014798 -0.188610 0.000000 0.000000 0.000000
# 4 0.000000 0.000000 0.000000 0.061589 0.000000 0.000000
# 5 0.000000 0.000000 0.000000 0.000000 0.044725 0.000000
# 6 0.000000 0.000000 0.000000 0.000000 0.000000 0.039593
#
#
# Mechanical properties :
#
#
# Convention : Reuss Voigt Hill
#
# Bulk Modulus (GPa) = -11.14096 12.33314 0.59609
# Shear Modulus (GPa) = -23.41605 7.05040 -8.18282
#
# Velocity S-wave (km/s) = -3.44675 1.89130 -2.03753
# Velocity P-wave (km/s) = 4.63600 3.32063 2.28757
#
# Compressibility (1/GPa) = -0.08975886
#
# Stress axis : x y z
#
# Youngs Moduli (GPa) = -37.23871 171.62806 -5.30195
#
# Poissons Ratio (x) = -2.19290 0.32851
# Poissons Ratio (y) = 0.47580 -0.07846
# Poissons Ratio (z) = 2.30731 2.53975
#
# Static dielectric constant tensor:
#      x y z
#    x 1.820860 0.000000 0.000000 
#    y 0.000000 1.660210 0.000000 
#    z 0.000000 0.000000 1.815260 
# 
# From -- ./inp_files/14523.got.cif
#   From: 2010.05.17/outbox.ucp.g08.bks.cvg/sg35_8_cif.got.tgz:14523.got - 2010.06.11 10:36:28.
