data_PCOD9350637
_publ_section_title
;
Structure prediction by ZEFSAII (Michael W. Deem and Ramdas Pophale) SiO2 
 PCOD9350637
Probable space group: C M C 21
;
_chemical_formula_sum "Si O2"
_cell_formula_units_Z 64
_cell_length_a 8.842174
_cell_length_b 21.921815
_cell_length_c 14.405584
_cell_angle_alpha 90.000000
_cell_angle_beta 90.000000
_cell_angle_gamma 90.000000
_cell_volume 2792.328021
_symmetry_space_group_name_H-M "C M C 21"
_symmetry_group_IT_number 36
_symmetry_cell_setting 'orthorhombic'
loop_
_space_group_symop_operation_xyz
x,y,z
-x,-y,1/2+z
x,-y,1/2+z
-x,y,z
1/2+x,1/2+y,z
1/2-x,1/2-y,1/2+z
1/2+x,1/2-y,1/2+z
1/2-x,1/2+y,z
loop_
_atom_site_type_symbol
_atom_site_label
_atom_site_fract_x
_atom_site_fract_y
_atom_site_fract_z
Si Si1 0.819942 0.406462 0.593380
Si Si2 0.673745 0.906515 0.921388
Si Si3 0.323399 0.340712 0.750935
Si Si4 0.327336 0.779098 0.034721
Si Si5 0.181056 0.979793 0.205505
Si Si6 0.324792 0.215857 0.869533
Si Si7 0.314822 0.853057 0.200527
Si Si8 0.321290 0.470433 0.425740
O O1 0.748835 0.349409 0.649602
O O2 0.760985 0.464427 0.653676
O O3 0.762887 0.420782 0.489379
O O4 0.000000 0.402570 0.594759
O O5 0.500000 0.927197 0.913814
O O6 0.738381 0.885704 0.822014
O O7 0.674960 0.844781 0.981758
O O8 0.772033 0.962060 0.959966
O O9 0.500000 0.357418 0.745273
O O10 0.315197 0.275567 0.802471
O O11 0.500000 0.759790 0.048899
O O12 0.250948 0.732170 0.965781
O O13 0.262421 0.798328 0.133627
O O14 0.246416 0.916252 0.168215
O O15 0.214972 0.975125 0.316081
O O16 0.000000 0.984631 0.194137
O O17 0.500000 0.203838 0.887671
O O18 0.263211 0.162376 0.804781
O O19 0.500000 0.855012 0.197777
O O20 0.500000 0.461539 0.436198
#
# Coordination Sequence:
#
# PCOD9350637 Si02
#       8
#     8   8   8   8   8   8   8   8
#     4  12  24  38  60  88 120 158 200 246 297 359
#     4  10  18  31  55  85 114 149 196 245 294 346
#     4  10  19  35  57  81 113 152 194 242 297 351
#     4   9  19  35  58  87 116 151 199 247 294 351
#     4  11  24  41  62  90 123 160 199 245 302 361
#     4   9  20  38  61  86 116 154 197 247 298 350
#     4  10  21  40  62  87 121 160 200 245 300 358
#     4  11  23  38  57  84 121 160 197 239 298 364
#
# _framework density 22.919944000000001
#
# number of rings (size 3 to 8) (size 9 to 14) (size 15 to 20)
#    0.000    1.750    1.250    3.375    0.000    4.500 
#    2.250    0.000    0.000    0.000    0.000    0.000 
#    0.000    0.000    0.000    0.000    0.000    0.000 
#
# Total GULP energy -178945.133636 kJ/mol
# GULP energy per Si atom -5592.035426 kJ/mol
# Density = 2.286778 g / cm^3
# Si number density = 22.919944 Si / 1000 Ang^3
#
#
#
# Elastic Constant Matrix: (Units=GPa)
#
#
# Indices 1 2 3 4 5 6 
#
# 1 53.6165 -4.7014 33.4005 0.0000 0.0000 0.0000
# 2 -4.7014 47.0665 6.2133 0.0000 0.0000 0.0000
# 3 33.4005 6.2133 124.6226 0.0000 0.0000 0.0000
# 4 0.0000 0.0000 0.0000 44.6726 0.0000 0.0000
# 5 0.0000 0.0000 0.0000 0.0000 31.6412 0.0000
# 6 0.0000 0.0000 0.0000 0.0000 0.0000 7.0274
#
#
#
# Elastic Compliance Matrix: (Units=1/GPa)
#
#
# Indices 1 2 3 4 5 6 
#
# 1 0.022832 0.003109 -0.006274 0.000000 0.000000 0.000000
# 2 0.003109 0.021811 -0.001921 0.000000 0.000000 0.000000
# 3 -0.006274 -0.001921 0.009802 0.000000 0.000000 0.000000
# 4 0.000000 0.000000 0.000000 0.022385 0.000000 0.000000
# 5 0.000000 0.000000 0.000000 0.000000 0.031604 0.000000
# 6 0.000000 0.000000 0.000000 0.000000 0.000000 0.142300
#
#
# Mechanical properties :
#
#
# Convention : Reuss Voigt Hill
#
# Bulk Modulus (GPa) = 22.58746 32.79229 27.68987
# Shear Modulus (GPa) = 18.13805 29.36111 23.74958
#
# Velocity S-wave (km/s) = 2.81617 3.58303 3.22249
# Velocity P-wave (km/s) = 4.52225 5.60855 5.09444
#
# Compressibility (1/GPa) = 0.04427236
#
# Stress axis : x y z
#
# Youngs Moduli (GPa) = 43.79776 45.84919 102.02424
#
# Poissons Ratio (x) = -0.14254 0.64014
# Poissons Ratio (y) = -0.13617 0.19595
# Poissons Ratio (z) = 0.27480 0.08806
#
# Static dielectric constant tensor:
#      x y z
#    x 1.764340 0.000000 0.000000 
#    y 0.000000 1.882180 0.000000 
#    z 0.000000 0.000000 1.904200 
# 
# From -- ./inp_files/10871.got.cif
#   From: 2010.05.17/outbox.cif.g08.bks.cpg/sg36_6_cif.got.tgz:10871.got - 2010.06.03 17:41:39.
