data_PCOD9350358
_publ_section_title
;
Structure prediction by ZEFSAII (Michael W. Deem and Ramdas Pophale) SiO2 
 PCOD9350358
Probable space group: C M M 2
;
_chemical_formula_sum "Si O2"
_cell_formula_units_Z 64
_cell_length_a 19.482006
_cell_length_b 18.868361
_cell_length_c 10.303345
_cell_angle_alpha 90.000000
_cell_angle_beta 90.000000
_cell_angle_gamma 90.000000
_cell_volume 3787.442879
_symmetry_space_group_name_H-M "C M M 2"
_symmetry_group_IT_number 35
_symmetry_cell_setting 'orthorhombic'
loop_
_space_group_symop_operation_xyz
x,y,z
-x,-y,z
-x,y,z
x,-y,z
1/2+x,1/2+y,z
1/2-x,1/2-y,z
1/2-x,1/2+y,z
1/2+x,1/2-y,z
loop_
_atom_site_type_symbol
_atom_site_label
_atom_site_fract_x
_atom_site_fract_y
_atom_site_fract_z
Si Si1 0.816705 0.421089 0.431070
Si Si2 0.740995 0.138197 0.179669
Si Si3 0.712470 0.582966 0.663777
Si Si4 0.922340 0.262114 0.928636
Si Si5 0.079404 0.171952 0.676090
Si Si6 0.865605 0.230693 0.206898
Si Si7 0.781081 0.669612 0.895914
Si Si8 0.420614 0.208513 0.465913
O O1 0.844466 0.500000 0.454942
O O2 0.788601 0.415862 0.284090
O O3 0.753634 0.408903 0.529295
O O4 0.871973 0.359742 0.457172
O O5 0.817962 0.161670 0.215760
O O6 0.689544 0.205252 0.196440
O O7 0.738597 0.126105 0.025595
O O8 0.713602 0.500000 0.699198
O O9 0.635314 0.611977 0.652026
O O10 0.751051 0.630700 0.771186
O O11 0.915561 0.199395 0.823908
O O12 0.863001 0.318535 0.895138
O O13 0.000000 0.290056 0.919425
O O14 0.907729 0.234132 0.073574
O O15 0.096476 0.239763 0.585564
O O16 0.000000 0.152233 0.649958
O O17 0.909205 0.246432 0.334337
O O18 0.750000 0.750000 0.907008
O O19 0.500000 0.187574 0.477139
#
# Coordination Sequence:
#
# PCOD9350358 Si02
#       8
#     8   8   8   8   8   8   8   8
#     4  10  22  35  50  75 108 144 181 220 267 319
#     4   9  16  30  51  74 101 133 176 216 263 308
#     4  11  23  37  54  79 107 141 177 216 270 328
#     4  10  18  29  50  79 109 134 170 222 266 304
#     4  10  20  34  53  79 104 134 173 219 270 319
#     4   9  15  28  47  74 100 130 164 218 265 300
#     4  11  18  34  56  81 107 139 180 223 263 311
#     4  10  20  32  51  76 102 137 182 222 264 313
#
# _framework density 16.897943999999999
#
# number of rings (size 3 to 8) (size 9 to 14) (size 15 to 20)
#    0.000    2.000    3.750    1.875    0.000    2.000 
#    0.000    0.000    0.000    1.125    0.000    0.000 
#    0.000    4.500    0.000    0.000    0.000    0.000 
#
# Total GULP energy -178348.257821 kJ/mol
# GULP energy per Si atom -5573.383057 kJ/mol
# Density = 1.685948 g / cm^3
# Si number density = 16.897944 Si / 1000 Ang^3
#
#
#
# Elastic Constant Matrix: (Units=GPa)
#
#
# Indices 1 2 3 4 5 6 
#
# 1 97.7073 48.5443 22.4666 0.0000 0.0000 0.0000
# 2 48.5443 56.2858 30.8736 0.0000 0.0000 0.0000
# 3 22.4666 30.8736 88.4774 0.0000 0.0000 0.0000
# 4 0.0000 0.0000 0.0000 15.3140 0.0000 0.0000
# 5 0.0000 0.0000 0.0000 0.0000 24.3924 0.0000
# 6 0.0000 0.0000 0.0000 0.0000 0.0000 13.3005
#
#
#
# Elastic Compliance Matrix: (Units=1/GPa)
#
#
# Indices 1 2 3 4 5 6 
#
# 1 0.017986 -0.016086 0.001046 0.000000 0.000000 0.000000
# 2 -0.016086 0.036359 -0.008602 0.000000 0.000000 0.000000
# 3 0.001046 -0.008602 0.014038 0.000000 0.000000 0.000000
# 4 0.000000 0.000000 0.000000 0.065300 0.000000 0.000000
# 5 0.000000 0.000000 0.000000 0.000000 0.040996 0.000000
# 6 0.000000 0.000000 0.000000 0.000000 0.000000 0.075185
#
#
# Mechanical properties :
#
#
# Convention : Reuss Voigt Hill
#
# Bulk Modulus (GPa) = 47.39737 49.58217 48.48977
# Shear Modulus (GPa) = 16.43749 19.97380 18.20565
#
# Velocity S-wave (km/s) = 3.12228 3.44179 3.28592
# Velocity P-wave (km/s) = 6.41157 6.72312 6.56919
#
# Compressibility (1/GPa) = 0.02109822
#
# Stress axis : x y z
#
# Youngs Moduli (GPa) = 55.59785 27.50368 71.23278
#
# Poissons Ratio (x) = 0.44243 -0.07451
# Poissons Ratio (y) = 0.89436 0.61278
# Poissons Ratio (z) = -0.05816 0.23660
#
# Static dielectric constant tensor:
#      x y z
#    x 1.578420 0.000000 0.000000 
#    y 0.000000 1.545260 0.000000 
#    z 0.000000 0.000000 1.592400 
# 
# From -- ./inp_files/8758.got.cif
#   From: 2010.05.17/outbox.cif.g08.bks.cpg/sg35_5_cif.got.tgz:8758.got - 2010.06.03 17:29:28.
