data_PCOD9350658
_publ_section_title
;
Structure prediction by ZEFSAII (Michael W. Deem and Ramdas Pophale) SiO2 
 PCOD9350658
Probable space group: C M C 21
;
_chemical_formula_sum "Si O2"
_cell_formula_units_Z 48
_cell_length_a 16.453198
_cell_length_b 9.299421
_cell_length_c 17.056932
_cell_angle_alpha 90.000000
_cell_angle_beta 90.000000
_cell_angle_gamma 90.000000
_cell_volume 2609.799548
_symmetry_space_group_name_H-M "C M C 21"
_symmetry_group_IT_number 36
_symmetry_cell_setting 'orthorhombic'
loop_
_space_group_symop_operation_xyz
x,y,z
-x,-y,1/2+z
x,-y,1/2+z
-x,y,z
1/2+x,1/2+y,z
1/2-x,1/2-y,1/2+z
1/2+x,1/2-y,1/2+z
1/2-x,1/2+y,z
loop_
_atom_site_type_symbol
_atom_site_label
_atom_site_fract_x
_atom_site_fract_y
_atom_site_fract_z
Si Si1 0.321212 0.650712 0.511140
Si Si2 0.902171 0.667391 0.150370
Si Si3 0.901288 0.342927 0.826717
Si Si4 0.365489 0.093245 0.553436
Si Si5 0.406071 0.882634 0.413287
Si Si6 0.907766 0.142746 0.970689
O O1 0.362509 0.726250 0.586796
O O2 0.227228 0.626478 0.530435
O O3 0.345921 0.755433 0.438843
O O4 0.356733 0.495620 0.491477
O O5 0.877890 0.701949 0.239470
O O6 0.875082 0.503870 0.130067
O O7 0.000000 0.675492 0.143751
O O8 0.877161 0.507898 0.845741
O O9 0.875789 0.233382 0.895511
O O10 0.000000 0.345697 0.830621
O O11 0.407180 0.246845 0.543761
O O12 0.405495 0.990085 0.487912
O O13 0.500000 0.834293 0.400664
O O14 0.000000 0.098710 0.953571
#
# Coordination Sequence:
#
# PCOD9350658 Si02
#       6
#     8   8   8   8   8   8
#     4  11  20  31  51  80 106 129 162 211 259 299
#     4  10  19  36  55  72  98 140 177 206 247 305
#     4   8  17  33  55  75  97 131 177 215 246 295
#     4  10  19  32  50  73 100 132 167 203 244 303
#     4   9  17  34  55  74  95 133 176 206 241 304
#     4  10  18  32  52  76  99 127 165 211 254 296
#
# _framework density 18.392218
#
# number of rings (size 3 to 8) (size 9 to 14) (size 15 to 20)
#    0.000    2.333    0.000    7.000    0.000    0.000 
#    0.000    8.333    0.000    4.000    0.000    0.000 
#    0.000    0.000    0.000    0.000    0.000    0.000 
#
# Total GULP energy -133685.359656 kJ/mol
# GULP energy per Si atom -5570.223319 kJ/mol
# Density = 1.835036 g / cm^3
# Si number density = 18.392218 Si / 1000 Ang^3
#
#
#
# Elastic Constant Matrix: (Units=GPa)
#
#
# Indices 1 2 3 4 5 6 
#
# 1 95.4053 22.6157 21.3483 0.0000 0.0000 0.0000
# 2 22.6157 98.8112 35.7572 0.0000 0.0000 0.0000
# 3 21.3483 35.7572 91.0909 0.0000 0.0000 0.0000
# 4 0.0000 0.0000 0.0000 22.5943 0.0000 0.0000
# 5 0.0000 0.0000 0.0000 0.0000 -5.5983 0.0000
# 6 0.0000 0.0000 0.0000 0.0000 0.0000 9.3950
#
#
#
# Elastic Compliance Matrix: (Units=1/GPa)
#
#
# Indices 1 2 3 4 5 6 
#
# 1 0.011362 -0.001908 -0.001914 0.000000 0.000000 0.000000
# 2 -0.001908 0.012116 -0.004309 0.000000 0.000000 0.000000
# 3 -0.001914 -0.004309 0.013118 0.000000 0.000000 0.000000
# 4 0.000000 0.000000 0.000000 0.044259 0.000000 0.000000
# 5 0.000000 0.000000 0.000000 0.000000 -0.178626 0.000000
# 6 0.000000 0.000000 0.000000 0.000000 0.000000 0.106440
#
#
# Mechanical properties :
#
#
# Convention : Reuss Voigt Hill
#
# Bulk Modulus (GPa) = 49.17690 49.41665 49.29678
# Shear Modulus (GPa) = 157.68036 18.98393 88.33214
#
# Velocity S-wave (km/s) = 9.26921 3.21623 6.93766
# Velocity P-wave (km/s) = 11.88922 6.38112 9.54129
#
# Compressibility (1/GPa) = 0.02033475
#
# Stress axis : x y z
#
# Youngs Moduli (GPa) = 88.01159 82.53322 76.23063
#
# Poissons Ratio (x) = 0.15747 0.14590
# Poissons Ratio (y) = 0.16792 0.32848
# Poissons Ratio (z) = 0.16845 0.35564
#
# Static dielectric constant tensor:
#      x y z
#    x 1.711320 0.000000 0.000000 
#    y 0.000000 1.639060 0.000000 
#    z 0.000000 0.000000 1.677470 
# 
# From -- ./inp_files/12492.got.cif
#   From: 2010.05.17/outbox.cif.g08.bks.cpg/sg36_7_cif.got.tgz:12492.got - 2010.06.03 17:41:39.
