data_PCOD9350228
_publ_section_title
;
Structure prediction by ZEFSAII (Michael W. Deem and Ramdas Pophale) SiO2 
 PCOD9350228
Probable space group: C M M 2
;
_chemical_formula_sum "Si O2"
_cell_formula_units_Z 24
_cell_length_a 10.098456
_cell_length_b 15.506111
_cell_length_c 8.704951
_cell_angle_alpha 90.000000
_cell_angle_beta 90.000000
_cell_angle_gamma 90.000000
_cell_volume 1363.088949
_symmetry_space_group_name_H-M "C M M 2"
_symmetry_group_IT_number 35
_symmetry_cell_setting 'orthorhombic'
loop_
_space_group_symop_operation_xyz
x,y,z
-x,-y,z
-x,y,z
x,-y,z
1/2+x,1/2+y,z
1/2-x,1/2-y,z
1/2-x,1/2+y,z
1/2+x,1/2-y,z
loop_
_atom_site_type_symbol
_atom_site_label
_atom_site_fract_x
_atom_site_fract_y
_atom_site_fract_z
Si Si1 0.771917 0.500000 0.943030
Si Si2 0.250000 0.250000 0.333261
Si Si3 0.500000 0.000000 0.194594
Si Si4 0.847648 0.822468 0.028116
Si Si5 0.500000 0.000000 0.692652
Si Si6 0.500000 0.149732 0.444334
O O1 0.868823 0.500000 0.797264
O O2 0.871816 0.500000 0.087460
O O3 0.684865 0.585617 0.956875
O O4 0.187160 0.181538 0.210960
O O5 0.367974 0.207391 0.429301
O O6 0.500000 0.914579 0.297802
O O7 0.750000 0.750000 0.960258
O O8 0.000000 0.798202 0.008625
O O9 0.500000 0.085722 0.588447
#
# Coordination Sequence:
#
# PCOD9350228 Si02
#       6
#     4   4   2   8   2   4
#     4  11  21  38  59  91 125 161 211 253 306 362
#     4  10  18  34  64  96 114 148 208 266 302 350
#     4  10  16  32  64  84 110 152 206 264 280 356
#     4  10  20  35  62 100 118 151 206 274 317 343
#     4  10  28  40  58  86 130 184 196 234 322 394
#     4  11  20  40  60  89 121 163 208 245 313 372
#
# _framework density 17.607068000000002
#
# number of rings (size 3 to 8) (size 9 to 14) (size 15 to 20)
#    1.000    0.667    5.000    0.500    4.667    0.000 
#    3.000    0.000    3.667    0.000    0.000    0.000 
#    0.000    0.000    0.000    0.000    0.000    0.000 
#
# Total GULP energy -66881.090747 kJ/mol
# GULP energy per Si atom -5573.424229 kJ/mol
# Density = 1.756699 g / cm^3
# Si number density = 17.607068 Si / 1000 Ang^3
#
#
#
# Elastic Constant Matrix: (Units=GPa)
#
#
# Indices 1 2 3 4 5 6 
#
# 1 169.4057 71.6159 36.3065 0.0000 0.0000 0.0000
# 2 71.6159 123.0900 35.4061 0.0000 0.0000 0.0000
# 3 36.3065 35.4061 70.3523 0.0000 0.0000 0.0000
# 4 0.0000 0.0000 0.0000 8.8109 0.0000 0.0000
# 5 0.0000 0.0000 0.0000 0.0000 14.1873 0.0000
# 6 0.0000 0.0000 0.0000 0.0000 0.0000 39.2164
#
#
#
# Elastic Compliance Matrix: (Units=1/GPa)
#
#
# Indices 1 2 3 4 5 6 
#
# 1 0.008088 -0.004098 -0.002111 0.000000 0.000000 0.000000
# 2 -0.004098 0.011576 -0.003711 0.000000 0.000000 0.000000
# 3 -0.002111 -0.003711 0.017171 0.000000 0.000000 0.000000
# 4 0.000000 0.000000 0.000000 0.113496 0.000000 0.000000
# 5 0.000000 0.000000 0.000000 0.000000 0.070486 0.000000
# 6 0.000000 0.000000 0.000000 0.000000 0.000000 0.025500
#
#
# Mechanical properties :
#
#
# Convention : Reuss Voigt Hill
#
# Bulk Modulus (GPa) = 58.84350 72.16721 65.50535
# Shear Modulus (GPa) = 18.39434 27.07755 22.73594
#
# Velocity S-wave (km/s) = 3.23571 3.92583 3.59736
# Velocity P-wave (km/s) = 6.88859 7.85023 7.38508
#
# Compressibility (1/GPa) = 0.01699423
#
# Stress axis : x y z
#
# Youngs Moduli (GPa) = 123.63819 86.38499 58.23665
#
# Poissons Ratio (x) = 0.35405 0.12296
# Poissons Ratio (y) = 0.50673 0.21610
# Poissons Ratio (z) = 0.26105 0.32056
#
# Static dielectric constant tensor:
#      x y z
#    x 1.580150 0.000000 0.000000 
#    y 0.000000 1.601150 0.000000 
#    z 0.000000 0.000000 1.591880 
# 
# From -- ./inp_files/4355.got.cif
#   From: 2010.05.17/outbox.cif.g08.bks.cpg/sg35_3_cif.got.tgz:4355.got - 2010.06.03 17:29:28.
