data_PCOD9350895
_publ_section_title
;
Structure prediction by ZEFSAII (Michael W. Deem and Ramdas Pophale) SiO2 
 PCOD9350895
Probable space group: C M C 21
;
_chemical_formula_sum "Si O2"
_cell_formula_units_Z 64
_cell_length_a 8.897979
_cell_length_b 21.478875
_cell_length_c 18.881554
_cell_angle_alpha 90.000000
_cell_angle_beta 90.000000
_cell_angle_gamma 90.000000
_cell_volume 3608.615764
_symmetry_space_group_name_H-M "C M C 21"
_symmetry_group_IT_number 36
_symmetry_cell_setting 'orthorhombic'
loop_
_space_group_symop_operation_xyz
x,y,z
-x,-y,1/2+z
x,-y,1/2+z
-x,y,z
1/2+x,1/2+y,z
1/2-x,1/2-y,1/2+z
1/2+x,1/2-y,1/2+z
1/2-x,1/2+y,z
loop_
_atom_site_type_symbol
_atom_site_label
_atom_site_fract_x
_atom_site_fract_y
_atom_site_fract_z
Si Si1 0.818587 0.753858 0.393590
Si Si2 0.327095 0.498335 0.645715
Si Si3 0.680322 0.869021 0.478017
Si Si4 0.316913 0.248528 0.230517
Si Si5 0.673843 0.500663 0.973398
Si Si6 0.320010 0.129036 0.479186
Si Si7 0.180279 0.629271 0.143270
Si Si8 0.317425 0.634399 0.635192
O O1 0.745192 0.811447 0.434445
O O2 0.769948 0.752601 0.311815
O O3 0.781512 0.688262 0.430848
O O4 0.000000 0.760814 0.396208
O O5 0.500000 0.490895 0.667337
O O6 0.322140 0.499901 0.559645
O O7 0.235868 0.438068 0.668424
O O8 0.273031 0.567054 0.666876
O O9 0.500000 0.869886 0.474781
O O10 0.725632 0.861802 0.561001
O O11 0.744442 0.935507 0.452184
O O12 0.500000 0.247060 0.230290
O O13 0.264418 0.185948 0.191385
O O14 0.273072 0.308753 0.185083
O O15 0.500000 0.501439 0.951561
O O16 0.752932 0.436360 0.951624
O O17 0.500000 0.123493 0.483536
O O18 0.253275 0.140632 0.557491
O O19 0.000000 0.629539 0.144408
O O20 0.500000 0.633575 0.627726
#
# Coordination Sequence:
#
# PCOD9350895 Si02
#       8
#     8   8   8   8   8   8   8   8
#     4  10  21  35  50  70 101 139 171 203 247 299
#     4   8  15  27  46  73  98 118 148 197 247 289
#     4  10  19  32  53  79 103 127 163 211 257 300
#     4   9  18  34  52  69  94 131 172 205 239 291
#     4   9  17  31  52  76 101 130 166 206 251 302
#     4  10  19  31  50  77 105 131 165 209 254 299
#     4   9  17  30  51  74  94 123 160 199 242 289
#     4   9  17  32  54  74  94 127 169 208 247 295
#
# _framework density 17.735333000000001
#
# number of rings (size 3 to 8) (size 9 to 14) (size 15 to 20)
#    0.000    2.750    0.000    2.625    0.000    5.500 
#    0.000    3.125    0.000    3.000    0.000    0.000 
#    0.000    0.000    0.000    0.000    0.000    0.000 
#
# Total GULP energy -178389.393316 kJ/mol
# GULP energy per Si atom -5574.668541 kJ/mol
# Density = 1.769497 g / cm^3
# Si number density = 17.735333 Si / 1000 Ang^3
#
#
#
# Elastic Constant Matrix: (Units=GPa)
#
#
# Indices 1 2 3 4 5 6 
#
# 1 36.4226 57.3319 31.5121 0.0000 0.0000 0.0000
# 2 57.3319 188.0710 68.3592 0.0000 0.0000 0.0000
# 3 31.5121 68.3592 65.1272 0.0000 0.0000 0.0000
# 4 0.0000 0.0000 0.0000 -3.9997 0.0000 0.0000
# 5 0.0000 0.0000 0.0000 0.0000 13.2592 0.0000
# 6 0.0000 0.0000 0.0000 0.0000 0.0000 29.6480
#
#
#
# Elastic Compliance Matrix: (Units=1/GPa)
#
#
# Indices 1 2 3 4 5 6 
#
# 1 0.062045 -0.012938 -0.016440 0.000000 0.000000 0.000000
# 2 -0.012938 0.011295 -0.005595 0.000000 0.000000 0.000000
# 3 -0.016440 -0.005595 0.029182 0.000000 0.000000 0.000000
# 4 0.000000 0.000000 0.000000 -0.250019 0.000000 0.000000
# 5 0.000000 0.000000 0.000000 0.000000 0.075420 0.000000
# 6 0.000000 0.000000 0.000000 0.000000 0.000000 0.033729
#
#
# Mechanical properties :
#
#
# Convention : Reuss Voigt Hill
#
# Bulk Modulus (GPa) = 30.69890 67.11413 48.90652
# Shear Modulus (GPa) = 117.76165 16.60935 67.18550
#
# Velocity S-wave (km/s) = 8.15743 3.06357 6.16154
# Velocity P-wave (km/s) = 10.29912 7.10198 8.84618
#
# Compressibility (1/GPa) = 0.03257445
#
# Stress axis : x y z
#
# Youngs Moduli (GPa) = 16.11728 88.53457 34.26731
#
# Poissons Ratio (x) = 1.14548 0.56337
# Poissons Ratio (y) = 0.20853 0.19174
# Poissons Ratio (z) = 0.26498 0.49538
#
# Static dielectric constant tensor:
#      x y z
#    x 1.601010 0.000000 0.000000 
#    y 0.000000 1.609720 0.000000 
#    z 0.000000 0.000000 1.582150 
# 
# From -- ./inp_files/13959.got.cif
#   From: 2010.05.17/outbox.cif.g08.bks.cpg/sg36_7_cif.got.tgz:13959.got - 2010.06.03 17:41:39.
