data_PCOD9350671
_publ_section_title
;
Structure prediction by ZEFSAII (Michael W. Deem and Ramdas Pophale) SiO2 
 PCOD9350671
Probable space group: C M C 21
;
_chemical_formula_sum "Si O2"
_cell_formula_units_Z 64
_cell_length_a 14.838838
_cell_length_b 8.701648
_cell_length_c 20.208694
_cell_angle_alpha 90.000000
_cell_angle_beta 90.000000
_cell_angle_gamma 90.000000
_cell_volume 2609.393959
_symmetry_space_group_name_H-M "C M C 21"
_symmetry_group_IT_number 36
_symmetry_cell_setting 'orthorhombic'
loop_
_space_group_symop_operation_xyz
x,y,z
-x,-y,1/2+z
x,-y,1/2+z
-x,y,z
1/2+x,1/2+y,z
1/2-x,1/2-y,1/2+z
1/2+x,1/2-y,1/2+z
1/2-x,1/2+y,z
loop_
_atom_site_type_symbol
_atom_site_label
_atom_site_fract_x
_atom_site_fract_y
_atom_site_fract_z
Si Si1 0.603976 0.147358 0.765120
Si Si2 0.108777 0.009256 0.233925
Si Si3 0.609491 0.627478 0.590157
Si Si4 0.401729 0.935398 0.542977
Si Si5 0.149007 0.289716 0.412966
Si Si6 0.389090 0.818453 0.793383
Si Si7 0.600378 0.829938 0.943479
Si Si8 0.673949 0.528316 0.960068
O O1 0.500000 0.145973 0.741922
O O2 0.643403 0.314836 0.744239
O O3 0.608326 0.156598 0.844775
O O4 0.640231 0.972506 0.752806
O O5 0.123396 0.959946 0.158375
O O6 0.141118 0.854439 0.273199
O O7 0.000000 0.017343 0.247290
O O8 0.500000 0.626191 0.578637
O O9 0.637910 0.808848 0.592704
O O10 0.665538 0.544304 0.532648
O O11 0.500000 0.981647 0.569486
O O12 0.408897 0.828629 0.477349
O O13 0.358361 0.085773 0.508159
O O14 0.241368 0.371368 0.435976
O O15 0.160813 0.108863 0.409580
O O16 0.500000 0.817009 0.790729
O O17 0.360750 0.844651 0.869910
O O18 0.500000 0.893679 0.939300
O O19 0.596070 0.652008 0.957397
#
# Coordination Sequence:
#
# PCOD9350671 Si02
#       8
#     8   8   8   8   8   8   8   8
#     4  10  19  34  59  89 120 153 194 245 308 369
#     4   9  18  34  56  87 120 154 198 246 300 360
#     4   9  19  37  57  82 118 157 200 245 291 355
#     4   9  17  32  55  81 112 147 186 236 294 353
#     4  11  21  34  53  81 113 154 191 244 302 359
#     4   9  17  30  54  86 117 145 180 236 296 354
#     4  10  18  32  54  85 116 144 186 241 300 362
#     4  11  23  35  54  81 114 156 197 245 299 358
#
# _framework density 24.526767
#
# number of rings (size 3 to 8) (size 9 to 14) (size 15 to 20)
#    0.000    2.250    1.250    2.250    0.000    2.500 
#    2.250    0.000    0.000    6.000    0.000    0.000 
#    0.000    0.000    0.000    0.000    0.000    0.125 
#
# Total GULP energy -178170.208324 kJ/mol
# GULP energy per Si atom -5567.819010 kJ/mol
# Density = 2.447094 g / cm^3
# Si number density = 24.526767 Si / 1000 Ang^3
#
#
#
# Elastic Constant Matrix: (Units=GPa)
#
#
# Indices 1 2 3 4 5 6 
#
# 1 56.8458 21.1977 3.4171 0.0000 0.0000 0.0000
# 2 21.1977 199.2718 11.2064 0.0000 0.0000 0.0000
# 3 3.4171 11.2064 34.8215 0.0000 0.0000 0.0000
# 4 0.0000 0.0000 0.0000 34.2167 0.0000 0.0000
# 5 0.0000 0.0000 0.0000 0.0000 5.0523 0.0000
# 6 0.0000 0.0000 0.0000 0.0000 0.0000 18.3021
#
#
#
# Elastic Compliance Matrix: (Units=1/GPa)
#
#
# Indices 1 2 3 4 5 6 
#
# 1 0.018367 -0.001887 -0.001195 0.000000 0.000000 0.000000
# 2 -0.001887 0.005305 -0.001522 0.000000 0.000000 0.000000
# 3 -0.001195 -0.001522 0.029325 0.000000 0.000000 0.000000
# 4 0.000000 0.000000 0.000000 0.029226 0.000000 0.000000
# 5 0.000000 0.000000 0.000000 0.000000 0.197928 0.000000
# 6 0.000000 0.000000 0.000000 0.000000 0.000000 0.054639
#
#
# Mechanical properties :
#
#
# Convention : Reuss Voigt Hill
#
# Bulk Modulus (GPa) = 22.83692 40.28683 31.56188
# Shear Modulus (GPa) = 13.94341 28.52208 21.23275
#
# Velocity S-wave (km/s) = 2.38691 3.41383 2.94546
# Velocity P-wave (km/s) = 4.11432 5.65688 4.94611
#
# Compressibility (1/GPa) = 0.04378874
#
# Stress axis : x y z
#
# Youngs Moduli (GPa) = 54.44604 188.51749 34.10062
#
# Poissons Ratio (x) = 0.35565 0.04076
# Poissons Ratio (y) = 0.10272 0.05190
# Poissons Ratio (z) = 0.06508 0.28692
#
# Static dielectric constant tensor:
#      x y z
#    x 2.025910 0.000000 0.000000 
#    y 0.000000 2.053100 0.000000 
#    z 0.000000 0.000000 1.911700 
# 
# From -- ./inp_files/16241.got.cif
#   From: 2010.05.17/outbox.cif.g08.bks.cpg/sg36_9_cif.got.tgz:16241.got - 2010.06.03 17:41:39.
