data_PCOD9350223
_publ_section_title
;
Structure prediction by ZEFSAII (Michael W. Deem and Ramdas Pophale) SiO2 
 PCOD9350223
Probable space group: C M M 2
;
_chemical_formula_sum "Si O2"
_cell_formula_units_Z 44
_cell_length_a 20.037698
_cell_length_b 20.208242
_cell_length_c 7.043492
_cell_angle_alpha 90.000000
_cell_angle_beta 90.000000
_cell_angle_gamma 90.000000
_cell_volume 2852.097622
_symmetry_space_group_name_H-M "C M M 2"
_symmetry_group_IT_number 35
_symmetry_cell_setting 'orthorhombic'
loop_
_space_group_symop_operation_xyz
x,y,z
-x,-y,z
-x,y,z
x,-y,z
1/2+x,1/2+y,z
1/2-x,1/2-y,z
1/2-x,1/2+y,z
1/2+x,1/2-y,z
loop_
_atom_site_type_symbol
_atom_site_label
_atom_site_fract_x
_atom_site_fract_y
_atom_site_fract_z
Si Si1 0.923931 0.367116 0.831150
Si Si2 0.924993 0.759268 0.558251
Si Si3 0.185261 0.423264 0.560521
Si Si4 0.709441 0.685241 0.670273
Si Si5 0.631982 0.169459 0.235098
Si Si6 0.750000 0.750000 0.042224
O O1 0.918222 0.295993 0.724657
O O2 0.869883 0.412302 0.725484
O O3 0.000000 0.390304 0.806644
O O4 0.906201 0.356627 0.050317
O O5 0.865142 0.810298 0.592599
O O6 0.911579 0.718810 0.364806
O O7 0.000000 0.785956 0.561551
O O8 0.200186 0.500000 0.536389
O O9 0.249273 0.379234 0.616629
O O10 0.154883 0.390024 0.371471
O O11 0.750000 0.750000 0.592356
O O12 0.713213 0.699491 0.896188
O O13 0.696265 0.209867 0.161693
#
# Coordination Sequence:
#
# PCOD9350223 Si02
#       6
#     8   8   8   8   8   4
#     4  10  19  33  51  73 107 140 174 215 251 304
#     4  10  19  31  53  82 107 132 169 218 267 309
#     4  11  23  36  51  74 107 144 179 212 256 311
#     4  10  16  37  54  76 100 138 173 217 266 291
#     4  11  17  32  51  79 107 132 177 211 264 304
#     4  10  16  30  58  82  96 136 170 224 266 294
#
# _framework density 15.427241
#
# number of rings (size 3 to 8) (size 9 to 14) (size 15 to 20)
#    0.545    1.091    7.273    1.636    0.000    1.818 
#    0.000    0.000    0.000    0.545    0.000    0.000 
#    0.000    0.000    0.000    0.000    0.000    0.000 
#
# Total GULP energy -122627.381423 kJ/mol
# GULP energy per Si atom -5573.971883 kJ/mol
# Density = 1.539213 g / cm^3
# Si number density = 15.427241 Si / 1000 Ang^3
#
#
#
# Elastic Constant Matrix: (Units=GPa)
#
#
# Indices 1 2 3 4 5 6 
#
# 1 123.4963 52.7819 31.5846 0.0000 0.0000 0.0000
# 2 52.7819 69.6849 23.7468 0.0000 0.0000 0.0000
# 3 31.5846 23.7468 101.4602 0.0000 0.0000 0.0000
# 4 0.0000 0.0000 0.0000 8.2700 0.0000 0.0000
# 5 0.0000 0.0000 0.0000 0.0000 15.5961 0.0000
# 6 0.0000 0.0000 0.0000 0.0000 0.0000 12.0464
#
#
#
# Elastic Compliance Matrix: (Units=1/GPa)
#
#
# Indices 1 2 3 4 5 6 
#
# 1 0.012264 -0.008681 -0.001786 0.000000 0.000000 0.000000
# 2 -0.008681 0.021738 -0.002386 0.000000 0.000000 0.000000
# 3 -0.001786 -0.002386 0.010970 0.000000 0.000000 0.000000
# 4 0.000000 0.000000 0.000000 0.120919 0.000000 0.000000
# 5 0.000000 0.000000 0.000000 0.000000 0.064119 0.000000
# 6 0.000000 0.000000 0.000000 0.000000 0.000000 0.083012
#
#
# Mechanical properties :
#
#
# Convention : Reuss Voigt Hill
#
# Bulk Modulus (GPa) = 51.89897 56.76311 54.33104
# Shear Modulus (GPa) = 14.48642 19.61771 17.05206
#
# Velocity S-wave (km/s) = 3.06766 3.56986 3.32824
# Velocity P-wave (km/s) = 6.80158 7.33933 7.07557
#
# Compressibility (1/GPa) = 0.01926821
#
# Stress axis : x y z
#
# Youngs Moduli (GPa) = 81.53697 46.00153 91.15395
#
# Poissons Ratio (x) = 0.39933 0.16282
# Poissons Ratio (y) = 0.70781 0.21745
# Poissons Ratio (z) = 0.14564 0.10974
#
# Static dielectric constant tensor:
#      x y z
#    x 1.525140 0.000000 0.000000 
#    y 0.000000 1.478250 0.000000 
#    z 0.000000 0.000000 1.535840 
# 
# From -- ./inp_files/3371.got.cif
#   From: 2010.05.17/outbox.cif.g08.bks.cpg/sg35_2_cif.got.tgz:3371.got - 2010.06.03 17:29:28.
