data_PCOD9350459
_publ_section_title
;
Structure prediction by ZEFSAII (Michael W. Deem and Ramdas Pophale) SiO2 
 PCOD9350459
Probable space group: C M C 21
;
_chemical_formula_sum "Si O2"
_cell_formula_units_Z 28
_cell_length_a 7.523379
_cell_length_b 33.548010
_cell_length_c 5.290946
_cell_angle_alpha 90.000000
_cell_angle_beta 90.000000
_cell_angle_gamma 90.000000
_cell_volume 1335.405109
_symmetry_space_group_name_H-M "C M C 21"
_symmetry_group_IT_number 36
_symmetry_cell_setting 'orthorhombic'
loop_
_space_group_symop_operation_xyz
x,y,z
-x,-y,1/2+z
x,-y,1/2+z
-x,y,z
1/2+x,1/2+y,z
1/2-x,1/2-y,1/2+z
1/2+x,1/2-y,1/2+z
1/2-x,1/2+y,z
loop_
_atom_site_type_symbol
_atom_site_label
_atom_site_fract_x
_atom_site_fract_y
_atom_site_fract_z
Si Si1 0.704123 0.100924 0.672130
Si Si2 0.704296 0.226775 0.004475
Si Si3 0.500000 0.025446 0.558614
Si Si4 0.718584 0.860388 0.670252
O O1 0.500000 0.116574 0.692662
O O2 0.668742 0.054934 0.601018
O O3 0.786338 0.124918 0.440917
O O4 0.777099 0.109692 0.948020
O O5 0.500000 0.220709 0.931739
O O6 0.711512 0.254505 0.253418
O O7 0.775372 0.183788 0.090666
O O8 0.500000 0.007174 0.279902
O O9 0.500000 0.860948 0.689824
#
# Coordination Sequence:
#
# PCOD9350459 Si02
#       4
#     8   8   4   8
#     4   8  15  23  37  53  79 113 157 191 225 280
#     4  11  22  35  53  75 101 131 175 225 267 305
#     4  10  16  22  34  56  86 116 160 200 234 280
#     4   9  15  28  42  59  81 117 159 205 221 298
#
# _framework density 20.967417999999999
#
# number of rings (size 3 to 8) (size 9 to 14) (size 15 to 20)
#    0.857    1.714    0.000    4.286    0.000    4.571 
#    0.000    0.000    0.000    0.000    0.000    0.000 
#    0.000    0.000    0.000    0.000    0.000  360.000 
#
# Total GULP energy -77968.666630 kJ/mol
# GULP energy per Si atom -5569.190474 kJ/mol
# Density = 2.091970 g / cm^3
# Si number density = 20.967418 Si / 1000 Ang^3
#
#
#
# Elastic Constant Matrix: (Units=GPa)
#
#
# Indices 1 2 3 4 5 6 
#
# 1 45.1125 -3.3753 -8.9956 0.0000 0.0000 0.0000
# 2 -3.3753 39.2948 -27.2553 0.0000 0.0000 0.0000
# 3 -8.9956 -27.2553 64.2533 0.0000 0.0000 0.0000
# 4 0.0000 0.0000 0.0000 45.8253 0.0000 0.0000
# 5 0.0000 0.0000 0.0000 0.0000 7.8342 0.0000
# 6 0.0000 0.0000 0.0000 0.0000 0.0000 12.7068
#
#
#
# Elastic Compliance Matrix: (Units=1/GPa)
#
#
# Indices 1 2 3 4 5 6 
#
# 1 0.023816 0.006175 0.005954 0.000000 0.000000 0.000000
# 2 0.006175 0.037659 0.016839 0.000000 0.000000 0.000000
# 3 0.005954 0.016839 0.023540 0.000000 0.000000 0.000000
# 4 0.000000 0.000000 0.000000 0.021822 0.000000 0.000000
# 5 0.000000 0.000000 0.000000 0.000000 0.127645 0.000000
# 6 0.000000 0.000000 0.000000 0.000000 0.000000 0.078698
#
#
# Mechanical properties :
#
#
# Convention : Reuss Voigt Hill
#
# Bulk Modulus (GPa) = 6.99542 7.71201 7.35372
# Shear Modulus (GPa) = 16.50743 25.82571 21.16657
#
# Velocity S-wave (km/s) = 2.80891 3.51338 3.18071
# Velocity P-wave (km/s) = 3.72338 4.48826 4.12359
#
# Compressibility (1/GPa) = 0.14295058
#
# Stress axis : x y z
#
# Youngs Moduli (GPa) = 41.98849 26.55427 42.48134
#
# Poissons Ratio (x) = -0.16398 -0.25293
# Poissons Ratio (y) = -0.25929 -0.71534
# Poissons Ratio (z) = -0.24999 -0.44714
#
# Static dielectric constant tensor:
#      x y z
#    x 1.774330 0.000000 0.000000 
#    y 0.000000 1.755640 0.000000 
#    z 0.000000 0.000000 1.745720 
# 
# From -- ./inp_files/176.got.cif
#   From: 2010.05.17/outbox.cif.g08.bks.cpg/sg36_1_cif.got.tgz:176.got - 2010.06.03 17:41:39.
