data_PCOD9350131
_publ_section_title
;
Structure prediction by ZEFSAII (Michael W. Deem and Ramdas Pophale) SiO2 
 PCOD9350131
Probable space group: C M M 2
;
_chemical_formula_sum "Si O2"
_cell_formula_units_Z 64
_cell_length_a 28.945738
_cell_length_b 7.289575
_cell_length_c 13.671033
_cell_angle_alpha 90.000000
_cell_angle_beta 90.000000
_cell_angle_gamma 90.000000
_cell_volume 2884.617056
_symmetry_space_group_name_H-M "C M M 2"
_symmetry_group_IT_number 35
_symmetry_cell_setting 'orthorhombic'
loop_
_space_group_symop_operation_xyz
x,y,z
-x,-y,z
-x,y,z
x,-y,z
1/2+x,1/2+y,z
1/2-x,1/2-y,z
1/2-x,1/2+y,z
1/2+x,1/2-y,z
loop_
_atom_site_type_symbol
_atom_site_label
_atom_site_fract_x
_atom_site_fract_y
_atom_site_fract_z
Si Si1 0.445854 0.722698 0.504570
Si Si2 0.946660 0.224057 0.897162
Si Si3 0.394578 0.276265 0.701905
Si Si4 0.304165 0.718781 0.182716
Si Si5 0.394578 0.723735 0.092419
Si Si6 0.194751 0.217893 0.397162
Si Si7 0.054146 0.777302 0.289755
Si Si8 0.695835 0.281219 0.611608
O O1 0.500000 0.771741 0.510456
O O2 0.443512 0.500000 0.504439
O O3 0.419848 0.782662 0.601933
O O4 0.428024 0.781477 0.397162
O O5 0.920480 0.284411 0.799201
O O6 0.000000 0.280616 0.897162
O O7 0.946501 0.000000 0.897162
O O8 0.920480 0.284411 0.995124
O O9 0.396261 0.500000 0.703745
O O10 0.341157 0.219084 0.691223
O O11 0.308721 0.500000 0.188979
O O12 0.250000 0.750000 0.164684
O O13 0.341157 0.780916 0.103101
O O14 0.318988 0.789819 0.290604
O O15 0.396261 0.500000 0.090580
O O16 0.419848 0.782662 0.192391
O O17 0.250000 0.250000 0.397162
O O18 0.181012 0.289819 0.503721
O O19 0.184479 0.000000 0.397162
O O20 0.000000 0.728259 0.283869
O O21 0.056488 0.000000 0.289885
O O22 0.691279 0.500000 0.605345
O O23 0.750000 0.250000 0.629641
#
# Coordination Sequence:
#
# PCOD9350131 Si02
#       8
#     8   8   8   8   8   8   8   8
#     4   8  13  20  31  50  76 103 130 164 209 258
#     4   9  16  26  39  56  81 111 141 173 210 257
#     4   9  16  24  37  55  78 109 142 172 209 254
#     4   9  17  28  42  61  86 115 146 179 213 252
#     4   9  16  24  37  55  78 109 142 172 209 254
#     4   8  14  24  38  56  79 109 141 173 208 244
#     4   8  13  20  31  50  76 103 130 164 209 258
#     4   9  17  28  42  61  86 115 146 179 213 252
#
# _framework density 22.186654000000001
#
# number of rings (size 3 to 8) (size 9 to 14) (size 15 to 20)
#    0.000    3.375    0.000    1.500    1.750    3.000 
#    0.000    0.625    0.000    0.000    0.000    0.000 
#    0.000    5.000    0.000    2.750    0.000    2.500 
#
# Total GULP energy -178524.592127 kJ/mol
# GULP energy per Si atom -5578.893504 kJ/mol
# Density = 2.213616 g / cm^3
# Si number density = 22.186654 Si / 1000 Ang^3
#
#
#
# Elastic Constant Matrix: (Units=GPa)
#
#
# Indices 1 2 3 4 5 6 
#
# 1 163.3617 0.9706 132.4475 0.0000 0.0000 0.0000
# 2 0.9706 93.4277 5.8910 0.0000 0.0000 0.0000
# 3 132.4475 5.8910 204.3522 0.0000 0.0000 0.0000
# 4 0.0000 0.0000 0.0000 27.1488 0.0000 0.0000
# 5 0.0000 0.0000 0.0000 0.0000 41.1510 0.0000
# 6 0.0000 0.0000 0.0000 0.0000 0.0000 0.9027
#
#
#
# Elastic Compliance Matrix: (Units=1/GPa)
#
#
# Indices 1 2 3 4 5 6 
#
# 1 0.012915 0.000394 -0.008382 0.000000 0.000000 0.000000
# 2 0.000394 0.010735 -0.000565 0.000000 0.000000 0.000000
# 3 -0.008382 -0.000565 0.010342 0.000000 0.000000 0.000000
# 4 0.000000 0.000000 0.000000 0.036834 0.000000 0.000000
# 5 0.000000 0.000000 0.000000 0.000000 0.024301 0.000000
# 6 0.000000 0.000000 0.000000 0.000000 0.000000 1.107732
#
#
# Mechanical properties :
#
#
# Convention : Reuss Voigt Hill
#
# Bulk Modulus (GPa) = 59.21722 82.19553 70.70638
# Shear Modulus (GPa) = 4.07966 35.29601 19.68783
#
# Velocity S-wave (km/s) = 1.35749 3.99289 2.98211
# Velocity P-wave (km/s) = 5.40421 7.64103 6.61781
#
# Compressibility (1/GPa) = 0.01688698
#
# Stress axis : x y z
#
# Youngs Moduli (GPa) = 77.43109 93.15328 96.68992
#
# Poissons Ratio (x) = -0.03673 0.81044
# Poissons Ratio (y) = -0.03053 0.05463
# Poissons Ratio (z) = 0.64901 0.05264
#
# Static dielectric constant tensor:
#      x y z
#    x 1.812110 0.000000 0.000000 
#    y 0.000000 1.932050 0.000000 
#    z 0.000000 0.000000 1.786660 
# 
# From -- ./inp_files/14180.got.cif
#   From: 2010.05.17/outbox.cif.g08.bks.cpg/sg35_8_cif.got.tgz:14180.got - 2010.06.03 17:29:28.
