data_PCOD9350054
_publ_section_title
;
Structure prediction by ZEFSAII (Michael W. Deem and Ramdas Pophale) SiO2 
 PCOD9350054
Probable space group: C M M 2
;
_chemical_formula_sum "Si O2"
_cell_formula_units_Z 32
_cell_length_a 10.857395
_cell_length_b 17.157640
_cell_length_c 9.368735
_cell_angle_alpha 90.000000
_cell_angle_beta 90.000000
_cell_angle_gamma 90.000000
_cell_volume 1745.276111
_symmetry_space_group_name_H-M "C M M 2"
_symmetry_group_IT_number 35
_symmetry_cell_setting 'orthorhombic'
loop_
_space_group_symop_operation_xyz
x,y,z
-x,-y,z
-x,y,z
x,-y,z
1/2+x,1/2+y,z
1/2-x,1/2-y,z
1/2-x,1/2+y,z
1/2+x,1/2-y,z
loop_
_atom_site_type_symbol
_atom_site_label
_atom_site_fract_x
_atom_site_fract_y
_atom_site_fract_z
Si Si1 0.500000 0.905352 0.422251
Si Si2 0.000000 0.594308 0.753889
Si Si3 0.000000 0.910451 0.906601
Si Si4 0.265519 0.095121 0.239621
Si Si5 0.000000 0.090528 0.254173
Si Si6 0.761279 0.342595 0.917835
O O1 0.500000 0.883629 0.587300
O O2 0.621714 0.879836 0.337862
O O3 0.500000 0.000000 0.417862
O O4 0.122716 0.627858 0.827474
O O5 0.000000 0.500000 0.767102
O O6 0.129197 0.873232 0.861546
O O7 0.000000 0.000000 0.863569
O O8 0.000000 0.907172 0.080658
O O9 0.132392 0.123530 0.296984
O O10 0.262490 0.000000 0.233660
O O11 0.280010 0.125151 0.078552
O O12 0.000000 0.000000 0.298638
O O13 0.750000 0.250000 0.922470
#
# Coordination Sequence:
#
# PCOD9350054 Si02
#       6
#     4   4   4   8   4   8
#     4   9  19  33  53  79 108 143 190 231 266 322
#     4  11  22  38  57  81 114 156 194 227 270 333
#     4   9  17  32  51  75 104 138 176 220 272 328
#     4   9  16  31  53  78 105 139 181 230 278 327
#     4   7  12  23  45  71  96 123 160 210 266 313
#     4  11  21  34  56  85 112 141 182 235 285 330
#
# _framework density 18.335208000000002
#
# number of rings (size 3 to 8) (size 9 to 14) (size 15 to 20)
#    0.000    2.500    0.000    5.250    0.000    1.000 
#    0.000    2.500    0.000    4.500    0.000    0.000 
#    0.000    0.000    0.000    0.000    0.000    0.000 
#
# Total GULP energy -89190.016160 kJ/mol
# GULP energy per Si atom -5574.376010 kJ/mol
# Density = 1.829348 g / cm^3
# Si number density = 18.335208 Si / 1000 Ang^3
#
#
#
# Elastic Constant Matrix: (Units=GPa)
#
#
# Indices 1 2 3 4 5 6 
#
# 1 242.4621 50.5832 93.9743 0.0000 0.0000 0.0000
# 2 50.5832 69.8537 20.8654 0.0000 0.0000 0.0000
# 3 93.9743 20.8654 85.9869 0.0000 0.0000 0.0000
# 4 0.0000 0.0000 0.0000 7.7010 0.0000 0.0000
# 5 0.0000 0.0000 0.0000 0.0000 -9.7344 0.0000
# 6 0.0000 0.0000 0.0000 0.0000 0.0000 20.2419
#
#
#
# Elastic Compliance Matrix: (Units=1/GPa)
#
#
# Indices 1 2 3 4 5 6 
#
# 1 0.007822 -0.003354 -0.007735 0.000000 0.000000 0.000000
# 2 -0.003354 0.016872 -0.000429 0.000000 0.000000 0.000000
# 3 -0.007735 -0.000429 0.020187 0.000000 0.000000 0.000000
# 4 0.000000 0.000000 0.000000 0.129852 0.000000 0.000000
# 5 0.000000 0.000000 0.000000 0.000000 -0.102729 0.000000
# 6 0.000000 0.000000 0.000000 0.000000 0.000000 0.049403
#
#
# Mechanical properties :
#
#
# Convention : Reuss Voigt Hill
#
# Bulk Modulus (GPa) = 45.77415 81.01651 63.39533
# Shear Modulus (GPa) = 32.95461 19.16703 26.06082
#
# Velocity S-wave (km/s) = 4.24410 3.23672 3.77417
# Velocity P-wave (km/s) = 7.00257 7.63222 7.32416
#
# Compressibility (1/GPa) = 0.02184639
#
# Stress axis : x y z
#
# Youngs Moduli (GPa) = 127.84777 59.26884 49.53730
#
# Poissons Ratio (x) = 0.19877 0.38315
# Poissons Ratio (y) = 0.42876 0.02125
# Poissons Ratio (z) = 0.98885 0.02543
#
# Static dielectric constant tensor:
#      x y z
#    x 1.714670 0.000000 0.000000 
#    y 0.000000 1.603700 0.000000 
#    z 0.000000 0.000000 1.592770 
# 
# From -- ./inp_files/5720.got.cif
#   From: 2010.05.17/outbox.cif.g08.bks.cpg/sg35_3_cif.got.tgz:5720.got - 2010.06.03 17:29:28.
