data_PCOD9350400
_publ_section_title
;
Structure prediction by ZEFSAII (Michael W. Deem and Ramdas Pophale) SiO2 
 PCOD9350400
Probable space group: C M M 2
;
_chemical_formula_sum "Si O2"
_cell_formula_units_Z 64
_cell_length_a 18.086045
_cell_length_b 14.918508
_cell_length_c 12.330225
_cell_angle_alpha 90.000000
_cell_angle_beta 90.000000
_cell_angle_gamma 90.000000
_cell_volume 3326.901939
_symmetry_space_group_name_H-M "C M M 2"
_symmetry_group_IT_number 35
_symmetry_cell_setting 'orthorhombic'
loop_
_space_group_symop_operation_xyz
x,y,z
-x,-y,z
-x,y,z
x,-y,z
1/2+x,1/2+y,z
1/2-x,1/2-y,z
1/2-x,1/2+y,z
1/2+x,1/2-y,z
loop_
_atom_site_type_symbol
_atom_site_label
_atom_site_fract_x
_atom_site_fract_y
_atom_site_fract_z
Si Si1 0.175942 0.308659 0.005700
Si Si2 0.668577 0.398290 0.290477
Si Si3 0.088899 0.097366 0.823513
Si Si4 0.586763 0.643828 0.066319
Si Si5 0.911301 0.604568 0.577017
Si Si6 0.831949 0.279429 0.757695
Si Si7 0.164146 0.400188 0.218779
Si Si8 0.086994 0.269211 0.371226
O O1 0.250000 0.250000 0.026318
O O2 0.107306 0.246266 0.039735
O O3 0.175880 0.389078 0.090146
O O4 0.173250 0.323968 0.877568
O O5 0.655819 0.500000 0.328328
O O6 0.631275 0.387550 0.171426
O O7 0.755974 0.384577 0.273813
O O8 0.633201 0.322342 0.365837
O O9 0.123556 0.185908 0.771459
O O10 0.000000 0.103699 0.816081
O O11 0.112048 0.000000 0.778457
O O12 0.107715 0.098290 0.952002
O O13 0.500000 0.630586 0.085645
O O14 0.890239 0.500000 0.562787
O O15 0.870274 0.652465 0.676118
O O16 0.895812 0.665446 0.471588
O O17 0.000000 0.607017 0.594488
O O18 0.750000 0.250000 0.723227
O O19 0.138266 0.500000 0.244956
O O20 0.109446 0.326213 0.265655
O O21 0.000000 0.248697 0.371386
#
# Coordination Sequence:
#
# PCOD9350400 Si02
#       8
#     8   8   8   8   8   8   8   8
#     4  10  18  35  54  81 123 160 189 229 285 343
#     4  11  22  35  56  87 121 155 188 228 287 353
#     4   9  18  33  54  81 116 156 192 229 281 345
#     4  10  18  30  51  79 113 154 194 229 269 329
#     4  10  23  45  67  83 107 152 204 248 294 348
#     4  10  22  36  59  91 119 150 192 244 293 341
#     4  11  22  36  58  87 120 160 194 231 289 350
#     4  11  23  41  63  84 112 148 196 253 296 344
#
# _framework density 19.237116
#
# number of rings (size 3 to 8) (size 9 to 14) (size 15 to 20)
#    0.000    1.750    2.500    1.875    0.000    4.750 
#    0.000    0.625    0.000    0.750    0.000    0.000 
#    0.000    0.000    0.000    0.000    0.000    0.000 
#
# Total GULP energy -178604.182508 kJ/mol
# GULP energy per Si atom -5581.380703 kJ/mol
# Density = 1.919333 g / cm^3
# Si number density = 19.237116 Si / 1000 Ang^3
#
#
#
# Elastic Constant Matrix: (Units=GPa)
#
#
# Indices 1 2 3 4 5 6 
#
# 1 18.5726 32.1573 14.1437 0.0000 0.0000 0.0000
# 2 32.1573 132.2232 46.9247 0.0000 0.0000 0.0000
# 3 14.1437 46.9247 69.6632 0.0000 0.0000 0.0000
# 4 0.0000 0.0000 0.0000 20.4746 0.0000 0.0000
# 5 0.0000 0.0000 0.0000 0.0000 20.9252 0.0000
# 6 0.0000 0.0000 0.0000 0.0000 0.0000 20.2356
#
#
#
# Elastic Compliance Matrix: (Units=1/GPa)
#
#
# Indices 1 2 3 4 5 6 
#
# 1 0.094241 -0.021197 -0.004856 0.000000 0.000000 0.000000
# 2 -0.021197 0.014706 -0.005603 0.000000 0.000000 0.000000
# 3 -0.004856 -0.005603 0.019115 0.000000 0.000000 0.000000
# 4 0.000000 0.000000 0.000000 0.048841 0.000000 0.000000
# 5 0.000000 0.000000 0.000000 0.000000 0.047789 0.000000
# 6 0.000000 0.000000 0.000000 0.000000 0.000000 0.049418
#
#
# Mechanical properties :
#
#
# Convention : Reuss Voigt Hill
#
# Bulk Modulus (GPa) = 15.44354 45.21227 30.32791
# Shear Modulus (GPa) = 13.92740 20.80929 17.36835
#
# Velocity S-wave (km/s) = 2.69362 3.29253 3.00802
# Velocity P-wave (km/s) = 4.20946 6.16506 5.27861
#
# Compressibility (1/GPa) = 0.06475197
#
# Stress axis : x y z
#
# Youngs Moduli (GPa) = 10.61107 67.99779 52.31621
#
# Poissons Ratio (x) = 1.44132 0.25404
# Poissons Ratio (y) = 0.22492 0.29311
# Poissons Ratio (z) = 0.05153 0.38096
#
# Static dielectric constant tensor:
#      x y z
#    x 1.659320 0.000000 0.000000 
#    y 0.000000 1.822130 0.000000 
#    z 0.000000 0.000000 1.676810 
# 
# From -- ./inp_files/13592.got.cif
#   From: 2010.05.17/outbox.cif.g08.bks.cpg/sg35_7_cif.got.tgz:13592.got - 2010.06.03 17:29:28.
