data_PCOD9350506
_publ_section_title
;
Structure prediction by ZEFSAII (Michael W. Deem and Ramdas Pophale) SiO2 
 PCOD9350506
Probable space group: C M C 21
;
_chemical_formula_sum "Si O2"
_cell_formula_units_Z 64
_cell_length_a 22.727728
_cell_length_b 9.328106
_cell_length_c 17.391124
_cell_angle_alpha 90.000000
_cell_angle_beta 90.000000
_cell_angle_gamma 90.000000
_cell_volume 3687.034042
_symmetry_space_group_name_H-M "C M C 21"
_symmetry_group_IT_number 36
_symmetry_cell_setting 'orthorhombic'
loop_
_space_group_symop_operation_xyz
x,y,z
-x,-y,1/2+z
x,-y,1/2+z
-x,y,z
1/2+x,1/2+y,z
1/2-x,1/2-y,1/2+z
1/2+x,1/2-y,1/2+z
1/2-x,1/2+y,z
loop_
_atom_site_type_symbol
_atom_site_label
_atom_site_fract_x
_atom_site_fract_y
_atom_site_fract_z
Si Si1 0.767833 0.772126 0.943000
Si Si2 0.568732 0.420714 0.333585
Si Si3 0.677424 0.362023 0.221954
Si Si4 0.855397 0.532139 0.921920
Si Si5 0.346454 0.555853 0.547696
Si Si6 0.067934 0.203787 0.427027
Si Si7 0.732897 0.910735 0.794433
Si Si8 0.632963 0.270999 0.472865
O O1 0.807630 0.635881 0.961197
O O2 0.775338 0.830919 0.856507
O O3 0.700555 0.724867 0.944623
O O4 0.787517 0.898047 0.000482
O O5 0.500000 0.394323 0.314274
O O6 0.617200 0.382389 0.270120
O O7 0.575088 0.586205 0.359762
O O8 0.588396 0.331210 0.409095
O O9 0.662900 0.394459 0.133929
O O10 0.704267 0.204955 0.237736
O O11 0.727390 0.471265 0.253076
O O12 0.907462 0.641655 0.903392
O O13 0.820279 0.474556 0.846932
O O14 0.875965 0.400254 0.975410
O O15 0.395961 0.642090 0.499728
O O16 0.364534 0.387993 0.540892
O O17 0.000000 0.211728 0.446931
#
# Coordination Sequence:
#
# PCOD9350506 Si02
#       8
#     8   8   8   8   8   8   8   8
#     4  10  18  35  56  78 112 153 185 229 286 345
#     4  10  20  37  61  82 109 151 201 238 279 342
#     4  12  23  38  54  91 121 155 187 239 297 348
#     4  10  17  31  59  81 105 141 191 241 284 325
#     4  10  23  34  55  84 118 153 187 232 296 353
#     4   9  20  39  61  82 107 152 203 242 282 342
#     4  11  21  36  56  82 117 150 191 237 290 344
#     4  10  18  34  54  84 109 145 189 238 274 339
#
# _framework density 17.358125999999999
#
# number of rings (size 3 to 8) (size 9 to 14) (size 15 to 20)
#    0.000    1.750    3.750    3.750    1.750    1.000 
#    0.000    0.000    0.000    0.000    0.000    0.000 
#    0.000    0.000    0.000    0.000    0.000    0.000 
#
# Total GULP energy -178177.076889 kJ/mol
# GULP energy per Si atom -5568.033653 kJ/mol
# Density = 1.731862 g / cm^3
# Si number density = 17.358126 Si / 1000 Ang^3
#
#
#
# Elastic Constant Matrix: (Units=GPa)
#
#
# Indices 1 2 3 4 5 6 
#
# 1 87.5614 23.2207 8.2107 0.0000 0.0000 0.0000
# 2 23.2207 95.0792 -6.6936 0.0000 0.0000 0.0000
# 3 8.2107 -6.6936 41.6563 0.0000 0.0000 0.0000
# 4 0.0000 0.0000 0.0000 13.5939 0.0000 0.0000
# 5 0.0000 0.0000 0.0000 0.0000 9.3058 0.0000
# 6 0.0000 0.0000 0.0000 0.0000 0.0000 24.7014
#
#
#
# Elastic Compliance Matrix: (Units=1/GPa)
#
#
# Indices 1 2 3 4 5 6 
#
# 1 0.012573 -0.003282 -0.003006 0.000000 0.000000 0.000000
# 2 -0.003282 0.011495 0.002494 0.000000 0.000000 0.000000
# 3 -0.003006 0.002494 0.024999 0.000000 0.000000 0.000000
# 4 0.000000 0.000000 0.000000 0.073563 0.000000 0.000000
# 5 0.000000 0.000000 0.000000 0.000000 0.107460 0.000000
# 6 0.000000 0.000000 0.000000 0.000000 0.000000 0.040484
#
#
# Mechanical properties :
#
#
# Convention : Reuss Voigt Hill
#
# Bulk Modulus (GPa) = 24.10850 30.41915 27.26383
# Shear Modulus (GPa) = 17.12407 22.82414 19.97410
#
# Velocity S-wave (km/s) = 3.14429 3.63008 3.39589
# Velocity P-wave (km/s) = 5.20587 5.92727 5.57825
#
# Compressibility (1/GPa) = 0.04147915
#
# Stress axis : x y z
#
# Youngs Moduli (GPa) = 79.53674 86.99643 40.00134
#
# Poissons Ratio (x) = 0.28554 0.12023
# Poissons Ratio (y) = 0.26105 -0.09976
# Poissons Ratio (z) = 0.23905 -0.21697
#
# Static dielectric constant tensor:
#      x y z
#    x 1.599630 0.000000 0.000000 
#    y 0.000000 1.661280 0.000000 
#    z 0.000000 0.000000 1.573360 
# 
# From -- ./inp_files/12972.got.cif
#   From: 2010.05.17/outbox.cif.g08.bks.cpg/sg36_7_cif.got.tgz:12972.got - 2010.06.03 17:41:39.
