data_PCOD9350898
_publ_section_title
;
Structure prediction by ZEFSAII (Michael W. Deem and Ramdas Pophale) SiO2 
 PCOD9350898
Probable space group: C M C 21
;
_chemical_formula_sum "Si O2"
_cell_formula_units_Z 48
_cell_length_a 18.100858
_cell_length_b 8.831187
_cell_length_c 15.464020
_cell_angle_alpha 90.000000
_cell_angle_beta 90.000000
_cell_angle_gamma 90.000000
_cell_volume 2471.955482
_symmetry_space_group_name_H-M "C M C 21"
_symmetry_group_IT_number 36
_symmetry_cell_setting 'orthorhombic'
loop_
_space_group_symop_operation_xyz
x,y,z
-x,-y,1/2+z
x,-y,1/2+z
-x,y,z
1/2+x,1/2+y,z
1/2-x,1/2-y,1/2+z
1/2+x,1/2-y,1/2+z
1/2-x,1/2+y,z
loop_
_atom_site_type_symbol
_atom_site_label
_atom_site_fract_x
_atom_site_fract_y
_atom_site_fract_z
Si Si1 0.851278 0.292934 0.858580
Si Si2 0.851919 0.236194 0.045977
Si Si3 0.081769 0.840437 0.194021
Si Si4 0.287533 0.101652 0.797673
Si Si5 0.279405 0.428874 0.109742
Si Si6 0.418331 0.700626 0.225491
O O1 0.904976 0.259747 0.778460
O O2 0.780681 0.182985 0.844065
O O3 0.821542 0.462965 0.849881
O O4 0.884861 0.253767 0.951342
O O5 0.785029 0.354534 0.054903
O O6 0.907289 0.254245 0.126219
O O7 0.813332 0.074877 0.064429
O O8 0.150837 0.819057 0.129794
O O9 0.000000 0.816272 0.157197
O O10 0.086724 0.017745 0.222657
O O11 0.256454 0.041318 0.704758
O O12 0.351404 0.223830 0.777133
O O13 0.500000 0.742323 0.257148
#
# Coordination Sequence:
#
# PCOD9350898 Si02
#       6
#     8   8   8   8   8   8
#     4  11  20  31  51  79 104 127 162 210 252 287
#     4  10  19  31  51  76 101 127 160 207 251 290
#     4   9  18  33  52  73  98 130 168 204 242 294
#     4  10  19  33  52  73  99 133 169 201 241 296
#     4   9  17  32  50  70  96 131 168 197 239 295
#     4   9  19  36  54  71  98 136 169 199 243 298
#
# _framework density 19.417826000000002
#
# number of rings (size 3 to 8) (size 9 to 14) (size 15 to 20)
#    0.000    2.333    0.000    6.000    0.000    1.333 
#    0.000    0.000    0.000    1.000    0.000    0.000 
#    0.000    0.000    0.000    0.000    0.000    0.000 
#
# Total GULP energy -133891.822087 kJ/mol
# GULP energy per Si atom -5578.825920 kJ/mol
# Density = 1.937363 g / cm^3
# Si number density = 19.417826 Si / 1000 Ang^3
#
#
#
# Elastic Constant Matrix: (Units=GPa)
#
#
# Indices 1 2 3 4 5 6 
#
# 1 64.1839 -7.5526 -16.9106 0.0000 0.0000 0.0000
# 2 -7.5526 23.4982 -8.9472 0.0000 0.0000 0.0000
# 3 -16.9106 -8.9472 29.2560 0.0000 0.0000 0.0000
# 4 0.0000 0.0000 0.0000 13.0793 0.0000 0.0000
# 5 0.0000 0.0000 0.0000 0.0000 5.3575 0.0000
# 6 0.0000 0.0000 0.0000 0.0000 0.0000 14.6632
#
#
#
# Elastic Compliance Matrix: (Units=1/GPa)
#
#
# Indices 1 2 3 4 5 6 
#
# 1 0.021454 0.013149 0.016422 0.000000 0.000000 0.000000
# 2 0.013149 0.056224 0.024795 0.000000 0.000000 0.000000
# 3 0.016422 0.024795 0.051256 0.000000 0.000000 0.000000
# 4 0.000000 0.000000 0.000000 0.076456 0.000000 0.000000
# 5 0.000000 0.000000 0.000000 0.000000 0.186655 0.000000
# 6 0.000000 0.000000 0.000000 0.000000 0.000000 0.068198
#
#
# Mechanical properties :
#
#
# Convention : Reuss Voigt Hill
#
# Bulk Modulus (GPa) = 4.20760 5.56857 4.88808
# Shear Modulus (GPa) = 11.60808 16.64323 14.12565
#
# Velocity S-wave (km/s) = 2.44766 2.93082 2.70007
# Velocity P-wave (km/s) = 3.18742 3.78509 3.49904
#
# Compressibility (1/GPa) = 0.23766528
#
# Stress axis : x y z
#
# Youngs Moduli (GPa) = 46.61083 17.78614 19.50979
#
# Poissons Ratio (x) = -0.23386 -0.32039
# Poissons Ratio (y) = -0.61287 -0.48374
# Poissons Ratio (z) = -0.76545 -0.44100
#
# Static dielectric constant tensor:
#      x y z
#    x 1.676010 0.000000 0.000000 
#    y 0.000000 1.691920 0.000000 
#    z 0.000000 0.000000 1.684470 
# 
# From -- ./inp_files/12480.got.cif
#   From: 2010.05.17/outbox.cif.g08.bks.cpg/sg36_7_cif.got.tgz:12480.got - 2010.06.03 17:41:39.
