data_PCOD9350773
_publ_section_title
;
Structure prediction by ZEFSAII (Michael W. Deem and Ramdas Pophale) SiO2 
 PCOD9350773
Probable space group: C M C 21
;
_chemical_formula_sum "Si O2"
_cell_formula_units_Z 52
_cell_length_a 19.157781
_cell_length_b 15.963140
_cell_length_c 8.389394
_cell_angle_alpha 90.000000
_cell_angle_beta 90.000000
_cell_angle_gamma 90.000000
_cell_volume 2565.630548
_symmetry_space_group_name_H-M "C M C 21"
_symmetry_group_IT_number 36
_symmetry_cell_setting 'orthorhombic'
loop_
_space_group_symop_operation_xyz
x,y,z
-x,-y,1/2+z
x,-y,1/2+z
-x,y,z
1/2+x,1/2+y,z
1/2-x,1/2-y,1/2+z
1/2+x,1/2-y,1/2+z
1/2-x,1/2+y,z
loop_
_atom_site_type_symbol
_atom_site_label
_atom_site_fract_x
_atom_site_fract_y
_atom_site_fract_z
Si Si1 0.500000 0.156902 0.900280
Si Si2 0.000000 0.702803 0.536217
Si Si3 0.864059 0.234091 0.858042
Si Si4 0.000000 0.538271 0.313493
Si Si5 0.266748 0.603618 0.000730
Si Si6 0.655217 0.460788 0.801949
Si Si7 0.918791 0.097823 0.608577
Si Si8 0.119388 0.623443 0.121947
O O1 0.500000 0.196123 0.726180
O O2 0.500000 0.055986 0.873928
O O3 0.567302 0.175742 0.008045
O O4 0.929703 0.748587 0.474834
O O5 0.000000 0.610692 0.450101
O O6 0.890754 0.168523 0.726280
O O7 0.850407 0.319272 0.763112
O O8 0.796766 0.192185 0.938907
O O9 0.931163 0.555985 0.206450
O O10 0.300277 0.589023 0.173721
O O11 0.184083 0.594015 0.017377
O O12 0.297112 0.531835 0.885274
O O13 0.596315 0.510582 0.701767
O O14 0.622459 0.406875 0.943089
O O15 0.000000 0.108892 0.579293
#
# Coordination Sequence:
#
# PCOD9350773 Si02
#       8
#     4   4   8   4   8   8   8   8
#     4  11  23  39  65  95 112 154 209 254 313 367
#     4  10  20  40  60  88 125 151 200 253 302 363
#     4  10  22  39  57  85 125 165 194 247 302 360
#     4   9  21  43  63  93 119 153 199 261 311 364
#     4  10  22  41  60  87 125 158 206 246 303 360
#     4   9  21  37  56  91 115 157 205 245 292 358
#     4  10  18  35  60  80 121 155 198 245 293 345
#     4  10  23  40  63  87 124 157 200 252 308 370
#
# _framework density 20.267921999999999
#
# number of rings (size 3 to 8) (size 9 to 14) (size 15 to 20)
#    0.000    2.154    0.769    1.846    2.154    3.692 
#    2.769    0.000    0.000    0.000    0.000    0.000 
#    0.000    0.000    0.000    0.000    0.000    0.000 
#
# Total GULP energy -145197.517660 kJ/mol
# GULP energy per Si atom -5584.519910 kJ/mol
# Density = 2.022179 g / cm^3
# Si number density = 20.267922 Si / 1000 Ang^3
#
#
#
# Elastic Constant Matrix: (Units=GPa)
#
#
# Indices 1 2 3 4 5 6 
#
# 1 84.8168 11.5636 12.2381 0.0000 0.0000 0.0000
# 2 11.5636 43.7834 10.9313 0.0000 0.0000 0.0000
# 3 12.2381 10.9313 103.4883 0.0000 0.0000 0.0000
# 4 0.0000 0.0000 0.0000 29.2284 0.0000 0.0000
# 5 0.0000 0.0000 0.0000 0.0000 14.2448 0.0000
# 6 0.0000 0.0000 0.0000 0.0000 0.0000 6.7984
#
#
#
# Elastic Compliance Matrix: (Units=1/GPa)
#
#
# Indices 1 2 3 4 5 6 
#
# 1 0.012362 -0.002978 -0.001147 0.000000 0.000000 0.000000
# 2 -0.002978 0.024176 -0.002201 0.000000 0.000000 0.000000
# 3 -0.001147 -0.002201 0.010031 0.000000 0.000000 0.000000
# 4 0.000000 0.000000 0.000000 0.034213 0.000000 0.000000
# 5 0.000000 0.000000 0.000000 0.000000 0.070201 0.000000
# 6 0.000000 0.000000 0.000000 0.000000 0.000000 0.147093
#
#
# Mechanical properties :
#
#
# Convention : Reuss Voigt Hill
#
# Bulk Modulus (GPa) = 29.48583 33.50605 31.49594
# Shear Modulus (GPa) = 15.52625 23.21136 19.36880
#
# Velocity S-wave (km/s) = 2.77076 3.38779 3.09469
# Velocity P-wave (km/s) = 4.98154 5.64538 5.32382
#
# Compressibility (1/GPa) = 0.03391460
#
# Stress axis : x y z
#
# Youngs Moduli (GPa) = 80.89491 41.36338 99.68964
#
# Poissons Ratio (x) = 0.12320 0.11437
# Poissons Ratio (y) = 0.24094 0.21946
# Poissons Ratio (z) = 0.09281 0.09106
#
# Static dielectric constant tensor:
#      x y z
#    x 1.698340 0.000000 0.000000 
#    y 0.000000 1.739840 0.000000 
#    z 0.000000 0.000000 1.707170 
# 
# From -- ./inp_files/5197.got.cif
#   From: 2010.05.17/outbox.cif.g08.bks.cpg/sg36_3_cif.got.tgz:5197.got - 2010.06.03 17:41:39.
