data_PCOD9350455
_publ_section_title
;
Structure prediction by ZEFSAII (Michael W. Deem and Ramdas Pophale) SiO2 
 PCOD9350455
Probable space group: C M M 2
;
_chemical_formula_sum "Si O2"
_cell_formula_units_Z 48
_cell_length_a 14.214225
_cell_length_b 14.646438
_cell_length_c 9.869644
_cell_angle_alpha 90.000000
_cell_angle_beta 90.000000
_cell_angle_gamma 90.000000
_cell_volume 2054.739127
_symmetry_space_group_name_H-M "C M M 2"
_symmetry_group_IT_number 35
_symmetry_cell_setting 'orthorhombic'
loop_
_space_group_symop_operation_xyz
x,y,z
-x,-y,z
-x,y,z
x,-y,z
1/2+x,1/2+y,z
1/2-x,1/2-y,z
1/2-x,1/2+y,z
1/2+x,1/2-y,z
loop_
_atom_site_type_symbol
_atom_site_label
_atom_site_fract_x
_atom_site_fract_y
_atom_site_fract_z
Si Si1 0.500000 0.111919 0.923290
Si Si2 0.312412 0.396735 0.318631
Si Si3 0.000000 0.650397 0.605284
Si Si4 0.714025 0.856541 0.590285
Si Si5 0.308597 0.111697 0.074946
Si Si6 0.000000 0.893908 0.693076
Si Si7 0.500000 0.676383 0.406831
Si Si8 0.821884 0.895151 0.847667
O O1 0.500000 0.151084 0.770050
O O2 0.500000 0.000000 0.910101
O O3 0.407484 0.140277 0.009497
O O4 0.338527 0.500000 0.276112
O O5 0.275724 0.398764 0.471691
O O6 0.225177 0.364697 0.225950
O O7 0.405989 0.335664 0.319896
O O8 0.105092 0.617071 0.569644
O O9 0.000000 0.738341 0.507505
O O10 0.750000 0.750000 0.589107
O O11 0.739902 0.893489 0.737201
O O12 0.312437 0.000000 0.069477
O O13 0.221845 0.145631 0.982089
O O14 0.000000 0.895757 0.530840
O O15 0.091100 0.852160 0.766533
O O16 0.000000 0.000000 0.727700
O O17 0.844911 0.000000 0.881279
#
# Coordination Sequence:
#
# PCOD9350455 Si02
#       8
#     4   8   4   8   8   4   4   8
#     4  10  20  39  68 100 135 176 221 275 336 404
#     4  11  23  40  65  95 129 172 219 272 334 398
#     4  12  24  39  68  96 130 171 214 267 335 392
#     4  12  23  39  62  91 130 167 215 269 326 390
#     4   9  20  37  60  91 128 166 212 270 331 391
#     4  10  18  31  58  88 122 160 209 268 316 375
#     4  12  22  39  64  92 133 171 220 264 329 395
#     4  10  19  35  60  91 122 162 215 269 321 382
#
# _framework density 23.360631000000001
#
# number of rings (size 3 to 8) (size 9 to 14) (size 15 to 20)
#    0.000    1.333    5.000    1.250    0.000    2.000 
#    0.000    4.167    0.000    0.000    0.000    0.000 
#    0.000    0.000    0.000    0.000    0.000    0.000 
#
# Total GULP energy -133817.589809 kJ/mol
# GULP energy per Si atom -5575.732909 kJ/mol
# Density = 2.330746 g / cm^3
# Si number density = 23.360631 Si / 1000 Ang^3
#
#
#
# Elastic Constant Matrix: (Units=GPa)
#
#
# Indices 1 2 3 4 5 6 
#
# 1 137.2203 4.8783 1.3222 0.0000 0.0000 0.0000
# 2 4.8783 52.6739 -0.5019 0.0000 0.0000 0.0000
# 3 1.3222 -0.5019 62.6414 0.0000 0.0000 0.0000
# 4 0.0000 0.0000 0.0000 41.1495 0.0000 0.0000
# 5 0.0000 0.0000 0.0000 0.0000 38.5561 0.0000
# 6 0.0000 0.0000 0.0000 0.0000 0.0000 45.2670
#
#
#
# Elastic Compliance Matrix: (Units=1/GPa)
#
#
# Indices 1 2 3 4 5 6 
#
# 1 0.007313 -0.000679 -0.000160 0.000000 0.000000 0.000000
# 2 -0.000679 0.019049 0.000167 0.000000 0.000000 0.000000
# 3 -0.000160 0.000167 0.015969 0.000000 0.000000 0.000000
# 4 0.000000 0.000000 0.000000 0.024302 0.000000 0.000000
# 5 0.000000 0.000000 0.000000 0.000000 0.025936 0.000000
# 6 0.000000 0.000000 0.000000 0.000000 0.000000 0.022091
#
#
# Mechanical properties :
#
#
# Convention : Reuss Voigt Hill
#
# Bulk Modulus (GPa) = 24.39757 29.32587 26.86172
# Shear Modulus (GPa) = 38.56064 41.45032 40.00548
#
# Velocity S-wave (km/s) = 4.06725 4.21689 4.14275
# Velocity P-wave (km/s) = 5.70291 6.02415 5.86573
#
# Compressibility (1/GPa) = 0.04098768
#
# Stress axis : x y z
#
# Youngs Moduli (GPa) = 136.73862 52.49567 62.62289
#
# Poissons Ratio (x) = 0.03564 0.01001
# Poissons Ratio (y) = 0.09282 -0.01046
# Poissons Ratio (z) = 0.02185 -0.00876
#
# Static dielectric constant tensor:
#      x y z
#    x 1.912810 0.000000 0.000000 
#    y 0.000000 1.791400 0.000000 
#    z 0.000000 0.000000 1.803680 
# 
# From -- ./inp_files/7382.got.cif
#   From: 2010.05.17/outbox.cif.g08.bks.cpg/sg35_4_cif.got.tgz:7382.got - 2010.06.03 17:29:28.
