data_PCOD9350676
_publ_section_title
;
Structure prediction by ZEFSAII (Michael W. Deem and Ramdas Pophale) SiO2 
 PCOD9350676
Probable space group: C M C 21
;
_chemical_formula_sum "Si O2"
_cell_formula_units_Z 64
_cell_length_a 8.451206
_cell_length_b 21.107831
_cell_length_c 19.965882
_cell_angle_alpha 90.000000
_cell_angle_beta 90.000000
_cell_angle_gamma 90.000000
_cell_volume 3561.646365
_symmetry_space_group_name_H-M "C M C 21"
_symmetry_group_IT_number 36
_symmetry_cell_setting 'orthorhombic'
loop_
_space_group_symop_operation_xyz
x,y,z
-x,-y,1/2+z
x,-y,1/2+z
-x,y,z
1/2+x,1/2+y,z
1/2-x,1/2-y,1/2+z
1/2+x,1/2-y,1/2+z
1/2-x,1/2+y,z
loop_
_atom_site_type_symbol
_atom_site_label
_atom_site_fract_x
_atom_site_fract_y
_atom_site_fract_z
Si Si1 0.807377 0.509030 0.543880
Si Si2 0.691259 0.063790 0.829646
Si Si3 0.191371 0.493789 0.193123
Si Si4 0.810827 0.362085 0.544657
Si Si5 0.812079 0.137210 0.191809
Si Si6 0.691731 0.811356 0.827761
Si Si7 0.811347 0.186406 0.907021
Si Si8 0.692525 0.935455 0.907833
O O1 0.756074 0.526134 0.618873
O O2 0.760858 0.435618 0.531816
O O3 0.752859 0.553985 0.484027
O O4 0.000000 0.509879 0.543079
O O5 0.500000 0.069522 0.832763
O O6 0.740828 0.052205 0.752918
O O7 0.763500 0.124248 0.865410
O O8 0.734883 0.999213 0.868157
O O9 0.247641 0.565834 0.204374
O O10 0.000000 0.496038 0.193935
O O11 0.745187 0.343657 0.617507
O O12 0.756484 0.320787 0.481821
O O13 0.000000 0.361859 0.548307
O O14 0.750741 0.181011 0.251933
O O15 0.000000 0.135605 0.192607
O O16 0.500000 0.811952 0.826136
O O17 0.743991 0.748229 0.866338
O O18 0.747031 0.872911 0.869697
O O19 0.000000 0.189767 0.912512
O O20 0.500000 0.932627 0.908392
#
# Coordination Sequence:
#
# PCOD9350676 Si02
#       8
#     8   8   8   8   8   8   8   8
#     4   8  14  26  50  80 100 127 176 232 270 308
#     4  10  18  32  55  79 105 144 190 231 270 329
#     4   9  17  31  52  78 109 144 186 227 277 339
#     4  10  19  35  58  80 107 145 186 223 272 340
#     4  11  21  33  54  84 112 139 182 236 280 323
#     4  10  21  38  56  76 111 155 189 225 275 335
#     4  11  23  36  53  82 117 148 184 233 283 325
#     4   9  15  29  54  79 101 134 189 231 261 319
#
# _framework density 17.969218999999999
#
# number of rings (size 3 to 8) (size 9 to 14) (size 15 to 20)
#    0.000    2.250    2.500    2.625    0.000    1.500 
#    0.000    1.250    0.000    3.000    0.000    0.000 
#    0.000    0.000    0.000    0.000    0.000    0.000 
#
# Total GULP energy -178492.279300 kJ/mol
# GULP energy per Si atom -5577.883728 kJ/mol
# Density = 1.792832 g / cm^3
# Si number density = 17.969219 Si / 1000 Ang^3
#
#
#
# Elastic Constant Matrix: (Units=GPa)
#
#
# Indices 1 2 3 4 5 6 
#
# 1 21.4082 17.5189 27.9910 0.0000 0.0000 0.0000
# 2 17.5189 98.6963 74.2718 0.0000 0.0000 0.0000
# 3 27.9910 74.2718 178.3967 0.0000 0.0000 0.0000
# 4 0.0000 0.0000 0.0000 29.3441 0.0000 0.0000
# 5 0.0000 0.0000 0.0000 0.0000 21.6737 0.0000
# 6 0.0000 0.0000 0.0000 0.0000 0.0000 16.4147
#
#
#
# Elastic Compliance Matrix: (Units=1/GPa)
#
#
# Indices 1 2 3 4 5 6 
#
# 1 0.060574 -0.005242 -0.007322 0.000000 0.000000 0.000000
# 2 -0.005242 0.015208 -0.005509 0.000000 0.000000 0.000000
# 3 -0.007322 -0.005509 0.009048 0.000000 0.000000 0.000000
# 4 0.000000 0.000000 0.000000 0.034078 0.000000 0.000000
# 5 0.000000 0.000000 0.000000 0.000000 0.046139 0.000000
# 6 0.000000 0.000000 0.000000 0.000000 0.000000 0.060921
#
#
# Mechanical properties :
#
#
# Convention : Reuss Voigt Hill
#
# Bulk Modulus (GPa) = 20.54058 59.78497 40.16277
# Shear Modulus (GPa) = 17.96342 25.40113 21.68227
#
# Velocity S-wave (km/s) = 3.16520 3.76385 3.47743
# Velocity P-wave (km/s) = 4.98134 7.22716 6.20667
#
# Compressibility (1/GPa) = 0.04868413
#
# Stress axis : x y z
#
# Youngs Moduli (GPa) = 16.50867 65.75295 110.52245
#
# Poissons Ratio (x) = 0.34470 0.80922
# Poissons Ratio (y) = 0.08654 0.60889
# Poissons Ratio (z) = 0.12087 0.36225
#
# Static dielectric constant tensor:
#      x y z
#    x 1.616430 0.000000 0.000000 
#    y 0.000000 1.589160 0.000000 
#    z 0.000000 0.000000 1.640610 
# 
# From -- ./inp_files/15781.got.cif
#   From: 2010.05.17/outbox.cif.g08.bks.cpg/sg36_8_cif.got.tgz:15781.got - 2010.06.03 17:41:39.
