data_PCOD9350556
_publ_section_title
;
Structure prediction by ZEFSAII (Michael W. Deem and Ramdas Pophale) SiO2 
 PCOD9350556
Probable space group: C M C 21
;
_chemical_formula_sum "Si O2"
_cell_formula_units_Z 64
_cell_length_a 7.489748
_cell_length_b 24.034151
_cell_length_c 16.409710
_cell_angle_alpha 90.000000
_cell_angle_beta 90.000000
_cell_angle_gamma 90.000000
_cell_volume 2953.907538
_symmetry_space_group_name_H-M "C M C 21"
_symmetry_group_IT_number 36
_symmetry_cell_setting 'orthorhombic'
loop_
_space_group_symop_operation_xyz
x,y,z
-x,-y,1/2+z
x,-y,1/2+z
-x,y,z
1/2+x,1/2+y,z
1/2-x,1/2-y,1/2+z
1/2+x,1/2-y,1/2+z
1/2-x,1/2+y,z
loop_
_atom_site_type_symbol
_atom_site_label
_atom_site_fract_x
_atom_site_fract_y
_atom_site_fract_z
Si Si1 0.785281 0.594780 0.662190
Si Si2 0.784551 0.638386 0.832958
Si Si3 0.291176 0.970832 0.703251
Si Si4 0.698198 0.128023 0.102777
Si Si5 0.216461 0.941856 0.886266
Si Si6 0.713057 0.343840 0.991801
Si Si7 0.219331 0.717569 0.980290
Si Si8 0.792673 0.050145 0.962641
O O1 0.724114 0.632486 0.739449
O O2 0.718783 0.530698 0.673221
O O3 0.743272 0.624357 0.577035
O O4 0.000000 0.591359 0.668456
O O5 0.725361 0.687048 0.895736
O O6 0.726071 0.581460 0.876829
O O7 0.000000 0.640783 0.832397
O O8 0.500000 0.970115 0.679041
O O9 0.211513 0.913297 0.667245
O O10 0.281133 0.963253 0.799738
O O11 0.500000 0.143885 0.133018
O O12 0.780564 0.181940 0.059230
O O13 0.686294 0.086598 0.025829
O O14 0.279362 0.882417 0.917870
O O15 0.000000 0.942588 0.883251
O O16 0.270325 0.987575 0.953181
O O17 0.500000 0.339941 0.981952
O O18 0.780200 0.280879 0.987813
O O19 0.000000 0.715527 0.981863
O O20 0.000000 0.050731 0.987011
#
# Coordination Sequence:
#
# PCOD9350556 Si02
#       8
#     8   8   8   8   8   8   8   8
#     4  10  20  34  54  82 108 132 173 223 269 313
#     4   9  17  33  56  77 101 136 176 216 257 308
#     4  10  20  34  54  80 106 133 172 216 264 318
#     4   9  18  33  54  77 100 133 174 215 256 307
#     4  10  21  34  49  74 108 139 169 208 259 317
#     4  10  21  37  54  74 105 146 181 211 259 317
#     4   8  16  34  56  73  97 138 181 211 249 311
#     4  10  18  29  49  77 105 131 164 208 259 311
#
# _framework density 21.666215999999999
#
# number of rings (size 3 to 8) (size 9 to 14) (size 15 to 20)
#    0.000    2.500    1.250    1.875    0.000    2.500 
#    2.250    2.500    0.000    0.000    0.000    0.000 
#    0.000    0.000    0.000    0.000    0.000    0.000 
#
# Total GULP energy -178409.473602 kJ/mol
# GULP energy per Si atom -5575.296050 kJ/mol
# Density = 2.161690 g / cm^3
# Si number density = 21.666216 Si / 1000 Ang^3
#
#
#
# Elastic Constant Matrix: (Units=GPa)
#
#
# Indices 1 2 3 4 5 6 
#
# 1 58.0637 7.7988 -1.7247 0.0000 0.0000 0.0000
# 2 7.7988 184.3521 47.4602 0.0000 0.0000 0.0000
# 3 -1.7247 47.4602 61.4034 0.0000 0.0000 0.0000
# 4 0.0000 0.0000 0.0000 29.3212 0.0000 0.0000
# 5 0.0000 0.0000 0.0000 0.0000 14.1541 0.0000
# 6 0.0000 0.0000 0.0000 0.0000 0.0000 12.9449
#
#
#
# Elastic Compliance Matrix: (Units=1/GPa)
#
#
# Indices 1 2 3 4 5 6 
#
# 1 0.017406 -0.001076 0.001321 0.000000 0.000000 0.000000
# 2 -0.001076 0.006838 -0.005316 0.000000 0.000000 0.000000
# 3 0.001321 -0.005316 0.020432 0.000000 0.000000 0.000000
# 4 0.000000 0.000000 0.000000 0.034105 0.000000 0.000000
# 5 0.000000 0.000000 0.000000 0.000000 0.070651 0.000000
# 6 0.000000 0.000000 0.000000 0.000000 0.000000 0.077250
#
#
# Mechanical properties :
#
#
# Convention : Reuss Voigt Hill
#
# Bulk Modulus (GPa) = 28.95732 45.65421 37.30577
# Shear Modulus (GPa) = 20.13398 27.96971 24.05185
#
# Velocity S-wave (km/s) = 3.05172 3.59686 3.33544
# Velocity P-wave (km/s) = 5.08050 6.19413 5.66475
#
# Compressibility (1/GPa) = 0.03453358
#
# Stress axis : x y z
#
# Youngs Moduli (GPa) = 57.45051 146.23161 48.94383
#
# Poissons Ratio (x) = 0.15740 -0.06465
# Poissons Ratio (y) = 0.06184 0.26018
# Poissons Ratio (z) = -0.07588 0.77735
#
# Static dielectric constant tensor:
#      x y z
#    x 1.813990 0.000000 0.000000 
#    y 0.000000 1.806550 0.000000 
#    z 0.000000 0.000000 1.828180 
# 
# From -- ./inp_files/14099.got.cif
#   From: 2010.05.17/outbox.cif.g08.bks.cpg/sg36_8_cif.got.tgz:14099.got - 2010.06.03 17:41:39.
