data_PCOD9350794
_publ_section_title
;
Structure prediction by ZEFSAII (Michael W. Deem and Ramdas Pophale) SiO2 
 PCOD9350794
Probable space group: C M C 21
;
_chemical_formula_sum "Si O2"
_cell_formula_units_Z 64
_cell_length_a 16.851101
_cell_length_b 11.595655
_cell_length_c 13.910153
_cell_angle_alpha 90.000000
_cell_angle_beta 90.000000
_cell_angle_gamma 90.000000
_cell_volume 2718.037686
_symmetry_space_group_name_H-M "C M C 21"
_symmetry_group_IT_number 36
_symmetry_cell_setting 'orthorhombic'
loop_
_space_group_symop_operation_xyz
x,y,z
-x,-y,1/2+z
x,-y,1/2+z
-x,y,z
1/2+x,1/2+y,z
1/2-x,1/2-y,1/2+z
1/2+x,1/2-y,1/2+z
1/2-x,1/2+y,z
loop_
_atom_site_type_symbol
_atom_site_label
_atom_site_fract_x
_atom_site_fract_y
_atom_site_fract_z
Si Si1 0.910361 0.552650 0.457850
Si Si2 0.591472 0.563240 0.533617
Si Si3 0.350261 0.947586 0.754754
Si Si4 0.316869 0.483314 0.357965
Si Si5 0.093885 0.183490 0.256648
Si Si6 0.169151 0.336110 0.117453
Si Si7 0.158777 0.814138 0.201138
Si Si8 0.093838 0.310605 0.436041
O O1 0.911125 0.553459 0.343076
O O2 0.854268 0.644198 0.508095
O O3 0.873733 0.426339 0.481034
O O4 0.000000 0.567486 0.495715
O O5 0.500000 0.523829 0.516216
O O6 0.656982 0.493215 0.470330
O O7 0.603180 0.592683 0.646127
O O8 0.600347 0.694068 0.494051
O O9 0.266499 0.968072 0.813509
O O10 0.358200 0.821908 0.705923
O O11 0.360744 0.050769 0.677834
O O12 0.380153 0.567089 0.306415
O O13 0.327525 0.358557 0.309898
O O14 0.130160 0.218688 0.156045
O O15 0.126099 0.281346 0.330899
O O16 0.000000 0.190329 0.252183
O O17 0.260819 0.328108 0.140631
O O18 0.000000 0.334167 0.426104
#
# Coordination Sequence:
#
# PCOD9350794 Si02
#       8
#     8   8   8   8   8   8   8   8
#     4  11  22  36  59  95 128 161 204 258 319 371
#     4  10  21  39  64  90 120 170 220 254 300 372
#     4  11  23  41  64  91 131 166 202 261 323 376
#     4  10  22  41  63  91 121 165 214 257 310 372
#     4  10  18  36  63  86 117 161 209 254 298 362
#     4  11  22  39  62  93 125 163 207 255 316 380
#     4  11  24  42  62  91 129 166 211 258 319 378
#     4   8  16  32  57  87 116 152 199 247 300 363
#
# _framework density 23.546400999999999
#
# number of rings (size 3 to 8) (size 9 to 14) (size 15 to 20)
#    0.000    1.750    2.500    3.000    0.000    2.000 
#    2.250    2.500    0.000    0.000    0.000    0.000 
#    0.000    0.000    0.000    0.000    0.000    0.000 
#
# Total GULP energy -178491.355996 kJ/mol
# GULP energy per Si atom -5577.854875 kJ/mol
# Density = 2.349281 g / cm^3
# Si number density = 23.546401 Si / 1000 Ang^3
#
#
#
# Elastic Constant Matrix: (Units=GPa)
#
#
# Indices 1 2 3 4 5 6 
#
# 1 64.3585 -14.5101 5.6103 0.0000 0.0000 0.0000
# 2 -14.5101 37.1171 12.9543 0.0000 0.0000 0.0000
# 3 5.6103 12.9543 73.6231 0.0000 0.0000 0.0000
# 4 0.0000 0.0000 0.0000 39.0081 0.0000 0.0000
# 5 0.0000 0.0000 0.0000 0.0000 23.3573 0.0000
# 6 0.0000 0.0000 0.0000 0.0000 0.0000 16.6051
#
#
#
# Elastic Compliance Matrix: (Units=1/GPa)
#
#
# Indices 1 2 3 4 5 6 
#
# 1 0.017532 0.007799 -0.002708 0.000000 0.000000 0.000000
# 2 0.007799 0.032174 -0.006255 0.000000 0.000000 0.000000
# 3 -0.002708 -0.006255 0.014890 0.000000 0.000000 0.000000
# 4 0.000000 0.000000 0.000000 0.025636 0.000000 0.000000
# 5 0.000000 0.000000 0.000000 0.000000 0.042813 0.000000
# 6 0.000000 0.000000 0.000000 0.000000 0.000000 0.060223
#
#
# Mechanical properties :
#
#
# Convention : Reuss Voigt Hill
#
# Bulk Modulus (GPa) = 16.05991 20.35640 18.20816
# Shear Modulus (GPa) = 23.11043 27.19703 25.15373
#
# Velocity S-wave (km/s) = 3.13626 3.40227 3.27197
# Velocity P-wave (km/s) = 4.46657 4.90897 4.69298
#
# Compressibility (1/GPa) = 0.06226684
#
# Stress axis : x y z
#
# Youngs Moduli (GPa) = 57.03719 31.08107 67.16025
#
# Poissons Ratio (x) = -0.24241 0.18189
# Poissons Ratio (y) = -0.44484 0.42012
# Poissons Ratio (z) = 0.15447 0.19443
#
# Static dielectric constant tensor:
#      x y z
#    x 1.875530 0.000000 0.000000 
#    y 0.000000 1.892910 0.000000 
#    z 0.000000 0.000000 2.011730 
# 
# From -- ./inp_files/12628.got.cif
#   From: 2010.05.17/outbox.cif.g08.bks.cpg/sg36_7_cif.got.tgz:12628.got - 2010.06.03 17:41:39.
