data_PCOD9350910
_publ_section_title
;
Structure prediction by ZEFSAII (Michael W. Deem and Ramdas Pophale) SiO2 
 PCOD9350910
Probable space group: C M C 21
;
_chemical_formula_sum "Si O2"
_cell_formula_units_Z 64
_cell_length_a 8.999378
_cell_length_b 28.828341
_cell_length_c 14.324863
_cell_angle_alpha 90.000000
_cell_angle_beta 90.000000
_cell_angle_gamma 90.000000
_cell_volume 3716.401456
_symmetry_space_group_name_H-M "C M C 21"
_symmetry_group_IT_number 36
_symmetry_cell_setting 'orthorhombic'
loop_
_space_group_symop_operation_xyz
x,y,z
-x,-y,1/2+z
x,-y,1/2+z
-x,y,z
1/2+x,1/2+y,z
1/2-x,1/2-y,1/2+z
1/2+x,1/2-y,1/2+z
1/2-x,1/2+y,z
loop_
_atom_site_type_symbol
_atom_site_label
_atom_site_fract_x
_atom_site_fract_y
_atom_site_fract_z
Si Si1 0.822850 0.323415 0.037530
Si Si2 0.322610 0.266000 0.876612
Si Si3 0.826737 0.090490 0.899989
Si Si4 0.176340 0.675331 0.999287
Si Si5 0.321845 0.733771 0.159205
Si Si6 0.826740 0.987466 0.884061
Si Si7 0.178290 0.076913 0.551355
Si Si8 0.676265 0.956746 0.235674
O O1 0.786944 0.284018 0.114518
O O2 0.740997 0.371361 0.056760
O O3 0.000000 0.330285 0.036910
O O4 0.766577 0.302198 0.939777
O O5 0.500000 0.275005 0.885281
O O6 0.282129 0.267887 0.767966
O O7 0.295489 0.215303 0.921442
O O8 0.739406 0.084834 0.801843
O O9 0.000000 0.100869 0.883356
O O10 0.817835 0.037388 0.937371
O O11 0.754321 0.128491 0.965577
O O12 0.241367 0.695766 0.095274
O O13 0.000000 0.668733 0.006610
O O14 0.500000 0.727436 0.151021
O O15 0.000000 0.981340 0.857911
O O16 0.729902 0.997648 0.792395
O O17 0.780356 0.946862 0.952840
O O18 0.248229 0.048008 0.635947
O O19 0.000000 0.076505 0.558246
O O20 0.500000 0.954360 0.229574
#
# Coordination Sequence:
#
# PCOD9350910 Si02
#       8
#     8   8   8   8   8   8   8   8
#     4  10  21  35  54  84 113 142 184 234 280 322
#     4   9  19  36  54  74 107 147 183 221 275 333
#     4   9  18  35  54  77 105 138 176 217 266 323
#     4  10  19  31  52  81 107 137 178 229 275 320
#     4   9  19  35  53  74 106 147 184 223 274 334
#     4   8  19  37  55  77 107 142 180 222 269 327
#     4  11  21  37  59  82 112 150 187 225 273 334
#     4  10  20  34  55  83 111 137 176 227 274 319
#
# _framework density 17.220960000000002
#
# number of rings (size 3 to 8) (size 9 to 14) (size 15 to 20)
#    0.750    1.750    0.000    2.250    1.750    2.500 
#    0.000    1.250    0.000    3.000    0.000    0.000 
#    0.000    0.000    0.000    0.000    0.000    0.000 
#
# Total GULP energy -178274.952046 kJ/mol
# GULP energy per Si atom -5571.092251 kJ/mol
# Density = 1.718176 g / cm^3
# Si number density = 17.220960 Si / 1000 Ang^3
#
#
#
# Elastic Constant Matrix: (Units=GPa)
#
#
# Indices 1 2 3 4 5 6 
#
# 1 57.3564 14.1479 28.2144 0.0000 0.0000 0.0000
# 2 14.1479 14.1090 -0.0636 0.0000 0.0000 0.0000
# 3 28.2144 -0.0636 84.5113 0.0000 0.0000 0.0000
# 4 0.0000 0.0000 0.0000 13.9791 0.0000 0.0000
# 5 0.0000 0.0000 0.0000 0.0000 25.0945 0.0000
# 6 0.0000 0.0000 0.0000 0.0000 0.0000 26.0205
#
#
#
# Elastic Compliance Matrix: (Units=1/GPa)
#
#
# Indices 1 2 3 4 5 6 
#
# 1 0.029667 -0.029794 -0.009927 0.000000 0.000000 0.000000
# 2 -0.029794 0.100797 0.010023 0.000000 0.000000 0.000000
# 3 -0.009927 0.010023 0.015154 0.000000 0.000000 0.000000
# 4 0.000000 0.000000 0.000000 0.071536 0.000000 0.000000
# 5 0.000000 0.000000 0.000000 0.000000 0.039849 0.000000
# 6 0.000000 0.000000 0.000000 0.000000 0.000000 0.038431
#
#
# Mechanical properties :
#
#
# Convention : Reuss Voigt Hill
#
# Bulk Modulus (GPa) = 11.59783 26.73049 19.16416
# Shear Modulus (GPa) = 13.03536 20.59736 16.81636
#
# Velocity S-wave (km/s) = 2.75425 3.46217 3.12830
# Velocity P-wave (km/s) = 4.10657 5.61586 4.91944
#
# Compressibility (1/GPa) = 0.08622299
#
# Stress axis : x y z
#
# Youngs Moduli (GPa) = 33.70733 9.92088 65.98737
#
# Poissons Ratio (x) = 0.29558 0.65505
# Poissons Ratio (y) = 1.00426 -0.66136
# Poissons Ratio (z) = 0.33461 -0.09943
#
# Static dielectric constant tensor:
#      x y z
#    x 1.571360 0.000000 0.000000 
#    y 0.000000 1.576410 0.000000 
#    z 0.000000 0.000000 1.571210 
# 
# From -- ./inp_files/11044.got.cif
#   From: 2010.05.17/outbox.cif.g08.bks.cpg/sg36_6_cif.got.tgz:11044.got - 2010.06.03 17:41:39.
