data_PCOD9350005
_publ_section_title
;
Structure prediction by ZEFSAII (Michael W. Deem and Ramdas Pophale) SiO2 
 PCOD9350005
Probable space group: C M M 2
;
_chemical_formula_sum "Si O2"
_cell_formula_units_Z 26
_cell_length_a 7.870941
_cell_length_b 21.325161
_cell_length_c 7.087209
_cell_angle_alpha 90.000000
_cell_angle_beta 90.000000
_cell_angle_gamma 90.000000
_cell_volume 1189.581539
_symmetry_space_group_name_H-M "C M M 2"
_symmetry_group_IT_number 35
_symmetry_cell_setting 'orthorhombic'
loop_
_space_group_symop_operation_xyz
x,y,z
-x,-y,z
-x,y,z
x,-y,z
1/2+x,1/2+y,z
1/2-x,1/2-y,z
1/2-x,1/2+y,z
1/2+x,1/2-y,z
loop_
_atom_site_type_symbol
_atom_site_label
_atom_site_fract_x
_atom_site_fract_y
_atom_site_fract_z
Si Si1 0.695686 0.181830 0.288970
Si Si2 0.000000 0.500000 0.120148
Si Si3 0.806130 0.908649 0.009292
Si Si4 0.702009 0.429298 0.564539
O O1 0.500000 0.185642 0.241114
O O2 0.750000 0.250000 0.359373
O O3 0.725051 0.127310 0.443237
O O4 0.794716 0.159795 0.101788
O O5 0.847412 0.553317 0.104146
O O6 0.775340 0.915237 0.786129
O O7 0.000000 0.931135 0.044010
O O8 0.500000 0.431335 0.527953
O O9 0.771989 0.500000 0.525818
#
# Coordination Sequence:
#
# PCOD9350005 Si02
#       4
#     8   2   8   8
#     4  12  27  45  67  96 135 183 228 276 335 403
#     4  12  22  40  70 110 132 174 224 264 346 402
#     4  11  24  44  69 101 141 173 221 279 333 398
#     4  10  23  42  69 101 134 173 216 277 340 392
#
# _framework density 21.856422999999999
#
# number of rings (size 3 to 8) (size 9 to 14) (size 15 to 20)
#    0.000    0.923    3.077    3.231    4.308    1.846 
#    0.000    0.000    0.000    0.000    0.000    0.000 
#    0.000    0.000    0.000    0.000    0.000    0.000 
#
# Total GULP energy -72390.845284 kJ/mol
# GULP energy per Si atom -5568.526560 kJ/mol
# Density = 2.180668 g / cm^3
# Si number density = 21.856423 Si / 1000 Ang^3
#
#
#
# Elastic Constant Matrix: (Units=GPa)
#
#
# Indices 1 2 3 4 5 6 
#
# 1 137.7376 45.9002 18.9606 0.0000 0.0000 0.0000
# 2 45.9002 173.2194 67.3946 0.0000 0.0000 0.0000
# 3 18.9606 67.3946 94.1917 0.0000 0.0000 0.0000
# 4 0.0000 0.0000 0.0000 25.4029 0.0000 0.0000
# 5 0.0000 0.0000 0.0000 0.0000 30.7202 0.0000
# 6 0.0000 0.0000 0.0000 0.0000 0.0000 32.3877
#
#
#
# Elastic Compliance Matrix: (Units=1/GPa)
#
#
# Indices 1 2 3 4 5 6 
#
# 1 0.007965 -0.002060 -0.000129 0.000000 0.000000 0.000000
# 2 -0.002060 0.008533 -0.005691 0.000000 0.000000 0.000000
# 3 -0.000129 -0.005691 0.014714 0.000000 0.000000 0.000000
# 4 0.000000 0.000000 0.000000 0.039366 0.000000 0.000000
# 5 0.000000 0.000000 0.000000 0.000000 0.032552 0.000000
# 6 0.000000 0.000000 0.000000 0.000000 0.000000 0.030876
#
#
# Mechanical properties :
#
#
# Convention : Reuss Voigt Hill
#
# Bulk Modulus (GPa) = 64.71747 74.40663 69.56205
# Shear Modulus (GPa) = 32.27556 35.89505 34.08531
#
# Velocity S-wave (km/s) = 3.84697 4.05694 3.95335
# Velocity P-wave (km/s) = 7.02899 7.48748 7.26185
#
# Compressibility (1/GPa) = 0.01545178
#
# Stress axis : x y z
#
# Youngs Moduli (GPa) = 125.55689 117.19155 67.96072
#
# Poissons Ratio (x) = 0.24144 0.00878
# Poissons Ratio (y) = 0.25867 0.38675
# Poissons Ratio (z) = 0.01622 0.66690
#
# Static dielectric constant tensor:
#      x y z
#    x 1.741850 0.000000 0.000000 
#    y 0.000000 1.933560 0.000000 
#    z 0.000000 0.000000 1.816010 
# 
# From -- ./inp_files/4384.got.cif
#   From: 2010.05.17/outbox.cif.g08.bks.cpg/sg35_3_cif.got.tgz:4384.got - 2010.06.03 17:29:28.
