data_PCOD9350088
_publ_section_title
;
Structure prediction by ZEFSAII (Michael W. Deem and Ramdas Pophale) SiO2 
 PCOD9350088
Probable space group: C M M 2
;
_chemical_formula_sum "Si O2"
_cell_formula_units_Z 40
_cell_length_a 14.941945
_cell_length_b 8.387446
_cell_length_c 15.775497
_cell_angle_alpha 90.000000
_cell_angle_beta 90.000000
_cell_angle_gamma 90.000000
_cell_volume 1977.060325
_symmetry_space_group_name_H-M "C M M 2"
_symmetry_group_IT_number 35
_symmetry_cell_setting 'orthorhombic'
loop_
_space_group_symop_operation_xyz
x,y,z
-x,-y,z
-x,y,z
x,-y,z
1/2+x,1/2+y,z
1/2-x,1/2-y,z
1/2-x,1/2+y,z
1/2+x,1/2-y,z
loop_
_atom_site_type_symbol
_atom_site_label
_atom_site_fract_x
_atom_site_fract_y
_atom_site_fract_z
Si Si1 0.851749 0.807218 0.464210
Si Si2 0.000000 0.190672 0.789226
Si Si3 0.851939 0.689018 0.916155
Si Si4 0.646943 0.307313 0.278933
Si Si5 0.000000 0.195123 0.595499
Si Si6 0.853250 0.808395 0.096095
O O1 0.750000 0.750000 0.472907
O O2 0.888126 0.755814 0.371051
O O3 0.913980 0.753342 0.541042
O O4 0.851845 0.000000 0.464153
O O5 0.913635 0.247239 0.841221
O O6 0.000000 0.249720 0.692326
O O7 0.000000 0.000000 0.787587
O O8 0.850662 0.500000 0.914617
O O9 0.750000 0.750000 0.908618
O O10 0.889850 0.743493 0.007783
O O11 0.644378 0.500000 0.278019
O O12 0.750000 0.250000 0.279103
O O13 0.608134 0.256204 0.187655
O O14 0.000000 0.000000 0.596538
O O15 0.750000 0.750000 0.097067
O O16 0.855812 0.000000 0.092174
#
# Coordination Sequence:
#
# PCOD9350088 Si02
#       6
#     8   4   8   8   4   8
#     4   9  17  33  54  79 108 141 177 216 261 316
#     4  11  23  41  60  81 108 142 185 237 286 333
#     4  11  22  38  59  84 112 147 185 228 278 332
#     4   8  14  24  44  73 106 140 176 212 254 307
#     4   9  20  37  58  79 104 136 175 223 276 325
#     4   9  15  26  46  76 109 144 180 218 261 314
#
# _framework density 20.232060000000001
#
# number of rings (size 3 to 8) (size 9 to 14) (size 15 to 20)
#    0.000    2.600    0.000    3.900    0.000    1.600 
#    0.000    5.500    0.000    3.600    0.000    0.000 
#    0.000    0.000    0.000    0.000    0.000    0.000 
#
# Total GULP energy -111513.462914 kJ/mol
# GULP energy per Si atom -5575.673146 kJ/mol
# Density = 2.018601 g / cm^3
# Si number density = 20.232060 Si / 1000 Ang^3
#
#
#
# Elastic Constant Matrix: (Units=GPa)
#
#
# Indices 1 2 3 4 5 6 
#
# 1 98.0317 15.2528 85.4806 0.0000 0.0000 0.0000
# 2 15.2528 54.7137 42.5342 0.0000 0.0000 0.0000
# 3 85.4806 42.5342 261.3107 0.0000 0.0000 0.0000
# 4 0.0000 0.0000 0.0000 19.8455 0.0000 0.0000
# 5 0.0000 0.0000 0.0000 0.0000 44.8267 0.0000
# 6 0.0000 0.0000 0.0000 0.0000 0.0000 16.1063
#
#
#
# Elastic Compliance Matrix: (Units=1/GPa)
#
#
# Indices 1 2 3 4 5 6 
#
# 1 0.014279 -0.000400 -0.004606 0.000000 0.000000 0.000000
# 2 -0.000400 0.020936 -0.003277 0.000000 0.000000 0.000000
# 3 -0.004606 -0.003277 0.005867 0.000000 0.000000 0.000000
# 4 0.000000 0.000000 0.000000 0.050389 0.000000 0.000000
# 5 0.000000 0.000000 0.000000 0.000000 0.022308 0.000000
# 6 0.000000 0.000000 0.000000 0.000000 0.000000 0.062087
#
#
# Mechanical properties :
#
#
# Convention : Reuss Voigt Hill
#
# Bulk Modulus (GPa) = 40.78917 77.84346 59.31632
# Shear Modulus (GPa) = 24.92460 34.20827 29.56643
#
# Velocity S-wave (km/s) = 3.51370 4.11639 3.82693
# Velocity P-wave (km/s) = 6.05524 7.81996 6.99348
#
# Compressibility (1/GPa) = 0.02451631
#
# Stress axis : x y z
#
# Youngs Moduli (GPa) = 70.03163 47.76477 170.44590
#
# Poissons Ratio (x) = 0.01911 0.78506
# Poissons Ratio (y) = 0.02802 0.55854
# Poissons Ratio (z) = 0.32256 0.15652
#
# Static dielectric constant tensor:
#      x y z
#    x 1.684760 0.000000 0.000000 
#    y 0.000000 1.681730 0.000000 
#    z 0.000000 0.000000 1.763230 
# 
# From -- ./inp_files/14805.got.cif
#   From: 2010.05.17/outbox.cif.g08.bks.cpg/sg35_8_cif.got.tgz:14805.got - 2010.06.03 17:29:28.
