data_PCOD9350320
_publ_section_title
;
Structure prediction by ZEFSAII (Michael W. Deem and Ramdas Pophale) SiO2 
 PCOD9350320
Probable space group: C M M 2
;
_chemical_formula_sum "Si O2"
_cell_formula_units_Z 56
_cell_length_a 8.220819
_cell_length_b 18.982155
_cell_length_c 18.959820
_cell_angle_alpha 90.000000
_cell_angle_beta 90.000000
_cell_angle_gamma 90.000000
_cell_volume 2958.658306
_symmetry_space_group_name_H-M "C M M 2"
_symmetry_group_IT_number 35
_symmetry_cell_setting 'orthorhombic'
loop_
_space_group_symop_operation_xyz
x,y,z
-x,-y,z
-x,y,z
x,-y,z
1/2+x,1/2+y,z
1/2-x,1/2-y,z
1/2-x,1/2+y,z
1/2+x,1/2-y,z
loop_
_atom_site_type_symbol
_atom_site_label
_atom_site_fract_x
_atom_site_fract_y
_atom_site_fract_z
Si Si1 0.196034 0.580513 0.726170
Si Si2 0.698399 0.918226 0.996585
Si Si3 0.803135 0.330630 0.861602
Si Si4 0.698379 0.081673 0.153988
Si Si5 0.193908 0.669129 0.287447
Si Si6 0.195096 0.168671 0.591832
Si Si7 0.194265 0.168516 0.437011
O O1 0.256141 0.500000 0.727081
O O2 0.254117 0.624939 0.793807
O O3 0.241796 0.620897 0.654931
O O4 0.000000 0.578126 0.730408
O O5 0.500000 0.917590 0.996132
O O6 0.754126 0.868423 0.933436
O O7 0.746027 0.000000 0.985459
O O8 0.750543 0.895830 0.075315
O O9 0.750000 0.250000 0.857449
O O10 0.000000 0.332442 0.861687
O O11 0.500000 0.084338 0.154416
O O12 0.758115 0.127461 0.219483
O O13 0.743823 0.000000 0.162828
O O14 0.250000 0.750000 0.284230
O O15 0.243643 0.637454 0.363409
O O16 0.000000 0.668617 0.285013
O O17 0.250000 0.250000 0.600365
O O18 0.249542 0.142010 0.513947
O O19 0.000000 0.168133 0.592928
O O20 0.250000 0.250000 0.436299
O O21 0.000000 0.166242 0.435150
#
# Coordination Sequence:
#
# PCOD9350320 Si02
#       7
#     8   8   8   8   8   8   8
#     4  10  21  36  53  74 101 132 167 206 247 294
#     4   8  14  28  50  71  93 125 164 202 238 280
#     4  10  20  33  51  76 102 128 161 200 243 289
#     4   8  15  28  46  69  95 125 163 202 238 280
#     4  10  18  28  46  71  98 126 159 200 242 286
#     4  10  20  34  54  77 100 129 166 207 250 298
#     4   9  17  30  48  70  96 126 161 199 240 288
#
# _framework density 18.927499000000001
#
# number of rings (size 3 to 8) (size 9 to 14) (size 15 to 20)
#    0.000    2.714    0.000    3.857    0.000    6.000 
#    0.000    0.714    0.000    6.429    0.000    4.000 
#    0.000    0.000    0.000    0.000    0.000    0.000 
#
# Total GULP energy -156089.222456 kJ/mol
# GULP energy per Si atom -5574.615088 kJ/mol
# Density = 1.888442 g / cm^3
# Si number density = 18.927499 Si / 1000 Ang^3
#
#
#
# Elastic Constant Matrix: (Units=GPa)
#
#
# Indices 1 2 3 4 5 6 
#
# 1 16.1023 10.1100 19.7710 0.0000 0.0000 0.0000
# 2 10.1100 103.4968 109.4407 0.0000 0.0000 0.0000
# 3 19.7710 109.4407 234.0975 0.0000 0.0000 0.0000
# 4 0.0000 0.0000 0.0000 -45.3917 0.0000 0.0000
# 5 0.0000 0.0000 0.0000 0.0000 92.4959 0.0000
# 6 0.0000 0.0000 0.0000 0.0000 0.0000 18.1682
#
#
#
# Elastic Compliance Matrix: (Units=1/GPa)
#
#
# Indices 1 2 3 4 5 6 
#
# 1 0.069357 -0.001149 -0.005320 0.000000 0.000000 0.000000
# 2 -0.001149 0.019127 -0.008845 0.000000 0.000000 0.000000
# 3 -0.005320 -0.008845 0.008856 0.000000 0.000000 0.000000
# 4 0.000000 0.000000 0.000000 -0.022030 0.000000 0.000000
# 5 0.000000 0.000000 0.000000 0.000000 0.010811 0.000000
# 6 0.000000 0.000000 0.000000 0.000000 0.000000 0.055041
#
#
# Mechanical properties :
#
#
# Convention : Reuss Voigt Hill
#
# Bulk Modulus (GPa) = 14.98989 70.26000 42.62494
# Shear Modulus (GPa) = 25.76935 27.34615 26.55775
#
# Velocity S-wave (km/s) = 3.69382 3.80515 3.74990
# Velocity P-wave (km/s) = 5.11168 7.51710 6.42791
#
# Compressibility (1/GPa) = 0.06671164
#
# Stress axis : x y z
#
# Youngs Moduli (GPa) = 14.41810 52.28110 112.91631
#
# Poissons Ratio (x) = 0.06008 0.60077
# Poissons Ratio (y) = 0.01657 0.99875
# Poissons Ratio (z) = 0.07671 0.46243
#
# Static dielectric constant tensor:
#      x y z
#    x 1.565180 0.000000 0.000000 
#    y 0.000000 1.621710 0.000000 
#    z 0.000000 0.000000 1.695670 
# 
# From -- ./inp_files/18277.got.cif
#   From: 2010.05.17/outbox.cif.g08.bks.cpg/sg35_10_cif.got.tgz:18277.got - 2010.06.03 17:29:28.
