data_PCOD9350527
_publ_section_title
;
Structure prediction by ZEFSAII (Michael W. Deem and Ramdas Pophale) SiO2 
 PCOD9350527
Probable space group: C M C 21
;
_chemical_formula_sum "Si O2"
_cell_formula_units_Z 64
_cell_length_a 15.147394
_cell_length_b 10.281033
_cell_length_c 17.500817
_cell_angle_alpha 90.000000
_cell_angle_beta 90.000000
_cell_angle_gamma 90.000000
_cell_volume 2725.417240
_symmetry_space_group_name_H-M "C M C 21"
_symmetry_group_IT_number 36
_symmetry_cell_setting 'orthorhombic'
loop_
_space_group_symop_operation_xyz
x,y,z
-x,-y,1/2+z
x,-y,1/2+z
-x,y,z
1/2+x,1/2+y,z
1/2-x,1/2-y,1/2+z
1/2+x,1/2-y,1/2+z
1/2-x,1/2+y,z
loop_
_atom_site_type_symbol
_atom_site_label
_atom_site_fract_x
_atom_site_fract_y
_atom_site_fract_z
Si Si1 0.793266 0.412872 0.477240
Si Si2 0.898491 0.218109 0.373594
Si Si3 0.898722 0.394144 0.244236
Si Si4 0.398722 0.105856 0.383352
Si Si5 0.793266 0.412872 0.650348
Si Si6 0.101509 0.781892 0.253994
Si Si7 0.597032 0.474599 0.650201
Si Si8 0.597031 0.525400 0.977387
O O1 0.836381 0.301798 0.427048
O O2 0.827935 0.550256 0.442679
O O3 0.824616 0.403602 0.563794
O O4 0.688086 0.398711 0.476528
O O5 0.878053 0.257561 0.286437
O O6 0.896242 0.073573 0.406388
O O7 0.000000 0.262148 0.384132
O O8 0.896263 0.500000 0.313794
O O9 0.827935 0.449745 0.184909
O O10 0.000000 0.393232 0.214974
O O11 0.500000 0.106769 0.412614
O O12 0.378053 0.242439 0.341151
O O13 0.836381 0.301797 0.700541
O O14 0.688086 0.398711 0.651060
O O15 0.103758 0.926428 0.221200
O O16 0.000000 0.737853 0.243457
O O17 0.500000 0.410222 0.655610
O O18 0.597373 0.538069 0.563794
O O19 0.500000 0.589777 0.971978
#
# Coordination Sequence:
#
# PCOD9350527 Si02
#       8
#     8   8   8   8   8   8   8   8
#     4  10  18  27  45  70  92 116 147 185 227 264
#     4   9  17  31  50  68  89 119 151 183 220 263
#     4   8  15  27  43  66  93 117 144 180 222 266
#     4   8  15  27  43  66  93 117 144 180 222 266
#     4  10  18  27  45  70  92 116 147 185 227 264
#     4   9  17  31  50  68  89 119 151 183 220 263
#     4   9  18  31  46  66  90 117 153 189 218 258
#     4   9  18  31  46  66  90 117 153 189 218 258
#
# _framework density 23.482642999999999
#
# number of rings (size 3 to 8) (size 9 to 14) (size 15 to 20)
#    0.000    3.000    0.000    3.000    0.000    4.000 
#    0.000    0.000    0.000    9.750    0.000    7.000 
#    0.000    0.000    0.000    0.000    0.000    0.000 
#
# Total GULP energy -178589.212329 kJ/mol
# GULP energy per Si atom -5580.912885 kJ/mol
# Density = 2.342920 g / cm^3
# Si number density = 23.482643 Si / 1000 Ang^3
#
#
#
# Elastic Constant Matrix: (Units=GPa)
#
#
# Indices 1 2 3 4 5 6 
#
# 1 108.7875 6.1499 49.0740 0.0000 0.0000 0.0000
# 2 6.1499 26.5096 8.9613 0.0000 0.0000 0.0000
# 3 49.0740 8.9613 64.3499 0.0000 0.0000 0.0000
# 4 0.0000 0.0000 0.0000 27.2975 0.0000 0.0000
# 5 0.0000 0.0000 0.0000 0.0000 28.3224 0.0000
# 6 0.0000 0.0000 0.0000 0.0000 0.0000 23.2497
#
#
#
# Elastic Compliance Matrix: (Units=1/GPa)
#
#
# Indices 1 2 3 4 5 6 
#
# 1 0.014016 0.000380 -0.010742 0.000000 0.000000 0.000000
# 2 0.000380 0.039596 -0.005804 0.000000 0.000000 0.000000
# 3 -0.010742 -0.005804 0.024540 0.000000 0.000000 0.000000
# 4 0.000000 0.000000 0.000000 0.036633 0.000000 0.000000
# 5 0.000000 0.000000 0.000000 0.000000 0.035308 0.000000
# 6 0.000000 0.000000 0.000000 0.000000 0.000000 0.043011
#
#
# Mechanical properties :
#
#
# Convention : Reuss Voigt Hill
#
# Bulk Modulus (GPa) = 21.82422 36.44638 29.13530
# Shear Modulus (GPa) = 20.77184 24.80472 22.78828
#
# Velocity S-wave (km/s) = 2.97738 3.25360 3.11855
# Velocity P-wave (km/s) = 4.59714 5.44691 5.03997
#
# Compressibility (1/GPa) = 0.04582066
#
# Stress axis : x y z
#
# Youngs Moduli (GPa) = 71.34462 25.25512 40.74944
#
# Poissons Ratio (x) = -0.00959 0.43773
# Poissons Ratio (y) = -0.02708 0.23649
# Poissons Ratio (z) = 0.76638 0.14657
#
# Static dielectric constant tensor:
#      x y z
#    x 1.856170 0.000000 0.000000 
#    y 0.000000 2.003720 0.000000 
#    z 0.000000 0.000000 1.891740 
# 
# From -- ./inp_files/14777.got.cif
#   From: 2010.05.17/outbox.cif.g08.bks.cpg/sg36_8_cif.got.tgz:14777.got - 2010.06.03 17:41:39.
