data_PCOD9350783
_publ_section_title
;
Structure prediction by ZEFSAII (Michael W. Deem and Ramdas Pophale) SiO2 
 PCOD9350783
Probable space group: C M C 21
;
_chemical_formula_sum "Si O2"
_cell_formula_units_Z 64
_cell_length_a 8.659625
_cell_length_b 24.285733
_cell_length_c 15.807077
_cell_angle_alpha 90.000000
_cell_angle_beta 90.000000
_cell_angle_gamma 90.000000
_cell_volume 3324.312713
_symmetry_space_group_name_H-M "C M C 21"
_symmetry_group_IT_number 36
_symmetry_cell_setting 'orthorhombic'
loop_
_space_group_symop_operation_xyz
x,y,z
-x,-y,1/2+z
x,-y,1/2+z
-x,y,z
1/2+x,1/2+y,z
1/2-x,1/2-y,1/2+z
1/2+x,1/2-y,1/2+z
1/2-x,1/2+y,z
loop_
_atom_site_type_symbol
_atom_site_label
_atom_site_fract_x
_atom_site_fract_y
_atom_site_fract_z
Si Si1 0.686857 0.115255 0.136360
Si Si2 0.185718 0.498549 0.897504
Si Si3 0.816389 0.803702 0.295164
Si Si4 0.186112 0.623893 0.946866
Si Si5 0.184350 0.886746 0.963317
Si Si6 0.687346 0.002158 0.700715
Si Si7 0.814564 0.376542 0.143476
Si Si8 0.314780 0.680946 0.296336
O O1 0.500000 0.116248 0.140895
O O2 0.736472 0.051566 0.148875
O O3 0.752821 0.150491 0.213045
O O4 0.730941 0.136292 0.043457
O O5 0.222311 0.559811 0.928938
O O6 0.263847 0.449721 0.949056
O O7 0.231306 0.494751 0.798814
O O8 0.000000 0.491629 0.903701
O O9 0.764591 0.838092 0.377382
O O10 0.752060 0.835333 0.212997
O O11 0.747867 0.742656 0.299644
O O12 0.000000 0.801109 0.290506
O O13 0.000000 0.629679 0.938523
O O14 0.233827 0.852855 0.880063
O O15 0.000000 0.883657 0.970331
O O16 0.259705 0.864271 0.048851
O O17 0.500000 0.003473 0.698301
O O18 0.739413 0.061200 0.666452
O O19 0.000000 0.375344 0.148083
O O20 0.500000 0.681630 0.294156
#
# Coordination Sequence:
#
# PCOD9350783 Si02
#       8
#     8   8   8   8   8   8   8   8
#     4  10  20  37  63  93 124 158 202 251 297 349
#     4  10  18  35  64  92 124 164 205 243 294 364
#     4  12  26  43  64  89 119 156 205 259 309 360
#     4  10  21  39  63  92 126 164 203 247 301 364
#     4  11  24  40  60  93 129 162 203 254 308 358
#     4   9  17  33  62  94 122 157 201 243 291 358
#     4  11  22  41  67  93 123 163 205 247 303 370
#     4  11  25  44  63  84 119 162 206 252 305 365
#
# _framework density 19.252101
#
# number of rings (size 3 to 8) (size 9 to 14) (size 15 to 20)
#    0.000    1.500    2.500    3.000    0.000    5.500 
#    0.000    3.750    0.000    0.000    0.000    0.000 
#    0.000    0.000    0.000    0.000    0.000    0.000 
#
# Total GULP energy -178885.472043 kJ/mol
# GULP energy per Si atom -5590.171001 kJ/mol
# Density = 1.920828 g / cm^3
# Si number density = 19.252101 Si / 1000 Ang^3
#
#
#
# Elastic Constant Matrix: (Units=GPa)
#
#
# Indices 1 2 3 4 5 6 
#
# 1 31.4433 19.5593 22.1218 0.0000 0.0000 0.0000
# 2 19.5593 101.7218 32.2832 0.0000 0.0000 0.0000
# 3 22.1218 32.2832 115.2123 0.0000 0.0000 0.0000
# 4 0.0000 0.0000 0.0000 -1.3357 0.0000 0.0000
# 5 0.0000 0.0000 0.0000 0.0000 31.9241 0.0000
# 6 0.0000 0.0000 0.0000 0.0000 0.0000 24.2122
#
#
#
# Elastic Compliance Matrix: (Units=1/GPa)
#
#
# Indices 1 2 3 4 5 6 
#
# 1 0.039573 -0.005705 -0.006000 0.000000 0.000000 0.000000
# 2 -0.005705 0.011613 -0.002159 0.000000 0.000000 0.000000
# 3 -0.006000 -0.002159 0.010436 0.000000 0.000000 0.000000
# 4 0.000000 0.000000 0.000000 -0.748698 0.000000 0.000000
# 5 0.000000 0.000000 0.000000 0.000000 0.031324 0.000000
# 6 0.000000 0.000000 0.000000 0.000000 0.000000 0.041301
#
#
# Mechanical properties :
#
#
# Convention : Reuss Voigt Hill
#
# Bulk Modulus (GPa) = 29.50230 44.03399 36.76814
# Shear Modulus (GPa) = -8.68924 22.58768 6.94922
#
# Velocity S-wave (km/s) = -2.12678 3.42900 1.90195
# Velocity P-wave (km/s) = 3.05394 6.21284 4.89520
#
# Compressibility (1/GPa) = 0.03389567
#
# Stress axis : x y z
#
# Youngs Moduli (GPa) = 25.26953 86.11207 95.81768
#
# Poissons Ratio (x) = 0.49128 0.57489
# Poissons Ratio (y) = 0.14416 0.20683
# Poissons Ratio (z) = 0.15161 0.18588
#
# Static dielectric constant tensor:
#      x y z
#    x 1.652170 0.000000 0.000000 
#    y 0.000000 1.644210 0.000000 
#    z 0.000000 0.000000 1.664040 
# 
# From -- ./inp_files/11109.got.cif
#   From: 2010.05.17/outbox.cif.g08.bks.cpg/sg36_6_cif.got.tgz:11109.got - 2010.06.03 17:41:39.
