data_PCOD9350306
_publ_section_title
;
Structure prediction by ZEFSAII (Michael W. Deem and Ramdas Pophale) SiO2 
 PCOD9350306
Probable space group: C M M 2
;
_chemical_formula_sum "Si O2"
_cell_formula_units_Z 64
_cell_length_a 14.812196
_cell_length_b 15.572649
_cell_length_c 16.036288
_cell_angle_alpha 90.000000
_cell_angle_beta 90.000000
_cell_angle_gamma 90.000000
_cell_volume 3699.012444
_symmetry_space_group_name_H-M "C M M 2"
_symmetry_group_IT_number 35
_symmetry_cell_setting 'orthorhombic'
loop_
_space_group_symop_operation_xyz
x,y,z
-x,-y,z
-x,y,z
x,-y,z
1/2+x,1/2+y,z
1/2-x,1/2-y,z
1/2-x,1/2+y,z
1/2+x,1/2-y,z
loop_
_atom_site_type_symbol
_atom_site_label
_atom_site_fract_x
_atom_site_fract_y
_atom_site_fract_z
Si Si1 0.899732 0.834466 0.016220
Si Si2 0.604181 0.894771 0.781171
Si Si3 0.270690 0.902059 0.931707
Si Si4 0.400920 0.600143 0.197182
Si Si5 0.896276 0.640710 0.083043
Si Si6 0.109799 0.599007 0.598329
Si Si7 0.395169 0.894979 0.416690
Si Si8 0.790820 0.604685 0.252062
O O1 0.887770 0.894526 0.097400
O O2 0.896240 0.739747 0.055032
O O3 0.000000 0.848868 0.980963
O O4 0.818333 0.849266 0.953670
O O5 0.500000 0.869176 0.797053
O O6 0.669979 0.867845 0.855066
O O7 0.633537 0.864029 0.688941
O O8 0.603858 0.000000 0.779760
O O9 0.243613 0.000000 0.912942
O O10 0.334703 0.903220 0.013108
O O11 0.500000 0.639359 0.215262
O O12 0.404954 0.500000 0.220662
O O13 0.311414 0.637564 0.239066
O O14 0.851255 0.631066 0.173151
O O15 0.000000 0.610062 0.083491
O O16 0.141168 0.500000 0.599006
O O17 0.136010 0.636308 0.508382
O O18 0.000000 0.596987 0.597461
O O19 0.500000 0.870766 0.403711
O O20 0.334884 0.867811 0.338950
O O21 0.393730 0.000000 0.419581
O O22 0.788587 0.500000 0.251049
#
# Coordination Sequence:
#
# PCOD9350306 Si02
#       8
#     8   8   8   8   8   8   8   8
#     4  10  21  35  47  59  82 117 159 195 220 253
#     4   8  14  24  39  62  91 118 143 173 219 277
#     4  11  20  30  46  67  89 116 149 187 226 263
#     4   9  17  30  46  61  79 109 153 197 226 251
#     4  11  22  32  43  62  93 123 146 176 222 275
#     4   7  10  19  35  55  84 120 146 169 208 262
#     4   8  13  21  35  58  89 120 148 175 210 266
#     4  10  18  27  42  65  90 121 152 183 224 267
#
# _framework density 17.301915000000001
#
# number of rings (size 3 to 8) (size 9 to 14) (size 15 to 20)
#    0.000    2.750    1.250    3.375    0.000    2.750 
#    0.000    0.000    0.000    0.000    0.000    0.875 
#    7.500    5.000    3.000    0.000    0.750    0.000 
#
# Total GULP energy -178243.986451 kJ/mol
# GULP energy per Si atom -5570.124577 kJ/mol
# Density = 1.726253 g / cm^3
# Si number density = 17.301915 Si / 1000 Ang^3
#
#
#
# Elastic Constant Matrix: (Units=GPa)
#
#
# Indices 1 2 3 4 5 6 
#
# 1 134.7180 12.0965 84.4697 0.0000 0.0000 0.0000
# 2 12.0965 18.4495 5.8333 0.0000 0.0000 0.0000
# 3 84.4697 5.8333 151.6905 0.0000 0.0000 0.0000
# 4 0.0000 0.0000 0.0000 1.1919 0.0000 0.0000
# 5 0.0000 0.0000 0.0000 0.0000 11.2873 0.0000
# 6 0.0000 0.0000 0.0000 0.0000 0.0000 -7.5314
#
#
#
# Elastic Compliance Matrix: (Units=1/GPa)
#
#
# Indices 1 2 3 4 5 6 
#
# 1 0.011993 -0.005822 -0.006454 0.000000 0.000000 0.000000
# 2 -0.005822 0.057696 0.001023 0.000000 0.000000 0.000000
# 3 -0.006454 0.001023 0.010147 0.000000 0.000000 0.000000
# 4 0.000000 0.000000 0.000000 0.838995 0.000000 0.000000
# 5 0.000000 0.000000 0.000000 0.000000 0.088595 0.000000
# 6 0.000000 0.000000 0.000000 0.000000 0.000000 -0.132778
#
#
# Mechanical properties :
#
#
# Convention : Reuss Voigt Hill
#
# Bulk Modulus (GPa) = 17.44307 56.62854 37.03581
# Shear Modulus (GPa) = 5.45695 14.48681 9.97188
#
# Velocity S-wave (km/s) = 1.77787 2.89674 2.40332
# Velocity P-wave (km/s) = 3.78390 6.63241 5.39939
#
# Compressibility (1/GPa) = 0.05732935
#
# Stress axis : x y z
#
# Youngs Moduli (GPa) = 83.38487 17.33229 98.55038
#
# Poissons Ratio (x) = 0.10091 0.63607
# Poissons Ratio (y) = 0.48549 -0.10087
# Poissons Ratio (z) = 0.53819 -0.01774
#
# Static dielectric constant tensor:
#      x y z
#    x 1.601510 0.000000 0.000000 
#    y 0.000000 1.631430 0.000000 
#    z 0.000000 0.000000 1.601700 
# 
# From -- ./inp_files/16889.got.cif
#   From: 2010.05.17/outbox.cif.g08.bks.cpg/sg35_9_cif.got.tgz:16889.got - 2010.06.03 17:29:28.
