data_PCOD9350873
_publ_section_title
;
Structure prediction by ZEFSAII (Michael W. Deem and Ramdas Pophale) SiO2 
 PCOD9350873
Probable space group: C M C 21
;
_chemical_formula_sum "Si O2"
_cell_formula_units_Z 64
_cell_length_a 7.386443
_cell_length_b 22.023253
_cell_length_c 14.492923
_cell_angle_alpha 90.000000
_cell_angle_beta 90.000000
_cell_angle_gamma 90.000000
_cell_volume 2357.614553
_symmetry_space_group_name_H-M "C M C 21"
_symmetry_group_IT_number 36
_symmetry_cell_setting 'orthorhombic'
loop_
_space_group_symop_operation_xyz
x,y,z
-x,-y,1/2+z
x,-y,1/2+z
-x,y,z
1/2+x,1/2+y,z
1/2-x,1/2-y,1/2+z
1/2+x,1/2-y,1/2+z
1/2-x,1/2+y,z
loop_
_atom_site_type_symbol
_atom_site_label
_atom_site_fract_x
_atom_site_fract_y
_atom_site_fract_z
Si Si1 0.283087 0.721599 0.032230
Si Si2 0.707803 0.524364 0.406286
Si Si3 0.277321 0.599783 0.248732
Si Si4 0.716672 0.146307 0.513742
Si Si5 0.283584 0.925858 0.192046
Si Si6 0.215303 0.651879 0.855092
Si Si7 0.793154 0.956386 0.573683
Si Si8 0.779214 0.769741 0.745302
O O1 0.500000 0.724211 0.037091
O O2 0.217657 0.786194 0.990568
O O3 0.222180 0.724933 0.138379
O O4 0.244831 0.665913 0.963013
O O5 0.500000 0.506977 0.392181
O O6 0.791241 0.543932 0.309869
O O7 0.704603 0.589593 0.458583
O O8 0.793405 0.477202 0.477787
O O9 0.500000 0.597386 0.247988
O O10 0.214410 0.591984 0.143836
O O11 0.224986 0.665144 0.286872
O O12 0.500000 0.143653 0.500748
O O13 0.748971 0.130743 0.622031
O O14 0.500000 0.935782 0.192388
O O15 0.219856 0.905695 0.294136
O O16 0.201475 0.983230 0.138660
O O17 0.285703 0.711949 0.801943
O O18 0.000000 0.649793 0.843467
O O19 0.000000 0.938483 0.554147
O O20 0.000000 0.766883 0.745560
#
# Coordination Sequence:
#
# PCOD9350873 Si02
#       8
#     8   8   8   8   8   8   8   8
#     4  10  19  31  48  75 104 131 166 206 248 300
#     4   9  17  30  50  75  97 124 169 211 244 287
#     4   9  17  31  50  73 101 132 166 203 247 300
#     4   9  16  29  49  71  98 128 162 203 243 288
#     4   9  17  32  52  70  94 130 166 199 241 298
#     4  10  19  33  53  75 101 135 169 201 247 307
#     4   9  18  32  50  74 100 124 160 214 254 280
#     4   9  17  32  52  73 101 138 170 199 248 312
#
# _framework density 27.146083000000001
#
# number of rings (size 3 to 8) (size 9 to 14) (size 15 to 20)
#    0.000    2.750    1.250    0.750    0.000    2.000 
#    2.250    1.250    0.000    2.250    0.000    0.000 
#    0.000    0.000    0.000    0.000    0.000    0.000 
#
# Total GULP energy -178914.730385 kJ/mol
# GULP energy per Si atom -5591.085325 kJ/mol
# Density = 2.708430 g / cm^3
# Si number density = 27.146083 Si / 1000 Ang^3
#
#
#
# Elastic Constant Matrix: (Units=GPa)
#
#
# Indices 1 2 3 4 5 6 
#
# 1 106.4385 4.7994 2.4061 0.0000 0.0000 0.0000
# 2 4.7994 96.7878 13.0807 0.0000 0.0000 0.0000
# 3 2.4061 13.0807 148.6229 0.0000 0.0000 0.0000
# 4 0.0000 0.0000 0.0000 54.9210 0.0000 0.0000
# 5 0.0000 0.0000 0.0000 0.0000 5.6575 0.0000
# 6 0.0000 0.0000 0.0000 0.0000 0.0000 15.7308
#
#
#
# Elastic Compliance Matrix: (Units=1/GPa)
#
#
# Indices 1 2 3 4 5 6 
#
# 1 0.009418 -0.000452 -0.000113 0.000000 0.000000 0.000000
# 2 -0.000452 0.010478 -0.000915 0.000000 0.000000 0.000000
# 3 -0.000113 -0.000915 0.006811 0.000000 0.000000 0.000000
# 4 0.000000 0.000000 0.000000 0.018208 0.000000 0.000000
# 5 0.000000 0.000000 0.000000 0.000000 0.176756 0.000000
# 6 0.000000 0.000000 0.000000 0.000000 0.000000 0.063570
#
#
# Mechanical properties :
#
#
# Convention : Reuss Voigt Hill
#
# Bulk Modulus (GPa) = 42.10881 43.60240 42.85561
# Shear Modulus (GPa) = 16.88536 37.36606 27.12571
#
# Velocity S-wave (km/s) = 2.49673 3.71412 3.16452
# Velocity P-wave (km/s) = 4.88438 5.87281 5.40125
#
# Compressibility (1/GPa) = 0.02374800
#
# Stress axis : x y z
#
# Youngs Moduli (GPa) = 106.17949 95.43870 146.82602
#
# Poissons Ratio (x) = 0.04312 0.01655
# Poissons Ratio (y) = 0.04797 0.13433
# Poissons Ratio (z) = 0.01197 0.08731
#
# Static dielectric constant tensor:
#      x y z
#    x 2.011970 0.000000 0.000000 
#    y 0.000000 2.127990 0.000000 
#    z 0.000000 0.000000 2.171360 
# 
# From -- ./inp_files/8093.got.cif
#   From: 2010.05.17/outbox.cif.g08.bks.cpg/sg36_5_cif.got.tgz:8093.got - 2010.06.03 17:41:39.
