data_PCOD9350126
_publ_section_title
;
Structure prediction by ZEFSAII (Michael W. Deem and Ramdas Pophale) SiO2 
 PCOD9350126
Probable space group: C M M 2
;
_chemical_formula_sum "Si O2"
_cell_formula_units_Z 28
_cell_length_a 10.743008
_cell_length_b 22.688396
_cell_length_c 4.790374
_cell_angle_alpha 90.000000
_cell_angle_beta 90.000000
_cell_angle_gamma 90.000000
_cell_volume 1167.613518
_symmetry_space_group_name_H-M "C M M 2"
_symmetry_group_IT_number 35
_symmetry_cell_setting 'orthorhombic'
loop_
_space_group_symop_operation_xyz
x,y,z
-x,-y,z
-x,y,z
x,-y,z
1/2+x,1/2+y,z
1/2-x,1/2-y,z
1/2-x,1/2+y,z
1/2+x,1/2-y,z
loop_
_atom_site_type_symbol
_atom_site_label
_atom_site_fract_x
_atom_site_fract_y
_atom_site_fract_z
Si Si1 0.000000 0.120200 0.052560
Si Si2 0.000000 0.200051 0.563285
Si Si3 0.252127 0.567838 0.791008
Si Si4 0.357522 0.131227 0.262664
Si Si5 0.750000 0.250000 0.311893
O O1 0.120272 0.085102 0.947714
O O2 0.000000 0.139906 0.374260
O O3 0.000000 0.181841 0.884506
O O4 0.873079 0.233687 0.488461
O O5 0.254286 0.500000 0.705314
O O6 0.149908 0.582234 0.024564
O O7 0.219284 0.608536 0.528549
O O8 0.500000 0.142549 0.339178
O O9 0.291713 0.190962 0.152362
#
# Coordination Sequence:
#
# PCOD9350126 Si02
#       5
#     4   4   8   8   4
#     4  12  23  46  68 108 132 182 229 282 346 414
#     4  12  26  42  75 100 145 180 232 282 346 420
#     4  12  26  46  71 100 139 183 232 287 343 413
#     4  12  27  45  71 102 136 185 232 284 349 412
#     4  12  24  48  68 106 136 184 226 286 346 414
#
# _framework density 23.980540000000001
#
# number of rings (size 3 to 8) (size 9 to 14) (size 15 to 20)
#    0.000    0.000    7.143    2.143    0.000    8.000 
#    0.000    4.286    0.000    0.000    0.000    0.000 
#    0.000    0.000    0.000    0.000    0.000    0.000 
#
# Total GULP energy -78419.845386 kJ/mol
# GULP energy per Si atom -5601.417528 kJ/mol
# Density = 2.392596 g / cm^3
# Si number density = 23.980540 Si / 1000 Ang^3
#
#
#
# Elastic Constant Matrix: (Units=GPa)
#
#
# Indices 1 2 3 4 5 6 
#
# 1 173.6808 47.6388 7.9241 0.0000 0.0000 0.0000
# 2 47.6388 107.8350 4.6903 0.0000 0.0000 0.0000
# 3 7.9241 4.6903 78.2613 0.0000 0.0000 0.0000
# 4 0.0000 0.0000 0.0000 24.2112 0.0000 0.0000
# 5 0.0000 0.0000 0.0000 0.0000 16.5983 0.0000
# 6 0.0000 0.0000 0.0000 0.0000 0.0000 31.5963
#
#
#
# Elastic Compliance Matrix: (Units=1/GPa)
#
#
# Indices 1 2 3 4 5 6 
#
# 1 0.006570 -0.002881 -0.000493 0.000000 0.000000 0.000000
# 2 -0.002881 0.010561 -0.000341 0.000000 0.000000 0.000000
# 3 -0.000493 -0.000341 0.012848 0.000000 0.000000 0.000000
# 4 0.000000 0.000000 0.000000 0.041303 0.000000 0.000000
# 5 0.000000 0.000000 0.000000 0.000000 0.060247 0.000000
# 6 0.000000 0.000000 0.000000 0.000000 0.000000 0.031649
#
#
# Mechanical properties :
#
#
# Convention : Reuss Voigt Hill
#
# Bulk Modulus (GPa) = 44.34683 53.36483 48.85583
# Shear Modulus (GPa) = 28.07004 34.44942 31.25973
#
# Velocity S-wave (km/s) = 3.42502 3.79431 3.61438
# Velocity P-wave (km/s) = 5.84585 6.44185 6.15107
#
# Compressibility (1/GPa) = 0.02254953
#
# Stress axis : x y z
#
# Youngs Moduli (GPa) = 152.19638 94.68687 77.83296
#
# Poissons Ratio (x) = 0.27282 0.03834
# Poissons Ratio (y) = 0.43851 0.02656
# Poissons Ratio (z) = 0.07497 0.03231
#
# Static dielectric constant tensor:
#      x y z
#    x 1.927950 0.000000 0.000000 
#    y 0.000000 1.883290 0.000000 
#    z 0.000000 0.000000 1.846980 
# 
# From -- ./inp_files/973.got.cif
#   From: 2010.05.17/outbox.cif.g08.bks.cpg/sg35_1_cif.got.tgz:973.got - 2010.06.03 17:29:28.
