data_PCOD9350807
_publ_section_title
;
Structure prediction by ZEFSAII (Michael W. Deem and Ramdas Pophale) SiO2 
 PCOD9350807
Probable space group: C M C 21
;
_chemical_formula_sum "Si O2"
_cell_formula_units_Z 48
_cell_length_a 18.652897
_cell_length_b 9.028625
_cell_length_c 13.204893
_cell_angle_alpha 90.000000
_cell_angle_beta 90.000000
_cell_angle_gamma 90.000000
_cell_volume 2223.836191
_symmetry_space_group_name_H-M "C M C 21"
_symmetry_group_IT_number 36
_symmetry_cell_setting 'orthorhombic'
loop_
_space_group_symop_operation_xyz
x,y,z
-x,-y,1/2+z
x,-y,1/2+z
-x,y,z
1/2+x,1/2+y,z
1/2-x,1/2-y,1/2+z
1/2+x,1/2-y,1/2+z
1/2-x,1/2+y,z
loop_
_atom_site_type_symbol
_atom_site_label
_atom_site_fract_x
_atom_site_fract_y
_atom_site_fract_z
Si Si1 0.356328 0.850527 0.955040
Si Si2 0.663331 0.182923 0.228514
Si Si3 0.000000 0.749737 0.265738
Si Si4 0.500000 0.336796 0.649056
Si Si5 0.750562 0.072673 0.618306
Si Si6 0.000000 0.418333 0.981348
Si Si7 0.111313 0.970605 0.508131
Si Si8 0.000000 0.079609 0.360287
O O1 0.325703 0.872160 0.843909
O O2 0.417761 0.972262 0.981668
O O3 0.389167 0.685048 0.949215
O O4 0.302880 0.834946 0.048049
O O5 0.577124 0.210434 0.213326
O O6 0.707514 0.332254 0.202650
O O7 0.701836 0.058538 0.161406
O O8 0.000000 0.921950 0.299836
O O9 0.000000 0.651180 0.367850
O O10 0.500000 0.190229 0.579558
O O11 0.567375 0.432590 0.610184
O O12 0.500000 0.306107 0.767926
O O13 0.811043 0.019222 0.540205
O O14 0.067851 0.080964 0.435382
#
# Coordination Sequence:
#
# PCOD9350807 Si02
#       8
#     8   8   4   4   8   4   8   4
#     4  10  21  41  62  87 126 164 210 263 322 383
#     4  11  25  41  69  93 128 174 217 263 332 387
#     4  10  18  40  61  90 122 168 215 256 313 391
#     4   9  17  30  60  86 117 151 210 253 306 382
#     4  12  25  40  62  98 130 168 215 271 324 388
#     4   8  16  38  60  82 118 165 205 253 322 382
#     4  10  20  37  57  94 124 161 205 269 317 374
#     4  11  17  34  65  90 119 170 214 262 325 383
#
# _framework density 21.584323999999999
#
# number of rings (size 3 to 8) (size 9 to 14) (size 15 to 20)
#    0.000    1.667    6.667    1.000    2.333    1.333 
#    0.000    0.000    0.000    0.000    0.000    0.000 
#    0.000    0.000    0.000    0.000    0.000    0.000 
#
# Total GULP energy -133605.757123 kJ/mol
# GULP energy per Si atom -5566.906547 kJ/mol
# Density = 2.153520 g / cm^3
# Si number density = 21.584324 Si / 1000 Ang^3
#
#
#
# Elastic Constant Matrix: (Units=GPa)
#
#
# Indices 1 2 3 4 5 6 
#
# 1 129.3809 17.9968 35.6274 0.0000 0.0000 0.0000
# 2 17.9968 29.8445 2.4290 0.0000 0.0000 0.0000
# 3 35.6274 2.4290 86.2857 0.0000 0.0000 0.0000
# 4 0.0000 0.0000 0.0000 16.5065 0.0000 0.0000
# 5 0.0000 0.0000 0.0000 0.0000 27.8439 0.0000
# 6 0.0000 0.0000 0.0000 0.0000 0.0000 -2.6173
#
#
#
# Elastic Compliance Matrix: (Units=1/GPa)
#
#
# Indices 1 2 3 4 5 6 
#
# 1 0.009526 -0.005437 -0.003780 0.000000 0.000000 0.000000
# 2 -0.005437 0.036687 0.001212 0.000000 0.000000 0.000000
# 3 -0.003780 0.001212 0.013116 0.000000 0.000000 0.000000
# 4 0.000000 0.000000 0.000000 0.060582 0.000000 0.000000
# 5 0.000000 0.000000 0.000000 0.000000 0.035914 0.000000
# 6 0.000000 0.000000 0.000000 0.000000 0.000000 -0.382073
#
#
# Mechanical properties :
#
#
# Convention : Reuss Voigt Hill
#
# Bulk Modulus (GPa) = 23.08448 39.73530 31.40989
# Shear Modulus (GPa) = -25.53674 20.97715 -2.27979
#
# Velocity S-wave (km/s) = -3.44338 3.12086 -1.02884
# Velocity P-wave (km/s) = 2.25630 5.60675 3.62938
#
# Compressibility (1/GPa) = 0.04331915
#
# Stress axis : x y z
#
# Youngs Moduli (GPa) = 104.97157 27.25770 76.24154
#
# Poissons Ratio (x) = 0.14820 0.28822
# Poissons Ratio (y) = 0.57072 -0.09242
# Poissons Ratio (z) = 0.39683 -0.03304
#
# Static dielectric constant tensor:
#      x y z
#    x 1.916470 0.000000 0.000000 
#    y 0.000000 1.821480 0.000000 
#    z 0.000000 0.000000 1.776050 
# 
# From -- ./inp_files/8898.got.cif
#   From: 2010.05.17/outbox.cif.g08.bks.cpg/sg36_5_cif.got.tgz:8898.got - 2010.06.03 17:41:39.
