data_PCOD9350877
_publ_section_title
;
Structure prediction by ZEFSAII (Michael W. Deem and Ramdas Pophale) SiO2 
 PCOD9350877
Probable space group: C M C 21
;
_chemical_formula_sum "Si O2"
_cell_formula_units_Z 64
_cell_length_a 15.520773
_cell_length_b 26.940651
_cell_length_c 7.316218
_cell_angle_alpha 90.000000
_cell_angle_beta 90.000000
_cell_angle_gamma 90.000000
_cell_volume 3059.201409
_symmetry_space_group_name_H-M "C M C 21"
_symmetry_group_IT_number 36
_symmetry_cell_setting 'orthorhombic'
loop_
_space_group_symop_operation_xyz
x,y,z
-x,-y,1/2+z
x,-y,1/2+z
-x,y,z
1/2+x,1/2+y,z
1/2-x,1/2-y,1/2+z
1/2+x,1/2-y,1/2+z
1/2-x,1/2+y,z
loop_
_atom_site_type_symbol
_atom_site_label
_atom_site_fract_x
_atom_site_fract_y
_atom_site_fract_z
Si Si1 0.403427 0.739191 0.101750
Si Si2 0.774785 0.157784 0.172479
Si Si3 0.094694 0.353445 0.202343
Si Si4 0.595056 0.818405 0.615750
Si Si5 0.222538 0.124341 0.755275
Si Si6 0.402924 0.292296 0.173531
Si Si7 0.903967 0.072054 0.274373
Si Si8 0.403896 0.539875 0.693060
O O1 0.500000 0.726515 0.170439
O O2 0.329092 0.707933 0.199728
O O3 0.392806 0.797792 0.125434
O O4 0.401243 0.723503 0.888298
O O5 0.675688 0.162325 0.232067
O O6 0.831443 0.112434 0.241835
O O7 0.767786 0.149041 0.954086
O O8 0.089729 0.346248 0.422591
O O9 0.183001 0.383217 0.170301
O O10 0.000000 0.372149 0.142317
O O11 0.500000 0.821091 0.703831
O O12 0.611856 0.760105 0.574676
O O13 0.166045 0.164623 0.643432
O O14 0.167712 0.074442 0.783141
O O15 0.500000 0.310479 0.132967
O O16 0.907948 0.059907 0.487998
O O17 0.000000 0.088819 0.213766
O O18 0.884531 0.018478 0.186141
O O19 0.500000 0.545190 0.776944
#
# Coordination Sequence:
#
# PCOD9350877 Si02
#       8
#     8   8   8   8   8   8   8   8
#     4   9  17  28  43  66  96 129 164 201 241 284
#     4  10  19  31  49  71  97 130 164 199 240 284
#     4   9  18  31  46  67  97 132 168 204 239 275
#     4   9  18  31  46  67  97 132 168 204 239 275
#     4  10  19  31  49  71  97 130 164 199 240 284
#     4   9  17  28  43  66  96 129 164 201 241 284
#     4  10  21  36  54  76 100 124 151 188 236 289
#     4  10  21  36  54  76 100 124 151 188 236 289
#
# _framework density 20.920494000000001
#
# number of rings (size 3 to 8) (size 9 to 14) (size 15 to 20)
#    0.000    2.500    0.000    2.250    0.000    4.500 
#    0.000    2.500    0.000    0.750    0.000    0.000 
#    0.000    0.000    0.000    0.000    0.000    0.000 
#
# Total GULP energy -178695.903170 kJ/mol
# GULP energy per Si atom -5584.246974 kJ/mol
# Density = 2.087288 g / cm^3
# Si number density = 20.920494 Si / 1000 Ang^3
#
#
#
# Elastic Constant Matrix: (Units=GPa)
#
#
# Indices 1 2 3 4 5 6 
#
# 1 186.8613 73.3480 10.5535 0.0000 0.0000 0.0000
# 2 73.3480 53.8943 -8.4313 0.0000 0.0000 0.0000
# 3 10.5535 -8.4313 25.4312 0.0000 0.0000 0.0000
# 4 0.0000 0.0000 0.0000 27.9123 0.0000 0.0000
# 5 0.0000 0.0000 0.0000 0.0000 8.5390 0.0000
# 6 0.0000 0.0000 0.0000 0.0000 0.0000 39.7923
#
#
#
# Elastic Compliance Matrix: (Units=1/GPa)
#
#
# Indices 1 2 3 4 5 6 
#
# 1 0.014945 -0.022475 -0.013653 0.000000 0.000000 0.000000
# 2 -0.022475 0.053370 0.027021 0.000000 0.000000 0.000000
# 3 -0.013653 0.027021 0.053946 0.000000 0.000000 0.000000
# 4 0.000000 0.000000 0.000000 0.035826 0.000000 0.000000
# 5 0.000000 0.000000 0.000000 0.000000 0.117110 0.000000
# 6 0.000000 0.000000 0.000000 0.000000 0.000000 0.025131
#
#
# Mechanical properties :
#
#
# Convention : Reuss Voigt Hill
#
# Bulk Modulus (GPa) = 9.61121 46.34747 27.97934
# Shear Modulus (GPa) = 14.15532 27.96315 21.05923
#
# Velocity S-wave (km/s) = 2.60402 3.65997 3.17619
# Velocity P-wave (km/s) = 3.69397 6.32951 5.18209
#
# Compressibility (1/GPa) = 0.10404516
#
# Stress axis : x y z
#
# Youngs Moduli (GPa) = 66.91337 18.73728 18.53710
#
# Poissons Ratio (x) = 0.42112 0.25309
# Poissons Ratio (y) = 1.50388 -0.50088
# Poissons Ratio (z) = 0.91357 -0.50629
#
# Static dielectric constant tensor:
#      x y z
#    x 1.828970 0.000000 0.000000 
#    y 0.000000 1.705680 0.000000 
#    z 0.000000 0.000000 1.825010 
# 
# From -- ./inp_files/4338.got.cif
#   From: 2010.05.17/outbox.cif.g08.bks.cpg/sg36_3_cif.got.tgz:4338.got - 2010.06.03 17:41:39.
