data_PCOD9350420
_publ_section_title
;
Structure prediction by ZEFSAII (Michael W. Deem and Ramdas Pophale) SiO2 
 PCOD9350420
Probable space group: C M M 2
;
_chemical_formula_sum "Si O2"
_cell_formula_units_Z 64
_cell_length_a 8.912554
_cell_length_b 14.956584
_cell_length_c 21.958478
_cell_angle_alpha 90.000000
_cell_angle_beta 90.000000
_cell_angle_gamma 90.000000
_cell_volume 2927.095037
_symmetry_space_group_name_H-M "C M M 2"
_symmetry_group_IT_number 35
_symmetry_cell_setting 'orthorhombic'
loop_
_space_group_symop_operation_xyz
x,y,z
-x,-y,z
-x,y,z
x,-y,z
1/2+x,1/2+y,z
1/2-x,1/2-y,z
1/2-x,1/2+y,z
1/2+x,1/2-y,z
loop_
_atom_site_type_symbol
_atom_site_label
_atom_site_fract_x
_atom_site_fract_y
_atom_site_fract_z
Si Si1 0.334176 0.105438 0.707570
Si Si2 0.166625 0.106009 0.209379
Si Si3 0.821524 0.848383 0.830085
Si Si4 0.326098 0.890927 0.330308
Si Si5 0.328587 0.609750 0.586970
Si Si6 0.824766 0.609041 0.462650
Si Si7 0.819291 0.351215 0.951881
Si Si8 0.817886 0.849158 0.074482
O O1 0.500000 0.143432 0.721681
O O2 0.224627 0.113466 0.764896
O O3 0.267496 0.141509 0.644662
O O4 0.350773 0.000000 0.697470
O O5 0.252550 0.141839 0.268031
O O6 0.227372 0.115017 0.140936
O O7 0.000000 0.146127 0.208378
O O8 0.154924 0.000000 0.219282
O O9 0.750000 0.750000 0.827575
O O10 0.743018 0.892381 0.889164
O O11 0.000000 0.846778 0.838523
O O12 0.500000 0.866009 0.329755
O O13 0.262612 0.862999 0.396284
O O14 0.320153 0.000000 0.329718
O O15 0.500000 0.637543 0.594185
O O16 0.325968 0.500000 0.586875
O O17 0.263604 0.639194 0.522065
O O18 0.821441 0.500000 0.463087
O O19 0.000000 0.634335 0.467194
O O20 0.750000 0.250000 0.951532
O O21 0.000000 0.348257 0.952310
O O22 0.754724 0.392461 0.014275
O O23 0.750000 0.750000 0.075202
O O24 0.000000 0.851063 0.069081
#
# Coordination Sequence:
#
# PCOD9350420 Si02
#       8
#     8   8   8   8   8   8   8   8
#     4  10  20  34  51  72 101 134 165 200 244 291
#     4   9  18  31  46  66  94 125 154 188 233 281
#     4  11  21  35  55  77 101 128 162 201 241 287
#     4   8  14  24  39  60  87 119 154 191 231 276
#     4   9  16  25  39  62  91 123 159 197 237 281
#     4   8  13  22  36  56  84 118 154 191 232 277
#     4  10  18  31  51  73  96 122 156 197 239 280
#     4  10  19  32  50  71  94 121 155 194 234 278
#
# _framework density 21.864681000000001
#
# number of rings (size 3 to 8) (size 9 to 14) (size 15 to 20)
#    0.000    2.625    0.000    5.625    0.000    3.750 
#    0.000    3.125    0.000    2.250    0.000    0.875 
#    0.000    4.000    0.000    0.000    0.000    0.000 
#
# Total GULP energy -178440.844945 kJ/mol
# GULP energy per Si atom -5576.276405 kJ/mol
# Density = 2.181492 g / cm^3
# Si number density = 21.864681 Si / 1000 Ang^3
#
#
#
# Elastic Constant Matrix: (Units=GPa)
#
#
# Indices 1 2 3 4 5 6 
#
# 1 133.0994 7.3164 86.4858 0.0000 0.0000 0.0000
# 2 7.3164 37.6410 7.5246 0.0000 0.0000 0.0000
# 3 86.4858 7.5246 226.4640 0.0000 0.0000 0.0000
# 4 0.0000 0.0000 0.0000 15.4153 0.0000 0.0000
# 5 0.0000 0.0000 0.0000 0.0000 68.0511 0.0000
# 6 0.0000 0.0000 0.0000 0.0000 0.0000 5.4997
#
#
#
# Elastic Compliance Matrix: (Units=1/GPa)
#
#
# Indices 1 2 3 4 5 6 
#
# 1 0.010046 -0.001194 -0.003797 0.000000 0.000000 0.000000
# 2 -0.001194 0.026886 -0.000437 0.000000 0.000000 0.000000
# 3 -0.003797 -0.000437 0.005880 0.000000 0.000000 0.000000
# 4 0.000000 0.000000 0.000000 0.064871 0.000000 0.000000
# 5 0.000000 0.000000 0.000000 0.000000 0.014695 0.000000
# 6 0.000000 0.000000 0.000000 0.000000 0.000000 0.181827
#
#
# Mechanical properties :
#
#
# Convention : Reuss Voigt Hill
#
# Bulk Modulus (GPa) = 31.29259 66.65088 48.97174
# Shear Modulus (GPa) = 15.35091 37.51839 26.43465
#
# Velocity S-wave (km/s) = 2.65257 4.14688 3.48086
# Velocity P-wave (km/s) = 4.87078 7.31289 6.21300
#
# Compressibility (1/GPa) = 0.03195644
#
# Stress axis : x y z
#
# Youngs Moduli (GPa) = 99.54286 37.19377 170.06084
#
# Poissons Ratio (x) = 0.04440 0.64569
# Poissons Ratio (y) = 0.11882 0.07440
# Poissons Ratio (z) = 0.37795 0.01627
#
# Static dielectric constant tensor:
#      x y z
#    x 1.767690 0.000000 0.000000 
#    y 0.000000 1.889660 0.000000 
#    z 0.000000 0.000000 1.860720 
# 
# From -- ./inp_files/18514.got.cif
#   From: 2010.05.17/outbox.cif.g08.bks.cpg/sg35_10_cif.got.tgz:18514.got - 2010.06.03 17:29:28.
