data_PCOD9350116
_publ_section_title
;
Structure prediction by ZEFSAII (Michael W. Deem and Ramdas Pophale) SiO2 
 PCOD9350116
Probable space group: C M M 2
;
_chemical_formula_sum "Si O2"
_cell_formula_units_Z 48
_cell_length_a 8.391595
_cell_length_b 15.892998
_cell_length_c 18.059419
_cell_angle_alpha 90.000000
_cell_angle_beta 90.000000
_cell_angle_gamma 90.000000
_cell_volume 2408.541416
_symmetry_space_group_name_H-M "C M M 2"
_symmetry_group_IT_number 35
_symmetry_cell_setting 'orthorhombic'
loop_
_space_group_symop_operation_xyz
x,y,z
-x,-y,z
-x,y,z
x,-y,z
1/2+x,1/2+y,z
1/2-x,1/2-y,z
1/2-x,1/2+y,z
1/2+x,1/2-y,z
loop_
_atom_site_type_symbol
_atom_site_label
_atom_site_fract_x
_atom_site_fract_y
_atom_site_fract_z
Si Si1 0.194764 0.000000 0.789240
Si Si2 0.192671 0.845410 0.055683
Si Si3 0.692866 0.346480 0.892129
Si Si4 0.690752 0.839809 0.527473
Si Si5 0.190934 0.402356 0.370399
Si Si6 0.308951 0.500000 0.618767
Si Si7 0.318114 0.600716 0.214583
O O1 0.245994 0.915265 0.832188
O O2 0.245737 0.000000 0.704046
O O3 0.000000 0.000000 0.790612
O O4 0.250000 0.750000 0.054818
O O5 0.253942 0.880718 0.133868
O O6 0.000000 0.853068 0.057526
O O7 0.242400 0.878130 0.974677
O O8 0.500000 0.343755 0.891159
O O9 0.750000 0.250000 0.880929
O O10 0.500000 0.840472 0.526626
O O11 0.750000 0.750000 0.555354
O O12 0.750107 0.853836 0.442811
O O13 0.749003 0.917454 0.576345
O O14 0.245524 0.500000 0.376853
O O15 0.238501 0.367821 0.289972
O O16 0.000000 0.403576 0.373062
O O17 0.500000 0.500000 0.617995
O O18 0.500000 0.632003 0.214858
O O19 0.319897 0.500000 0.220189
#
# Coordination Sequence:
#
# PCOD9350116 Si02
#       7
#     4   8   8   8   8   4   8
#     4   9  20  37  61  88 111 144 186 225 279 343
#     4   9  18  31  49  72 103 141 180 223 271 319
#     4   9  18  35  57  81 112 148 185 229 275 327
#     4  11  23  41  63  89 118 154 196 238 289 349
#     4   9  18  35  55  75 107 148 187 231 283 334
#     4  11  23  41  63  90 121 150 188 239 293 353
#     4   9  18  30  47  75 105 137 184 230 269 319
#
# _framework density 19.929074
#
# number of rings (size 3 to 8) (size 9 to 14) (size 15 to 20)
#    0.000    2.500    0.833    0.750    1.167    3.333 
#    0.000    7.083    0.000    0.000    0.000    0.000 
#    0.000    0.000    0.000    0.000    0.000    0.000 
#
# Total GULP energy -133779.559308 kJ/mol
# GULP energy per Si atom -5574.148304 kJ/mol
# Density = 1.988371 g / cm^3
# Si number density = 19.929074 Si / 1000 Ang^3
#
#
#
# Elastic Constant Matrix: (Units=GPa)
#
#
# Indices 1 2 3 4 5 6 
#
# 1 16.7385 18.1341 27.3600 0.0000 0.0000 0.0000
# 2 18.1341 107.0230 83.8605 0.0000 0.0000 0.0000
# 3 27.3600 83.8605 192.6794 0.0000 0.0000 0.0000
# 4 0.0000 0.0000 0.0000 -17.1951 0.0000 0.0000
# 5 0.0000 0.0000 0.0000 0.0000 14.5781 0.0000
# 6 0.0000 0.0000 0.0000 0.0000 0.0000 22.0983
#
#
#
# Elastic Compliance Matrix: (Units=1/GPa)
#
#
# Indices 1 2 3 4 5 6 
#
# 1 0.081276 -0.007175 -0.008418 0.000000 0.000000 0.000000
# 2 -0.007175 0.014813 -0.005428 0.000000 0.000000 0.000000
# 3 -0.008418 -0.005428 0.008748 0.000000 0.000000 0.000000
# 4 0.000000 0.000000 0.000000 -0.058156 0.000000 0.000000
# 5 0.000000 0.000000 0.000000 0.000000 0.068596 0.000000
# 6 0.000000 0.000000 0.000000 0.000000 0.000000 0.045252
#
#
# Mechanical properties :
#
#
# Convention : Reuss Voigt Hill
#
# Bulk Modulus (GPa) = 15.92519 63.90559 39.91539
# Shear Modulus (GPa) = 22.37098 16.36866 19.36982
#
# Velocity S-wave (km/s) = 3.35405 2.86902 3.12097
# Velocity P-wave (km/s) = 4.79665 6.56591 5.74974
#
# Compressibility (1/GPa) = 0.06279359
#
# Stress axis : x y z
#
# Youngs Moduli (GPa) = 12.30376 67.50820 114.31363
#
# Poissons Ratio (x) = 0.48439 0.96230
# Poissons Ratio (y) = 0.08828 0.62052
# Poissons Ratio (z) = 0.10357 0.36645
#
# Static dielectric constant tensor:
#      x y z
#    x 1.699360 0.000000 0.000000 
#    y 0.000000 1.685840 0.000000 
#    z 0.000000 0.000000 1.745830 
# 
# From -- ./inp_files/17857.got.cif
#   From: 2010.05.17/outbox.cif.g08.bks.cpg/sg35_9_cif.got.tgz:17857.got - 2010.06.03 17:29:28.
