data_PCOD9350129
_publ_section_title
;
Structure prediction by ZEFSAII (Michael W. Deem and Ramdas Pophale) SiO2 
 PCOD9350129
Probable space group: C M M 2
;
_chemical_formula_sum "Si O2"
_cell_formula_units_Z 48
_cell_length_a 36.631990
_cell_length_b 8.448575
_cell_length_c 7.523238
_cell_angle_alpha 90.000000
_cell_angle_beta 90.000000
_cell_angle_gamma 90.000000
_cell_volume 2328.352747
_symmetry_space_group_name_H-M "C M M 2"
_symmetry_group_IT_number 35
_symmetry_cell_setting 'orthorhombic'
loop_
_space_group_symop_operation_xyz
x,y,z
-x,-y,z
-x,y,z
x,-y,z
1/2+x,1/2+y,z
1/2-x,1/2-y,z
1/2-x,1/2+y,z
1/2+x,1/2-y,z
loop_
_atom_site_type_symbol
_atom_site_label
_atom_site_fract_x
_atom_site_fract_y
_atom_site_fract_z
Si Si1 0.210384 0.308525 0.358670
Si Si2 0.044273 0.000000 0.363740
Si Si3 0.210530 0.691195 0.765954
Si Si4 0.571552 0.179891 0.990346
Si Si5 0.542896 0.500000 0.936026
Si Si6 0.543072 0.166881 0.385820
Si Si7 0.844803 0.308503 0.063066
O O1 0.210912 0.500000 0.356580
O O2 0.250000 0.250000 0.294918
O O3 0.205909 0.255707 0.562434
O O4 0.177348 0.252143 0.235211
O O5 0.058655 0.835935 0.442577
O O6 0.000000 0.000000 0.383886
O O7 0.050426 0.000000 0.150514
O O8 0.210908 0.500000 0.767559
O O9 0.250000 0.750000 0.829648
O O10 0.178021 0.746483 0.892228
O O11 0.557629 0.328489 0.876114
O O12 0.571511 0.000000 0.913499
O O13 0.547593 0.168625 0.170980
O O14 0.612558 0.224756 0.050156
O O15 0.500000 0.500000 0.905423
O O16 0.500000 0.165118 0.427296
O O17 0.559591 0.000000 0.448454
O O18 0.842790 0.500000 0.066330
#
# Coordination Sequence:
#
# PCOD9350129 Si02
#       7
#     8   4   8   8   4   8   8
#     4   9  17  30  47  66  90 122 160 199 238 287
#     4   7  10  16  26  40  62  92 124 162 202 240
#     4   9  17  30  47  66  90 122 160 199 238 287
#     4   9  16  26  39  59  91 124 154 196 247 293
#     4   9  16  26  40  62  92 124 162 202 240 292
#     4   8  12  18  30  47  68  98 133 167 206 253
#     4   9  17  29  44  65  95 125 154 195 248 295
#
# _framework density 20.615432999999999
#
# number of rings (size 3 to 8) (size 9 to 14) (size 15 to 20)
#    0.000    3.333    0.000    2.000    0.000    1.000 
#    3.000    0.000    0.000    0.000    0.000    0.000 
#    0.000    6.667    0.000   59.667    0.000    0.000 
#
# Total GULP energy -133601.755320 kJ/mol
# GULP energy per Si atom -5566.739805 kJ/mol
# Density = 2.056851 g / cm^3
# Si number density = 20.615433 Si / 1000 Ang^3
#
#
#
# Elastic Constant Matrix: (Units=GPa)
#
#
# Indices 1 2 3 4 5 6 
#
# 1 51.8990 6.5822 11.6833 0.0000 0.0000 0.0000
# 2 6.5822 131.4307 2.9294 0.0000 0.0000 0.0000
# 3 11.6833 2.9294 45.6829 0.0000 0.0000 0.0000
# 4 0.0000 0.0000 0.0000 -4.9971 0.0000 0.0000
# 5 0.0000 0.0000 0.0000 0.0000 -17.8142 0.0000
# 6 0.0000 0.0000 0.0000 0.0000 0.0000 28.3359
#
#
#
# Elastic Compliance Matrix: (Units=1/GPa)
#
#
# Indices 1 2 3 4 5 6 
#
# 1 0.020554 -0.000914 -0.005198 0.000000 0.000000 0.000000
# 2 -0.000914 0.007660 -0.000258 0.000000 0.000000 0.000000
# 3 -0.005198 -0.000258 0.023236 0.000000 0.000000 0.000000
# 4 0.000000 0.000000 0.000000 -0.200115 0.000000 0.000000
# 5 0.000000 0.000000 0.000000 0.000000 -0.056135 0.000000
# 6 0.000000 0.000000 0.000000 0.000000 0.000000 0.035291
#
#
# Mechanical properties :
#
#
# Convention : Reuss Voigt Hill
#
# Bulk Modulus (GPa) = 25.83189 30.15582 27.99385
# Shear Modulus (GPa) = -34.75451 14.95940 -9.89755
#
# Velocity S-wave (km/s) = -4.11036 2.69669 -2.19350
# Velocity P-wave (km/s) = 3.15741 4.93516 2.68203
#
# Compressibility (1/GPa) = 0.03871184
#
# Stress axis : x y z
#
# Youngs Moduli (GPa) = 48.65180 130.54718 43.03671
#
# Poissons Ratio (x) = 0.11926 0.22371
# Poissons Ratio (y) = 0.04444 0.01108
# Poissons Ratio (z) = 0.25290 0.03362
#
# Static dielectric constant tensor:
#      x y z
#    x 1.699100 0.000000 0.000000 
#    y 0.000000 1.820600 0.000000 
#    z 0.000000 0.000000 1.738350 
# 
# From -- ./inp_files/5390.got.cif
#   From: 2010.05.17/outbox.cif.g08.bks.cpg/sg35_3_cif.got.tgz:5390.got - 2010.06.03 17:29:28.
