data_PCOD9350164
_publ_section_title
;
Structure prediction by ZEFSAII (Michael W. Deem and Ramdas Pophale) SiO2 
 PCOD9350164
Probable space group: C M M 2
;
_chemical_formula_sum "Si O2"
_cell_formula_units_Z 32
_cell_length_a 30.000000
_cell_length_b 9.000000
_cell_length_c 12.000000
_cell_angle_alpha 90.000000
_cell_angle_beta 90.000000
_cell_angle_gamma 90.000000
_cell_volume 3240.000000
_symmetry_space_group_name_H-M "C M M 2"
_symmetry_group_IT_number 35
_symmetry_cell_setting 'orthorhombic'
loop_
_space_group_symop_operation_xyz
x,y,z
-x,-y,z
-x,y,z
x,-y,z
1/2+x,1/2+y,z
1/2-x,1/2-y,z
1/2-x,1/2+y,z
1/2+x,1/2-y,z
loop_
_atom_site_type_symbol
_atom_site_label
_atom_site_fract_x
_atom_site_fract_y
_atom_site_fract_z
Si Si1 0.674777 0.323917 0.175120
Si Si2 0.700410 0.819996 0.411003
Si Si3 0.449357 0.335441 0.245811
Si Si4 0.586776 0.673447 0.026019
Si Si5 0.446348 0.169296 0.457001
Si Si6 0.120927 0.330105 0.819675
Si Si7 0.711035 0.169471 0.962500
Si Si8 0.129820 0.176078 0.582568
O O1 0.682649 0.238740 0.290574
O O2 0.627251 0.298766 0.114243
O O3 0.818559 0.000000 0.192447
O O4 0.704955 0.260506 0.076071
O O5 0.750000 0.750000 0.425592
O O6 0.667052 0.759649 0.507159
O O7 0.702237 0.000000 0.412085
O O8 0.500000 0.352207 0.283313
O O9 0.427641 0.500000 0.259608
O O10 0.451397 0.299337 0.115435
O O11 0.432240 0.211819 0.330331
O O12 0.589080 0.500000 0.994729
O O13 0.587442 0.765895 0.913259
O O14 0.500000 0.177624 0.472283
O O15 0.418366 0.281617 0.531722
O O16 0.432987 0.000000 0.481182
O O17 0.110028 0.500000 0.789879
O O18 0.166717 0.327486 0.889763
O O19 0.127954 0.234244 0.709333
O O20 0.750000 0.250000 0.895955
O O21 0.721890 0.000000 0.987954
O O22 0.137584 0.000000 0.577579
#
# Coordination Sequence:
#
# PCOD9350164 Si02
#       8
#     8   8   8   8   8   8   8   8
#     4  10  19  33  54  81 113 147 187 234 285 341
#     4  12  25  41  60  85 119 156 197 242 292 349
#     4   9  17  31  54  85 119 150 182 225 279 340
#     4   9  18  33  54  80 110 146 186 229 280 339
#     4  10  21  38  62  92 123 154 192 239 291 347
#     4  10  22  39  57  78 106 143 189 237 283 335
#     4  10  20  34  54  79 107 141 182 231 285 339
#     4  12  25  42  63  85 114 154 199 245 294 346
#
# _framework density 9.8765429999999999
#
# number of rings (size 3 to 8) (size 9 to 14) (size 15 to 20)
#    0.000    1.750    0.000    4.875    0.000    4.750 
#    0.000    1.875    0.000    2.250    0.000    0.000 
#    0.000    0.000    0.000    0.000    0.000    0.000 
#
# Total GULP energy -178316.562206 kJ/mol
# GULP energy per Si atom -5572.392569 kJ/mol
# Density = 0.985406 g / cm^3
# Si number density = 9.876543 Si / 1000 Ang^3
#
#
#
# Elastic Constant Matrix: (Units=GPa)
#
#
# Indices 1 2 3 4 5 6 
#
# 1 57.5175 36.1246 16.2882 0.0000 0.0000 0.0000
# 2 36.1246 138.3623 64.8378 0.0000 0.0000 0.0000
# 3 16.2882 64.8378 117.3120 0.0000 0.0000 0.0000
# 4 0.0000 0.0000 0.0000 78.9857 0.0000 0.0000
# 5 0.0000 0.0000 0.0000 0.0000 4.7047 0.0000
# 6 0.0000 0.0000 0.0000 0.0000 0.0000 21.1623
#
#
#
# Elastic Compliance Matrix: (Units=1/GPa)
#
#
# Indices 1 2 3 4 5 6 
#
# 1 0.020798 -0.005502 0.000153 0.000000 0.000000 0.000000
# 2 -0.005502 0.011209 -0.005431 0.000000 0.000000 0.000000
# 3 0.000153 -0.005431 0.011505 0.000000 0.000000 0.000000
# 4 0.000000 0.000000 0.000000 0.012661 0.000000 0.000000
# 5 0.000000 0.000000 0.000000 0.000000 0.212552 0.000000
# 6 0.000000 0.000000 0.000000 0.000000 0.000000 0.047254
#
#
# Mechanical properties :
#
#
# Convention : Reuss Voigt Hill
#
# Bulk Modulus (GPa) = 45.55389 60.85477 53.20433
# Shear Modulus (GPa) = 14.49881 34.03327 24.26604
#
# Velocity S-wave (km/s) = 2.71219 4.15533 3.50875
# Velocity P-wave (km/s) = 5.73757 7.34145 6.58850
#
# Compressibility (1/GPa) = 0.02195202
#
# Stress axis : x y z
#
# Youngs Moduli (GPa) = 48.08108 89.21391 86.91992
#
# Poissons Ratio (x) = 0.49085 -0.01331
# Poissons Ratio (y) = 0.26454 0.47208
# Poissons Ratio (z) = -0.00736 0.48454
#
# Static dielectric constant tensor:
#      x y z
#    x 1.946470 0.000000 0.000000 
#    y 0.000000 1.708720 0.000000 
#    z 0.000000 0.000000 1.667180 
# 
# From -- ./inp_files/14593.got.cif
#   From: 2010.05.17/outbox.ucp.g08.bks.cvg/sg35_8_cif.got.tgz:14593.got - 2010.06.11 10:36:28.
