data_PCOD9350592
_publ_section_title
;
Structure prediction by ZEFSAII (Michael W. Deem and Ramdas Pophale) SiO2 
 PCOD9350592
Probable space group: C M C 21
;
_chemical_formula_sum "Si O2"
_cell_formula_units_Z 64
_cell_length_a 7.814548
_cell_length_b 24.206616
_cell_length_c 12.449258
_cell_angle_alpha 90.000000
_cell_angle_beta 90.000000
_cell_angle_gamma 90.000000
_cell_volume 2354.948485
_symmetry_space_group_name_H-M "C M C 21"
_symmetry_group_IT_number 36
_symmetry_cell_setting 'orthorhombic'
loop_
_space_group_symop_operation_xyz
x,y,z
-x,-y,1/2+z
x,-y,1/2+z
-x,y,z
1/2+x,1/2+y,z
1/2-x,1/2-y,1/2+z
1/2+x,1/2-y,1/2+z
1/2-x,1/2+y,z
loop_
_atom_site_type_symbol
_atom_site_label
_atom_site_fract_x
_atom_site_fract_y
_atom_site_fract_z
Si Si1 0.193423 0.902222 0.751940
Si Si2 0.794424 0.121144 0.650463
Si Si3 0.303910 0.895945 0.434618
Si Si4 0.206973 0.727904 0.766851
Si Si5 0.690135 0.695701 0.081519
Si Si6 0.789327 0.176732 0.428334
Si Si7 0.204509 0.997400 0.066490
Si Si8 0.795774 0.503673 0.834795
O O1 0.185132 0.857202 0.660155
O O2 0.282658 0.869143 0.846778
O O3 0.260284 0.964190 0.733960
O O4 0.000000 0.912618 0.783990
O O5 0.749458 0.163713 0.747678
O O6 0.735931 0.157329 0.545863
O O7 0.728487 0.058028 0.629335
O O8 0.000000 0.116531 0.646399
O O9 0.500000 0.889030 0.406192
O O10 0.251311 0.836459 0.476501
O O11 0.289439 0.942618 0.531136
O O12 0.218582 0.934698 0.343258
O O13 0.278691 0.759687 0.659090
O O14 0.259658 0.765129 0.870652
O O15 0.000000 0.732865 0.764575
O O16 0.500000 0.716227 0.059743
O O17 0.000000 0.177168 0.427989
O O18 0.000000 0.006666 0.086985
O O19 0.218314 0.974870 0.940561
O O20 0.000000 0.505736 0.844356
#
# Coordination Sequence:
#
# PCOD9350592 Si02
#       8
#     8   8   8   8   8   8   8   8
#     4   9  15  27  47  68  89 118 156 194 234 281
#     4  10  18  30  51  74  97 127 162 200 245 292
#     4   9  18  29  44  68  95 120 146 186 235 277
#     4   9  19  32  48  72  99 128 164 201 240 289
#     4   9  18  31  48  68  93 127 162 191 229 286
#     4   8  14  29  48  66  93 127 160 196 241 292
#     4   9  16  28  48  69  90 121 157 192 231 283
#     4   9  17  26  40  69  96 114 143 184 235 280
#
# _framework density 27.176815000000001
#
# number of rings (size 3 to 8) (size 9 to 14) (size 15 to 20)
#    0.750    2.250    1.250    2.250    0.000    2.000 
#    0.000    2.500    0.000    1.500    0.000    3.500 
#    0.000    0.000    0.000    0.000    0.000    0.000 
#
# Total GULP energy -178168.595195 kJ/mol
# GULP energy per Si atom -5567.768600 kJ/mol
# Density = 2.711496 g / cm^3
# Si number density = 27.176815 Si / 1000 Ang^3
#
#
#
# Elastic Constant Matrix: (Units=GPa)
#
#
# Indices 1 2 3 4 5 6 
#
# 1 55.8619 3.0331 -8.0342 0.0000 0.0000 0.0000
# 2 3.0331 247.9160 26.7875 0.0000 0.0000 0.0000
# 3 -8.0342 26.7875 29.1456 0.0000 0.0000 0.0000
# 4 0.0000 0.0000 0.0000 46.5468 0.0000 0.0000
# 5 0.0000 0.0000 0.0000 0.0000 -5.4846 0.0000
# 6 0.0000 0.0000 0.0000 0.0000 0.0000 19.0529
#
#
#
# Elastic Compliance Matrix: (Units=1/GPa)
#
#
# Indices 1 2 3 4 5 6 
#
# 1 0.018811 -0.000878 0.005992 0.000000 0.000000 0.000000
# 2 -0.000878 0.004519 -0.004396 0.000000 0.000000 0.000000
# 3 0.005992 -0.004396 0.040002 0.000000 0.000000 0.000000
# 4 0.000000 0.000000 0.000000 0.021484 0.000000 0.000000
# 5 0.000000 0.000000 0.000000 0.000000 -0.182328 0.000000
# 6 0.000000 0.000000 0.000000 0.000000 0.000000 0.052485
#
#
# Mechanical properties :
#
#
# Convention : Reuss Voigt Hill
#
# Bulk Modulus (GPa) = 15.43932 41.83292 28.63612
# Shear Modulus (GPa) = -201.00902 32.76550 -84.12176
#
# Velocity S-wave (km/s) = -8.60953 3.47600 -5.56962
# Velocity P-wave (km/s) = 9.65083 5.61573 5.54987
#
# Compressibility (1/GPa) = 0.06476968
#
# Stress axis : x y z
#
# Youngs Moduli (GPa) = 53.16119 221.27294 24.99867
#
# Poissons Ratio (x) = 0.19418 -0.14979
# Poissons Ratio (y) = 0.04665 0.10988
# Poissons Ratio (z) = -0.31854 0.97262
#
# Static dielectric constant tensor:
#      x y z
#    x 1.978970 0.000000 0.000000 
#    y 0.000000 2.210630 0.000000 
#    z 0.000000 0.000000 2.508050 
# 
# From -- ./inp_files/11177.got.cif
#   From: 2010.05.17/outbox.cif.g08.bks.cpg/sg36_6_cif.got.tgz:11177.got - 2010.06.03 17:41:39.
