data_PCOD9350029
_publ_section_title
;
Structure prediction by ZEFSAII (Michael W. Deem and Ramdas Pophale) SiO2 
 PCOD9350029
Probable space group: C M M 2
;
_chemical_formula_sum "Si O2"
_cell_formula_units_Z 38
_cell_length_a 14.257877
_cell_length_b 25.572428
_cell_length_c 5.056043
_cell_angle_alpha 90.000000
_cell_angle_beta 90.000000
_cell_angle_gamma 90.000000
_cell_volume 1843.476421
_symmetry_space_group_name_H-M "C M M 2"
_symmetry_group_IT_number 35
_symmetry_cell_setting 'orthorhombic'
loop_
_space_group_symop_operation_xyz
x,y,z
-x,-y,z
-x,y,z
x,-y,z
1/2+x,1/2+y,z
1/2-x,1/2-y,z
1/2-x,1/2+y,z
1/2+x,1/2-y,z
loop_
_atom_site_type_symbol
_atom_site_label
_atom_site_fract_x
_atom_site_fract_y
_atom_site_fract_z
Si Si1 0.361795 0.749087 0.784270
Si Si2 0.731304 0.603794 0.182138
Si Si3 0.601128 0.815086 0.276320
Si Si4 0.645393 0.000000 0.223808
Si Si5 0.607069 0.628299 0.681231
Si Si6 0.500000 0.000000 0.723649
O O1 0.250000 0.750000 0.782713
O O2 0.393183 0.791700 0.569227
O O3 0.393521 0.691317 0.709093
O O4 0.394821 0.767021 0.071941
O O5 0.810416 0.648881 0.212378
O O6 0.787735 0.550562 0.219739
O O7 0.652470 0.613098 0.403081
O O8 0.678096 0.607659 0.904228
O O9 0.500000 0.842659 0.242762
O O10 0.581590 0.000000 0.487354
O O11 0.581400 0.000000 0.960064
O O12 0.500000 0.609658 0.710683
#
# Coordination Sequence:
#
# PCOD9350029 Si02
#       6
#     8   8   8   4   8   2
#     4  12  22  43  62  94 137 173 219 273 334 389
#     4  12  25  46  67  98 136 171 232 280 340 400
#     4  12  24  39  64  97 132 175 211 268 335 412
#     4  11  26  48  71 104 138 180 219 298 333 412
#     4  12  25  43  70  97 133 184 229 278 333 405
#     4  10  24  46  76 102 130 182 220 258 376 410
#
# _framework density 20.613229
#
# number of rings (size 3 to 8) (size 9 to 14) (size 15 to 20)
#    0.000    0.211    4.211    5.684    2.947    0.000 
#    0.000    3.158    0.000    0.000    0.000    0.000 
#    0.000    0.000    0.000    0.000    0.000    0.000 
#
# Total GULP energy -106067.851939 kJ/mol
# GULP energy per Si atom -5582.518523 kJ/mol
# Density = 2.056631 g / cm^3
# Si number density = 20.613229 Si / 1000 Ang^3
#
#
#
# Elastic Constant Matrix: (Units=GPa)
#
#
# Indices 1 2 3 4 5 6 
#
# 1 143.7012 8.7314 -5.2534 0.0000 0.0000 0.0000
# 2 8.7314 69.9008 -14.2084 0.0000 0.0000 0.0000
# 3 -5.2534 -14.2084 71.2246 0.0000 0.0000 0.0000
# 4 0.0000 0.0000 0.0000 -6.7261 0.0000 0.0000
# 5 0.0000 0.0000 0.0000 0.0000 -506.1020 0.0000
# 6 0.0000 0.0000 0.0000 0.0000 0.0000 -0.0851
#
#
#
# Elastic Compliance Matrix: (Units=1/GPa)
#
#
# Indices 1 2 3 4 5 6 
#
# 1 0.007021 -0.000804 0.000357 0.000000 0.000000 0.000000
# 2 -0.000804 0.015003 0.002934 0.000000 0.000000 0.000000
# 3 0.000357 0.002934 0.014652 0.000000 0.000000 0.000000
# 4 0.000000 0.000000 0.000000 -0.148674 0.000000 0.000000
# 5 0.000000 0.000000 0.000000 0.000000 -0.001976 0.000000
# 6 0.000000 0.000000 0.000000 0.000000 0.000000-11.749966
#
#
# Mechanical properties :
#
#
# Convention : Reuss Voigt Hill
#
# Bulk Modulus (GPa) = 24.01054 29.26287 26.63670
# Shear Modulus (GPa) = -0.42176 -82.87886 -41.65031
#
# Velocity S-wave (km/s) = -0.45283 -6.34775 -4.49994
# Velocity P-wave (km/s) = 3.37639 6.28476 3.74822
#
# Compressibility (1/GPa) = 0.04164838
#
# Stress axis : x y z
#
# Youngs Moduli (GPa) = 142.43351 66.65446 68.25166
#
# Poissons Ratio (x) = 0.05361 -0.02439
# Poissons Ratio (y) = 0.11456 -0.20022
# Poissons Ratio (z) = -0.05090 -0.19553
#
# Static dielectric constant tensor:
#      x y z
#    x 1.890180 0.000000 0.000000 
#    y 0.000000 1.739270 0.000000 
#    z 0.000000 0.000000 1.695730 
# 
# From -- ./inp_files/1835.got.cif
#   From: 2010.05.17/outbox.cif.g08.bks.cpg/sg35_1_cif.got.tgz:1835.got - 2010.06.03 17:29:28.
