data_PCOD9350946
_publ_section_title
;
Structure prediction by ZEFSAII (Michael W. Deem and Ramdas Pophale) SiO2 
 PCOD9350946
Probable space group: C M C 21
;
_chemical_formula_sum "Si O2"
_cell_formula_units_Z 64
_cell_length_a 8.997328
_cell_length_b 23.599674
_cell_length_c 17.982303
_cell_angle_alpha 90.000000
_cell_angle_beta 90.000000
_cell_angle_gamma 90.000000
_cell_volume 3818.254463
_symmetry_space_group_name_H-M "C M C 21"
_symmetry_group_IT_number 36
_symmetry_cell_setting 'orthorhombic'
loop_
_space_group_symop_operation_xyz
x,y,z
-x,-y,1/2+z
x,-y,1/2+z
-x,y,z
1/2+x,1/2+y,z
1/2-x,1/2-y,1/2+z
1/2+x,1/2-y,1/2+z
1/2-x,1/2+y,z
loop_
_atom_site_type_symbol
_atom_site_label
_atom_site_fract_x
_atom_site_fract_y
_atom_site_fract_z
Si Si1 0.676635 0.139472 0.683870
Si Si2 0.831460 0.516183 0.463810
Si Si3 0.321801 0.317149 0.868452
Si Si4 0.328746 0.924860 0.800290
Si Si5 0.668737 0.586614 0.903148
Si Si6 0.820615 0.365676 0.016191
Si Si7 0.170802 0.970491 0.238528
Si Si8 0.319956 0.697911 0.824797
O O1 0.500000 0.141746 0.698328
O O2 0.704059 0.157162 0.598809
O O3 0.733596 0.075047 0.693515
O O4 0.763115 0.176492 0.744614
O O5 0.832079 0.543240 0.380583
O O6 0.750829 0.456326 0.457763
O O7 0.770207 0.568320 0.512009
O O8 0.000000 0.505931 0.487251
O O9 0.500000 0.315979 0.866923
O O10 0.259753 0.367119 0.815204
O O11 0.251594 0.257644 0.844465
O O12 0.262068 0.332710 0.950842
O O13 0.500000 0.914311 0.779254
O O14 0.247183 0.968383 0.745330
O O15 0.500000 0.592763 0.928612
O O16 0.667197 0.555654 0.822393
O O17 0.728388 0.649082 0.883971
O O18 0.000000 0.365253 0.001455
O O19 0.000000 0.973719 0.213054
O O20 0.500000 0.700080 0.825205
#
# Coordination Sequence:
#
# PCOD9350946 Si02
#       8
#     8   8   8   8   8   8   8   8
#     4  10  19  32  51  74 100 131 168 209 257 309
#     4   8  14  25  43  66  91 119 149 184 231 284
#     4  11  21  32  50  75 100 130 173 217 256 303
#     4   9  16  28  46  68  95 125 156 194 242 289
#     4   8  15  26  42  65  91 119 149 187 234 280
#     4   9  19  34  50  71 101 134 165 204 256 309
#     4   9  16  27  44  69  98 124 154 194 241 290
#     4  10  20  34  50  70 100 134 170 213 259 304
#
# _framework density 16.761585
#
# number of rings (size 3 to 8) (size 9 to 14) (size 15 to 20)
#    0.000    2.750    0.000    4.125    0.000    7.500 
#    0.000    0.000    0.000    1.500    0.000    3.500 
#    0.000    0.000    0.000    0.000    0.000    0.000 
#
# Total GULP energy -178202.068694 kJ/mol
# GULP energy per Si atom -5568.814647 kJ/mol
# Density = 1.672343 g / cm^3
# Si number density = 16.761585 Si / 1000 Ang^3
#
#
#
# Elastic Constant Matrix: (Units=GPa)
#
#
# Indices 1 2 3 4 5 6 
#
# 1 91.7418 63.9642 29.5020 0.0000 0.0000 0.0000
# 2 63.9642 145.5197 40.0466 0.0000 0.0000 0.0000
# 3 29.5020 40.0466 46.1595 0.0000 0.0000 0.0000
# 4 0.0000 0.0000 0.0000 12.2430 0.0000 0.0000
# 5 0.0000 0.0000 0.0000 0.0000 16.1281 0.0000
# 6 0.0000 0.0000 0.0000 0.0000 0.0000 30.4344
#
#
#
# Elastic Compliance Matrix: (Units=1/GPa)
#
#
# Indices 1 2 3 4 5 6 
#
# 1 0.016780 -0.005812 -0.005682 0.000000 0.000000 0.000000
# 2 -0.005812 0.011040 -0.005864 0.000000 0.000000 0.000000
# 3 -0.005682 -0.005864 0.030383 0.000000 0.000000 0.000000
# 4 0.000000 0.000000 0.000000 0.081679 0.000000 0.000000
# 5 0.000000 0.000000 0.000000 0.000000 0.062004 0.000000
# 6 0.000000 0.000000 0.000000 0.000000 0.000000 0.032858
#
#
# Mechanical properties :
#
#
# Convention : Reuss Voigt Hill
#
# Bulk Modulus (GPa) = 42.57630 61.16076 51.86853
# Shear Modulus (GPa) = 18.03182 21.75497 19.89340
#
# Velocity S-wave (km/s) = 3.28347 3.60656 3.44880
# Velocity P-wave (km/s) = 6.31119 7.34240 6.84624
#
# Compressibility (1/GPa) = 0.02348725
#
# Stress axis : x y z
#
# Youngs Moduli (GPa) = 59.59635 90.57800 32.91345
#
# Poissons Ratio (x) = 0.52643 0.18702
# Poissons Ratio (y) = 0.34637 0.19299
# Poissons Ratio (z) = 0.33864 0.53111
#
# Static dielectric constant tensor:
#      x y z
#    x 1.571310 0.000000 0.000000 
#    y 0.000000 1.570790 0.000000 
#    z 0.000000 0.000000 1.571580 
# 
# From -- ./inp_files/13783.got.cif
#   From: 2010.05.17/outbox.cif.g08.bks.cpg/sg36_7_cif.got.tgz:13783.got - 2010.06.03 17:41:39.
