data_PCOD9350642
_publ_section_title
;
Structure prediction by ZEFSAII (Michael W. Deem and Ramdas Pophale) SiO2 
 PCOD9350642
Probable space group: C M C 21
;
_chemical_formula_sum "Si O2"
_cell_formula_units_Z 52
_cell_length_a 19.394345
_cell_length_b 23.302542
_cell_length_c 5.381645
_cell_angle_alpha 90.000000
_cell_angle_beta 90.000000
_cell_angle_gamma 90.000000
_cell_volume 2432.167397
_symmetry_space_group_name_H-M "C M C 21"
_symmetry_group_IT_number 36
_symmetry_cell_setting 'orthorhombic'
loop_
_space_group_symop_operation_xyz
x,y,z
-x,-y,1/2+z
x,-y,1/2+z
-x,y,z
1/2+x,1/2+y,z
1/2-x,1/2-y,1/2+z
1/2+x,1/2-y,1/2+z
1/2-x,1/2+y,z
loop_
_atom_site_type_symbol
_atom_site_label
_atom_site_fract_x
_atom_site_fract_y
_atom_site_fract_z
Si Si1 0.771009 0.315263 0.801520
Si Si2 0.614598 0.679142 0.310917
Si Si3 0.000000 0.537864 0.745976
Si Si4 0.145942 0.537241 0.847193
Si Si5 0.925389 0.119583 0.810092
Si Si6 0.682860 0.205247 0.801160
Si Si7 0.796964 0.035999 0.759688
O O1 0.695021 0.341945 0.809669
O O2 0.753584 0.245764 0.798171
O O3 0.812108 0.328520 0.554650
O O4 0.814101 0.327279 0.044707
O O5 0.580712 0.656125 0.061642
O O6 0.623074 0.747677 0.306443
O O7 0.580782 0.658032 0.563353
O O8 0.073315 0.568848 0.794127
O O9 0.000000 0.511074 0.466880
O O10 0.144676 0.512509 0.129511
O O11 0.221469 0.436869 0.300474
O O12 0.000000 0.089792 0.807820
O O13 0.860701 0.077651 0.801993
O O14 0.801094 0.988960 0.980938
#
# Coordination Sequence:
#
# PCOD9350642 Si02
#       7
#     8   8   4   8   8   8   8
#     4   8  13  24  45  71  93 117 135 159 221 297
#     4  10  18  32  47  66  95 121 146 203 255 305
#     4   8  12  20  38  66  90 102 114 146 214 300
#     4   8  14  25  43  64  84 106 131 171 236 295
#     4  12  24  34  46  64  88 131 175 222 279 303
#     4   8  13  24  45  71  93 117 135 159 221 297
#     4  10  21  37  51  61  80 120 175 228 269 307
#
# _framework density 21.380108
#
# number of rings (size 3 to 8) (size 9 to 14) (size 15 to 20)
#    0.923    1.846    0.000    3.231    0.000    0.615 
#    0.000    0.000    0.000    0.000    0.000    0.000 
#    0.000    0.000  209.231    0.000   16.000    0.000 
#
# Total GULP energy -144825.921429 kJ/mol
# GULP energy per Si atom -5570.227747 kJ/mol
# Density = 2.133145 g / cm^3
# Si number density = 21.380108 Si / 1000 Ang^3
#
#
#
# Elastic Constant Matrix: (Units=GPa)
#
#
# Indices 1 2 3 4 5 6 
#
# 1 157.3673 21.3636 16.1037 0.0000 0.0000 0.0000
# 2 21.3636 35.4358 23.2851 0.0000 0.0000 0.0000
# 3 16.1037 23.2851 165.5935 0.0000 0.0000 0.0000
# 4 0.0000 0.0000 0.0000 10.5223 0.0000 0.0000
# 5 0.0000 0.0000 0.0000 0.0000 46.7623 0.0000
# 6 0.0000 0.0000 0.0000 0.0000 0.0000 20.6964
#
#
#
# Elastic Compliance Matrix: (Units=1/GPa)
#
#
# Indices 1 2 3 4 5 6 
#
# 1 0.006922 -0.004111 -0.000095 0.000000 0.000000 0.000000
# 2 -0.004111 0.033534 -0.004316 0.000000 0.000000 0.000000
# 3 -0.000095 -0.004316 0.006655 0.000000 0.000000 0.000000
# 4 0.000000 0.000000 0.000000 0.095036 0.000000 0.000000
# 5 0.000000 0.000000 0.000000 0.000000 0.021385 0.000000
# 6 0.000000 0.000000 0.000000 0.000000 0.000000 0.048318
#
#
# Mechanical properties :
#
#
# Convention : Reuss Voigt Hill
#
# Bulk Modulus (GPa) = 33.25766 53.32238 43.29002
# Shear Modulus (GPa) = 20.92787 35.43915 28.18351
#
# Velocity S-wave (km/s) = 3.13205 4.07575 3.63466
# Velocity P-wave (km/s) = 5.35433 6.86610 6.15679
#
# Compressibility (1/GPa) = 0.03006827
#
# Stress axis : x y z
#
# Youngs Moduli (GPa) = 144.45925 29.82030 150.26323
#
# Poissons Ratio (x) = 0.12259 0.01430
# Poissons Ratio (y) = 0.59385 0.64849
# Poissons Ratio (z) = 0.01374 0.12869
#
# Static dielectric constant tensor:
#      x y z
#    x 1.793720 0.000000 0.000000 
#    y 0.000000 1.812830 0.000000 
#    z 0.000000 0.000000 1.868000 
# 
# From -- ./inp_files/1378.got.cif
#   From: 2010.05.17/outbox.cif.g08.bks.cpg/sg36_1_cif.got.tgz:1378.got - 2010.06.03 17:41:39.
