data_PCOD9350847
_publ_section_title
;
Structure prediction by ZEFSAII (Michael W. Deem and Ramdas Pophale) SiO2 
 PCOD9350847
Probable space group: C M C 21
;
_chemical_formula_sum "Si O2"
_cell_formula_units_Z 64
_cell_length_a 7.830715
_cell_length_b 20.787123
_cell_length_c 20.483366
_cell_angle_alpha 90.000000
_cell_angle_beta 90.000000
_cell_angle_gamma 90.000000
_cell_volume 3334.242086
_symmetry_space_group_name_H-M "C M C 21"
_symmetry_group_IT_number 36
_symmetry_cell_setting 'orthorhombic'
loop_
_space_group_symop_operation_xyz
x,y,z
-x,-y,1/2+z
x,-y,1/2+z
-x,y,z
1/2+x,1/2+y,z
1/2-x,1/2-y,1/2+z
1/2+x,1/2-y,1/2+z
1/2-x,1/2+y,z
loop_
_atom_site_type_symbol
_atom_site_label
_atom_site_fract_x
_atom_site_fract_y
_atom_site_fract_z
Si Si1 0.298846 0.414954 0.356670
Si Si2 0.209481 0.916840 0.210515
Si Si3 0.300999 0.023936 0.456173
Si Si4 0.294042 0.835245 0.982336
Si Si5 0.800774 0.015288 0.099920
Si Si6 0.702560 0.842217 0.596761
Si Si7 0.294868 0.703256 0.629343
Si Si8 0.792293 0.804308 0.449471
O O1 0.500000 0.402562 0.348054
O O2 0.229914 0.427492 0.284290
O O3 0.280980 0.474523 0.405817
O O4 0.228280 0.351799 0.393266
O O5 0.263389 0.846916 0.183762
O O6 0.000000 0.919047 0.209924
O O7 0.265913 0.970048 0.157903
O O8 0.500000 0.026605 0.438894
O O9 0.229102 0.096564 0.456234
O O10 0.285703 0.998523 0.530385
O O11 0.500000 0.837295 0.978963
O O12 0.236462 0.770077 0.946311
O O13 0.247500 0.825979 0.058307
O O14 0.782753 0.090316 0.116760
O O15 0.000000 0.000044 0.089946
O O16 0.500000 0.846978 0.607420
O O17 0.769295 0.776741 0.630534
O O18 0.735006 0.831318 0.519653
O O19 0.500000 0.706919 0.633497
O O20 0.000000 0.805188 0.449722
#
# Coordination Sequence:
#
# PCOD9350847 Si02
#       8
#     8   8   8   8   8   8   8   8
#     4  10  20  35  55  76 102 140 181 218 259 316
#     4   9  19  35  54  76 102 137 183 221 255 310
#     4  11  21  33  51  78 110 137 172 221 266 312
#     4   9  18  31  49  76 105 131 166 215 261 303
#     4  11  20  33  54  76 103 139 179 220 260 310
#     4  10  19  30  50  79 108 131 164 217 267 304
#     4   9  17  32  52  75 102 134 170 213 258 305
#     4   9  17  31  51  74 100 133 173 209 254 312
#
# _framework density 19.194766999999999
#
# number of rings (size 3 to 8) (size 9 to 14) (size 15 to 20)
#    0.000    2.250    2.500    1.125    0.000    1.000 
#    0.000    3.125    0.000    3.000    0.000    0.000 
#    0.000    0.000    0.000    0.000    0.000    0.000 
#
# Total GULP energy -178498.464477 kJ/mol
# GULP energy per Si atom -5578.077015 kJ/mol
# Density = 1.915108 g / cm^3
# Si number density = 19.194767 Si / 1000 Ang^3
#
#
#
# Elastic Constant Matrix: (Units=GPa)
#
#
# Indices 1 2 3 4 5 6 
#
# 1 21.0148 -6.0871 -3.5912 0.0000 0.0000 0.0000
# 2 -6.0871 147.3900 65.0603 0.0000 0.0000 0.0000
# 3 -3.5912 65.0603 108.9504 0.0000 0.0000 0.0000
# 4 0.0000 0.0000 0.0000 22.5018 0.0000 0.0000
# 5 0.0000 0.0000 0.0000 0.0000 8.1359 0.0000
# 6 0.0000 0.0000 0.0000 0.0000 0.0000 15.5637
#
#
#
# Elastic Compliance Matrix: (Units=1/GPa)
#
#
# Indices 1 2 3 4 5 6 
#
# 1 0.048185 0.001750 0.000543 0.000000 0.000000 0.000000
# 2 0.001750 0.009277 -0.005482 0.000000 0.000000 0.000000
# 3 0.000543 -0.005482 0.012470 0.000000 0.000000 0.000000
# 4 0.000000 0.000000 0.000000 0.044441 0.000000 0.000000
# 5 0.000000 0.000000 0.000000 0.000000 0.122912 0.000000
# 6 0.000000 0.000000 0.000000 0.000000 0.000000 0.064252
#
#
# Mechanical properties :
#
#
# Convention : Reuss Voigt Hill
#
# Bulk Modulus (GPa) = 15.73442 43.12437 29.42939
# Shear Modulus (GPa) = 15.19297 24.03849 19.61573
#
# Velocity S-wave (km/s) = 2.81644 3.54269 3.20023
# Velocity P-wave (km/s) = 4.33492 6.26496 5.38708
#
# Compressibility (1/GPa) = 0.06355493
#
# Stress axis : x y z
#
# Youngs Moduli (GPa) = 20.75317 107.79501 80.19238
#
# Poissons Ratio (x) = -0.18867 -0.04355
# Poissons Ratio (y) = -0.03632 0.43962
# Poissons Ratio (z) = -0.01127 0.59094
#
# Static dielectric constant tensor:
#      x y z
#    x 1.691340 0.000000 0.000000 
#    y 0.000000 1.703110 0.000000 
#    z 0.000000 0.000000 1.636010 
# 
# From -- ./inp_files/13941.got.cif
#   From: 2010.05.17/outbox.cif.g08.bks.cpg/sg36_7_cif.got.tgz:13941.got - 2010.06.03 17:41:39.
