data_PCOD9350613
_publ_section_title
;
Structure prediction by ZEFSAII (Michael W. Deem and Ramdas Pophale) SiO2 
 PCOD9350613
Probable space group: C M C 21
;
_chemical_formula_sum "Si O2"
_cell_formula_units_Z 48
_cell_length_a 24.128042
_cell_length_b 10.187400
_cell_length_c 8.875665
_cell_angle_alpha 90.000000
_cell_angle_beta 90.000000
_cell_angle_gamma 90.000000
_cell_volume 2181.656342
_symmetry_space_group_name_H-M "C M C 21"
_symmetry_group_IT_number 36
_symmetry_cell_setting 'orthorhombic'
loop_
_space_group_symop_operation_xyz
x,y,z
-x,-y,1/2+z
x,-y,1/2+z
-x,y,z
1/2+x,1/2+y,z
1/2-x,1/2-y,1/2+z
1/2+x,1/2-y,1/2+z
1/2-x,1/2+y,z
loop_
_atom_site_type_symbol
_atom_site_label
_atom_site_fract_x
_atom_site_fract_y
_atom_site_fract_z
Si Si1 0.500000 0.394104 0.378031
Si Si2 0.319766 0.440538 0.894926
Si Si3 0.881887 0.781011 0.398902
Si Si4 0.882614 0.714537 0.060270
Si Si5 0.216476 0.411309 0.430071
Si Si6 0.500000 0.678225 0.523847
Si Si7 0.297306 0.756170 0.134287
O O1 0.444377 0.323758 0.436788
O O2 0.500000 0.547745 0.421239
O O3 0.500000 0.375299 0.196783
O O4 0.348205 0.581751 0.880666
O O5 0.255364 0.462282 0.939032
O O6 0.320387 0.363076 0.738394
O O7 0.352971 0.351182 0.011715
O O8 0.881141 0.706036 0.240357
O O9 0.847708 0.705770 0.526044
O O10 0.945220 0.734333 0.005405
O O11 0.846686 0.600923 0.982230
O O12 0.247769 0.307441 0.538927
O O13 0.219759 0.363300 0.257323
#
# Coordination Sequence:
#
# PCOD9350613 Si02
#       7
#     4   8   8   8   8   4   8
#     4  10  20  28  50  74 104 143 177 201 260 311
#     4  10  19  32  50  73 103 141 173 210 256 308
#     4  10  18  31  47  73 105 141 173 204 252 310
#     4  10  20  34  52  77 111 138 175 208 258 312
#     4  10  20  34  50  72 102 142 173 216 258 306
#     4  10  20  32  50  80 106 143 169 213 256 317
#     4  10  21  32  49  71 103 139 177 215 256 311
#
# _framework density 22.001632000000001
#
# number of rings (size 3 to 8) (size 9 to 14) (size 15 to 20)
#    0.000    2.000    1.667    4.000    2.333    2.667 
#    0.000    1.667    0.000    0.000    0.000    1.167 
#    0.000   30.667    0.000    0.833    0.000    0.000 
#
# Total GULP energy -134192.048239 kJ/mol
# GULP energy per Si atom -5591.335343 kJ/mol
# Density = 2.195156 g / cm^3
# Si number density = 22.001632 Si / 1000 Ang^3
#
#
#
# Elastic Constant Matrix: (Units=GPa)
#
#
# Indices 1 2 3 4 5 6 
#
# 1 176.8946 16.5340 48.1151 0.0000 0.0000 0.0000
# 2 16.5340 47.5263 9.3962 0.0000 0.0000 0.0000
# 3 48.1151 9.3962 94.6537 0.0000 0.0000 0.0000
# 4 0.0000 0.0000 0.0000 13.2001 0.0000 0.0000
# 5 0.0000 0.0000 0.0000 0.0000 33.5541 0.0000
# 6 0.0000 0.0000 0.0000 0.0000 0.0000 27.9050
#
#
#
# Elastic Compliance Matrix: (Units=1/GPa)
#
#
# Indices 1 2 3 4 5 6 
#
# 1 0.006690 -0.001688 -0.003233 0.000000 0.000000 0.000000
# 2 -0.001688 0.021888 -0.001315 0.000000 0.000000 0.000000
# 3 -0.003233 -0.001315 0.012339 0.000000 0.000000 0.000000
# 4 0.000000 0.000000 0.000000 0.075757 0.000000 0.000000
# 5 0.000000 0.000000 0.000000 0.000000 0.029803 0.000000
# 6 0.000000 0.000000 0.000000 0.000000 0.000000 0.035836
#
#
# Mechanical properties :
#
#
# Convention : Reuss Voigt Hill
#
# Bulk Modulus (GPa) = 35.15545 51.90724 43.53134
# Shear Modulus (GPa) = 24.47778 31.26712 27.87245
#
# Velocity S-wave (km/s) = 3.33910 3.77387 3.56312
# Velocity P-wave (km/s) = 5.55692 6.52941 6.06269
#
# Compressibility (1/GPa) = 0.02844509
#
# Stress axis : x y z
#
# Youngs Moduli (GPa) = 149.46937 45.68662 81.04446
#
# Poissons Ratio (x) = 0.07713 0.26204
# Poissons Ratio (y) = 0.25235 0.10654
# Poissons Ratio (z) = 0.48328 0.06006
#
# Static dielectric constant tensor:
#      x y z
#    x 1.829660 0.000000 0.000000 
#    y 0.000000 1.823700 0.000000 
#    z 0.000000 0.000000 1.817290 
# 
# From -- ./inp_files/5140.got.cif
#   From: 2010.05.17/outbox.cif.g08.bks.cpg/sg36_3_cif.got.tgz:5140.got - 2010.06.03 17:41:39.
