data_PCOD9350861
_publ_section_title
;
Structure prediction by ZEFSAII (Michael W. Deem and Ramdas Pophale) SiO2 
 PCOD9350861
Probable space group: C M C 21
;
_chemical_formula_sum "Si O2"
_cell_formula_units_Z 64
_cell_length_a 7.560073
_cell_length_b 20.830936
_cell_length_c 20.715713
_cell_angle_alpha 90.000000
_cell_angle_beta 90.000000
_cell_angle_gamma 90.000000
_cell_volume 3262.380851
_symmetry_space_group_name_H-M "C M C 21"
_symmetry_group_IT_number 36
_symmetry_cell_setting 'orthorhombic'
loop_
_space_group_symop_operation_xyz
x,y,z
-x,-y,1/2+z
x,-y,1/2+z
-x,y,z
1/2+x,1/2+y,z
1/2-x,1/2-y,1/2+z
1/2+x,1/2-y,1/2+z
1/2-x,1/2+y,z
loop_
_atom_site_type_symbol
_atom_site_label
_atom_site_fract_x
_atom_site_fract_y
_atom_site_fract_z
Si Si1 0.283904 0.174544 0.387320
Si Si2 0.784168 0.821337 0.389512
Si Si3 0.210646 0.077341 0.784836
Si Si4 0.708882 0.572873 0.134377
Si Si5 0.783594 0.180445 0.037129
Si Si6 0.788563 0.571109 0.283467
Si Si7 0.211392 0.930285 0.140739
Si Si8 0.212337 0.674705 0.533541
O O1 0.500000 0.173373 0.386626
O O2 0.231561 0.248163 0.373135
O O3 0.221867 0.122771 0.335268
O O4 0.226642 0.159356 0.460668
O O5 0.719190 0.873847 0.338536
O O6 0.731429 0.835061 0.463447
O O7 0.000000 0.822100 0.389320
O O8 0.280202 0.088113 0.712012
O O9 0.000000 0.088145 0.783070
O O10 0.238157 0.002179 0.799830
O O11 0.500000 0.570306 0.120170
O O12 0.781505 0.628532 0.088587
O O13 0.728607 0.585850 0.210551
O O14 0.781807 0.501114 0.123082
O O15 0.725756 0.253455 0.051041
O O16 0.000000 0.180910 0.038640
O O17 0.000000 0.574010 0.283292
O O18 0.241994 0.877854 0.086391
O O19 0.000000 0.937345 0.148012
O O20 0.000000 0.677532 0.530352
#
# Coordination Sequence:
#
# PCOD9350861 Si02
#       8
#     8   8   8   8   8   8   8   8
#     4   8  16  30  47  69  94 119 152 191 226 267
#     4   8  14  28  50  71  90 118 156 190 224 270
#     4   9  18  32  50  70  92 120 154 192 228 265
#     4   9  18  33  49  67  93 121 153 192 227 264
#     4   8  15  29  50  72  91 116 154 195 227 262
#     4  10  19  31  48  69  94 123 152 186 229 274
#     4   9  18  30  44  67  97 122 147 187 231 267
#     4   9  17  31  50  69  91 121 154 187 226 273
#
# _framework density 19.617574999999999
#
# number of rings (size 3 to 8) (size 9 to 14) (size 15 to 20)
#    0.000    3.250    0.000    2.625    0.000    4.000 
#    0.000    4.375    0.000    5.250    0.000    0.000 
#    0.000    0.000    0.000    0.000    0.000    0.000 
#
# Total GULP energy -178392.124643 kJ/mol
# GULP energy per Si atom -5574.753895 kJ/mol
# Density = 1.957292 g / cm^3
# Si number density = 19.617575 Si / 1000 Ang^3
#
#
#
# Elastic Constant Matrix: (Units=GPa)
#
#
# Indices 1 2 3 4 5 6 
#
# 1 39.3725 -3.7261 -5.2960 0.0000 0.0000 0.0000
# 2 -3.7261 178.6237 162.5782 0.0000 0.0000 0.0000
# 3 -5.2960 162.5782 147.3490 0.0000 0.0000 0.0000
# 4 0.0000 0.0000 0.0000 48.4682 0.0000 0.0000
# 5 0.0000 0.0000 0.0000 0.0000 12.8939 0.0000
# 6 0.0000 0.0000 0.0000 0.0000 0.0000 8.9579
#
#
#
# Elastic Compliance Matrix: (Units=1/GPa)
#
#
# Indices 1 2 3 4 5 6 
#
# 1 0.022174 0.061962 -0.067570 0.000000 0.000000 0.000000
# 2 0.061962 -1.146696 1.267439 0.000000 0.000000 0.000000
# 3 -0.067570 1.267439 -1.394077 0.000000 0.000000 0.000000
# 4 0.000000 0.000000 0.000000 0.020632 0.000000 0.000000
# 5 0.000000 0.000000 0.000000 0.000000 0.077556 0.000000
# 6 0.000000 0.000000 0.000000 0.000000 0.000000 0.111633
#
#
# Mechanical properties :
#
#
# Convention : Reuss Voigt Hill
#
# Bulk Modulus (GPa) = 197.42976 74.71749 136.07363
# Shear Modulus (GPa) = -1.03504 28.18327 13.57412
#
# Velocity S-wave (km/s) = -0.72715 3.79441 2.63332
# Velocity P-wave (km/s) = 10.00763 7.57406 8.87466
#
# Compressibility (1/GPa) = 0.00506509
#
# Stress axis : x y z
#
# Youngs Moduli (GPa) = 45.09858 -0.87207 -0.71732
#
# Poissons Ratio (x) = 0.05404 -0.04847
# Poissons Ratio (y) = -2.79442 0.90916
# Poissons Ratio (z) = 3.04729 1.10530
#
# Static dielectric constant tensor:
#      x y z
#    x 1.738810 0.000000 0.000000 
#    y 0.000000 1.680070 0.000000 
#    z 0.000000 0.000000 1.684150 
# 
# From -- ./inp_files/15815.got.cif
#   From: 2010.05.17/outbox.cif.g08.bks.cpg/sg36_8_cif.got.tgz:15815.got - 2010.06.03 17:41:39.
