data_PCOD9350620
_publ_section_title
;
Structure prediction by ZEFSAII (Michael W. Deem and Ramdas Pophale) SiO2 
 PCOD9350620
Probable space group: C M C 21
;
_chemical_formula_sum "Si O2"
_cell_formula_units_Z 64
_cell_length_a 7.394279
_cell_length_b 22.111693
_cell_length_c 14.616081
_cell_angle_alpha 90.000000
_cell_angle_beta 90.000000
_cell_angle_gamma 90.000000
_cell_volume 2389.729641
_symmetry_space_group_name_H-M "C M C 21"
_symmetry_group_IT_number 36
_symmetry_cell_setting 'orthorhombic'
loop_
_space_group_symop_operation_xyz
x,y,z
-x,-y,1/2+z
x,-y,1/2+z
-x,y,z
1/2+x,1/2+y,z
1/2-x,1/2-y,1/2+z
1/2+x,1/2-y,1/2+z
1/2-x,1/2+y,z
loop_
_atom_site_type_symbol
_atom_site_label
_atom_site_fract_x
_atom_site_fract_y
_atom_site_fract_z
Si Si1 0.294522 0.210471 0.146690
Si Si2 0.217059 0.904115 0.098056
Si Si3 0.291102 0.037372 0.110702
Si Si4 0.716136 0.150366 0.317900
Si Si5 0.284491 0.713709 0.491012
Si Si6 0.220674 0.479248 0.817694
Si Si7 0.278041 0.903402 0.430684
Si Si8 0.789456 0.674439 0.767135
O O1 0.500000 0.191045 0.127754
O O2 0.211237 0.162833 0.216390
O O3 0.300677 0.271982 0.208765
O O4 0.210753 0.231394 0.051310
O O5 0.275777 0.884338 0.200384
O O6 0.000000 0.905505 0.095810
O O7 0.285816 0.969607 0.069048
O O8 0.283998 0.848776 0.035531
O O9 0.500000 0.053857 0.125272
O O10 0.215714 0.025699 0.212192
O O11 0.219023 0.084433 0.035228
O O12 0.500000 0.147581 0.310442
O O13 0.755960 0.205845 0.384394
O O14 0.778034 0.086164 0.356564
O O15 0.500000 0.715437 0.504810
O O16 0.280672 0.536740 0.874748
O O17 0.000000 0.482745 0.817542
O O18 0.500000 0.901404 0.432129
O O19 0.222448 0.847071 0.366716
O O20 0.000000 0.690827 0.775188
#
# Coordination Sequence:
#
# PCOD9350620 Si02
#       8
#     8   8   8   8   8   8   8   8
#     4   9  20  38  55  78 111 142 176 225 279 327
#     4  10  19  32  51  77 109 142 176 217 266 318
#     4  10  18  31  52  76 107 140 173 218 266 320
#     4  10  20  36  58  80 106 144 184 222 272 327
#     4   9  19  35  54  78 108 140 179 227 269 314
#     4   9  17  31  51  78 108 136 171 218 265 312
#     4   9  17  29  49  81 107 128 172 223 262 309
#     4  10  18  32  54  78 102 134 179 226 265 309
#
# _framework density 26.781272000000001
#
# number of rings (size 3 to 8) (size 9 to 14) (size 15 to 20)
#    0.000    2.500    1.250    2.250    0.000    4.000 
#    2.250    1.875    0.000    0.000    0.000    0.000 
#    0.000    0.000    0.000    0.000    0.000    0.000 
#
# Total GULP energy -178937.700470 kJ/mol
# GULP energy per Si atom -5591.803140 kJ/mol
# Density = 2.672032 g / cm^3
# Si number density = 26.781272 Si / 1000 Ang^3
#
#
#
# Elastic Constant Matrix: (Units=GPa)
#
#
# Indices 1 2 3 4 5 6 
#
# 1 107.7370 2.6389 -3.0745 0.0000 0.0000 0.0000
# 2 2.6389 105.9430 14.8465 0.0000 0.0000 0.0000
# 3 -3.0745 14.8465 151.1921 0.0000 0.0000 0.0000
# 4 0.0000 0.0000 0.0000 50.1144 0.0000 0.0000
# 5 0.0000 0.0000 0.0000 0.0000 3.9734 0.0000
# 6 0.0000 0.0000 0.0000 0.0000 0.0000 10.2582
#
#
#
# Elastic Compliance Matrix: (Units=1/GPa)
#
#
# Indices 1 2 3 4 5 6 
#
# 1 0.009294 -0.000262 0.000215 0.000000 0.000000 0.000000
# 2 -0.000262 0.009578 -0.000946 0.000000 0.000000 0.000000
# 3 0.000215 -0.000946 0.006711 0.000000 0.000000 0.000000
# 4 0.000000 0.000000 0.000000 0.019954 0.000000 0.000000
# 5 0.000000 0.000000 0.000000 0.000000 0.251675 0.000000
# 6 0.000000 0.000000 0.000000 0.000000 0.000000 0.097483
#
#
# Mechanical properties :
#
#
# Convention : Reuss Voigt Hill
#
# Bulk Modulus (GPa) = 42.37590 43.74378 43.05984
# Shear Modulus (GPa) = 12.35950 36.23328 24.29639
#
# Velocity S-wave (km/s) = 2.15058 3.68221 3.01527
# Velocity P-wave (km/s) = 4.69297 5.86920 5.31373
#
# Compressibility (1/GPa) = 0.02359832
#
# Stress axis : x y z
#
# Youngs Moduli (GPa) = 107.59170 104.40479 149.00139
#
# Poissons Ratio (x) = 0.02731 -0.03199
# Poissons Ratio (y) = 0.02815 0.14093
# Poissons Ratio (z) = -0.02310 0.09875
#
# Static dielectric constant tensor:
#      x y z
#    x 2.016270 0.000000 0.000000 
#    y 0.000000 2.112540 0.000000 
#    z 0.000000 0.000000 2.129210 
# 
# From -- ./inp_files/11102.got.cif
#   From: 2010.05.17/outbox.cif.g08.bks.cpg/sg36_6_cif.got.tgz:11102.got - 2010.06.03 17:41:39.
