data_PCOD9350488
_publ_section_title
;
Structure prediction by ZEFSAII (Michael W. Deem and Ramdas Pophale) SiO2 
 PCOD9350488
Probable space group: C M C 21
;
_chemical_formula_sum "Si O2"
_cell_formula_units_Z 64
_cell_length_a 8.592371
_cell_length_b 23.741049
_cell_length_c 18.146093
_cell_angle_alpha 90.000000
_cell_angle_beta 90.000000
_cell_angle_gamma 90.000000
_cell_volume 3701.656006
_symmetry_space_group_name_H-M "C M C 21"
_symmetry_group_IT_number 36
_symmetry_cell_setting 'orthorhombic'
loop_
_space_group_symop_operation_xyz
x,y,z
-x,-y,1/2+z
x,-y,1/2+z
-x,y,z
1/2+x,1/2+y,z
1/2-x,1/2-y,1/2+z
1/2+x,1/2-y,1/2+z
1/2-x,1/2+y,z
loop_
_atom_site_type_symbol
_atom_site_label
_atom_site_fract_x
_atom_site_fract_y
_atom_site_fract_z
Si Si1 0.185547 0.940734 0.395040
Si Si2 0.815626 0.779711 0.482436
Si Si3 0.685118 0.061795 0.352815
Si Si4 0.678803 0.272430 0.756658
Si Si5 0.820754 0.171482 0.420447
Si Si6 0.188240 0.888439 0.701226
Si Si7 0.811276 0.666491 0.831525
Si Si8 0.814874 0.611605 0.046281
O O1 0.259400 0.898045 0.334562
O O2 0.246115 0.920510 0.475198
O O3 0.000000 0.935627 0.393117
O O4 0.238858 0.003914 0.379297
O O5 0.753622 0.716041 0.476843
O O6 0.769383 0.807471 0.404010
O O7 0.736204 0.822890 0.538560
O O8 0.000000 0.780405 0.492632
O O9 0.500000 0.056436 0.349973
O O10 0.731503 0.113421 0.406680
O O11 0.749781 0.078038 0.271911
O O12 0.500000 0.266879 0.731893
O O13 0.678948 0.297768 0.840039
O O14 0.749032 0.323648 0.710556
O O15 0.739100 0.208728 0.765794
O O16 0.000000 0.160605 0.439424
O O17 0.246927 0.910540 0.623116
O O18 0.000000 0.887885 0.703969
O O19 0.000000 0.670164 0.838754
O O20 0.000000 0.607503 0.044311
#
# Coordination Sequence:
#
# PCOD9350488 Si02
#       8
#     8   8   8   8   8   8   8   8
#     4  11  21  34  51  74 102 138 179 221 263 311
#     4  10  17  27  45  71  98 127 160 199 247 302
#     4  11  21  34  52  77 104 136 177 221 263 312
#     4   7  13  25  45  69  95 123 153 189 239 294
#     4   9  16  29  47  70  98 128 159 200 248 296
#     4  10  19  34  53  76 104 136 170 211 263 321
#     4   9  15  27  46  70  97 126 158 200 248 296
#     4  11  21  34  51  75 104 136 172 217 267 318
#
# _framework density 17.289558
#
# number of rings (size 3 to 8) (size 9 to 14) (size 15 to 20)
#    0.000    2.250    0.000    8.625    0.000    0.000 
#    0.000    1.875    0.000    1.500    0.000    8.750 
#    0.000    0.000    0.000    0.000    0.000    0.000 
#
# Total GULP energy -178238.009534 kJ/mol
# GULP energy per Si atom -5569.937798 kJ/mol
# Density = 1.725021 g / cm^3
# Si number density = 17.289558 Si / 1000 Ang^3
#
#
#
# Elastic Constant Matrix: (Units=GPa)
#
#
# Indices 1 2 3 4 5 6 
#
# 1 107.6797 28.6143 22.9694 0.0000 0.0000 0.0000
# 2 28.6143 117.0864 37.9508 0.0000 0.0000 0.0000
# 3 22.9694 37.9508 59.0095 0.0000 0.0000 0.0000
# 4 0.0000 0.0000 0.0000 14.0887 0.0000 0.0000
# 5 0.0000 0.0000 0.0000 0.0000 17.4496 0.0000
# 6 0.0000 0.0000 0.0000 0.0000 0.0000 29.2343
#
#
#
# Elastic Compliance Matrix: (Units=1/GPa)
#
#
# Indices 1 2 3 4 5 6 
#
# 1 0.010344 -0.001545 -0.003033 0.000000 0.000000 0.000000
# 2 -0.001545 0.011021 -0.006486 0.000000 0.000000 0.000000
# 3 -0.003033 -0.006486 0.022299 0.000000 0.000000 0.000000
# 4 0.000000 0.000000 0.000000 0.070979 0.000000 0.000000
# 5 0.000000 0.000000 0.000000 0.000000 0.057308 0.000000
# 6 0.000000 0.000000 0.000000 0.000000 0.000000 0.034206
#
#
# Mechanical properties :
#
#
# Convention : Reuss Voigt Hill
#
# Bulk Modulus (GPa) = 46.43583 51.42718 48.93150
# Shear Modulus (GPa) = 21.23474 25.10394 23.16934
#
# Velocity S-wave (km/s) = 3.50835 3.81461 3.66468
# Velocity P-wave (km/s) = 6.58235 7.01505 6.80214
#
# Compressibility (1/GPa) = 0.02153510
#
# Stress axis : x y z
#
# Youngs Moduli (GPa) = 96.67149 90.73853 44.84590
#
# Poissons Ratio (x) = 0.14019 0.13601
# Poissons Ratio (y) = 0.14935 0.29089
# Poissons Ratio (z) = 0.29320 0.58856
#
# Static dielectric constant tensor:
#      x y z
#    x 1.579440 0.000000 0.000000 
#    y 0.000000 1.625330 0.000000 
#    z 0.000000 0.000000 1.605610 
# 
# From -- ./inp_files/14066.got.cif
#   From: 2010.05.17/outbox.cif.g08.bks.cpg/sg36_8_cif.got.tgz:14066.got - 2010.06.03 17:41:39.
