data_PCOD9350725
_publ_section_title
;
Structure prediction by ZEFSAII (Michael W. Deem and Ramdas Pophale) SiO2 
 PCOD9350725
Probable space group: C M C 21
;
_chemical_formula_sum "Si O2"
_cell_formula_units_Z 64
_cell_length_a 7.479319
_cell_length_b 15.877872
_cell_length_c 24.550053
_cell_angle_alpha 90.000000
_cell_angle_beta 90.000000
_cell_angle_gamma 90.000000
_cell_volume 2915.457986
_symmetry_space_group_name_H-M "C M C 21"
_symmetry_group_IT_number 36
_symmetry_cell_setting 'orthorhombic'
loop_
_space_group_symop_operation_xyz
x,y,z
-x,-y,1/2+z
x,-y,1/2+z
-x,y,z
1/2+x,1/2+y,z
1/2-x,1/2-y,1/2+z
1/2+x,1/2-y,1/2+z
1/2-x,1/2+y,z
loop_
_atom_site_type_symbol
_atom_site_label
_atom_site_fract_x
_atom_site_fract_y
_atom_site_fract_z
Si Si1 0.282541 0.891403 0.955510
Si Si2 0.783467 0.411636 0.462937
Si Si3 0.780207 0.490093 0.769036
Si Si4 0.785660 0.668927 0.337764
Si Si5 0.719764 0.827848 0.072622
Si Si6 0.794576 0.478915 0.147848
Si Si7 0.205095 0.857153 0.583248
Si Si8 0.712373 0.857820 0.345840
O O1 0.500000 0.888638 0.955005
O O2 0.218902 0.851719 0.898856
O O3 0.234177 0.989876 0.958775
O O4 0.223075 0.845179 0.010452
O O5 0.712255 0.372842 0.518499
O O6 0.720053 0.366344 0.407833
O O7 0.000000 0.407255 0.466174
O O8 0.721980 0.402084 0.795821
O O9 0.717254 0.504487 0.707480
O O10 0.721677 0.567066 0.807564
O O11 0.000000 0.488705 0.768513
O O12 0.743928 0.764832 0.323393
O O13 0.000000 0.661379 0.339757
O O14 0.500000 0.827620 0.071637
O O15 0.782204 0.903918 0.111042
O O16 0.778462 0.736273 0.092848
O O17 0.794088 0.564746 0.113343
O O18 0.000000 0.453656 0.157299
O O19 0.000000 0.858443 0.601449
O O20 0.500000 0.870742 0.349679
#
# Coordination Sequence:
#
# PCOD9350725 Si02
#       8
#     8   8   8   8   8   8   8   8
#     4   9  15  29  55  78 101 139 181 212 252 320
#     4  10  18  33  58  81 107 145 184 218 262 325
#     4   9  19  36  58  80 104 143 192 227 257 315
#     4  10  19  34  56  81 109 143 178 219 272 327
#     4   9  18  32  53  77 102 139 180 214 262 323
#     4  10  20  38  60  77 101 146 195 226 257 317
#     4  11  22  35  54  84 114 138 173 227 283 326
#     4  10  20  35  56  84 112 141 181 227 267 315
#
# _framework density 21.951955000000002
#
# number of rings (size 3 to 8) (size 9 to 14) (size 15 to 20)
#    0.000    2.250    2.500    1.125    0.000    2.500 
#    0.000    5.000    0.000    0.000    0.000    0.000 
#    0.000    0.000    0.000    0.000    0.000    0.000 
#
# Total GULP energy -178802.283241 kJ/mol
# GULP energy per Si atom -5587.571351 kJ/mol
# Density = 2.190199 g / cm^3
# Si number density = 21.951955 Si / 1000 Ang^3
#
#
#
# Elastic Constant Matrix: (Units=GPa)
#
#
# Indices 1 2 3 4 5 6 
#
# 1 59.4301 -10.0809 -4.8291 0.0000 0.0000 0.0000
# 2 -10.0809 136.9946 40.4989 0.0000 0.0000 0.0000
# 3 -4.8291 40.4989 124.1958 0.0000 0.0000 0.0000
# 4 0.0000 0.0000 0.0000 -0.1136 0.0000 0.0000
# 5 0.0000 0.0000 0.0000 0.0000 -108.5950 0.0000
# 6 0.0000 0.0000 0.0000 0.0000 0.0000 10.3124
#
#
#
# Elastic Compliance Matrix: (Units=1/GPa)
#
#
# Indices 1 2 3 4 5 6 
#
# 1 0.017048 0.001171 0.000281 0.000000 0.000000 0.000000
# 2 0.001171 0.008159 -0.002615 0.000000 0.000000 0.000000
# 3 0.000281 -0.002615 0.008915 0.000000 0.000000 0.000000
# 4 0.000000 0.000000 0.000000 -8.803008 0.000000 0.000000
# 5 0.000000 0.000000 0.000000 0.000000 -0.009209 0.000000
# 6 0.000000 0.000000 0.000000 0.000000 0.000000 0.096970
#
#
# Mechanical properties :
#
#
# Convention : Reuss Voigt Hill
#
# Bulk Modulus (GPa) = 31.44947 41.31094 36.38020
# Shear Modulus (GPa) = -0.57682 -0.01046 -0.29364
#
# Velocity S-wave (km/s) = -0.51316 -0.06910 -0.36614
# Velocity P-wave (km/s) = 3.74252 4.34204 4.05338
#
# Compressibility (1/GPa) = 0.03179704
#
# Stress axis : x y z
#
# Youngs Moduli (GPa) = 58.65780 122.56700 112.16508
#
# Poissons Ratio (x) = -0.14358 -0.03150
# Poissons Ratio (y) = -0.06872 0.29331
# Poissons Ratio (z) = -0.01648 0.32051
#
# Static dielectric constant tensor:
#      x y z
#    x 1.853590 0.000000 0.000000 
#    y 0.000000 1.773160 0.000000 
#    z 0.000000 0.000000 1.768960 
# 
# From -- ./inp_files/16595.got.cif
#   From: 2010.05.17/outbox.cif.g08.bks.cpg/sg36_9_cif.got.tgz:16595.got - 2010.06.03 17:41:39.
