data_PCOD9350163
_publ_section_title
;
Structure prediction by ZEFSAII (Michael W. Deem and Ramdas Pophale) SiO2 
 PCOD9350163
Probable space group: C M M 2
;
_chemical_formula_sum "Si O2"
_cell_formula_units_Z 32
_cell_length_a 30.000000
_cell_length_b 9.000000
_cell_length_c 12.000000
_cell_angle_alpha 90.000000
_cell_angle_beta 90.000000
_cell_angle_gamma 90.000000
_cell_volume 3240.000000
_symmetry_space_group_name_H-M "C M M 2"
_symmetry_group_IT_number 35
_symmetry_cell_setting 'orthorhombic'
loop_
_space_group_symop_operation_xyz
x,y,z
-x,-y,z
-x,y,z
x,-y,z
1/2+x,1/2+y,z
1/2-x,1/2-y,z
1/2-x,1/2+y,z
1/2+x,1/2-y,z
loop_
_atom_site_type_symbol
_atom_site_label
_atom_site_fract_x
_atom_site_fract_y
_atom_site_fract_z
Si Si1 0.383418 0.676232 0.829790
Si Si2 0.887028 0.175510 0.224009
Si Si3 0.312394 0.169771 0.513175
Si Si4 0.913292 0.666199 0.442471
Si Si5 0.548036 0.330002 0.633872
Si Si6 0.205041 0.679421 0.263945
Si Si7 0.449668 0.319327 0.022144
Si Si8 0.794623 0.321595 0.760267
O O1 0.374186 0.500000 0.845023
O O2 0.411459 0.693630 0.716881
O O3 0.338070 0.765841 0.823675
O O4 0.417011 0.729528 0.924480
O O5 0.906783 0.219540 0.343187
O O6 0.840545 0.262646 0.209540
O O7 0.924361 0.217833 0.135221
O O8 0.878199 0.000000 0.216383
O O9 0.365733 0.164639 0.505535
O O10 0.298032 0.234054 0.393953
O O11 0.299198 0.236431 0.631522
O O12 0.295448 0.000000 0.513722
O O13 0.921251 0.500000 0.399767
O O14 0.948681 0.719735 0.531357
O O15 0.500000 0.316143 0.692268
O O16 0.551351 0.500000 0.592717
O O17 0.205974 0.500000 0.262603
O O18 0.250000 0.750000 0.215963
O O19 0.500000 0.263134 0.015374
O O20 0.451848 0.500000 0.014984
O O21 0.792756 0.500000 0.759364
O O22 0.750000 0.250000 0.807584
#
# Coordination Sequence:
#
# PCOD9350163 Si02
#       8
#     8   8   8   8   8   8   8   8
#     4  10  20  37  60  85 112 145 187 236 287 337
#     4  10  20  35  57  85 114 148 190 237 287 338
#     4   8  16  30  49  74 108 148 185 224 268 323
#     4  10  19  34  53  78 115 154 187 228 282 335
#     4  10  20  33  53  83 115 147 185 229 281 345
#     4  10  19  33  53  81 116 155 194 234 281 334
#     4   9  19  38  64  88 110 142 188 241 291 339
#     4  11  21  35  54  81 115 152 191 231 279 334
#
# _framework density 9.8765429999999999
#
# number of rings (size 3 to 8) (size 9 to 14) (size 15 to 20)
#    0.000    2.250    1.250    3.000    0.000    2.250 
#    0.000    4.375    0.000    3.750    0.000    0.000 
#    0.000    0.000    0.000    0.000    0.000    0.000 
#
# Total GULP energy -178346.747218 kJ/mol
# GULP energy per Si atom -5573.335851 kJ/mol
# Density = 0.985406 g / cm^3
# Si number density = 9.876543 Si / 1000 Ang^3
#
#
#
# Elastic Constant Matrix: (Units=GPa)
#
#
# Indices 1 2 3 4 5 6 
#
# 1 158.4984 52.5333 45.0178 0.0000 0.0000 0.0000
# 2 52.5333 48.3669 26.4236 0.0000 0.0000 0.0000
# 3 45.0178 26.4236 37.5582 0.0000 0.0000 0.0000
# 4 0.0000 0.0000 0.0000 5.6849 0.0000 0.0000
# 5 0.0000 0.0000 0.0000 0.0000 -68.6619 0.0000
# 6 0.0000 0.0000 0.0000 0.0000 0.0000 24.6789
#
#
#
# Elastic Compliance Matrix: (Units=1/GPa)
#
#
# Indices 1 2 3 4 5 6 
#
# 1 0.011121 -0.007791 -0.007848 0.000000 0.000000 0.000000
# 2 -0.007791 0.039041 -0.018129 0.000000 0.000000 0.000000
# 3 -0.007848 -0.018129 0.048786 0.000000 0.000000 0.000000
# 4 0.000000 0.000000 0.000000 0.175905 0.000000 0.000000
# 5 0.000000 0.000000 0.000000 0.000000 -0.014564 0.000000
# 6 0.000000 0.000000 0.000000 0.000000 0.000000 0.040520
#
#
# Mechanical properties :
#
#
# Convention : Reuss Voigt Hill
#
# Bulk Modulus (GPa) = 31.83410 54.70810 43.27110
# Shear Modulus (GPa) = 13.19906 0.37031 6.78468
#
# Velocity S-wave (km/s) = 2.58777 0.43344 1.85532
# Velocity P-wave (km/s) = 5.00796 5.29213 5.15200
#
# Compressibility (1/GPa) = 0.03141286
#
# Stress axis : x y z
#
# Youngs Moduli (GPa) = 89.92386 25.61383 20.49765
#
# Poissons Ratio (x) = 0.19956 0.16086
# Poissons Ratio (y) = 0.70060 0.37159
# Poissons Ratio (z) = 0.70572 0.46434
#
# Static dielectric constant tensor:
#      x y z
#    x 1.732770 0.000000 0.000000 
#    y 0.000000 1.689510 0.000000 
#    z 0.000000 0.000000 1.730950 
# 
# From -- ./inp_files/14540.got.cif
#   From: 2010.05.17/outbox.ucp.g08.bks.cvg/sg35_8_cif.got.tgz:14540.got - 2010.06.11 10:36:28.
