data_PCOD9350748
_publ_section_title
;
Structure prediction by ZEFSAII (Michael W. Deem and Ramdas Pophale) SiO2 
 PCOD9350748
Probable space group: C M C 21
;
_chemical_formula_sum "Si O2"
_cell_formula_units_Z 48
_cell_length_a 8.316376
_cell_length_b 13.819664
_cell_length_c 18.124300
_cell_angle_alpha 90.000000
_cell_angle_beta 90.000000
_cell_angle_gamma 90.000000
_cell_volume 2083.017136
_symmetry_space_group_name_H-M "C M C 21"
_symmetry_group_IT_number 36
_symmetry_cell_setting 'orthorhombic'
loop_
_space_group_symop_operation_xyz
x,y,z
-x,-y,1/2+z
x,-y,1/2+z
-x,y,z
1/2+x,1/2+y,z
1/2-x,1/2-y,1/2+z
1/2+x,1/2-y,1/2+z
1/2-x,1/2+y,z
loop_
_atom_site_type_symbol
_atom_site_label
_atom_site_fract_x
_atom_site_fract_y
_atom_site_fract_z
Si Si1 0.827782 0.016815 0.806310
Si Si2 0.000000 0.722575 0.684384
Si Si3 0.500000 0.899739 0.310115
Si Si4 0.321046 0.355639 0.907477
Si Si5 0.500000 0.996929 0.125334
Si Si6 0.500000 0.034074 0.454291
Si Si7 0.318400 0.388698 0.613989
Si Si8 0.178532 0.160043 0.943420
O O1 0.662786 0.056008 0.775860
O O2 0.831976 0.072431 0.885805
O O3 0.000000 0.037594 0.770145
O O4 0.817557 0.904147 0.826489
O O5 0.849641 0.786717 0.655584
O O6 0.000000 0.705754 0.772614
O O7 0.000000 0.617116 0.645822
O O8 0.500000 0.947082 0.392834
O O9 0.500000 0.379087 0.937991
O O10 0.297012 0.241289 0.912882
O O11 0.163620 0.403807 0.944267
O O12 0.333174 0.052898 0.144862
O O13 0.500000 0.001963 0.036582
O O14 0.500000 0.434778 0.618300
O O15 0.288329 0.369450 0.527080
O O16 0.000000 0.204150 0.944134
#
# Coordination Sequence:
#
# PCOD9350748 Si02
#       8
#     8   4   4   8   4   4   8   8
#     4   9  20  35  55  85 116 160 200 249 305 376
#     4  10  24  46  63  93 134 171 214 267 314 397
#     4  10  20  40  62  83 127 163 201 257 318 369
#     4  10  19  31  51  83 126 152 197 250 315 379
#     4  12  22  44  73  91 128 177 210 269 334 357
#     4  10  20  36  62  93 117 165 209 263 314 373
#     4   9  22  41  60  94 126 157 222 262 296 401
#     4  10  18  34  57  88 126 153 195 261 316 364
#
# _framework density 23.043496999999999
#
# number of rings (size 3 to 8) (size 9 to 14) (size 15 to 20)
#    0.500    1.667    0.833    3.000    2.333    2.000 
#    3.000    3.333    0.000    0.000    0.000    0.000 
#    0.000    0.000    0.000    0.000    0.000    0.000 
#
# Total GULP energy -133688.121325 kJ/mol
# GULP energy per Si atom -5570.338389 kJ/mol
# Density = 2.299105 g / cm^3
# Si number density = 23.043497 Si / 1000 Ang^3
#
#
#
# Elastic Constant Matrix: (Units=GPa)
#
#
# Indices 1 2 3 4 5 6 
#
# 1 171.5417 38.8384 -7.4236 0.0000 0.0000 0.0000
# 2 38.8384 124.5386 38.9297 0.0000 0.0000 0.0000
# 3 -7.4236 38.9297 109.7772 0.0000 0.0000 0.0000
# 4 0.0000 0.0000 0.0000 27.0363 0.0000 0.0000
# 5 0.0000 0.0000 0.0000 0.0000 -112.7926 0.0000
# 6 0.0000 0.0000 0.0000 0.0000 0.0000 56.6006
#
#
#
# Elastic Compliance Matrix: (Units=1/GPa)
#
#
# Indices 1 2 3 4 5 6 
#
# 1 0.006431 -0.002408 0.001289 0.000000 0.000000 0.000000
# 2 -0.002408 0.009933 -0.003685 0.000000 0.000000 0.000000
# 3 0.001289 -0.003685 0.010503 0.000000 0.000000 0.000000
# 4 0.000000 0.000000 0.000000 0.036987 0.000000 0.000000
# 5 0.000000 0.000000 0.000000 0.000000 -0.008866 0.000000
# 6 0.000000 0.000000 0.000000 0.000000 0.000000 0.017668
#
#
# Mechanical properties :
#
#
# Convention : Reuss Voigt Hill
#
# Bulk Modulus (GPa) = 57.94647 60.72740 59.33693
# Shear Modulus (GPa) = 56.80688 16.53637 36.67162
#
# Velocity S-wave (km/s) = 4.97047 2.68174 3.99357
# Velocity P-wave (km/s) = 7.62508 5.99996 6.86081
#
# Compressibility (1/GPa) = 0.01725731
#
# Stress axis : x y z
#
# Youngs Moduli (GPa) = 155.50823 100.67792 95.20736
#
# Poissons Ratio (x) = 0.24246 -0.12271
# Poissons Ratio (y) = 0.37451 0.35086
# Poissons Ratio (z) = -0.20044 0.37102
#
# Static dielectric constant tensor:
#      x y z
#    x 1.927890 0.000000 0.000000 
#    y 0.000000 1.903060 0.000000 
#    z 0.000000 0.000000 1.860230 
# 
# From -- ./inp_files/15357.got.cif
#   From: 2010.05.17/outbox.cif.g08.bks.cpg/sg36_8_cif.got.tgz:15357.got - 2010.06.03 17:41:39.
