data_PCOD9350009
_publ_section_title
;
Structure prediction by ZEFSAII (Michael W. Deem and Ramdas Pophale) SiO2 
 PCOD9350009
Probable space group: C M M 2
;
_chemical_formula_sum "Si O2"
_cell_formula_units_Z 32
_cell_length_a 19.552988
_cell_length_b 12.735297
_cell_length_c 5.154863
_cell_angle_alpha 90.000000
_cell_angle_beta 90.000000
_cell_angle_gamma 90.000000
_cell_volume 1283.628464
_symmetry_space_group_name_H-M "C M M 2"
_symmetry_group_IT_number 35
_symmetry_cell_setting 'orthorhombic'
loop_
_space_group_symop_operation_xyz
x,y,z
-x,-y,z
-x,y,z
x,-y,z
1/2+x,1/2+y,z
1/2-x,1/2-y,z
1/2-x,1/2+y,z
1/2+x,1/2-y,z
loop_
_atom_site_type_symbol
_atom_site_label
_atom_site_fract_x
_atom_site_fract_y
_atom_site_fract_z
Si Si1 0.257227 0.000000 0.200670
Si Si2 0.576706 0.824232 0.346073
Si Si3 0.927614 0.885832 0.648492
Si Si4 0.182419 0.797801 0.022317
Si Si5 0.146600 0.500000 0.682666
O O1 0.213078 0.892338 0.195175
O O2 0.293523 0.000000 0.474601
O O3 0.314443 0.000000 0.961927
O O4 0.500000 0.858656 0.252150
O O5 0.569074 0.706830 0.447860
O O6 0.638470 0.798416 0.146157
O O7 0.600916 0.899692 0.583122
O O8 0.000000 0.883303 0.798606
O O9 0.921164 0.000000 0.527416
O O10 0.865959 0.859303 0.830868
O O11 0.250000 0.750000 0.890292
#
# Coordination Sequence:
#
# PCOD9350009 Si02
#       5
#     4   8   8   8   4
#     4  12  28  46  76 108 152 197 252 308 387 444
#     4  11  26  46  73 106 149 205 259 316 382 457
#     4  10  23  43  68 101 144 194 251 309 375 452
#     4  12  24  42  69 106 147 194 241 317 371 464
#     4  12  27  54  74 112 151 203 254 316 376 460
#
# _framework density 24.929331999999999
#
# number of rings (size 3 to 8) (size 9 to 14) (size 15 to 20)
#    0.000    0.750    3.750    2.625    5.250    1.000 
#    0.000    1.250    0.000    0.000    0.000    0.000 
#    0.000    0.000    0.000    0.000    0.000    0.000 
#
# Total GULP energy -89288.258439 kJ/mol
# GULP energy per Si atom -5580.516152 kJ/mol
# Density = 2.487259 g / cm^3
# Si number density = 24.929332 Si / 1000 Ang^3
#
#
#
# Elastic Constant Matrix: (Units=GPa)
#
#
# Indices 1 2 3 4 5 6 
#
# 1 167.6958 43.7947 18.3588 0.0000 0.0000 0.0000
# 2 43.7947 152.9124 40.0317 0.0000 0.0000 0.0000
# 3 18.3588 40.0317 28.1170 0.0000 0.0000 0.0000
# 4 0.0000 0.0000 0.0000 28.0902 0.0000 0.0000
# 5 0.0000 0.0000 0.0000 0.0000 29.2219 0.0000
# 6 0.0000 0.0000 0.0000 0.0000 0.0000 40.5577
#
#
#
# Elastic Compliance Matrix: (Units=1/GPa)
#
#
# Indices 1 2 3 4 5 6 
#
# 1 0.006559 -0.001207 -0.002564 0.000000 0.000000 0.000000
# 2 -0.001207 0.010648 -0.014372 0.000000 0.000000 0.000000
# 3 -0.002564 -0.014372 0.057701 0.000000 0.000000 0.000000
# 4 0.000000 0.000000 0.000000 0.035600 0.000000 0.000000
# 5 0.000000 0.000000 0.000000 0.000000 0.034221 0.000000
# 6 0.000000 0.000000 0.000000 0.000000 0.000000 0.024656
#
#
# Mechanical properties :
#
#
# Convention : Reuss Voigt Hill
#
# Bulk Modulus (GPa) = 25.89144 61.45507 43.67326
# Shear Modulus (GPa) = 22.87859 36.00996 29.44428
#
# Velocity S-wave (km/s) = 3.03271 3.80476 3.44046
# Velocity P-wave (km/s) = 4.76147 6.63376 5.77401
#
# Compressibility (1/GPa) = 0.03862280
#
# Stress axis : x y z
#
# Youngs Moduli (GPa) = 152.45842 93.91500 17.33064
#
# Poissons Ratio (x) = 0.11339 0.04443
# Poissons Ratio (y) = 0.18408 0.24907
# Poissons Ratio (z) = 0.39086 1.34971
#
# Static dielectric constant tensor:
#      x y z
#    x 2.246080 0.000000 0.000000 
#    y 0.000000 2.083660 0.000000 
#    z 0.000000 0.000000 1.973550 
# 
# From -- ./inp_files/1615.got.cif
#   From: 2010.05.17/outbox.cif.g08.bks.cpg/sg35_1_cif.got.tgz:1615.got - 2010.06.03 17:29:28.
