data_PCOD9350692
_publ_section_title
;
Structure prediction by ZEFSAII (Michael W. Deem and Ramdas Pophale) SiO2 
 PCOD9350692
Probable space group: C M C 21
;
_chemical_formula_sum "Si O2"
_cell_formula_units_Z 64
_cell_length_a 7.882894
_cell_length_b 23.748652
_cell_length_c 16.593141
_cell_angle_alpha 90.000000
_cell_angle_beta 90.000000
_cell_angle_gamma 90.000000
_cell_volume 3106.370505
_symmetry_space_group_name_H-M "C M C 21"
_symmetry_group_IT_number 36
_symmetry_cell_setting 'orthorhombic'
loop_
_space_group_symop_operation_xyz
x,y,z
-x,-y,1/2+z
x,-y,1/2+z
-x,y,z
1/2+x,1/2+y,z
1/2-x,1/2-y,1/2+z
1/2+x,1/2-y,1/2+z
1/2-x,1/2+y,z
loop_
_atom_site_type_symbol
_atom_site_label
_atom_site_fract_x
_atom_site_fract_y
_atom_site_fract_z
Si Si1 0.795725 0.439172 0.944390
Si Si2 0.698652 0.871943 0.389035
Si Si3 0.206445 0.591944 0.713330
Si Si4 0.811072 0.626311 0.147439
Si Si5 0.708283 0.033395 0.264200
Si Si6 0.687396 0.452579 0.522095
Si Si7 0.198948 0.215697 0.020922
Si Si8 0.292734 0.158811 0.553604
O O1 0.739728 0.459406 0.856748
O O2 0.000000 0.442864 0.945429
O O3 0.725858 0.483012 0.008932
O O4 0.747529 0.377666 0.974944
O O5 0.500000 0.887422 0.390913
O O6 0.749948 0.873920 0.295488
O O7 0.797399 0.920093 0.437557
O O8 0.721670 0.816060 0.443447
O O9 0.262327 0.526598 0.726008
O O10 0.265062 0.625382 0.633844
O O11 0.000000 0.589747 0.708352
O O12 0.733295 0.590609 0.220067
O O13 0.818576 0.577409 0.080012
O O14 0.720773 0.676325 0.099796
O O15 0.000000 0.645579 0.169435
O O16 0.500000 0.033771 0.260709
O O17 0.500000 0.443294 0.555376
O O18 0.267174 0.277369 0.042177
O O19 0.000000 0.219989 0.002785
O O20 0.500000 0.160779 0.558555
#
# Coordination Sequence:
#
# PCOD9350692 Si02
#       8
#     8   8   8   8   8   8   8   8
#     4  10  18  34  57  79 105 140 178 219 264 318
#     4  10  18  32  57  79 101 138 183 225 259 308
#     4   9  16  30  53  82 105 130 174 223 265 315
#     4  10  19  33  55  79 102 138 181 222 260 310
#     4   9  17  30  54  85 107 126 171 228 267 312
#     4  11  20  31  50  79 112 140 169 212 271 327
#     4  10  20  36  53  75 108 142 180 222 268 319
#     4   9  19  34  55  78 106 144 182 219 264 319
#
# _framework density 20.602822
#
# number of rings (size 3 to 8) (size 9 to 14) (size 15 to 20)
#    0.000    2.250    1.250    4.500    0.000    2.000 
#    2.250    2.500    0.000    3.000    0.000    0.000 
#    0.000    0.000    0.000    0.000    0.000    0.000 
#
# Total GULP energy -178411.968762 kJ/mol
# GULP energy per Si atom -5575.374024 kJ/mol
# Density = 2.055593 g / cm^3
# Si number density = 20.602822 Si / 1000 Ang^3
#
#
#
# Elastic Constant Matrix: (Units=GPa)
#
#
# Indices 1 2 3 4 5 6 
#
# 1 33.2928 1.2294 -1.6449 0.0000 0.0000 0.0000
# 2 1.2294 137.9452 36.4418 0.0000 0.0000 0.0000
# 3 -1.6449 36.4418 66.5621 0.0000 0.0000 0.0000
# 4 0.0000 0.0000 0.0000 25.5031 0.0000 0.0000
# 5 0.0000 0.0000 0.0000 0.0000 1.7838 0.0000
# 6 0.0000 0.0000 0.0000 0.0000 0.0000 10.7294
#
#
#
# Elastic Compliance Matrix: (Units=1/GPa)
#
#
# Indices 1 2 3 4 5 6 
#
# 1 0.030108 -0.000543 0.001042 0.000000 0.000000 0.000000
# 2 -0.000543 0.008485 -0.004659 0.000000 0.000000 0.000000
# 3 0.001042 -0.004659 0.017600 0.000000 0.000000 0.000000
# 4 0.000000 0.000000 0.000000 0.039211 0.000000 0.000000
# 5 0.000000 0.000000 0.000000 0.000000 0.560606 0.000000
# 6 0.000000 0.000000 0.000000 0.000000 0.000000 0.093202
#
#
# Mechanical properties :
#
#
# Convention : Reuss Voigt Hill
#
# Bulk Modulus (GPa) = 20.88927 34.42808 27.65867
# Shear Modulus (GPa) = 6.46421 21.05484 13.75952
#
# Velocity S-wave (km/s) = 1.77323 3.20025 2.58708
# Velocity P-wave (km/s) = 3.78860 5.51381 4.73052
#
# Compressibility (1/GPa) = 0.04787147
#
# Stress axis : x y z
#
# Youngs Moduli (GPa) = 33.21369 117.85734 56.81844
#
# Poissons Ratio (x) = 0.06405 -0.05918
# Poissons Ratio (y) = 0.01805 0.26470
# Poissons Ratio (z) = -0.03459 0.54907
#
# Static dielectric constant tensor:
#      x y z
#    x 1.773650 0.000000 0.000000 
#    y 0.000000 1.723730 0.000000 
#    z 0.000000 0.000000 1.790010 
# 
# From -- ./inp_files/13904.got.cif
#   From: 2010.05.17/outbox.cif.g08.bks.cpg/sg36_7_cif.got.tgz:13904.got - 2010.06.03 17:41:39.
