data_PCOD9350399
_publ_section_title
;
Structure prediction by ZEFSAII (Michael W. Deem and Ramdas Pophale) SiO2 
 PCOD9350399
Probable space group: C M M 2
;
_chemical_formula_sum "Si O2"
_cell_formula_units_Z 40
_cell_length_a 26.790375
_cell_length_b 9.296688
_cell_length_c 7.609555
_cell_angle_alpha 90.000000
_cell_angle_beta 90.000000
_cell_angle_gamma 90.000000
_cell_volume 1895.249144
_symmetry_space_group_name_H-M "C M M 2"
_symmetry_group_IT_number 35
_symmetry_cell_setting 'orthorhombic'
loop_
_space_group_symop_operation_xyz
x,y,z
-x,-y,z
-x,y,z
x,-y,z
1/2+x,1/2+y,z
1/2-x,1/2-y,z
1/2-x,1/2+y,z
1/2+x,1/2-y,z
loop_
_atom_site_type_symbol
_atom_site_label
_atom_site_fract_x
_atom_site_fract_y
_atom_site_fract_z
Si Si1 0.399915 0.165532 0.852660
Si Si2 0.701667 0.336108 0.776573
Si Si3 0.500000 0.673086 0.872336
Si Si4 0.000000 0.672711 0.247528
Si Si5 0.392866 0.160459 0.276050
Si Si6 0.796522 0.840428 0.355933
O O1 0.349111 0.247497 0.804708
O O2 0.449293 0.254364 0.799172
O O3 0.401006 0.000000 0.788378
O O4 0.399680 0.158272 0.065385
O O5 0.698298 0.500000 0.844695
O O6 0.750000 0.250000 0.846159
O O7 0.708521 0.347163 0.566491
O O8 0.500000 0.500000 0.857153
O O9 0.500000 0.723846 0.077748
O O10 0.051994 0.696476 0.347025
O O11 0.000000 0.500000 0.196529
O O12 0.349248 0.268088 0.319363
O O13 0.378534 0.000000 0.334713
O O14 0.750000 0.750000 0.286268
O O15 0.794970 0.000000 0.282918
#
# Coordination Sequence:
#
# PCOD9350399 Si02
#       6
#     8   8   4   4   8   8
#     4  10  20  35  55  79 106 138 174 213 256 307
#     4  10  21  37  55  76 102 136 175 216 262 312
#     4  10  18  30  51  78 107 138 170 210 258 306
#     4   8  16  32  51  74 105 138 170 206 252 308
#     4   9  18  33  54  78 104 134 171 211 251 300
#     4  10  21  36  54  75 102 136 173 212 258 308
#
# _framework density 21.105405000000001
#
# number of rings (size 3 to 8) (size 9 to 14) (size 15 to 20)
#    0.000    2.400    0.000    3.900    0.000    7.200 
#    0.000    1.000    0.000    4.800    0.000    0.000 
#    0.000    0.000    0.000    0.000    0.000    0.000 
#
# Total GULP energy -111633.757410 kJ/mol
# GULP energy per Si atom -5581.687870 kJ/mol
# Density = 2.105737 g / cm^3
# Si number density = 21.105405 Si / 1000 Ang^3
#
#
#
# Elastic Constant Matrix: (Units=GPa)
#
#
# Indices 1 2 3 4 5 6 
#
# 1 225.2475 148.8516 -0.9422 0.0000 0.0000 0.0000
# 2 148.8516 219.7677 8.8437 0.0000 0.0000 0.0000
# 3 -0.9422 8.8437 36.2121 0.0000 0.0000 0.0000
# 4 0.0000 0.0000 0.0000 17.6852 0.0000 0.0000
# 5 0.0000 0.0000 0.0000 0.0000 30.5253 0.0000
# 6 0.0000 0.0000 0.0000 0.0000 0.0000 38.3002
#
#
#
# Elastic Compliance Matrix: (Units=1/GPa)
#
#
# Indices 1 2 3 4 5 6 
#
# 1 0.008124 -0.005566 0.001571 0.000000 0.000000 0.000000
# 2 -0.005566 0.008409 -0.002198 0.000000 0.000000 0.000000
# 3 0.001571 -0.002198 0.028193 0.000000 0.000000 0.000000
# 4 0.000000 0.000000 0.000000 0.056544 0.000000 0.000000
# 5 0.000000 0.000000 0.000000 0.000000 0.032760 0.000000
# 6 0.000000 0.000000 0.000000 0.000000 0.000000 0.026110
#
#
# Mechanical properties :
#
#
# Convention : Reuss Voigt Hill
#
# Bulk Modulus (GPa) = 30.92284 88.30372 59.61328
# Shear Modulus (GPa) = 27.27681 38.93375 33.10528
#
# Velocity S-wave (km/s) = 3.59891 4.29969 3.96481
# Velocity P-wave (km/s) = 5.65269 8.15966 7.01901
#
# Compressibility (1/GPa) = 0.03233856
#
# Stress axis : x y z
#
# Youngs Moduli (GPa) = 123.08815 118.92639 35.47001
#
# Poissons Ratio (x) = 0.66193 -0.05571
# Poissons Ratio (y) = 0.68509 0.07798
# Poissons Ratio (z) = -0.19333 0.26144
#
# Static dielectric constant tensor:
#      x y z
#    x 1.756350 0.000000 0.000000 
#    y 0.000000 1.740750 0.000000 
#    z 0.000000 0.000000 1.800310 
# 
# From -- ./inp_files/5022.got.cif
#   From: 2010.05.17/outbox.cif.g08.bks.cpg/sg35_3_cif.got.tgz:5022.got - 2010.06.03 17:29:28.
