data_PCOD9350240
_publ_section_title
;
Structure prediction by ZEFSAII (Michael W. Deem and Ramdas Pophale) SiO2 
 PCOD9350240
Probable space group: C M M 2
;
_chemical_formula_sum "Si O2"
_cell_formula_units_Z 56
_cell_length_a 8.706635
_cell_length_b 18.899083
_cell_length_c 19.174823
_cell_angle_alpha 90.000000
_cell_angle_beta 90.000000
_cell_angle_gamma 90.000000
_cell_volume 3155.167606
_symmetry_space_group_name_H-M "C M M 2"
_symmetry_group_IT_number 35
_symmetry_cell_setting 'orthorhombic'
loop_
_space_group_symop_operation_xyz
x,y,z
-x,-y,z
-x,y,z
x,-y,z
1/2+x,1/2+y,z
1/2-x,1/2-y,z
1/2-x,1/2+y,z
1/2+x,1/2-y,z
loop_
_atom_site_type_symbol
_atom_site_label
_atom_site_fract_x
_atom_site_fract_y
_atom_site_fract_z
Si Si1 0.185228 0.829106 0.157250
Si Si2 0.184884 0.829365 0.596670
Si Si3 0.815652 0.830096 0.310619
Si Si4 0.183464 0.669616 0.452565
Si Si5 0.818745 0.415055 0.878308
Si Si6 0.184776 0.081996 0.732689
Si Si7 0.685210 0.582119 0.023878
O O1 0.250000 0.750000 0.152126
O O2 0.223915 0.860072 0.234056
O O3 0.237972 0.874992 0.091597
O O4 0.000000 0.825141 0.155005
O O5 0.250000 0.750000 0.603864
O O6 0.252148 0.861140 0.524791
O O7 0.229529 0.873965 0.664657
O O8 0.000000 0.826665 0.591467
O O9 0.750000 0.750000 0.307843
O O10 0.743523 0.863507 0.380197
O O11 0.000000 0.827792 0.318169
O O12 0.250000 0.750000 0.452420
O O13 0.000000 0.672023 0.453241
O O14 0.788325 0.500000 0.878015
O O15 0.749769 0.388536 0.805493
O O16 0.000000 0.403819 0.879319
O O17 0.746078 0.388381 0.950340
O O18 0.000000 0.082672 0.737166
O O19 0.234323 0.000000 0.725158
O O20 0.500000 0.583521 0.021949
O O21 0.733396 0.500000 0.030085
#
# Coordination Sequence:
#
# PCOD9350240 Si02
#       7
#     8   8   8   8   8   8   8
#     4   9  18  30  46  69  94 121 151 187 231 272
#     4  10  19  31  48  70  96 122 150 187 229 272
#     4   9  15  25  41  62  88 116 150 189 226 266
#     4  10  17  26  42  64  90 120 154 188 224 266
#     4   9  17  29  47  71  94 117 150 190 228 267
#     4   9  18  33  52  71  91 119 154 189 226 269
#     4   9  17  31  50  69  91 120 154 189 225 269
#
# _framework density 17.748661999999999
#
# number of rings (size 3 to 8) (size 9 to 14) (size 15 to 20)
#    0.000    2.714    0.000    4.286    0.000    4.000 
#    0.000    0.714    0.000    0.857    0.000    4.000 
#    0.000    0.000    0.000    0.000    0.000    0.000 
#
# Total GULP energy -155951.308880 kJ/mol
# GULP energy per Si atom -5569.689603 kJ/mol
# Density = 1.770827 g / cm^3
# Si number density = 17.748662 Si / 1000 Ang^3
#
#
#
# Elastic Constant Matrix: (Units=GPa)
#
#
# Indices 1 2 3 4 5 6 
#
# 1 43.0246 8.1240 55.1772 0.0000 0.0000 0.0000
# 2 8.1240 22.9120 49.7188 0.0000 0.0000 0.0000
# 3 55.1772 49.7188 234.7567 0.0000 0.0000 0.0000
# 4 0.0000 0.0000 0.0000 58.2209 0.0000 0.0000
# 5 0.0000 0.0000 0.0000 0.0000 26.9368 0.0000
# 6 0.0000 0.0000 0.0000 0.0000 0.0000 12.6765
#
#
#
# Elastic Compliance Matrix: (Units=1/GPa)
#
#
# Indices 1 2 3 4 5 6 
#
# 1 0.034446 0.009909 -0.010195 0.000000 0.000000 0.000000
# 2 0.009909 0.083612 -0.020037 0.000000 0.000000 0.000000
# 3 -0.010195 -0.020037 0.010900 0.000000 0.000000 0.000000
# 4 0.000000 0.000000 0.000000 0.017176 0.000000 0.000000
# 5 0.000000 0.000000 0.000000 0.000000 0.037124 0.000000
# 6 0.000000 0.000000 0.000000 0.000000 0.000000 0.078886
#
#
# Mechanical properties :
#
#
# Convention : Reuss Voigt Hill
#
# Bulk Modulus (GPa) = 11.32353 58.52591 34.92472
# Shear Modulus (GPa) = 15.04998 32.07841 23.56420
#
# Velocity S-wave (km/s) = 2.91512 4.25593 3.64766
# Velocity P-wave (km/s) = 4.21003 7.56287 6.12051
#
# Compressibility (1/GPa) = 0.08831169
#
# Stress axis : x y z
#
# Youngs Moduli (GPa) = 29.03111 11.95999 91.74705
#
# Poissons Ratio (x) = -0.11851 0.93534
# Poissons Ratio (y) = -0.28767 1.83834
# Poissons Ratio (z) = 0.29596 0.23964
#
# Static dielectric constant tensor:
#      x y z
#    x 1.602400 0.000000 0.000000 
#    y 0.000000 1.591510 0.000000 
#    z 0.000000 0.000000 1.666970 
# 
# From -- ./inp_files/18198.got.cif
#   From: 2010.05.17/outbox.cif.g08.bks.cpg/sg35_10_cif.got.tgz:18198.got - 2010.06.03 17:29:28.
