data_PCOD9350949
_publ_section_title
;
Structure prediction by ZEFSAII (Michael W. Deem and Ramdas Pophale) SiO2 
 PCOD9350949
Probable space group: C M C 21
;
_chemical_formula_sum "Si O2"
_cell_formula_units_Z 56
_cell_length_a 10.256895
_cell_length_b 28.821888
_cell_length_c 8.391185
_cell_angle_alpha 90.000000
_cell_angle_beta 90.000000
_cell_angle_gamma 90.000000
_cell_volume 2480.627945
_symmetry_space_group_name_H-M "C M C 21"
_symmetry_group_IT_number 36
_symmetry_cell_setting 'orthorhombic'
loop_
_space_group_symop_operation_xyz
x,y,z
-x,-y,1/2+z
x,-y,1/2+z
-x,y,z
1/2+x,1/2+y,z
1/2-x,1/2-y,1/2+z
1/2+x,1/2-y,1/2+z
1/2-x,1/2+y,z
loop_
_atom_site_type_symbol
_atom_site_label
_atom_site_fract_x
_atom_site_fract_y
_atom_site_fract_z
Si Si1 0.849714 0.191738 0.167190
Si Si2 0.795161 0.071989 0.851289
Si Si3 0.152810 0.244972 0.507556
Si Si4 0.655795 0.598147 0.349501
Si Si5 0.000000 0.436031 0.278206
Si Si6 0.723076 0.483700 0.651395
Si Si7 0.500000 0.011515 0.512124
Si Si8 0.649816 0.652720 0.651629
O O1 0.837928 0.220675 0.334312
O O2 0.747293 0.212161 0.042194
O O3 0.825248 0.138550 0.218538
O O4 0.000000 0.196434 0.113346
O O5 0.637918 0.081315 0.843284
O O6 0.842760 0.046910 0.012102
O O7 0.849819 0.122340 0.809920
O O8 0.827143 0.033269 0.714373
O O9 0.200015 0.204616 0.632124
O O10 0.000000 0.257299 0.533664
O O11 0.500000 0.588658 0.360473
O O12 0.707325 0.619773 0.513905
O O13 0.724356 0.550668 0.301756
O O14 0.000000 0.490215 0.336894
O O15 0.000000 0.436899 0.085959
O O16 0.864065 0.492035 0.577852
O O17 0.500000 0.658860 0.601140
#
# Coordination Sequence:
#
# PCOD9350949 Si02
#       8
#     8   8   8   8   4   8   4   8
#     4   9  19  37  59  82 110 143 179 224 275 325
#     4  10  19  32  51  74 102 136 174 213 256 306
#     4   9  19  37  59  82 110 143 179 224 275 325
#     4   9  19  36  54  73 102 137 172 212 258 306
#     4   8  16  30  46  66  94 128 164 206 252 294
#     4  10  19  32  51  74 102 136 174 213 256 306
#     4   8  16  30  46  66  94 128 164 206 252 294
#     4   9  19  36  54  73 102 137 172 212 258 306
#
# _framework density 22.574928
#
# number of rings (size 3 to 8) (size 9 to 14) (size 15 to 20)
#    0.000    2.857    0.000    2.571    0.000    4.000 
#    2.571    2.857    0.000    0.000    0.000    0.000 
#    0.000    0.000    0.000    0.000    0.000    0.000 
#
# Total GULP energy -155997.827994 kJ/mol
# GULP energy per Si atom -5571.351000 kJ/mol
# Density = 2.252355 g / cm^3
# Si number density = 22.574928 Si / 1000 Ang^3
#
#
#
# Elastic Constant Matrix: (Units=GPa)
#
#
# Indices 1 2 3 4 5 6 
#
# 1 66.7486 24.6303 6.3953 0.0000 0.0000 0.0000
# 2 24.6303 83.2710 7.0649 0.0000 0.0000 0.0000
# 3 6.3953 7.0649 38.4265 0.0000 0.0000 0.0000
# 4 0.0000 0.0000 0.0000 39.5060 0.0000 0.0000
# 5 0.0000 0.0000 0.0000 0.0000 16.6750 0.0000
# 6 0.0000 0.0000 0.0000 0.0000 0.0000 10.8916
#
#
#
# Elastic Compliance Matrix: (Units=1/GPa)
#
#
# Indices 1 2 3 4 5 6 
#
# 1 0.016957 -0.004852 -0.001930 0.000000 0.000000 0.000000
# 2 -0.004852 0.013588 -0.001691 0.000000 0.000000 0.000000
# 3 -0.001930 -0.001691 0.026656 0.000000 0.000000 0.000000
# 4 0.000000 0.000000 0.000000 0.025313 0.000000 0.000000
# 5 0.000000 0.000000 0.000000 0.000000 0.059970 0.000000
# 6 0.000000 0.000000 0.000000 0.000000 0.000000 0.091814
#
#
# Mechanical properties :
#
#
# Convention : Reuss Voigt Hill
#
# Bulk Modulus (GPa) = 24.84166 29.40304 27.12235
# Shear Modulus (GPa) = 18.89217 23.43822 21.16519
#
# Velocity S-wave (km/s) = 2.89600 3.22567 3.06527
# Velocity P-wave (km/s) = 4.71279 5.18904 4.95664
#
# Compressibility (1/GPa) = 0.04025495
#
# Stress axis : x y z
#
# Youngs Moduli (GPa) = 58.97319 73.59691 37.51537
#
# Poissons Ratio (x) = 0.35708 0.07241
# Poissons Ratio (y) = 0.28613 0.06343
# Poissons Ratio (z) = 0.11382 0.12443
#
# Static dielectric constant tensor:
#      x y z
#    x 1.804990 0.000000 0.000000 
#    y 0.000000 1.835020 0.000000 
#    z 0.000000 0.000000 1.958740 
# 
# From -- ./inp_files/3573.got.cif
#   From: 2010.05.17/outbox.cif.g08.bks.cpg/sg36_2_cif.got.tgz:3573.got - 2010.06.03 17:41:39.
