data_PCOD9350559
_publ_section_title
;
Structure prediction by ZEFSAII (Michael W. Deem and Ramdas Pophale) SiO2 
 PCOD9350559
Probable space group: C M C 21
;
_chemical_formula_sum "Si O2"
_cell_formula_units_Z 64
_cell_length_a 7.754421
_cell_length_b 21.658866
_cell_length_c 19.069878
_cell_angle_alpha 90.000000
_cell_angle_beta 90.000000
_cell_angle_gamma 90.000000
_cell_volume 3202.823489
_symmetry_space_group_name_H-M "C M C 21"
_symmetry_group_IT_number 36
_symmetry_cell_setting 'orthorhombic'
loop_
_space_group_symop_operation_xyz
x,y,z
-x,-y,1/2+z
x,-y,1/2+z
-x,y,z
1/2+x,1/2+y,z
1/2-x,1/2-y,1/2+z
1/2+x,1/2-y,1/2+z
1/2-x,1/2+y,z
loop_
_atom_site_type_symbol
_atom_site_label
_atom_site_fract_x
_atom_site_fract_y
_atom_site_fract_z
Si Si1 0.803727 0.758057 0.089480
Si Si2 0.787855 0.375833 0.582707
Si Si3 0.200009 0.255156 0.931219
Si Si4 0.206151 0.111855 0.413916
Si Si5 0.207948 0.621140 0.920458
Si Si6 0.791037 0.890630 0.075386
Si Si7 0.706194 0.007176 0.170125
Si Si8 0.295132 0.991719 0.326547
O O1 0.726664 0.691683 0.108161
O O2 0.725383 0.824880 0.105494
O O3 0.000000 0.758375 0.116044
O O4 0.805836 0.756885 0.004066
O O5 0.734279 0.385373 0.501637
O O6 0.728180 0.431572 0.631231
O O7 0.000000 0.374399 0.582450
O O8 0.238850 0.319010 0.891877
O O9 0.240920 0.189831 0.895624
O O10 0.000000 0.255173 0.950924
O O11 0.267530 0.102921 0.494562
O O12 0.000000 0.109750 0.413998
O O13 0.271012 0.056263 0.366448
O O14 0.274334 0.565345 0.872579
O O15 0.000000 0.618570 0.921605
O O16 0.000000 0.887226 0.073870
O O17 0.738615 0.948230 0.121621
O O18 0.500000 0.015460 0.176137
O O19 0.776852 0.996602 0.248057
O O20 0.500000 0.980583 0.320364
#
# Coordination Sequence:
#
# PCOD9350559 Si02
#       8
#     8   8   8   8   8   8   8   8
#     4   8  15  30  50  72  98 129 165 204 251 303
#     4   8  14  28  51  72  92 126 167 202 243 295
#     4  10  18  29  50  79 104 125 161 214 260 302
#     4  10  20  35  55  77 103 135 170 210 257 308
#     4   9  17  32  52  72 100 137 170 204 252 304
#     4   9  18  32  51  74  98 128 167 207 249 302
#     4  10  20  33  50  74 104 136 169 207 251 300
#     4  10  21  35  51  74 105 140 177 214 253 302
#
# _framework density 19.982368999999998
#
# number of rings (size 3 to 8) (size 9 to 14) (size 15 to 20)
#    0.000    2.750    0.000    3.750    0.000    4.500 
#    0.000    5.000    0.000    1.500    0.000    0.000 
#    0.000    0.000    0.000    0.000    0.000    0.000 
#
# Total GULP energy -178400.619753 kJ/mol
# GULP energy per Si atom -5575.019367 kJ/mol
# Density = 1.993689 g / cm^3
# Si number density = 19.982369 Si / 1000 Ang^3
#
#
#
# Elastic Constant Matrix: (Units=GPa)
#
#
# Indices 1 2 3 4 5 6 
#
# 1 27.5931 -24.6741 -4.2114 0.0000 0.0000 0.0000
# 2 -24.6741 128.1549 33.5270 0.0000 0.0000 0.0000
# 3 -4.2114 33.5270 55.4084 0.0000 0.0000 0.0000
# 4 0.0000 0.0000 0.0000 -7.1336 0.0000 0.0000
# 5 0.0000 0.0000 0.0000 0.0000 -10.1611 0.0000
# 6 0.0000 0.0000 0.0000 0.0000 0.0000 17.0016
#
#
#
# Elastic Compliance Matrix: (Units=1/GPa)
#
#
# Indices 1 2 3 4 5 6 
#
# 1 0.043986 0.009022 -0.002116 0.000000 0.000000 0.000000
# 2 0.009022 0.011121 -0.006044 0.000000 0.000000 0.000000
# 3 -0.002116 -0.006044 0.021544 0.000000 0.000000 0.000000
# 4 0.000000 0.000000 0.000000 -0.140183 0.000000 0.000000
# 5 0.000000 0.000000 0.000000 0.000000 -0.098415 0.000000
# 6 0.000000 0.000000 0.000000 0.000000 0.000000 0.058818
#
#
# Mechanical properties :
#
#
# Convention : Reuss Voigt Hill
#
# Bulk Modulus (GPa) = 12.75896 24.49327 18.62611
# Shear Modulus (GPa) = -63.50980 13.70904 -24.90038
#
# Velocity S-wave (km/s) = -5.64375 2.62211 -3.53387
# Velocity P-wave (km/s) = 6.00585 4.63156 2.70360
#
# Compressibility (1/GPa) = 0.07837628
#
# Stress axis : x y z
#
# Youngs Moduli (GPa) = 22.73459 89.91803 46.41691
#
# Poissons Ratio (x) = -0.81127 0.09822
# Poissons Ratio (y) = -0.20512 0.28052
# Poissons Ratio (z) = 0.04811 0.54343
#
# Static dielectric constant tensor:
#      x y z
#    x 1.741810 0.000000 0.000000 
#    y 0.000000 1.735120 0.000000 
#    z 0.000000 0.000000 1.673590 
# 
# From -- ./inp_files/15796.got.cif
#   From: 2010.05.17/outbox.cif.g08.bks.cpg/sg36_8_cif.got.tgz:15796.got - 2010.06.03 17:41:39.
