data_PCOD9350702
_publ_section_title
;
Structure prediction by ZEFSAII (Michael W. Deem and Ramdas Pophale) SiO2 
 PCOD9350702
Probable space group: C M C 21
;
_chemical_formula_sum "Si O2"
_cell_formula_units_Z 64
_cell_length_a 19.288724
_cell_length_b 8.599343
_cell_length_c 18.816491
_cell_angle_alpha 90.000000
_cell_angle_beta 90.000000
_cell_angle_gamma 90.000000
_cell_volume 3121.098018
_symmetry_space_group_name_H-M "C M C 21"
_symmetry_group_IT_number 36
_symmetry_cell_setting 'orthorhombic'
loop_
_space_group_symop_operation_xyz
x,y,z
-x,-y,1/2+z
x,-y,1/2+z
-x,y,z
1/2+x,1/2+y,z
1/2-x,1/2-y,1/2+z
1/2+x,1/2-y,1/2+z
1/2-x,1/2+y,z
loop_
_atom_site_type_symbol
_atom_site_label
_atom_site_fract_x
_atom_site_fract_y
_atom_site_fract_z
Si Si1 0.421216 0.875296 0.510970
Si Si2 0.340882 0.600779 0.725282
Si Si3 0.721968 0.691610 0.971835
Si Si4 0.837070 0.486614 0.895230
Si Si5 0.835744 0.100294 0.552357
Si Si6 0.779115 0.808046 0.701617
Si Si7 0.844127 0.481892 0.137857
Si Si8 0.079137 0.615512 0.265395
O O1 0.500000 0.906102 0.529329
O O2 0.401861 0.929343 0.432784
O O3 0.368903 0.975551 0.559967
O O4 0.401535 0.695760 0.523600
O O5 0.343102 0.599264 0.638153
O O6 0.271204 0.695368 0.745323
O O7 0.327930 0.423162 0.745640
O O8 0.403045 0.701308 0.756170
O O9 0.771394 0.592931 0.917925
O O10 0.677432 0.816183 0.928129
O O11 0.771472 0.793868 0.023924
O O12 0.677929 0.566970 0.017274
O O13 0.862193 0.460857 0.815272
O O14 0.824850 0.695037 0.653214
O O15 0.723744 0.916232 0.659135
O O16 0.905302 0.540051 0.188998
O O17 0.000000 0.592926 0.287790
#
# Coordination Sequence:
#
# PCOD9350702 Si02
#       8
#     8   8   8   8   8   8   8   8
#     4  11  22  37  54  83 117 160 202 231 282 353
#     4  10  19  31  58  85 114 149 184 241 294 345
#     4   9  21  36  60  92 118 139 195 240 315 340
#     4  10  23  38  63  86 119 156 188 247 297 358
#     4  10  18  32  59  86 115 146 182 252 287 345
#     4   9  19  32  54  93 114 136 186 243 313 329
#     4  10  21  34  62  85 116 149 192 254 291 347
#     4  11  23  42  58  80 119 167 201 232 289 355
#
# _framework density 20.505604000000002
#
# number of rings (size 3 to 8) (size 9 to 14) (size 15 to 20)
#    0.000    2.000    2.500    1.500   10.500    4.000 
#    0.000    5.000    0.000    0.000    0.000    0.000 
#    0.000    0.000    0.000    0.000    0.000    0.000 
#
# Total GULP energy -178575.524998 kJ/mol
# GULP energy per Si atom -5580.485156 kJ/mol
# Density = 2.045893 g / cm^3
# Si number density = 20.505604 Si / 1000 Ang^3
#
#
#
# Elastic Constant Matrix: (Units=GPa)
#
#
# Indices 1 2 3 4 5 6 
#
# 1 66.0306 14.0488 -9.1857 0.0000 0.0000 0.0000
# 2 14.0488 97.4462 -10.7530 0.0000 0.0000 0.0000
# 3 -9.1857 -10.7530 35.6908 0.0000 0.0000 0.0000
# 4 0.0000 0.0000 0.0000 20.4628 0.0000 0.0000
# 5 0.0000 0.0000 0.0000 0.0000 19.6696 0.0000
# 6 0.0000 0.0000 0.0000 0.0000 0.0000 17.4558
#
#
#
# Elastic Compliance Matrix: (Units=1/GPa)
#
#
# Indices 1 2 3 4 5 6 
#
# 1 0.016047 -0.001922 0.003551 0.000000 0.000000 0.000000
# 2 -0.001922 0.010845 0.002773 0.000000 0.000000 0.000000
# 3 0.003551 0.002773 0.029768 0.000000 0.000000 0.000000
# 4 0.000000 0.000000 0.000000 0.048869 0.000000 0.000000
# 5 0.000000 0.000000 0.000000 0.000000 0.050840 0.000000
# 6 0.000000 0.000000 0.000000 0.000000 0.000000 0.057287
#
#
# Mechanical properties :
#
#
# Convention : Reuss Voigt Hill
#
# Bulk Modulus (GPa) = 15.27536 20.82085 18.04810
# Shear Modulus (GPa) = 22.05814 25.18816 23.62315
#
# Velocity S-wave (km/s) = 3.28336 3.50859 3.39784
# Velocity P-wave (km/s) = 4.67328 5.15649 4.92082
#
# Compressibility (1/GPa) = 0.06546491
#
# Stress axis : x y z
#
# Youngs Moduli (GPa) = 62.31554 92.20757 33.59334
#
# Poissons Ratio (x) = 0.17719 -0.11929
# Poissons Ratio (y) = 0.11975 -0.09315
# Poissons Ratio (z) = -0.22129 -0.25568
#
# Static dielectric constant tensor:
#      x y z
#    x 1.703030 0.000000 0.000000 
#    y 0.000000 1.782820 0.000000 
#    z 0.000000 0.000000 1.778740 
# 
# From -- ./inp_files/16301.got.cif
#   From: 2010.05.17/outbox.cif.g08.bks.cpg/sg36_9_cif.got.tgz:16301.got - 2010.06.03 17:41:39.
