data_PCOD9350914
_publ_section_title
;
Structure prediction by ZEFSAII (Michael W. Deem and Ramdas Pophale) SiO2 
 PCOD9350914
Probable space group: C M C 21
;
_chemical_formula_sum "Si O2"
_cell_formula_units_Z 64
_cell_length_a 9.379256
_cell_length_b 22.341986
_cell_length_c 14.490279
_cell_angle_alpha 90.000000
_cell_angle_beta 90.000000
_cell_angle_gamma 90.000000
_cell_volume 3036.455443
_symmetry_space_group_name_H-M "C M C 21"
_symmetry_group_IT_number 36
_symmetry_cell_setting 'orthorhombic'
loop_
_space_group_symop_operation_xyz
x,y,z
-x,-y,1/2+z
x,-y,1/2+z
-x,y,z
1/2+x,1/2+y,z
1/2-x,1/2-y,1/2+z
1/2+x,1/2-y,1/2+z
1/2-x,1/2+y,z
loop_
_atom_site_type_symbol
_atom_site_label
_atom_site_fract_x
_atom_site_fract_y
_atom_site_fract_z
Si Si1 0.669507 0.415747 0.715990
Si Si2 0.333343 0.034186 0.384094
Si Si3 0.833275 0.397237 0.377993
Si Si4 0.827237 0.205935 0.769929
Si Si5 0.834554 0.159025 0.582599
Si Si6 0.831936 0.154016 0.042604
Si Si7 0.166584 0.280038 0.936673
Si Si8 0.833585 0.024850 0.576273
O O1 0.500000 0.416438 0.736384
O O2 0.756778 0.423395 0.809827
O O3 0.701153 0.359009 0.649568
O O4 0.701200 0.472974 0.649127
O O5 0.500000 0.049289 0.393423
O O6 0.259574 0.029161 0.483916
O O7 0.322036 0.965742 0.347215
O O8 0.744475 0.351861 0.315644
O O9 0.765437 0.388432 0.479406
O O10 0.000000 0.380662 0.379450
O O11 0.786714 0.203908 0.663273
O O12 0.000000 0.200698 0.775901
O O13 0.784970 0.261457 0.834414
O O14 0.749638 0.168829 0.489212
O O15 0.821428 0.091384 0.618698
O O16 0.000000 0.170550 0.563377
O O17 0.814005 0.219974 0.999478
O O18 0.000000 0.138695 0.030210
O O19 0.000000 0.294002 0.934025
O O20 0.000000 0.016133 0.549872
#
# Coordination Sequence:
#
# PCOD9350914 Si02
#       8
#     8   8   8   8   8   8   8   8
#     4  10  20  36  60  84 109 147 193 236 277 330
#     4  11  23  35  51  82 121 154 181 223 287 348
#     4  10  19  31  52  82 113 144 181 226 276 330
#     4   9  19  37  60  83 109 145 193 238 279 330
#     4  10  21  38  59  84 112 147 192 238 279 330
#     4   9  18  35  58  80 104 140 186 230 274 327
#     4   9  19  36  58  83 111 143 181 230 286 340
#     4  10  21  38  60  84 111 150 195 235 278 333
#
# _framework density 21.077204999999999
#
# number of rings (size 3 to 8) (size 9 to 14) (size 15 to 20)
#    0.000    2.250    1.250    2.250    0.000    6.500 
#    2.250    0.000    0.000    0.000    0.000    0.000 
#    0.000    0.000    0.000    0.000    0.000    0.000 
#
# Total GULP energy -178615.354030 kJ/mol
# GULP energy per Si atom -5581.729813 kJ/mol
# Density = 2.102923 g / cm^3
# Si number density = 21.077205 Si / 1000 Ang^3
#
#
#
# Elastic Constant Matrix: (Units=GPa)
#
#
# Indices 1 2 3 4 5 6 
#
# 1 21.9942 2.2140 38.9270 0.0000 0.0000 0.0000
# 2 2.2140 39.5182 0.0699 0.0000 0.0000 0.0000
# 3 38.9270 0.0699 98.2161 0.0000 0.0000 0.0000
# 4 0.0000 0.0000 0.0000 29.1384 0.0000 0.0000
# 5 0.0000 0.0000 0.0000 0.0000 22.0886 0.0000
# 6 0.0000 0.0000 0.0000 0.0000 0.0000 17.3639
#
#
#
# Elastic Compliance Matrix: (Units=1/GPa)
#
#
# Indices 1 2 3 4 5 6 
#
# 1 0.155161 -0.008584 -0.061490 0.000000 0.000000 0.000000
# 2 -0.008584 0.025780 0.003384 0.000000 0.000000 0.000000
# 3 -0.061490 0.003384 0.034550 0.000000 0.000000 0.000000
# 4 0.000000 0.000000 0.000000 0.034319 0.000000 0.000000
# 5 0.000000 0.000000 0.000000 0.000000 0.045272 0.000000
# 6 0.000000 0.000000 0.000000 0.000000 0.000000 0.057591
#
#
# Mechanical properties :
#
#
# Convention : Reuss Voigt Hill
#
# Bulk Modulus (GPa) = 12.17884 26.90559 19.54221
# Shear Modulus (GPa) = 9.73855 21.61936 15.67895
#
# Velocity S-wave (km/s) = 2.15185 3.20616 2.73038
# Velocity P-wave (km/s) = 3.45900 5.14771 4.38541
#
# Compressibility (1/GPa) = 0.08210962
#
# Stress axis : x y z
#
# Youngs Moduli (GPa) = 6.44493 38.79011 28.94329
#
# Poissons Ratio (x) = 0.33298 1.77973
# Poissons Ratio (y) = 0.05532 -0.09794
# Poissons Ratio (z) = 0.39630 -0.13126
#
# Static dielectric constant tensor:
#      x y z
#    x 1.705770 0.000000 0.000000 
#    y 0.000000 1.797830 0.000000 
#    z 0.000000 0.000000 1.760000 
# 
# From -- ./inp_files/10928.got.cif
#   From: 2010.05.17/outbox.cif.g08.bks.cpg/sg36_6_cif.got.tgz:10928.got - 2010.06.03 17:41:39.
