data_PCOD9350108
_publ_section_title
;
Structure prediction by ZEFSAII (Michael W. Deem and Ramdas Pophale) SiO2 
 PCOD9350108
Probable space group: C M M 2
;
_chemical_formula_sum "Si O2"
_cell_formula_units_Z 48
_cell_length_a 15.528323
_cell_length_b 24.003767
_cell_length_c 6.641781
_cell_angle_alpha 90.000000
_cell_angle_beta 90.000000
_cell_angle_gamma 90.000000
_cell_volume 2475.645808
_symmetry_space_group_name_H-M "C M M 2"
_symmetry_group_IT_number 35
_symmetry_cell_setting 'orthorhombic'
loop_
_space_group_symop_operation_xyz
x,y,z
-x,-y,z
-x,y,z
x,-y,z
1/2+x,1/2+y,z
1/2-x,1/2-y,z
1/2-x,1/2+y,z
1/2+x,1/2-y,z
loop_
_atom_site_type_symbol
_atom_site_label
_atom_site_fract_x
_atom_site_fract_y
_atom_site_fract_z
Si Si1 0.092394 0.934387 0.894180
Si Si2 0.406334 0.333970 0.189864
Si Si3 0.780514 0.652067 0.259695
Si Si4 0.843178 0.263285 0.916993
Si Si5 0.901570 0.640978 0.641199
Si Si6 0.781223 0.434152 0.905208
O O1 0.186954 0.922945 0.802394
O O2 0.000000 0.924423 0.784871
O O3 0.094060 0.000000 0.945438
O O4 0.089808 0.894814 0.088406
O O5 0.500000 0.321547 0.282888
O O6 0.318151 0.332410 0.315915
O O7 0.389722 0.290983 0.004714
O O8 0.843248 0.646287 0.445053
O O9 0.817468 0.699313 0.110638
O O10 0.778783 0.596633 0.121063
O O11 0.750000 0.250000 0.820600
O O12 0.896235 0.301481 0.766452
O O13 0.856444 0.594348 0.779029
O O14 0.000000 0.627787 0.593781
O O15 0.792693 0.500000 0.923623
#
# Coordination Sequence:
#
# PCOD9350108 Si02
#       6
#     8   8   8   8   8   8
#     4   8  14  28  53  81 106 134 168 212 271 328
#     4   9  16  30  54  80 106 138 176 217 265 326
#     4   9  20  36  53  78 110 142 177 224 277 325
#     4   9  19  36  56  78 108 142 179 223 271 325
#     4  11  23  37  54  78 110 147 185 227 275 322
#     4   9  19  37  58  79 107 143 184 229 273 324
#
# _framework density 19.388881999999999
#
# number of rings (size 3 to 8) (size 9 to 14) (size 15 to 20)
#    0.000    2.833    0.000    1.500    0.000    6.333 
#    0.000    0.833    0.000    4.000    0.000    4.667 
#    0.000    0.000    0.000    0.000    0.000    0.000 
#
# Total GULP energy -133637.085012 kJ/mol
# GULP energy per Si atom -5568.211876 kJ/mol
# Density = 1.934475 g / cm^3
# Si number density = 19.388882 Si / 1000 Ang^3
#
#
#
# Elastic Constant Matrix: (Units=GPa)
#
#
# Indices 1 2 3 4 5 6 
#
# 1 197.5366 32.7620 57.0165 0.0000 0.0000 0.0000
# 2 32.7620 59.9511 16.3746 0.0000 0.0000 0.0000
# 3 57.0165 16.3746 45.3806 0.0000 0.0000 0.0000
# 4 0.0000 0.0000 0.0000 0.5612 0.0000 0.0000
# 5 0.0000 0.0000 0.0000 0.0000 10.9587 0.0000
# 6 0.0000 0.0000 0.0000 0.0000 0.0000 10.0016
#
#
#
# Elastic Compliance Matrix: (Units=1/GPa)
#
#
# Indices 1 2 3 4 5 6 
#
# 1 0.008120 -0.001831 -0.009541 0.000000 0.000000 0.000000
# 2 -0.001831 0.018917 -0.004525 0.000000 0.000000 0.000000
# 3 -0.009541 -0.004525 0.035656 0.000000 0.000000 0.000000
# 4 0.000000 0.000000 0.000000 1.782023 0.000000 0.000000
# 5 0.000000 0.000000 0.000000 0.000000 0.091252 0.000000
# 6 0.000000 0.000000 0.000000 0.000000 0.000000 0.099984
#
#
# Mechanical properties :
#
#
# Convention : Reuss Voigt Hill
#
# Bulk Modulus (GPa) = 32.36421 57.24162 44.80291
# Shear Modulus (GPa) = 2.40611 17.41863 9.91237
#
# Velocity S-wave (km/s) = 1.11520 3.00055 2.26351
# Velocity P-wave (km/s) = 4.28796 6.44914 5.47622
#
# Compressibility (1/GPa) = 0.03089833
#
# Stress axis : x y z
#
# Youngs Moduli (GPa) = 123.15151 52.86261 28.04559
#
# Poissons Ratio (x) = 0.09681 0.26759
# Poissons Ratio (y) = 0.22554 0.12690
# Poissons Ratio (z) = 1.17502 0.23919
#
# Static dielectric constant tensor:
#      x y z
#    x 1.848470 0.000000 0.000000 
#    y 0.000000 1.684850 0.000000 
#    z 0.000000 0.000000 1.645670 
# 
# From -- ./inp_files/1931.got.cif
#   From: 2010.05.17/outbox.cif.g08.bks.cpg/sg35_1_cif.got.tgz:1931.got - 2010.06.03 17:29:28.
