data_PCOD9350194
_publ_section_title
;
Structure prediction by ZEFSAII (Michael W. Deem and Ramdas Pophale) SiO2 
 PCOD9350194
Probable space group: C M M 2
;
_chemical_formula_sum "Si O2"
_cell_formula_units_Z 32
_cell_length_a 24.000000
_cell_length_b 15.000000
_cell_length_c 9.000000
_cell_angle_alpha 90.000000
_cell_angle_beta 90.000000
_cell_angle_gamma 90.000000
_cell_volume 3240.000000
_symmetry_space_group_name_H-M "C M M 2"
_symmetry_group_IT_number 35
_symmetry_cell_setting 'orthorhombic'
loop_
_space_group_symop_operation_xyz
x,y,z
-x,-y,z
-x,y,z
x,-y,z
1/2+x,1/2+y,z
1/2-x,1/2-y,z
1/2-x,1/2+y,z
1/2+x,1/2-y,z
loop_
_atom_site_type_symbol
_atom_site_label
_atom_site_fract_x
_atom_site_fract_y
_atom_site_fract_z
Si Si1 0.134974 0.102496 0.423620
Si Si2 0.437181 0.899518 0.081898
Si Si3 0.890780 0.727160 0.844597
Si Si4 0.254747 0.643523 0.242996
Si Si5 0.833109 0.901911 0.764949
Si Si6 0.064255 0.259393 0.517001
Si Si7 0.773806 0.350364 0.909485
Si Si8 0.860011 0.597516 0.367720
O O1 0.183805 0.120094 0.303084
O O2 0.160301 0.116477 0.589605
O O3 0.083076 0.169774 0.430385
O O4 0.117730 0.000000 0.409951
O O5 0.500000 0.894713 0.145354
O O6 0.389950 0.893765 0.207248
O O7 0.432263 0.000000 0.014117
O O8 0.428385 0.818078 0.969845
O O9 0.863618 0.825666 0.861722
O O10 0.925649 0.740160 0.694107
O O11 0.836630 0.660766 0.850448
O O12 0.250000 0.750000 0.244152
O O13 0.205888 0.608592 0.349537
O O14 0.237171 0.613498 0.076446
O O15 0.767919 0.900329 0.801291
O O16 0.856376 0.000000 0.795987
O O17 0.110102 0.329513 0.464418
O O18 0.000000 0.280843 0.485626
O O19 0.750000 0.250000 0.913654
O O20 0.872888 0.500000 0.427053
#
# Coordination Sequence:
#
# PCOD9350194 Si02
#       8
#     8   8   8   8   8   8   8   8
#     4  10  22  39  60  87 119 156 199 245 296 353
#     4  10  21  38  59  82 112 153 199 246 297 356
#     4  10  20  38  59  83 117 152 199 245 293 352
#     4  11  20  36  61  89 120 152 191 243 300 360
#     4   9  20  35  55  84 119 153 188 236 296 353
#     4  11  24  40  61  87 118 161 205 248 297 349
#     4   9  19  33  54  84 116 149 186 231 291 348
#     4  11  23  39  59  85 118 154 196 245 300 358
#
# _framework density 9.8765429999999999
#
# number of rings (size 3 to 8) (size 9 to 14) (size 15 to 20)
#    0.000    1.875    2.500    1.125    1.750    3.500 
#    0.000    0.000    0.000    1.125    0.000    0.000 
#    0.000    0.000    0.000    0.000    0.000    0.000 
#
# Total GULP energy -178285.952108 kJ/mol
# GULP energy per Si atom -5571.436003 kJ/mol
# Density = 0.985406 g / cm^3
# Si number density = 9.876543 Si / 1000 Ang^3
#
#
#
# Elastic Constant Matrix: (Units=GPa)
#
#
# Indices 1 2 3 4 5 6 
#
# 1 36.3228 -26.2641 -5.3546 0.0000 0.0000 0.0000
# 2 -26.2641 61.0864 3.4110 0.0000 0.0000 0.0000
# 3 -5.3546 3.4110 5.8899 0.0000 0.0000 0.0000
# 4 0.0000 0.0000 0.0000 8.0808 0.0000 0.0000
# 5 0.0000 0.0000 0.0000 0.0000 25.4863 0.0000
# 6 0.0000 0.0000 0.0000 0.0000 0.0000 103.3041
#
#
#
# Elastic Compliance Matrix: (Units=1/GPa)
#
#
# Indices 1 2 3 4 5 6 
#
# 1 0.044686 0.017511 0.030484 0.000000 0.000000 0.000000
# 2 0.017511 0.023779 0.002148 0.000000 0.000000 0.000000
# 3 0.030484 0.002148 0.196251 0.000000 0.000000 0.000000
# 4 0.000000 0.000000 0.000000 0.123750 0.000000 0.000000
# 5 0.000000 0.000000 0.000000 0.000000 0.039237 0.000000
# 6 0.000000 0.000000 0.000000 0.000000 0.000000 0.009680
#
#
# Mechanical properties :
#
#
# Convention : Reuss Voigt Hill
#
# Bulk Modulus (GPa) = 2.73971 5.20931 3.97451
# Shear Modulus (GPa) = 10.89884 36.14138 23.52011
#
# Velocity S-wave (km/s) = 2.35149 4.28209 3.45440
# Velocity P-wave (km/s) = 2.96018 5.20493 4.23403
#
# Compressibility (1/GPa) = 0.36500219
#
# Stress axis : x y z
#
# Youngs Moduli (GPa) = 22.37821 42.05390 5.09552
#
# Poissons Ratio (x) = -0.73639 -0.15533
# Poissons Ratio (y) = -0.39186 -0.01095
# Poissons Ratio (z) = -0.68218 -0.09034
#
# Static dielectric constant tensor:
#      x y z
#    x 1.698390 0.000000 0.000000 
#    y 0.000000 1.741820 0.000000 
#    z 0.000000 0.000000 1.724280 
# 
# From -- ./inp_files/9924.got.cif
#   From: 2010.05.17/outbox.ucp.g08.bks.cvg/sg35_5_cif.got.tgz:9924.got - 2010.06.11 10:36:28.
