data_PCOD9350492
_publ_section_title
;
Structure prediction by ZEFSAII (Michael W. Deem and Ramdas Pophale) SiO2 
 PCOD9350492
Probable space group: C M C 21
;
_chemical_formula_sum "Si O2"
_cell_formula_units_Z 56
_cell_length_a 15.495339
_cell_length_b 24.332538
_cell_length_c 5.540139
_cell_angle_alpha 90.000000
_cell_angle_beta 90.000000
_cell_angle_gamma 90.000000
_cell_volume 2088.859133
_symmetry_space_group_name_H-M "C M C 21"
_symmetry_group_IT_number 36
_symmetry_cell_setting 'orthorhombic'
loop_
_space_group_symop_operation_xyz
x,y,z
-x,-y,1/2+z
x,-y,1/2+z
-x,y,z
1/2+x,1/2+y,z
1/2-x,1/2-y,1/2+z
1/2+x,1/2-y,1/2+z
1/2-x,1/2+y,z
loop_
_atom_site_type_symbol
_atom_site_label
_atom_site_fract_x
_atom_site_fract_y
_atom_site_fract_z
Si Si1 0.000000 0.600633 0.715580
Si Si2 0.178516 0.516313 0.031077
Si Si3 0.604481 0.293925 0.459376
Si Si4 0.500000 0.109440 0.218065
Si Si5 0.831097 0.678381 0.662184
Si Si6 0.397872 0.345114 0.954726
Si Si7 0.871067 0.027339 0.524603
Si Si8 0.309980 0.857585 0.663442
O O1 0.915038 0.639627 0.704942
O O2 0.000000 0.573663 0.456625
O O3 0.000000 0.574377 0.976490
O O4 0.135590 0.493157 0.272489
O O5 0.267898 0.482345 0.019597
O O6 0.202331 0.579845 0.075692
O O7 0.500000 0.290770 0.451807
O O8 0.640277 0.237051 0.564241
O O9 0.631668 0.308315 0.184979
O O10 0.629844 0.336860 0.673424
O O11 0.585716 0.146028 0.208462
O O12 0.777779 0.652562 0.436833
O O13 0.791232 0.680159 0.931674
O O14 0.500000 0.332025 0.941441
O O15 0.389933 0.408557 0.027746
O O16 0.902304 0.000827 0.272608
#
# Coordination Sequence:
#
# PCOD9350492 Si02
#       8
#     4   8   8   4   8   8   8   8
#     4   8  14  24  40  65 100 138 180 195 244 314
#     4  10  21  38  57  79 102 138 197 245 282 327
#     4  10  19  32  51  82 124 158 180 211 268 338
#     4   8  16  26  42  69 102 136 166 217 272 302
#     4  10  17  29  49  77 111 153 180 219 263 327
#     4  10  21  34  53  86 122 147 178 228 275 328
#     4  10  21  38  60  82 103 145 192 234 285 333
#     4  10  19  31  51  79 109 143 194 232 267 321
#
# _framework density 26.808895
#
# number of rings (size 3 to 8) (size 9 to 14) (size 15 to 20)
#    0.000    2.286    0.714    2.571    0.000    0.571 
#    0.000    0.714    0.000    0.000    0.000   80.000 
#    0.000    0.000    0.000    0.000    0.000    0.000 
#
# Total GULP energy -156666.124925 kJ/mol
# GULP energy per Si atom -5595.218747 kJ/mol
# Density = 2.674788 g / cm^3
# Si number density = 26.808895 Si / 1000 Ang^3
#
#
#
# Elastic Constant Matrix: (Units=GPa)
#
#
# Indices 1 2 3 4 5 6 
#
# 1 60.1125 -10.4241 32.6591 0.0000 0.0000 0.0000
# 2 -10.4241 96.8889 70.0383 0.0000 0.0000 0.0000
# 3 32.6591 70.0383 337.5035 0.0000 0.0000 0.0000
# 4 0.0000 0.0000 0.0000 54.3025 0.0000 0.0000
# 5 0.0000 0.0000 0.0000 0.0000 -228.2320 0.0000
# 6 0.0000 0.0000 0.0000 0.0000 0.0000 25.8657
#
#
#
# Elastic Compliance Matrix: (Units=1/GPa)
#
#
# Indices 1 2 3 4 5 6 
#
# 1 0.018741 0.003914 -0.002626 0.000000 0.000000 0.000000
# 2 0.003914 0.012960 -0.003068 0.000000 0.000000 0.000000
# 3 -0.002626 -0.003068 0.003854 0.000000 0.000000 0.000000
# 4 0.000000 0.000000 0.000000 0.018415 0.000000 0.000000
# 5 0.000000 0.000000 0.000000 0.000000 -0.004382 0.000000
# 6 0.000000 0.000000 0.000000 0.000000 0.000000 0.038661
#
#
# Mechanical properties :
#
#
# Convention : Reuss Voigt Hill
#
# Bulk Modulus (GPa) = 31.25436 75.45017 53.35226
# Shear Modulus (GPa) = 48.79265 -2.79733 22.99766
#
# Velocity S-wave (km/s) = 4.27079 -1.02259 2.93206
# Velocity P-wave (km/s) = 6.00026 5.17789 5.60418
#
# Compressibility (1/GPa) = 0.03199553
#
# Stress axis : x y z
#
# Youngs Moduli (GPa) = 53.35931 77.15916 259.48767
#
# Poissons Ratio (x) = -0.30203 0.68137
# Poissons Ratio (y) = -0.20887 0.79618
# Poissons Ratio (z) = 0.14011 0.23675
#
# Static dielectric constant tensor:
#      x y z
#    x 2.255220 0.000000 0.000000 
#    y 0.000000 1.980420 0.000000 
#    z 0.000000 0.000000 2.174960 
# 
# From -- ./inp_files/1430.got.cif
#   From: 2010.05.17/outbox.cif.g08.bks.cpg/sg36_1_cif.got.tgz:1430.got - 2010.06.03 17:41:39.
