data_PCOD9350931
_publ_section_title
;
Structure prediction by ZEFSAII (Michael W. Deem and Ramdas Pophale) SiO2 
 PCOD9350931
Probable space group: C M C 21
;
_chemical_formula_sum "Si O2"
_cell_formula_units_Z 64
_cell_length_a 28.700070
_cell_length_b 14.422840
_cell_length_c 8.107891
_cell_angle_alpha 90.000000
_cell_angle_beta 90.000000
_cell_angle_gamma 90.000000
_cell_volume 3356.152166
_symmetry_space_group_name_H-M "C M C 21"
_symmetry_group_IT_number 36
_symmetry_cell_setting 'orthorhombic'
loop_
_space_group_symop_operation_xyz
x,y,z
-x,-y,1/2+z
x,-y,1/2+z
-x,y,z
1/2+x,1/2+y,z
1/2-x,1/2-y,1/2+z
1/2+x,1/2-y,1/2+z
1/2-x,1/2+y,z
loop_
_atom_site_type_symbol
_atom_site_label
_atom_site_fract_x
_atom_site_fract_y
_atom_site_fract_z
Si Si1 0.330755 0.441644 0.121970
Si Si2 0.232288 0.382440 0.094003
Si Si3 0.639854 0.752109 0.488848
Si Si4 0.946718 0.442200 0.968465
Si Si5 0.738561 0.196719 0.965176
Si Si6 0.836366 0.869925 0.495206
Si Si7 0.633209 0.176499 0.614159
Si Si8 0.053679 0.362308 0.599716
O O1 0.275166 0.453089 0.082443
O O2 0.335456 0.404698 0.307331
O O3 0.350861 0.357481 0.011432
O O4 0.353863 0.541535 0.097044
O O5 0.235997 0.342238 0.280501
O O6 0.176938 0.392599 0.074808
O O7 0.247085 0.304176 0.963700
O O8 0.687681 0.803563 0.548566
O O9 0.635757 0.784619 0.299760
O O10 0.593175 0.785336 0.578058
O O11 0.944079 0.405090 0.782716
O O12 0.000000 0.434531 0.027544
O O13 0.912861 0.379772 0.076431
O O14 0.934828 0.550800 0.980844
O O15 0.783240 0.151951 0.051127
O O16 0.862036 0.771504 0.509224
O O17 0.000000 0.331978 0.569913
#
# Coordination Sequence:
#
# PCOD9350931 Si02
#       8
#     8   8   8   8   8   8   8   8
#     4  10  19  32  49  72 104 141 178 213 251 296
#     4   8  16  29  45  67  96 130 167 206 245 288
#     4  10  19  33  53  77 104 135 172 212 256 304
#     4  10  21  37  56  78 103 131 165 207 256 308
#     4   8  16  29  45  67  96 130 167 206 245 288
#     4  10  19  32  49  72 104 141 178 213 251 296
#     4  10  19  33  53  77 104 135 172 212 256 304
#     4  10  21  37  56  78 103 131 165 207 256 308
#
# _framework density 19.069455999999999
#
# number of rings (size 3 to 8) (size 9 to 14) (size 15 to 20)
#    0.000    2.500    0.000    2.250    0.000    4.500 
#    0.000    2.500    0.000    0.750    0.000    0.000 
#    0.000    0.000    0.000    0.000    0.000    0.000 
#
# Total GULP energy -178257.066403 kJ/mol
# GULP energy per Si atom -5570.533325 kJ/mol
# Density = 1.902605 g / cm^3
# Si number density = 19.069456 Si / 1000 Ang^3
#
#
#
# Elastic Constant Matrix: (Units=GPa)
#
#
# Indices 1 2 3 4 5 6 
#
# 1 70.1581 24.0639 17.0539 0.0000 0.0000 0.0000
# 2 24.0639 46.0725 4.3681 0.0000 0.0000 0.0000
# 3 17.0539 4.3681 23.8682 0.0000 0.0000 0.0000
# 4 0.0000 0.0000 0.0000 25.5771 0.0000 0.0000
# 5 0.0000 0.0000 0.0000 0.0000 22.2666 0.0000
# 6 0.0000 0.0000 0.0000 0.0000 0.0000 20.8413
#
#
#
# Elastic Compliance Matrix: (Units=1/GPa)
#
#
# Indices 1 2 3 4 5 6 
#
# 1 0.020710 -0.009580 -0.013044 0.000000 0.000000 0.000000
# 2 -0.009580 0.026520 0.001992 0.000000 0.000000 0.000000
# 3 -0.013044 0.001992 0.050852 0.000000 0.000000 0.000000
# 4 0.000000 0.000000 0.000000 0.039097 0.000000 0.000000
# 5 0.000000 0.000000 0.000000 0.000000 0.044910 0.000000
# 6 0.000000 0.000000 0.000000 0.000000 0.000000 0.047982
#
#
# Mechanical properties :
#
#
# Convention : Reuss Voigt Hill
#
# Bulk Modulus (GPa) = 17.60037 25.67450 21.63744
# Shear Modulus (GPa) = 17.22493 20.04451 18.63472
#
# Velocity S-wave (km/s) = 3.00871 3.24563 3.12941
# Velocity P-wave (km/s) = 4.61730 5.24771 4.94256
#
# Compressibility (1/GPa) = 0.05681698
#
# Stress axis : x y z
#
# Youngs Moduli (GPa) = 48.28512 37.70747 19.66473
#
# Poissons Ratio (x) = 0.36125 0.25651
# Poissons Ratio (y) = 0.46259 -0.03917
# Poissons Ratio (z) = 0.62984 -0.07510
#
# Static dielectric constant tensor:
#      x y z
#    x 1.677860 0.000000 0.000000 
#    y 0.000000 1.663550 0.000000 
#    z 0.000000 0.000000 1.702200 
# 
# From -- ./inp_files/5672.got.cif
#   From: 2010.05.17/outbox.cif.g08.bks.cpg/sg36_3_cif.got.tgz:5672.got - 2010.06.03 17:41:39.
