data_PCOD9350062
_publ_section_title
;
Structure prediction by ZEFSAII (Michael W. Deem and Ramdas Pophale) SiO2 
 PCOD9350062
Probable space group: C M M 2
;
_chemical_formula_sum "Si O2"
_cell_formula_units_Z 48
_cell_length_a 16.809770
_cell_length_b 10.588071
_cell_length_c 14.621315
_cell_angle_alpha 90.000000
_cell_angle_beta 90.000000
_cell_angle_gamma 90.000000
_cell_volume 2602.346067
_symmetry_space_group_name_H-M "C M M 2"
_symmetry_group_IT_number 35
_symmetry_cell_setting 'orthorhombic'
loop_
_space_group_symop_operation_xyz
x,y,z
-x,-y,z
-x,y,z
x,-y,z
1/2+x,1/2+y,z
1/2-x,1/2-y,z
1/2-x,1/2+y,z
1/2+x,1/2-y,z
loop_
_atom_site_type_symbol
_atom_site_label
_atom_site_fract_x
_atom_site_fract_y
_atom_site_fract_z
Si Si1 0.596822 0.646860 0.607630
Si Si2 0.595994 0.648044 0.401850
Si Si3 0.402775 0.249271 0.796945
Si Si4 0.097391 0.500000 0.904554
Si Si5 0.095339 0.000000 0.114719
Si Si6 0.344208 0.749664 0.216678
Si Si7 0.902952 0.000000 0.904970
Si Si8 0.404738 0.000000 0.116141
O O1 0.500000 0.648884 0.607223
O O2 0.618788 0.500000 0.624458
O O3 0.621901 0.682358 0.504987
O O4 0.623328 0.733296 0.691872
O O5 0.500000 0.654185 0.398135
O O6 0.617402 0.500000 0.386296
O O7 0.630042 0.734307 0.322081
O O8 0.500000 0.247223 0.796493
O O9 0.376519 0.124286 0.849661
O O10 0.378113 0.373938 0.852358
O O11 0.000000 0.500000 0.905528
O O12 0.123350 0.500000 0.010297
O O13 0.123483 0.125788 0.165261
O O14 0.000000 0.000000 0.115205
O O15 0.123361 0.000000 0.009796
O O16 0.250000 0.750000 0.210994
O O17 0.376728 0.875140 0.168749
O O18 0.000000 0.000000 0.904883
O O19 0.500000 0.000000 0.114096
#
# Coordination Sequence:
#
# PCOD9350062 Si02
#       8
#     8   8   8   4   4   8   4   4
#     4   8  13  23  44  75 106 133 165 217 275 316
#     4   9  17  32  56  82 107 139 183 229 273 323
#     4   9  14  24  41  70 109 138 165 212 273 321
#     4   9  18  29  44  69 106 148 175 205 266 333
#     4  11  21  37  60  83 106 144 197 237 268 323
#     4  12  24  38  56  82 112 148 187 235 284 329
#     4   9  16  25  46  75 102 130 173 231 270 303
#     4  11  23  39  56  79 116 154 185 225 284 335
#
# _framework density 18.444894999999999
#
# number of rings (size 3 to 8) (size 9 to 14) (size 15 to 20)
#    0.000    2.333    1.667    4.000    0.000    2.667 
#    0.000    0.833    0.000    3.000    0.000    7.000 
#    0.000    0.000    0.000    0.000    0.000    0.000 
#
# Total GULP energy -133894.247793 kJ/mol
# GULP energy per Si atom -5578.926991 kJ/mol
# Density = 1.840291 g / cm^3
# Si number density = 18.444895 Si / 1000 Ang^3
#
#
#
# Elastic Constant Matrix: (Units=GPa)
#
#
# Indices 1 2 3 4 5 6 
#
# 1 30.9151 22.1744 29.0752 0.0000 0.0000 0.0000
# 2 22.1744 159.2019 109.6678 0.0000 0.0000 0.0000
# 3 29.0752 109.6678 206.6307 0.0000 0.0000 0.0000
# 4 0.0000 0.0000 0.0000 47.9609 0.0000 0.0000
# 5 0.0000 0.0000 0.0000 0.0000 -12.1558 0.0000
# 6 0.0000 0.0000 0.0000 0.0000 0.0000 14.5707
#
#
#
# Elastic Compliance Matrix: (Units=1/GPa)
#
#
# Indices 1 2 3 4 5 6 
#
# 1 0.037917 -0.002531 -0.003992 0.000000 0.000000 0.000000
# 2 -0.002531 0.010070 -0.004989 0.000000 0.000000 0.000000
# 3 -0.003992 -0.004989 0.008049 0.000000 0.000000 0.000000
# 4 0.000000 0.000000 0.000000 0.020850 0.000000 0.000000
# 5 0.000000 0.000000 0.000000 0.000000 -0.082265 0.000000
# 6 0.000000 0.000000 0.000000 0.000000 0.000000 0.068631
#
#
# Mechanical properties :
#
#
# Convention : Reuss Voigt Hill
#
# Bulk Modulus (GPa) = 30.29173 79.84249 55.06711
# Shear Modulus (GPa) = 51.39859 25.79720 38.59790
#
# Velocity S-wave (km/s) = 5.28456 3.74386 4.57946
# Velocity P-wave (km/s) = 7.32761 7.87843 7.60800
#
# Compressibility (1/GPa) = 0.03301231
#
# Stress axis : x y z
#
# Youngs Moduli (GPa) = 26.37368 99.30142 124.24105
#
# Poissons Ratio (x) = 0.25138 0.49593
# Poissons Ratio (y) = 0.06676 0.61978
# Poissons Ratio (z) = 0.10528 0.49537
#
# Static dielectric constant tensor:
#      x y z
#    x 1.612150 0.000000 0.000000 
#    y 0.000000 1.602450 0.000000 
#    z 0.000000 0.000000 1.656010 
# 
# From -- ./inp_files/17166.got.cif
#   From: 2010.05.17/outbox.cif.g08.bks.cpg/sg35_9_cif.got.tgz:17166.got - 2010.06.03 17:29:28.
