data_PCOD9350280
_publ_section_title
;
Structure prediction by ZEFSAII (Michael W. Deem and Ramdas Pophale) SiO2 
 PCOD9350280
Probable space group: C M M 2
;
_chemical_formula_sum "Si O2"
_cell_formula_units_Z 64
_cell_length_a 18.365558
_cell_length_b 15.340202
_cell_length_c 12.591921
_cell_angle_alpha 90.000000
_cell_angle_beta 90.000000
_cell_angle_gamma 90.000000
_cell_volume 3547.539149
_symmetry_space_group_name_H-M "C M M 2"
_symmetry_group_IT_number 35
_symmetry_cell_setting 'orthorhombic'
loop_
_space_group_symop_operation_xyz
x,y,z
-x,-y,z
-x,y,z
x,-y,z
1/2+x,1/2+y,z
1/2-x,1/2-y,z
1/2-x,1/2+y,z
1/2+x,1/2-y,z
loop_
_atom_site_type_symbol
_atom_site_label
_atom_site_fract_x
_atom_site_fract_y
_atom_site_fract_z
Si Si1 0.293452 0.340570 0.264200
Si Si2 0.587084 0.728289 0.421733
Si Si3 0.413632 0.734721 0.889514
Si Si4 0.679577 0.095685 0.430422
Si Si5 0.808953 0.401685 0.880865
Si Si6 0.915186 0.762838 0.655489
Si Si7 0.330133 0.599569 0.030043
Si Si8 0.714781 0.846548 0.653439
O O1 0.250000 0.250000 0.244218
O O2 0.364821 0.322010 0.335611
O O3 0.236572 0.395088 0.334557
O O4 0.316124 0.381943 0.153364
O O5 0.500000 0.727186 0.403315
O O6 0.621088 0.826168 0.421523
O O7 0.602195 0.693291 0.542283
O O8 0.500000 0.749909 0.899414
O O9 0.367689 0.824565 0.894261
O O10 0.399376 0.695588 0.770307
O O11 0.384700 0.668550 0.977514
O O12 0.724706 0.108816 0.540422
O O13 0.645869 0.000000 0.431110
O O14 0.839100 0.500000 0.888920
O O15 0.770738 0.392067 0.764835
O O16 0.746431 0.390090 0.968288
O O17 0.871510 0.672870 0.656821
O O18 0.000000 0.745478 0.652288
O O19 0.354971 0.500000 0.014646
O O20 0.750000 0.750000 0.652522
#
# Coordination Sequence:
#
# PCOD9350280 Si02
#       8
#     8   8   8   8   8   8   8   8
#     4  10  20  35  54  75 101 137 178 221 269 319
#     4   9  18  33  54  78 102 134 173 211 259 315
#     4  10  20  35  56  80 109 143 175 215 265 316
#     4  10  19  31  50  78 110 140 172 213 261 315
#     4  10  20  34  55  82 110 141 177 218 266 321
#     4   8  15  29  49  73 102 135 167 201 250 310
#     4  11  23  38  56  77 103 139 182 226 271 320
#     4  10  17  29  50  77 109 141 176 215 254 303
#
# _framework density 18.040673999999999
#
# number of rings (size 3 to 8) (size 9 to 14) (size 15 to 20)
#    0.000    2.250    0.000    5.250    0.000    1.250 
#    0.000    0.000    0.000    9.375    0.000    7.000 
#    0.000    0.000    0.000    0.000    0.000    0.000 
#
# Total GULP energy -178203.948197 kJ/mol
# GULP energy per Si atom -5568.873381 kJ/mol
# Density = 1.799961 g / cm^3
# Si number density = 18.040674 Si / 1000 Ang^3
#
#
#
# Elastic Constant Matrix: (Units=GPa)
#
#
# Indices 1 2 3 4 5 6 
#
# 1 60.8131 10.6063 21.3980 0.0000 0.0000 0.0000
# 2 10.6063 58.3401 18.1682 0.0000 0.0000 0.0000
# 3 21.3980 18.1682 118.0369 0.0000 0.0000 0.0000
# 4 0.0000 0.0000 0.0000 15.2537 0.0000 0.0000
# 5 0.0000 0.0000 0.0000 0.0000 19.9630 0.0000
# 6 0.0000 0.0000 0.0000 0.0000 0.0000 10.3936
#
#
#
# Elastic Compliance Matrix: (Units=1/GPa)
#
#
# Indices 1 2 3 4 5 6 
#
# 1 0.017866 -0.002352 -0.002877 0.000000 0.000000 0.000000
# 2 -0.002352 0.018314 -0.002392 0.000000 0.000000 0.000000
# 3 -0.002877 -0.002392 0.009362 0.000000 0.000000 0.000000
# 4 0.000000 0.000000 0.000000 0.065558 0.000000 0.000000
# 5 0.000000 0.000000 0.000000 0.000000 0.050093 0.000000
# 6 0.000000 0.000000 0.000000 0.000000 0.000000 0.096213
#
#
# Mechanical properties :
#
#
# Convention : Reuss Voigt Hill
#
# Bulk Modulus (GPa) = 33.00471 37.50389 35.25430
# Shear Modulus (GPa) = 17.68364 21.58991 19.63678
#
# Velocity S-wave (km/s) = 3.13423 3.46314 3.30278
# Velocity P-wave (km/s) = 5.60644 6.06834 5.84196
#
# Compressibility (1/GPa) = 0.03029870
#
# Stress axis : x y z
#
# Youngs Moduli (GPa) = 55.97131 54.60443 106.81848
#
# Poissons Ratio (x) = 0.12844 0.30729
# Poissons Ratio (y) = 0.13166 0.25555
# Poissons Ratio (z) = 0.16102 0.13064
#
# Static dielectric constant tensor:
#      x y z
#    x 1.623770 0.000000 0.000000 
#    y 0.000000 1.608790 0.000000 
#    z 0.000000 0.000000 1.659480 
# 
# From -- ./inp_files/13174.got.cif
#   From: 2010.05.17/outbox.cif.g08.bks.cpg/sg35_7_cif.got.tgz:13174.got - 2010.06.03 17:29:28.
