data_PCOD9350981
_publ_section_title
;
Structure prediction by ZEFSAII (Michael W. Deem and Ramdas Pophale) SiO2 
 PCOD9350981
Probable space group: C M C 21
;
_chemical_formula_sum "Si O2"
_cell_formula_units_Z 64
_cell_length_a 33.367772
_cell_length_b 5.212403
_cell_length_c 19.405457
_cell_angle_alpha 90.000000
_cell_angle_beta 90.000000
_cell_angle_gamma 90.000000
_cell_volume 3375.118848
_symmetry_space_group_name_H-M "C M C 21"
_symmetry_group_IT_number 36
_symmetry_cell_setting 'orthorhombic'
loop_
_space_group_symop_operation_xyz
x,y,z
-x,-y,1/2+z
x,-y,1/2+z
-x,y,z
1/2+x,1/2+y,z
1/2-x,1/2-y,1/2+z
1/2+x,1/2-y,1/2+z
1/2-x,1/2+y,z
loop_
_atom_site_type_symbol
_atom_site_label
_atom_site_fract_x
_atom_site_fract_y
_atom_site_fract_z
Si Si1 0.223506 0.539607 0.618980
Si Si2 0.454273 0.390975 0.202109
Si Si3 0.378592 0.576269 0.791519
Si Si4 0.620690 0.603577 0.954471
Si Si5 0.651946 0.872794 0.523724
Si Si6 0.346349 0.899629 0.222638
Si Si7 0.045722 0.878659 0.546488
Si Si8 0.910812 0.491826 0.624697
O O1 0.257422 0.321709 0.616678
O O2 0.193313 0.462610 0.557415
O O3 0.195918 0.540720 0.687463
O O4 0.500000 0.413675 0.224598
O O5 0.421728 0.486423 0.256593
O O6 0.451255 0.502507 0.123911
O O7 0.439718 0.102862 0.185132
O O8 0.382942 0.610634 0.872723
O O9 0.349087 0.340902 0.773355
O O10 0.362301 0.839313 0.757541
O O11 0.651434 0.380079 0.977390
O O12 0.634684 0.878968 0.983838
O O13 0.578046 0.534783 0.990447
O O14 0.621081 0.807108 0.586712
O O15 0.377744 0.825978 0.160757
O O16 0.059830 0.591621 0.565594
O O17 0.000000 0.900875 0.523854
#
# Coordination Sequence:
#
# PCOD9350981 Si02
#       8
#     8   8   8   8   8   8   8   8
#     4  11  22  38  67 100 123 140 181 244 295 342
#     4  10  19  32  53  81 114 152 198 256 302 333
#     4  11  22  38  58  83 118 163 202 236 282 347
#     4  11  22  38  58  83 118 163 202 236 282 347
#     4  10  21  37  61  85 118 150 194 236 285 350
#     4  10  21  37  61  85 118 150 194 236 285 350
#     4  10  19  32  53  81 114 152 198 256 302 333
#     4   9  17  32  55  80 110 150 196 246 297 342
#
# _framework density 18.962295000000001
#
# number of rings (size 3 to 8) (size 9 to 14) (size 15 to 20)
#    0.000    1.750    2.500    2.625    0.000    0.500 
#    0.000    0.000    0.000   18.000    0.000    0.000 
#    0.000    0.000    0.000    0.000    0.000    0.000 
#
# Total GULP energy -178159.016314 kJ/mol
# GULP energy per Si atom -5567.469260 kJ/mol
# Density = 1.891914 g / cm^3
# Si number density = 18.962295 Si / 1000 Ang^3
#
#
#
# Elastic Constant Matrix: (Units=GPa)
#
#
# Indices 1 2 3 4 5 6 
#
# 1 54.5928 -3.8848 22.5364 0.0000 0.0000 0.0000
# 2 -3.8848 58.9191 5.3273 0.0000 0.0000 0.0000
# 3 22.5364 5.3273 86.2965 0.0000 0.0000 0.0000
# 4 0.0000 0.0000 0.0000 22.7741 0.0000 0.0000
# 5 0.0000 0.0000 0.0000 0.0000 15.9885 0.0000
# 6 0.0000 0.0000 0.0000 0.0000 0.0000 23.5964
#
#
#
# Elastic Compliance Matrix: (Units=1/GPa)
#
#
# Indices 1 2 3 4 5 6 
#
# 1 0.020733 0.001867 -0.005530 0.000000 0.000000 0.000000
# 2 0.001867 0.017236 -0.001552 0.000000 0.000000 0.000000
# 3 -0.005530 -0.001552 0.013128 0.000000 0.000000 0.000000
# 4 0.000000 0.000000 0.000000 0.043910 0.000000 0.000000
# 5 0.000000 0.000000 0.000000 0.000000 0.062545 0.000000
# 6 0.000000 0.000000 0.000000 0.000000 0.000000 0.042379
#
#
# Mechanical properties :
#
#
# Convention : Reuss Voigt Hill
#
# Bulk Modulus (GPa) = 24.58930 27.52958 26.05944
# Shear Modulus (GPa) = 22.32990 24.19376 23.26183
#
# Velocity S-wave (km/s) = 3.43533 3.57583 3.50629
# Velocity P-wave (km/s) = 5.36013 5.62124 5.49224
#
# Compressibility (1/GPa) = 0.04066810
#
# Stress axis : x y z
#
# Youngs Moduli (GPa) = 48.23232 58.01869 76.17410
#
# Poissons Ratio (x) = -0.10832 0.42122
# Poissons Ratio (y) = -0.09005 0.11819
# Poissons Ratio (z) = 0.26671 0.09002
#
# Static dielectric constant tensor:
#      x y z
#    x 1.652530 0.000000 0.000000 
#    y 0.000000 1.832230 0.000000 
#    z 0.000000 0.000000 1.665820 
# 
# From -- ./inp_files/15206.got.cif
#   From: 2010.05.17/outbox.cif.g08.bks.cpg/sg36_8_cif.got.tgz:15206.got - 2010.06.03 17:41:39.
