data_PCOD9350330
_publ_section_title
;
Structure prediction by ZEFSAII (Michael W. Deem and Ramdas Pophale) SiO2 
 PCOD9350330
Probable space group: C M M 2
;
_chemical_formula_sum "Si O2"
_cell_formula_units_Z 64
_cell_length_a 8.114432
_cell_length_b 29.645847
_cell_length_c 16.235765
_cell_angle_alpha 90.000000
_cell_angle_beta 90.000000
_cell_angle_gamma 90.000000
_cell_volume 3905.662795
_symmetry_space_group_name_H-M "C M M 2"
_symmetry_group_IT_number 35
_symmetry_cell_setting 'orthorhombic'
loop_
_space_group_symop_operation_xyz
x,y,z
-x,-y,z
-x,y,z
x,-y,z
1/2+x,1/2+y,z
1/2-x,1/2-y,z
1/2-x,1/2+y,z
1/2+x,1/2-y,z
loop_
_atom_site_type_symbol
_atom_site_label
_atom_site_fract_x
_atom_site_fract_y
_atom_site_fract_z
Si Si1 0.300670 0.550283 0.226810
Si Si2 0.300410 0.697696 0.998352
Si Si3 0.304196 0.802219 0.640878
Si Si4 0.197387 0.301943 0.317211
Si Si5 0.303425 0.302337 0.817875
Si Si6 0.701913 0.855407 0.481197
Si Si7 0.801989 0.143171 0.156213
Si Si8 0.301084 0.050090 0.416655
O O1 0.500000 0.550382 0.224635
O O2 0.244205 0.500000 0.202121
O O3 0.240185 0.592447 0.173229
O O4 0.248188 0.557455 0.321518
O O5 0.500000 0.696772 0.998896
O O6 0.250000 0.750000 0.008522
O O7 0.238441 0.667717 0.074152
O O8 0.245301 0.680883 0.907562
O O9 0.500000 0.801995 0.635846
O O10 0.250000 0.750000 0.634220
O O11 0.258032 0.821165 0.730973
O O12 0.239258 0.831359 0.564385
O O13 0.250000 0.250000 0.318210
O O14 0.253294 0.327204 0.400458
O O15 0.263465 0.327068 0.236486
O O16 0.000000 0.304317 0.314748
O O17 0.500000 0.304597 0.816437
O O18 0.250000 0.250000 0.816898
O O19 0.500000 0.855222 0.482230
O O20 0.756155 0.907105 0.469203
O O21 0.000000 0.140682 0.148482
O O22 0.500000 0.049612 0.419968
O O23 0.241587 0.000000 0.440925
#
# Coordination Sequence:
#
# PCOD9350330 Si02
#       8
#     8   8   8   8   8   8   8   8
#     4   9  17  29  45  65  88 112 142 183 224 258
#     4   9  18  30  44  62  86 114 143 177 214 255
#     4  10  18  29  44  62  87 114 143 177 212 254
#     4  11  21  32  43  59  88 121 152 179 209 250
#     4   9  16  28  44  62  83 108 141 179 218 255
#     4   9  18  30  43  63  88 114 144 178 213 252
#     4  10  19  31  45  64  88 117 149 179 216 258
#     4   9  16  29  48  65  83 110 145 182 219 257
#
# _framework density 16.386464
#
# number of rings (size 3 to 8) (size 9 to 14) (size 15 to 20)
#    0.000    2.500    1.250    2.625    0.000    2.000 
#    0.000    3.125    0.000    0.000    0.000    0.875 
#    0.000    1.000    0.000    0.000    0.000    0.000 
#
# Total GULP energy -178315.615266 kJ/mol
# GULP energy per Si atom -5572.362977 kJ/mol
# Density = 1.634917 g / cm^3
# Si number density = 16.386464 Si / 1000 Ang^3
#
#
#
# Elastic Constant Matrix: (Units=GPa)
#
#
# Indices 1 2 3 4 5 6 
#
# 1 12.3821 7.0170 9.6498 0.0000 0.0000 0.0000
# 2 7.0170 126.2876 82.8084 0.0000 0.0000 0.0000
# 3 9.6498 82.8084 158.1516 0.0000 0.0000 0.0000
# 4 0.0000 0.0000 0.0000 13.3208 0.0000 0.0000
# 5 0.0000 0.0000 0.0000 0.0000 12.7970 0.0000
# 6 0.0000 0.0000 0.0000 0.0000 0.0000 4.4594
#
#
#
# Elastic Compliance Matrix: (Units=1/GPa)
#
#
# Indices 1 2 3 4 5 6 
#
# 1 0.085130 -0.002016 -0.004138 0.000000 0.000000 0.000000
# 2 -0.002016 0.012106 -0.006216 0.000000 0.000000 0.000000
# 3 -0.004138 -0.006216 0.009830 0.000000 0.000000 0.000000
# 4 0.000000 0.000000 0.000000 0.075070 0.000000 0.000000
# 5 0.000000 0.000000 0.000000 0.000000 0.078143 0.000000
# 6 0.000000 0.000000 0.000000 0.000000 0.000000 0.224244
#
#
# Mechanical properties :
#
#
# Convention : Reuss Voigt Hill
#
# Bulk Modulus (GPa) = 12.14705 55.08574 33.61640
# Shear Modulus (GPa) = 9.31608 19.27186 14.29397
#
# Velocity S-wave (km/s) = 2.38696 3.43313 2.95668
# Velocity P-wave (km/s) = 3.87630 7.02885 5.67585
#
# Compressibility (1/GPa) = 0.08232450
#
# Stress axis : x y z
#
# Youngs Moduli (GPa) = 11.74681 82.60184 101.72761
#
# Poissons Ratio (x) = 0.16656 0.42099
# Poissons Ratio (y) = 0.02369 0.63232
# Poissons Ratio (z) = 0.04861 0.51344
#
# Static dielectric constant tensor:
#      x y z
#    x 1.588980 0.000000 0.000000 
#    y 0.000000 1.552700 0.000000 
#    z 0.000000 0.000000 1.568210 
# 
# From -- ./inp_files/16191.got.cif
#   From: 2010.05.17/outbox.cif.g08.bks.cpg/sg35_9_cif.got.tgz:16191.got - 2010.06.03 17:29:28.
