data_PCOD9350473
_publ_section_title
;
Structure prediction by ZEFSAII (Michael W. Deem and Ramdas Pophale) SiO2 
 PCOD9350473
Probable space group: C M C 21
;
_chemical_formula_sum "Si O2"
_cell_formula_units_Z 40
_cell_length_a 12.410991
_cell_length_b 33.081759
_cell_length_c 5.288523
_cell_angle_alpha 90.000000
_cell_angle_beta 90.000000
_cell_angle_gamma 90.000000
_cell_volume 2171.348093
_symmetry_space_group_name_H-M "C M C 21"
_symmetry_group_IT_number 36
_symmetry_cell_setting 'orthorhombic'
loop_
_space_group_symop_operation_xyz
x,y,z
-x,-y,1/2+z
x,-y,1/2+z
-x,y,z
1/2+x,1/2+y,z
1/2-x,1/2-y,1/2+z
1/2+x,1/2-y,1/2+z
1/2-x,1/2+y,z
loop_
_atom_site_type_symbol
_atom_site_label
_atom_site_fract_x
_atom_site_fract_y
_atom_site_fract_z
Si Si1 0.665024 0.161697 0.096790
Si Si2 0.180294 0.249777 0.584994
Si Si3 0.878319 0.835842 0.881739
Si Si4 0.630002 0.024875 0.556799
Si Si5 0.189956 0.382768 0.090644
O O1 0.794958 0.166786 0.146130
O O2 0.631592 0.138965 0.353004
O O3 0.622110 0.207014 0.067094
O O4 0.646255 0.134877 0.852195
O O5 0.227905 0.247967 0.867056
O O6 0.122446 0.208032 0.516131
O O7 0.000000 0.847119 0.819424
O O8 0.813576 0.867581 0.057113
O O9 0.500000 0.029258 0.558924
O O10 0.678371 0.069529 0.573417
O O11 0.660231 0.001981 0.299323
#
# Coordination Sequence:
#
# PCOD9350473 Si02
#       5
#     8   8   8   8   8
#     4   9  18  32  52  73 108 144 177 218 258 304
#     4  10  16  32  48  68 104 144 180 221 257 287
#     4   9  20  32  53  79 105 147 186 214 253 312
#     4  10  21  38  61  85 105 131 172 217 273 339
#     4  10  19  34  56  77 108 138 171 222 269 316
#
# _framework density 18.421734000000001
#
# number of rings (size 3 to 8) (size 9 to 14) (size 15 to 20)
#    1.200    1.200    2.000    1.200    0.000    0.800 
#    0.000    2.000    0.000    1.200    0.000    0.000 
#    0.000    0.000    0.000    0.000    0.000    0.000 
#
# Total GULP energy -111339.365202 kJ/mol
# GULP energy per Si atom -5566.968260 kJ/mol
# Density = 1.837981 g / cm^3
# Si number density = 18.421734 Si / 1000 Ang^3
#
#
#
# Elastic Constant Matrix: (Units=GPa)
#
#
# Indices 1 2 3 4 5 6 
#
# 1 61.8335 13.3494 2.8385 0.0000 0.0000 0.0000
# 2 13.3494 132.1980 22.8020 0.0000 0.0000 0.0000
# 3 2.8385 22.8020 78.7252 0.0000 0.0000 0.0000
# 4 0.0000 0.0000 0.0000 32.6617 0.0000 0.0000
# 5 0.0000 0.0000 0.0000 0.0000 -2.0554 0.0000
# 6 0.0000 0.0000 0.0000 0.0000 0.0000 -10.6350
#
#
#
# Elastic Compliance Matrix: (Units=1/GPa)
#
#
# Indices 1 2 3 4 5 6 
#
# 1 0.016534 -0.001649 -0.000118 0.000000 0.000000 0.000000
# 2 -0.001649 0.008127 -0.002294 0.000000 0.000000 0.000000
# 3 -0.000118 -0.002294 0.013371 0.000000 0.000000 0.000000
# 4 0.000000 0.000000 0.000000 0.030617 0.000000 0.000000
# 5 0.000000 0.000000 0.000000 0.000000 -0.486518 0.000000
# 6 0.000000 0.000000 0.000000 0.000000 0.000000 -0.094029
#
#
# Mechanical properties :
#
#
# Convention : Reuss Voigt Hill
#
# Bulk Modulus (GPa) = 33.43602 38.97072 36.20337
# Shear Modulus (GPa) = -10.12545 19.57872 4.72663
#
# Velocity S-wave (km/s) = -2.34700 3.26361 1.60355
# Velocity P-wave (km/s) = 3.29320 5.94997 4.80871
#
# Compressibility (1/GPa) = 0.02990787
#
# Stress axis : x y z
#
# Youngs Moduli (GPa) = 60.48163 123.05144 74.78745
#
# Poissons Ratio (x) = 0.20293 0.00886
# Poissons Ratio (y) = 0.09974 0.17159
# Poissons Ratio (z) = 0.00717 0.28232
#
# Static dielectric constant tensor:
#      x y z
#    x 1.660010 0.000000 0.000000 
#    y 0.000000 1.618650 0.000000 
#    z 0.000000 0.000000 1.640550 
# 
# From -- ./inp_files/573.got.cif
#   From: 2010.05.17/outbox.cif.g08.bks.cpg/sg36_1_cif.got.tgz:573.got - 2010.06.03 17:41:39.
