data_PCOD9350878
_publ_section_title
;
Structure prediction by ZEFSAII (Michael W. Deem and Ramdas Pophale) SiO2 
 PCOD9350878
Probable space group: C M C 21
;
_chemical_formula_sum "Si O2"
_cell_formula_units_Z 52
_cell_length_a 19.280024
_cell_length_b 20.738461
_cell_length_c 5.567666
_cell_angle_alpha 90.000000
_cell_angle_beta 90.000000
_cell_angle_gamma 90.000000
_cell_volume 2226.164582
_symmetry_space_group_name_H-M "C M C 21"
_symmetry_group_IT_number 36
_symmetry_cell_setting 'orthorhombic'
loop_
_space_group_symop_operation_xyz
x,y,z
-x,-y,1/2+z
x,-y,1/2+z
-x,y,z
1/2+x,1/2+y,z
1/2-x,1/2-y,1/2+z
1/2+x,1/2-y,1/2+z
1/2-x,1/2+y,z
loop_
_atom_site_type_symbol
_atom_site_label
_atom_site_fract_x
_atom_site_fract_y
_atom_site_fract_z
Si Si1 0.196906 0.326473 0.341040
Si Si2 0.641685 0.646040 0.328244
Si Si3 0.704514 0.208391 0.339357
Si Si4 0.917649 0.133521 0.828643
Si Si5 0.500000 0.959834 0.402273
Si Si6 0.168529 0.001004 0.823086
Si Si7 0.349487 0.960232 0.357667
O O1 0.265338 0.280905 0.339372
O O2 0.164707 0.307256 0.595686
O O3 0.206291 0.402681 0.348407
O O4 0.165606 0.309139 0.083209
O O5 0.723493 0.665171 0.334510
O O6 0.606605 0.666225 0.578748
O O7 0.632016 0.568542 0.323536
O O8 0.607677 0.666833 0.076357
O O9 0.882039 0.062217 0.825774
O O10 0.000000 0.127404 0.831388
O O11 0.500000 0.010437 0.174220
O O12 0.425858 0.925994 0.367933
O O13 0.208175 0.000854 0.573032
O O14 0.348662 0.000160 0.607464
#
# Coordination Sequence:
#
# PCOD9350878 Si02
#       7
#     8   8   8   8   4   8   8
#     4  10  21  38  60  83 109 149 191 231 269 342
#     4  10  19  32  49  70  97 132 180 231 267 313
#     4  10  21  38  58  80 107 154 200 224 274 328
#     4  10  19  31  49  71  99 139 183 222 270 323
#     4   8  16  30  54  82 116 148 176 216 286 364
#     4   8  16  27  41  64  90 122 166 214 259 304
#     4  10  19  35  58  91 120 148 184 233 296 351
#
# _framework density 23.358563
#
# number of rings (size 3 to 8) (size 9 to 14) (size 15 to 20)
#    0.000    2.462    0.000    2.308    0.000    5.538 
#    0.000   13.846    3.385    0.000    4.000    0.000 
#    0.000    0.000    0.000    0.000    0.000    0.000 
#
# Total GULP energy -144829.490646 kJ/mol
# GULP energy per Si atom -5570.365025 kJ/mol
# Density = 2.330540 g / cm^3
# Si number density = 23.358563 Si / 1000 Ang^3
#
#
#
# Elastic Constant Matrix: (Units=GPa)
#
#
# Indices 1 2 3 4 5 6 
#
# 1 95.4986 14.0512 21.3956 0.0000 0.0000 0.0000
# 2 14.0512 117.5401 51.3896 0.0000 0.0000 0.0000
# 3 21.3956 51.3896 279.3344 0.0000 0.0000 0.0000
# 4 0.0000 0.0000 0.0000 30.3507 0.0000 0.0000
# 5 0.0000 0.0000 0.0000 0.0000 22.1359 0.0000
# 6 0.0000 0.0000 0.0000 0.0000 0.0000 11.4781
#
#
#
# Elastic Compliance Matrix: (Units=1/GPa)
#
#
# Indices 1 2 3 4 5 6 
#
# 1 0.010763 -0.001007 -0.000639 0.000000 0.000000 0.000000
# 2 -0.001007 0.009346 -0.001642 0.000000 0.000000 0.000000
# 3 -0.000639 -0.001642 0.003931 0.000000 0.000000 0.000000
# 4 0.000000 0.000000 0.000000 0.032948 0.000000 0.000000
# 5 0.000000 0.000000 0.000000 0.000000 0.045175 0.000000
# 6 0.000000 0.000000 0.000000 0.000000 0.000000 0.087123
#
#
# Mechanical properties :
#
#
# Convention : Reuss Voigt Hill
#
# Bulk Modulus (GPa) = 57.26462 74.00509 65.63485
# Shear Modulus (GPa) = 24.79122 39.82871 32.30997
#
# Velocity S-wave (km/s) = 3.26135 4.13377 3.72320
# Velocity P-wave (km/s) = 6.22499 7.38478 6.82955
#
# Compressibility (1/GPa) = 0.01746279
#
# Stress axis : x y z
#
# Youngs Moduli (GPa) = 92.91320 106.99584 254.38682
#
# Poissons Ratio (x) = 0.10777 0.16257
# Poissons Ratio (y) = 0.09358 0.41777
# Poissons Ratio (z) = 0.05938 0.17572
#
# Static dielectric constant tensor:
#      x y z
#    x 1.840850 0.000000 0.000000 
#    y 0.000000 1.906200 0.000000 
#    z 0.000000 0.000000 2.000030 
# 
# From -- ./inp_files/1385.got.cif
#   From: 2010.05.17/outbox.cif.g08.bks.cpg/sg36_1_cif.got.tgz:1385.got - 2010.06.03 17:41:39.
