data_PCOD9350100
_publ_section_title
;
Structure prediction by ZEFSAII (Michael W. Deem and Ramdas Pophale) SiO2 
 PCOD9350100
Probable space group: C M M 2
;
_chemical_formula_sum "Si O2"
_cell_formula_units_Z 34
_cell_length_a 7.841355
_cell_length_b 23.609916
_cell_length_c 7.393345
_cell_angle_alpha 90.000000
_cell_angle_beta 90.000000
_cell_angle_gamma 90.000000
_cell_volume 1368.757558
_symmetry_space_group_name_H-M "C M M 2"
_symmetry_group_IT_number 35
_symmetry_cell_setting 'orthorhombic'
loop_
_space_group_symop_operation_xyz
x,y,z
-x,-y,z
-x,y,z
x,-y,z
1/2+x,1/2+y,z
1/2-x,1/2-y,z
1/2-x,1/2+y,z
1/2+x,1/2-y,z
loop_
_atom_site_type_symbol
_atom_site_label
_atom_site_fract_x
_atom_site_fract_y
_atom_site_fract_z
Si Si1 0.809180 0.572689 0.489510
Si Si2 0.298514 0.189447 0.035692
Si Si3 0.312208 0.690271 0.439496
Si Si4 0.000000 0.000000 0.350755
Si Si5 0.794547 0.937562 0.902694
O O1 0.807848 0.639852 0.490462
O O2 0.653433 0.548710 0.369843
O O3 0.762645 0.557359 0.694762
O O4 0.000000 0.555913 0.436679
O O5 0.500000 0.192327 0.072391
O O6 0.250000 0.250000 0.939913
O O7 0.266179 0.125254 0.962632
O O8 0.193605 0.192094 0.222268
O O9 0.500000 0.677577 0.508353
O O10 0.250000 0.750000 0.507721
O O11 0.000000 0.936982 0.917070
O O12 0.742505 0.000000 0.985836
#
# Coordination Sequence:
#
# PCOD9350100 Si02
#       5
#     8   8   8   2   8
#     4  12  23  41  67  94 127 171 212 259 317 378
#     4  11  23  41  64  92 124 168 214 260 319 378
#     4  11  22  42  65  93 126 165 212 265 320 377
#     4  12  22  44  60  96 132 168 210 256 320 370
#     4  11  22  42  64  93 128 166 207 261 319 375
#
# _framework density 24.840043999999999
#
# number of rings (size 3 to 8) (size 9 to 14) (size 15 to 20)
#    0.000    0.706    3.529    6.706    0.000    2.353 
#    2.118    4.706    0.000    0.000    0.000    0.000 
#    0.000    0.000    0.000    0.000    0.000    0.000 
#
# Total GULP energy -94662.203816 kJ/mol
# GULP energy per Si atom -5568.364930 kJ/mol
# Density = 2.478351 g / cm^3
# Si number density = 24.840044 Si / 1000 Ang^3
#
#
#
# Elastic Constant Matrix: (Units=GPa)
#
#
# Indices 1 2 3 4 5 6 
#
# 1 194.6752 55.1723 -13.2168 0.0000 0.0000 0.0000
# 2 55.1723 292.0037 22.0099 0.0000 0.0000 0.0000
# 3 -13.2168 22.0099 47.6423 0.0000 0.0000 0.0000
# 4 0.0000 0.0000 0.0000 46.2842 0.0000 0.0000
# 5 0.0000 0.0000 0.0000 0.0000 12.4968 0.0000
# 6 0.0000 0.0000 0.0000 0.0000 0.0000 52.2261
#
#
#
# Elastic Compliance Matrix: (Units=1/GPa)
#
#
# Indices 1 2 3 4 5 6 
#
# 1 0.005628 -0.001224 0.002127 0.000000 0.000000 0.000000
# 2 -0.001224 0.003814 -0.002102 0.000000 0.000000 0.000000
# 3 0.002127 -0.002102 0.022551 0.000000 0.000000 0.000000
# 4 0.000000 0.000000 0.000000 0.021606 0.000000 0.000000
# 5 0.000000 0.000000 0.000000 0.000000 0.080021 0.000000
# 6 0.000000 0.000000 0.000000 0.000000 0.000000 0.019148
#
#
# Mechanical properties :
#
#
# Convention : Reuss Voigt Hill
#
# Bulk Modulus (GPa) = 33.78896 73.58356 53.68626
# Shear Modulus (GPa) = 30.29769 53.55846 41.92807
#
# Velocity S-wave (km/s) = 3.49623 4.64846 4.11289
# Velocity P-wave (km/s) = 5.47086 7.64841 6.64938
#
# Compressibility (1/GPa) = 0.02959546
#
# Stress axis : x y z
#
# Youngs Moduli (GPa) = 177.68526 262.17669 44.34478
#
# Poissons Ratio (x) = 0.32081 -0.09430
# Poissons Ratio (y) = 0.21743 0.09319
# Poissons Ratio (z) = -0.37786 0.55098
#
# Static dielectric constant tensor:
#      x y z
#    x 1.890940 0.000000 0.000000 
#    y 0.000000 2.037610 0.000000 
#    z 0.000000 0.000000 2.033290 
# 
# From -- ./inp_files/4649.got.cif
#   From: 2010.05.17/outbox.cif.g08.bks.cpg/sg35_3_cif.got.tgz:4649.got - 2010.06.03 17:29:28.
