data_PCOD9350624
_publ_section_title
;
Structure prediction by ZEFSAII (Michael W. Deem and Ramdas Pophale) SiO2 
 PCOD9350624
Probable space group: C M C 21
;
_chemical_formula_sum "Si O2"
_cell_formula_units_Z 64
_cell_length_a 7.675638
_cell_length_b 21.366613
_cell_length_c 20.040645
_cell_angle_alpha 90.000000
_cell_angle_beta 90.000000
_cell_angle_gamma 90.000000
_cell_volume 3286.713610
_symmetry_space_group_name_H-M "C M C 21"
_symmetry_group_IT_number 36
_symmetry_cell_setting 'orthorhombic'
loop_
_space_group_symop_operation_xyz
x,y,z
-x,-y,1/2+z
x,-y,1/2+z
-x,y,z
1/2+x,1/2+y,z
1/2-x,1/2-y,1/2+z
1/2+x,1/2-y,1/2+z
1/2-x,1/2+y,z
loop_
_atom_site_type_symbol
_atom_site_label
_atom_site_fract_x
_atom_site_fract_y
_atom_site_fract_z
Si Si1 0.791586 0.565320 0.946370
Si Si2 0.292940 0.187841 0.870989
Si Si3 0.709154 0.114817 0.234708
Si Si4 0.210059 0.242133 0.733935
Si Si5 0.287715 0.111797 0.085620
Si Si6 0.286045 0.311704 0.947639
Si Si7 0.788227 0.757434 0.084916
Si Si8 0.705921 0.563802 0.375050
O O1 0.722974 0.624478 0.903846
O O2 0.759931 0.500533 0.909214
O O3 0.000000 0.572246 0.950401
O O4 0.726479 0.571217 0.022731
O O5 0.500000 0.187723 0.882642
O O6 0.264194 0.196117 0.792510
O O7 0.226089 0.250862 0.906391
O O8 0.500000 0.117965 0.231207
O O9 0.771290 0.186355 0.247969
O O10 0.771720 0.095505 0.160696
O O11 0.753130 0.071229 0.296822
O O12 0.269931 0.225105 0.659359
O O13 0.000000 0.243689 0.733181
O O14 0.500000 0.109406 0.086980
O O15 0.240671 0.184663 0.073010
O O16 0.500000 0.312238 0.946317
O O17 0.221905 0.375262 0.913682
O O18 0.231202 0.300613 0.024006
O O19 0.000000 0.758499 0.085120
O O20 0.500000 0.567143 0.381294
#
# Coordination Sequence:
#
# PCOD9350624 Si02
#       8
#     8   8   8   8   8   8   8   8
#     4  10  20  35  55  76 100 135 176 216 254 300
#     4  10  18  31  53  76  99 130 167 206 251 304
#     4   9  17  31  52  77 102 131 170 211 253 305
#     4   9  17  28  49  79 106 130 162 212 258 295
#     4   8  14  28  52  77  97 124 168 216 254 295
#     4   9  16  29  50  74  98 127 166 205 245 298
#     4   8  13  26  49  76 100 126 167 209 249 300
#     4  11  22  34  50  75 108 141 170 209 256 305
#
# _framework density 19.472338000000001
#
# number of rings (size 3 to 8) (size 9 to 14) (size 15 to 20)
#    0.000    2.750    2.500    1.875    0.000    0.500 
#    0.000    1.875    0.000    6.000    0.000    0.000 
#    0.000    0.000    0.000    0.000    0.000    0.000 
#
# Total GULP energy -178422.781184 kJ/mol
# GULP energy per Si atom -5575.711912 kJ/mol
# Density = 1.942802 g / cm^3
# Si number density = 19.472338 Si / 1000 Ang^3
#
#
#
# Elastic Constant Matrix: (Units=GPa)
#
#
# Indices 1 2 3 4 5 6 
#
# 1 31.4847 5.7596 2.3806 0.0000 0.0000 0.0000
# 2 5.7596 121.6883 99.7209 0.0000 0.0000 0.0000
# 3 2.3806 99.7209 193.1875 0.0000 0.0000 0.0000
# 4 0.0000 0.0000 0.0000 30.5988 0.0000 0.0000
# 5 0.0000 0.0000 0.0000 0.0000 13.9495 0.0000
# 6 0.0000 0.0000 0.0000 0.0000 0.0000 11.3206
#
#
#
# Elastic Compliance Matrix: (Units=1/GPa)
#
#
# Indices 1 2 3 4 5 6 
#
# 1 0.032089 -0.002071 0.000673 0.000000 0.000000 0.000000
# 2 -0.002071 0.014376 -0.007395 0.000000 0.000000 0.000000
# 3 0.000673 -0.007395 0.008985 0.000000 0.000000 0.000000
# 4 0.000000 0.000000 0.000000 0.032681 0.000000 0.000000
# 5 0.000000 0.000000 0.000000 0.000000 0.071687 0.000000
# 6 0.000000 0.000000 0.000000 0.000000 0.000000 0.088334
#
#
# Mechanical properties :
#
#
# Convention : Reuss Voigt Hill
#
# Bulk Modulus (GPa) = 26.40912 62.45363 44.43137
# Shear Modulus (GPa) = 17.96239 27.07376 22.51807
#
# Velocity S-wave (km/s) = 3.04049 3.73281 3.40430
# Velocity P-wave (km/s) = 5.09097 7.12188 6.19028
#
# Compressibility (1/GPa) = 0.03786571
#
# Stress axis : x y z
#
# Youngs Moduli (GPa) = 31.16304 69.56105 111.29309
#
# Poissons Ratio (x) = 0.14404 -0.07495
# Poissons Ratio (y) = 0.06453 0.82303
# Poissons Ratio (z) = -0.02099 0.51441
#
# Static dielectric constant tensor:
#      x y z
#    x 1.735170 0.000000 0.000000 
#    y 0.000000 1.673380 0.000000 
#    z 0.000000 0.000000 1.722770 
# 
# From -- ./inp_files/14082.got.cif
#   From: 2010.05.17/outbox.cif.g08.bks.cpg/sg36_8_cif.got.tgz:14082.got - 2010.06.03 17:41:39.
