data_PCOD9350046
_publ_section_title
;
Structure prediction by ZEFSAII (Michael W. Deem and Ramdas Pophale) SiO2 
 PCOD9350046
Probable space group: C M M 2
;
_chemical_formula_sum "Si O2"
_cell_formula_units_Z 64
_cell_length_a 29.595801
_cell_length_b 8.535796
_cell_length_c 16.115302
_cell_angle_alpha 90.000000
_cell_angle_beta 90.000000
_cell_angle_gamma 90.000000
_cell_volume 4071.107537
_symmetry_space_group_name_H-M "C M M 2"
_symmetry_group_IT_number 35
_symmetry_cell_setting 'orthorhombic'
loop_
_space_group_symop_operation_xyz
x,y,z
-x,-y,z
-x,y,z
x,-y,z
1/2+x,1/2+y,z
1/2-x,1/2-y,z
1/2-x,1/2+y,z
1/2+x,1/2-y,z
loop_
_atom_site_type_symbol
_atom_site_label
_atom_site_fract_x
_atom_site_fract_y
_atom_site_fract_z
Si Si1 0.052574 0.690087 0.076090
Si Si2 0.447285 0.188166 0.394604
Si Si3 0.298375 0.311367 0.298169
Si Si4 0.554872 0.181295 0.894604
Si Si5 0.394343 0.311879 0.234036
Si Si6 0.894343 0.188121 0.555171
Si Si7 0.298375 0.688633 0.491039
Si Si8 0.552574 0.190087 0.713118
O O1 0.053381 0.500000 0.074497
O O2 0.083362 0.749768 0.150155
O O3 0.000000 0.735754 0.089684
O O4 0.067478 0.748725 0.984424
O O5 0.500000 0.233812 0.394604
O O6 0.422740 0.252194 0.312877
O O7 0.422740 0.252193 0.476331
O O8 0.444809 0.000000 0.394603
O O9 0.297263 0.500000 0.297833
O O10 0.250000 0.250000 0.268424
O O11 0.342398 0.260181 0.247482
O O12 0.303987 0.260668 0.394604
O O13 0.500000 0.178972 0.894604
O O14 0.567478 0.248725 0.804784
O O15 0.570024 0.000000 0.894604
O O16 0.395324 0.500000 0.234183
O O17 0.842398 0.239819 0.541726
O O18 0.916638 0.250232 0.639053
O O19 0.895324 0.000000 0.555024
O O20 0.297263 0.500000 0.491375
O O21 0.250000 0.750000 0.520784
O O22 0.500000 0.235754 0.699524
O O23 0.553381 0.000000 0.714711
#
# Coordination Sequence:
#
# PCOD9350046 Si02
#       8
#     8   8   8   8   8   8   8   8
#     4   9  17  30  48  70  95 125 162 196 226 268
#     4  11  23  35  46  63  90 127 168 197 216 257
#     4   9  18  33  49  66  88 116 152 192 233 277
#     4   7  12  26  47  67  90 121 156 197 234 261
#     4  11  21  33  47  68  97 125 152 188 237 283
#     4  11  21  33  47  68  97 125 152 188 237 283
#     4   9  18  33  49  66  88 116 152 192 233 277
#     4   9  17  30  48  70  95 125 162 196 226 268
#
# _framework density 15.720537
#
# number of rings (size 3 to 8) (size 9 to 14) (size 15 to 20)
#    0.000    2.500    1.250    3.375    0.000    6.500 
#    0.000    0.625    0.000    2.250    0.000    0.875 
#    0.000    0.000    0.000    0.000    0.000    0.000 
#
# Total GULP energy -178343.557270 kJ/mol
# GULP energy per Si atom -5573.236165 kJ/mol
# Density = 1.568476 g / cm^3
# Si number density = 15.720537 Si / 1000 Ang^3
#
#
#
# Elastic Constant Matrix: (Units=GPa)
#
#
# Indices 1 2 3 4 5 6 
#
# 1 136.1567 27.4864 85.8158 0.0000 0.0000 0.0000
# 2 27.4864 16.9039 23.8482 0.0000 0.0000 0.0000
# 3 85.8158 23.8482 153.4927 0.0000 0.0000 0.0000
# 4 0.0000 0.0000 0.0000 -3.0304 0.0000 0.0000
# 5 0.0000 0.0000 0.0000 0.0000 3.9798 0.0000
# 6 0.0000 0.0000 0.0000 0.0000 0.0000 24.8577
#
#
#
# Elastic Compliance Matrix: (Units=1/GPa)
#
#
# Indices 1 2 3 4 5 6 
#
# 1 0.013698 -0.014689 -0.005376 0.000000 0.000000 0.000000
# 2 -0.014689 0.091517 -0.006007 0.000000 0.000000 0.000000
# 3 -0.005376 -0.006007 0.010454 0.000000 0.000000 0.000000
# 4 0.000000 0.000000 0.000000 -0.329991 0.000000 0.000000
# 5 0.000000 0.000000 0.000000 0.000000 0.251267 0.000000
# 6 0.000000 0.000000 0.000000 0.000000 0.000000 0.040229
#
#
# Mechanical properties :
#
#
# Convention : Reuss Voigt Hill
#
# Bulk Modulus (GPa) = 15.74172 64.53935 40.14053
# Shear Modulus (GPa) = 33.22396 16.45495 24.83946
#
# Velocity S-wave (km/s) = 4.60217 3.23881 3.97931
# Velocity P-wave (km/s) = 6.18670 7.42495 6.83392
#
# Compressibility (1/GPa) = 0.06352547
#
# Stress axis : x y z
#
# Youngs Moduli (GPa) = 73.00147 10.92693 95.65674
#
# Poissons Ratio (x) = 0.16051 0.51428
# Poissons Ratio (y) = 1.07232 0.57457
# Poissons Ratio (z) = 0.39248 0.06563
#
# Static dielectric constant tensor:
#      x y z
#    x 1.514970 0.000000 0.000000 
#    y 0.000000 1.540250 0.000000 
#    z 0.000000 0.000000 1.529300 
# 
# From -- ./inp_files/17759.got.cif
#   From: 2010.05.17/outbox.cif.g08.bks.cpg/sg35_9_cif.got.tgz:17759.got - 2010.06.03 17:29:28.
