data_PCOD9350268
_publ_section_title
;
Structure prediction by ZEFSAII (Michael W. Deem and Ramdas Pophale) SiO2 
 PCOD9350268
Probable space group: C M M 2
;
_chemical_formula_sum "Si O2"
_cell_formula_units_Z 64
_cell_length_a 23.804225
_cell_length_b 15.428671
_cell_length_c 9.722903
_cell_angle_alpha 90.000000
_cell_angle_beta 90.000000
_cell_angle_gamma 90.000000
_cell_volume 3570.906821
_symmetry_space_group_name_H-M "C M M 2"
_symmetry_group_IT_number 35
_symmetry_cell_setting 'orthorhombic'
loop_
_space_group_symop_operation_xyz
x,y,z
-x,-y,z
-x,y,z
x,-y,z
1/2+x,1/2+y,z
1/2-x,1/2-y,z
1/2-x,1/2+y,z
1/2+x,1/2-y,z
loop_
_atom_site_type_symbol
_atom_site_label
_atom_site_fract_x
_atom_site_fract_y
_atom_site_fract_z
Si Si1 0.564235 0.100361 0.792340
Si Si2 0.870086 0.095764 0.358365
Si Si3 0.342035 0.597056 0.030740
Si Si4 0.611101 0.778106 0.022401
Si Si5 0.366085 0.899271 0.519601
Si Si6 0.285905 0.901248 0.093506
Si Si7 0.065859 0.732246 0.331204
Si Si8 0.752818 0.646530 0.403045
O O1 0.500000 0.108999 0.742800
O O2 0.606876 0.116961 0.667938
O O3 0.571522 0.000000 0.837620
O O4 0.576073 0.166733 0.914088
O O5 0.855940 0.097491 0.194602
O O6 0.912416 0.174138 0.382925
O O7 0.809801 0.112462 0.428960
O O8 0.891304 0.000000 0.392645
O O9 0.356169 0.500000 0.979400
O O10 0.374218 0.680592 0.973740
O O11 0.274821 0.609592 0.022024
O O12 0.669138 0.830399 0.048036
O O13 0.579823 0.773145 0.169012
O O14 0.397518 0.839338 0.409585
O O15 0.299942 0.879418 0.512133
O O16 0.375100 0.000000 0.485783
O O17 0.274029 0.890112 0.256291
O O18 0.305522 0.000000 0.068530
O O19 0.000000 0.720557 0.354861
O O20 0.750000 0.750000 0.389720
#
# Coordination Sequence:
#
# PCOD9350268 Si02
#       8
#     8   8   8   8   8   8   8   8
#     4  10  23  41  56  73 106 150 185 219 279 346
#     4   9  17  31  52  80 115 147 176 220 277 328
#     4   8  16  29  49  79 113 144 175 218 278 334
#     4  11  19  33  55  81 109 142 185 234 272 316
#     4  11  22  38  58  80 108 144 183 226 276 337
#     4  10  17  27  49  83 117 146 175 219 279 337
#     4  11  22  34  54  84 112 143 188 232 267 315
#     4  11  17  31  54  85 113 140 177 228 281 328
#
# _framework density 17.922618
#
# number of rings (size 3 to 8) (size 9 to 14) (size 15 to 20)
#    0.000    1.875    2.500    4.875    0.000    1.500 
#    0.000    1.250    0.000    1.875    0.000    0.000 
#    0.000    0.000    0.000    0.000    0.000    0.000 
#
# Total GULP energy -178549.988803 kJ/mol
# GULP energy per Si atom -5579.687150 kJ/mol
# Density = 1.788182 g / cm^3
# Si number density = 17.922618 Si / 1000 Ang^3
#
#
#
# Elastic Constant Matrix: (Units=GPa)
#
#
# Indices 1 2 3 4 5 6 
#
# 1 46.0133 20.1394 18.7033 0.0000 0.0000 0.0000
# 2 20.1394 108.5063 29.8516 0.0000 0.0000 0.0000
# 3 18.7033 29.8516 34.0466 0.0000 0.0000 0.0000
# 4 0.0000 0.0000 0.0000 4.0991 0.0000 0.0000
# 5 0.0000 0.0000 0.0000 0.0000 13.2009 0.0000
# 6 0.0000 0.0000 0.0000 0.0000 0.0000 22.8806
#
#
#
# Elastic Compliance Matrix: (Units=1/GPa)
#
#
# Indices 1 2 3 4 5 6 
#
# 1 0.028115 -0.001277 -0.014325 0.000000 0.000000 0.000000
# 2 -0.001277 0.012204 -0.009998 0.000000 0.000000 0.000000
# 3 -0.014325 -0.009998 0.046007 0.000000 0.000000 0.000000
# 4 0.000000 0.000000 0.000000 0.243958 0.000000 0.000000
# 5 0.000000 0.000000 0.000000 0.000000 0.075752 0.000000
# 6 0.000000 0.000000 0.000000 0.000000 0.000000 0.043705
#
#
# Mechanical properties :
#
#
# Convention : Reuss Voigt Hill
#
# Bulk Modulus (GPa) = 28.47000 36.21722 32.34361
# Shear Modulus (GPa) = 9.75324 16.02758 12.89041
#
# Velocity S-wave (km/s) = 2.33531 2.99367 2.68475
# Velocity P-wave (km/s) = 4.81570 5.67458 5.26269
#
# Compressibility (1/GPa) = 0.03512469
#
# Stress axis : x y z
#
# Youngs Moduli (GPa) = 35.56882 81.94132 21.73572
#
# Poissons Ratio (x) = 0.10466 0.31136
# Poissons Ratio (y) = 0.04543 0.21732
# Poissons Ratio (z) = 0.50951 0.81929
#
# Static dielectric constant tensor:
#      x y z
#    x 1.609690 0.000000 0.000000 
#    y 0.000000 1.628350 0.000000 
#    z 0.000000 0.000000 1.589730 
# 
# From -- ./inp_files/9921.got.cif
#   From: 2010.05.17/outbox.cif.g08.bks.cpg/sg35_5_cif.got.tgz:9921.got - 2010.06.03 17:29:28.
