data_PCOD9350732
_publ_section_title
;
Structure prediction by ZEFSAII (Michael W. Deem and Ramdas Pophale) SiO2 
 PCOD9350732
Probable space group: C M C 21
;
_chemical_formula_sum "Si O2"
_cell_formula_units_Z 64
_cell_length_a 22.015843
_cell_length_b 8.323418
_cell_length_c 18.058770
_cell_angle_alpha 90.000000
_cell_angle_beta 90.000000
_cell_angle_gamma 90.000000
_cell_volume 3309.216580
_symmetry_space_group_name_H-M "C M C 21"
_symmetry_group_IT_number 36
_symmetry_cell_setting 'orthorhombic'
loop_
_space_group_symop_operation_xyz
x,y,z
-x,-y,1/2+z
x,-y,1/2+z
-x,y,z
1/2+x,1/2+y,z
1/2-x,1/2-y,1/2+z
1/2+x,1/2-y,1/2+z
1/2-x,1/2+y,z
loop_
_atom_site_type_symbol
_atom_site_label
_atom_site_fract_x
_atom_site_fract_y
_atom_site_fract_z
Si Si1 0.229760 0.055964 0.567220
Si Si2 0.647076 0.654739 0.433813
Si Si3 0.206282 0.265220 0.714951
Si Si4 0.624307 0.647936 0.131405
Si Si5 0.071613 0.467961 0.478175
Si Si6 0.177677 0.046804 0.273231
Si Si7 0.430820 0.655912 0.980426
Si Si8 0.861432 0.510018 0.120017
O O1 0.202476 0.139695 0.493720
O O2 0.222000 0.165690 0.640393
O O3 0.183770 0.909342 0.584901
O O4 0.299604 0.000943 0.569622
O O5 0.610481 0.822348 0.442939
O O6 0.666785 0.635144 0.349366
O O7 0.606475 0.494442 0.448570
O O8 0.262648 0.373573 0.737323
O O9 0.150997 0.373186 0.687688
O O10 0.191027 0.141743 0.779763
O O11 0.625755 0.558684 0.209784
O O12 0.628859 0.833472 0.150459
O O13 0.572704 0.631676 0.069786
O O14 0.089837 0.657611 0.465004
O O15 0.084610 0.443406 0.565714
O O16 0.000000 0.453184 0.461394
O O17 0.500000 0.645565 0.955033
#
# Coordination Sequence:
#
# PCOD9350732 Si02
#       8
#     8   8   8   8   8   8   8   8
#     4  10  18  33  58  87 115 159 201 242 307 361
#     4  11  23  38  59  92 128 161 205 256 313 376
#     4  11  19  35  56  82 125 157 197 241 299 380
#     4   9  18  33  58  84 114 153 200 242 305 360
#     4  10  22  39  65  93 116 161 213 259 309 354
#     4  11  22  37  52  89 128 164 195 240 325 381
#     4   9  20  41  63  86 116 156 215 269 297 351
#     4  11  17  34  63  85 115 159 198 263 295 353
#
# _framework density 19.339922999999999
#
# number of rings (size 3 to 8) (size 9 to 14) (size 15 to 20)
#    0.000    1.750    5.000    0.375    0.000    1.000 
#    9.000    1.250    0.000    1.500    0.000    0.000 
#    0.000    0.000    0.000    0.000    0.000    0.000 
#
# Total GULP energy -178197.424806 kJ/mol
# GULP energy per Si atom -5568.669525 kJ/mol
# Density = 1.929590 g / cm^3
# Si number density = 19.339923 Si / 1000 Ang^3
#
#
#
# Elastic Constant Matrix: (Units=GPa)
#
#
# Indices 1 2 3 4 5 6 
#
# 1 27.3438 4.0237 -5.8937 0.0000 0.0000 0.0000
# 2 4.0237 78.1868 3.9808 0.0000 0.0000 0.0000
# 3 -5.8937 3.9808 43.2389 0.0000 0.0000 0.0000
# 4 0.0000 0.0000 0.0000 20.1448 0.0000 0.0000
# 5 0.0000 0.0000 0.0000 0.0000 11.9690 0.0000
# 6 0.0000 0.0000 0.0000 0.0000 0.0000 25.3021
#
#
#
# Elastic Compliance Matrix: (Units=1/GPa)
#
#
# Indices 1 2 3 4 5 6 
#
# 1 0.038063 -0.002233 0.005394 0.000000 0.000000 0.000000
# 2 -0.002233 0.012981 -0.001500 0.000000 0.000000 0.000000
# 3 0.005394 -0.001500 0.024001 0.000000 0.000000 0.000000
# 4 0.000000 0.000000 0.000000 0.049641 0.000000 0.000000
# 5 0.000000 0.000000 0.000000 0.000000 0.083549 0.000000
# 6 0.000000 0.000000 0.000000 0.000000 0.000000 0.039522
#
#
# Mechanical properties :
#
#
# Convention : Reuss Voigt Hill
#
# Bulk Modulus (GPa) = 12.76061 16.99898 14.87980
# Shear Modulus (GPa) = 18.48039 21.26043 19.87041
#
# Velocity S-wave (km/s) = 3.09456 3.31917 3.20883
# Velocity P-wave (km/s) = 4.40236 4.84746 4.63026
#
# Compressibility (1/GPa) = 0.07836614
#
# Stress axis : x y z
#
# Youngs Moduli (GPa) = 26.27247 77.03468 41.66564
#
# Poissons Ratio (x) = 0.17205 -0.22474
# Poissons Ratio (y) = 0.05868 0.06248
# Poissons Ratio (z) = -0.14171 0.11552
#
# Static dielectric constant tensor:
#      x y z
#    x 1.713470 0.000000 0.000000 
#    y 0.000000 1.745260 0.000000 
#    z 0.000000 0.000000 1.678150 
# 
# From -- ./inp_files/15121.got.cif
#   From: 2010.05.17/outbox.cif.g08.bks.cpg/sg36_8_cif.got.tgz:15121.got - 2010.06.03 17:41:39.
