data_PCOD9350919
_publ_section_title
;
Structure prediction by ZEFSAII (Michael W. Deem and Ramdas Pophale) SiO2 
 PCOD9350919
Probable space group: C M C 21
;
_chemical_formula_sum "Si O2"
_cell_formula_units_Z 64
_cell_length_a 7.716500
_cell_length_b 25.710011
_cell_length_c 14.507023
_cell_angle_alpha 90.000000
_cell_angle_beta 90.000000
_cell_angle_gamma 90.000000
_cell_volume 2878.067150
_symmetry_space_group_name_H-M "C M C 21"
_symmetry_group_IT_number 36
_symmetry_cell_setting 'orthorhombic'
loop_
_space_group_symop_operation_xyz
x,y,z
-x,-y,1/2+z
x,-y,1/2+z
-x,y,z
1/2+x,1/2+y,z
1/2-x,1/2-y,1/2+z
1/2+x,1/2-y,1/2+z
1/2-x,1/2+y,z
loop_
_atom_site_type_symbol
_atom_site_label
_atom_site_fract_x
_atom_site_fract_y
_atom_site_fract_z
Si Si1 0.304824 0.632711 0.346430
Si Si2 0.292460 0.432779 0.689087
Si Si3 0.294132 0.545561 0.660239
Si Si4 0.291374 0.078588 0.975231
Si Si5 0.701036 0.966056 0.949228
Si Si6 0.294366 0.162871 0.699072
Si Si7 0.709298 0.289543 0.999945
Si Si8 0.787938 0.312050 0.396892
O O1 0.500000 0.652455 0.327094
O O2 0.219423 0.613881 0.251546
O O3 0.309283 0.578133 0.400378
O O4 0.223280 0.672281 0.419047
O O5 0.500000 0.431784 0.703277
O O6 0.232764 0.492195 0.709939
O O7 0.254939 0.422672 0.582625
O O8 0.500000 0.539986 0.646813
O O9 0.209812 0.544089 0.558899
O O10 0.263233 0.602391 0.702094
O O11 0.500000 0.077263 0.967892
O O12 0.228914 0.131157 0.929099
O O13 0.229679 0.024139 0.932924
O O14 0.500000 0.961850 0.920592
O O15 0.500000 0.161126 0.705067
O O16 0.252340 0.189693 0.601545
O O17 0.231939 0.193552 0.790217
O O18 0.500000 0.291113 0.996503
O O19 0.767908 0.232416 0.968236
O O20 0.000000 0.311310 0.398575
#
# Coordination Sequence:
#
# PCOD9350919 Si02
#       8
#     8   8   8   8   8   8   8   8
#     4  10  20  34  54  81 114 152 191 231 282 342
#     4   9  20  35  53  82 118 155 193 234 282 342
#     4  10  19  34  54  79 115 153 189 231 287 344
#     4   9  19  37  56  79 112 149 189 234 287 340
#     4  10  19  31  53  82 112 146 187 236 284 334
#     4  11  22  37  60  87 114 144 189 243 285 338
#     4  10  21  40  62  81 112 156 195 231 284 343
#     4   9  21  40  60  83 113 153 193 234 289 343
#
# _framework density 22.237145999999999
#
# number of rings (size 3 to 8) (size 9 to 14) (size 15 to 20)
#    0.000    2.250    1.250    1.125    1.750    2.500 
#    0.000    4.375    0.000    0.000    0.000    0.000 
#    0.000    0.000    0.000    0.000    0.000    0.000 
#
# Total GULP energy -178575.031658 kJ/mol
# GULP energy per Si atom -5580.469739 kJ/mol
# Density = 2.218653 g / cm^3
# Si number density = 22.237146 Si / 1000 Ang^3
#
#
#
# Elastic Constant Matrix: (Units=GPa)
#
#
# Indices 1 2 3 4 5 6 
#
# 1 51.0479 0.6973 -8.6643 0.0000 0.0000 0.0000
# 2 0.6973 100.4115 29.2780 0.0000 0.0000 0.0000
# 3 -8.6643 29.2780 71.8689 0.0000 0.0000 0.0000
# 4 0.0000 0.0000 0.0000 23.8186 0.0000 0.0000
# 5 0.0000 0.0000 0.0000 0.0000 21.9307 0.0000
# 6 0.0000 0.0000 0.0000 0.0000 0.0000 -2.3459
#
#
#
# Elastic Compliance Matrix: (Units=1/GPa)
#
#
# Indices 1 2 3 4 5 6 
#
# 1 0.020080 -0.000959 0.002812 0.000000 0.000000 0.000000
# 2 -0.000959 0.011347 -0.004738 0.000000 0.000000 0.000000
# 3 0.002812 -0.004738 0.016183 0.000000 0.000000 0.000000
# 4 0.000000 0.000000 0.000000 0.041984 0.000000 0.000000
# 5 0.000000 0.000000 0.000000 0.000000 0.045598 0.000000
# 6 0.000000 0.000000 0.000000 0.000000 0.000000 -0.426277
#
#
# Mechanical properties :
#
#
# Convention : Reuss Voigt Hill
#
# Bulk Modulus (GPa) = 23.90144 29.55003 26.72574
# Shear Modulus (GPa) = -18.42530 22.14849 1.86160
#
# Velocity S-wave (km/s) = -2.88163 3.15939 0.91595
# Velocity P-wave (km/s) = 0.54770 5.16008 3.62812
#
# Compressibility (1/GPa) = 0.04183848
#
# Stress axis : x y z
#
# Youngs Moduli (GPa) = 49.80139 88.12688 61.79144
#
# Poissons Ratio (x) = 0.08453 -0.17373
# Poissons Ratio (y) = 0.04777 0.29279
# Poissons Ratio (z) = -0.14002 0.41757
#
# Static dielectric constant tensor:
#      x y z
#    x 1.830780 0.000000 0.000000 
#    y 0.000000 1.840730 0.000000 
#    z 0.000000 0.000000 1.842520 
# 
# From -- ./inp_files/10937.got.cif
#   From: 2010.05.17/outbox.cif.g08.bks.cpg/sg36_6_cif.got.tgz:10937.got - 2010.06.03 17:41:39.
