data_PCOD9350839
_publ_section_title
;
Structure prediction by ZEFSAII (Michael W. Deem and Ramdas Pophale) SiO2 
 PCOD9350839
Probable space group: C M C 21
;
_chemical_formula_sum "Si O2"
_cell_formula_units_Z 48
_cell_length_a 7.254671
_cell_length_b 29.163080
_cell_length_c 7.932240
_cell_angle_alpha 90.000000
_cell_angle_beta 90.000000
_cell_angle_gamma 90.000000
_cell_volume 1678.212521
_symmetry_space_group_name_H-M "C M C 21"
_symmetry_group_IT_number 36
_symmetry_cell_setting 'orthorhombic'
loop_
_space_group_symop_operation_xyz
x,y,z
-x,-y,1/2+z
x,-y,1/2+z
-x,y,z
1/2+x,1/2+y,z
1/2-x,1/2-y,1/2+z
1/2+x,1/2-y,1/2+z
1/2-x,1/2+y,z
loop_
_atom_site_type_symbol
_atom_site_label
_atom_site_fract_x
_atom_site_fract_y
_atom_site_fract_z
Si Si1 0.223520 0.905287 0.265260
Si Si2 0.788860 0.176412 0.552707
Si Si3 0.220859 0.155312 0.096811
Si Si4 0.775665 0.073449 0.307809
Si Si5 0.712520 0.763249 0.373317
Si Si6 0.224315 0.987184 0.484441
O O1 0.289313 0.872555 0.113012
O O2 0.266123 0.875697 0.433332
O O3 0.279355 0.955935 0.323677
O O4 0.000000 0.907064 0.246153
O O5 0.798098 0.206040 0.726983
O O6 0.709375 0.213561 0.422424
O O7 0.000000 0.168177 0.500112
O O8 0.283983 0.124810 0.256441
O O9 0.000000 0.157952 0.105182
O O10 0.284892 0.205478 0.042765
O O11 0.000000 0.075158 0.313864
O O12 0.718042 0.039894 0.459799
O O13 0.722826 0.041894 0.147075
O O14 0.500000 0.756893 0.324163
O O15 0.000000 0.987871 0.487874
#
# Coordination Sequence:
#
# PCOD9350839 Si02
#       6
#     8   8   8   8   8   8
#     4   7  11  22  39  55  77 110 137 163 208 259
#     4   9  18  32  47  65  91 118 145 183 227 264
#     4   8  14  26  42  59  84 116 143 171 214 261
#     4   8  13  21  35  56  80 105 133 169 213 255
#     4  10  19  30  47  69  89 115 152 185 217 263
#     4   8  12  19  33  54  77 100 130 165 203 250
#
# _framework density 28.601859999999999
#
# number of rings (size 3 to 8) (size 9 to 14) (size 15 to 20)
#    0.000    3.667    0.000    3.500    0.000    1.333 
#    0.000    1.667    0.000    6.000    0.000   10.500 
#    0.000    0.000    0.000    0.000    0.000    0.000 
#
# Total GULP energy -134167.388857 kJ/mol
# GULP energy per Si atom -5590.307869 kJ/mol
# Density = 2.853676 g / cm^3
# Si number density = 28.601860 Si / 1000 Ang^3
#
#
#
# Elastic Constant Matrix: (Units=GPa)
#
#
# Indices 1 2 3 4 5 6 
#
# 1 120.5490 -3.1048 -11.9931 0.0000 0.0000 0.0000
# 2 -3.1048 261.9086 22.5181 0.0000 0.0000 0.0000
# 3 -11.9931 22.5181 116.9184 0.0000 0.0000 0.0000
# 4 0.0000 0.0000 0.0000 66.6889 0.0000 0.0000
# 5 0.0000 0.0000 0.0000 0.0000 -4.1817 0.0000
# 6 0.0000 0.0000 0.0000 0.0000 0.0000 30.0505
#
#
#
# Elastic Compliance Matrix: (Units=1/GPa)
#
#
# Indices 1 2 3 4 5 6 
#
# 1 0.008381 0.000026 0.000855 0.000000 0.000000 0.000000
# 2 0.000026 0.003882 -0.000745 0.000000 0.000000 0.000000
# 3 0.000855 -0.000745 0.008784 0.000000 0.000000 0.000000
# 4 0.000000 0.000000 0.000000 0.014995 0.000000 0.000000
# 5 0.000000 0.000000 0.000000 0.000000 -0.239136 0.000000
# 6 0.000000 0.000000 0.000000 0.000000 0.000000 0.033277
#
#
# Mechanical properties :
#
#
# Convention : Reuss Voigt Hill
#
# Bulk Modulus (GPa) = 46.90721 57.13519 52.02120
# Shear Modulus (GPa) = -30.67849 51.30860 10.31505
#
# Velocity S-wave (km/s) = -3.27862 4.24003 1.90112
# Velocity P-wave (km/s) = 1.45025 6.63249 4.80068
#
# Compressibility (1/GPa) = 0.02131869
#
# Stress axis : x y z
#
# Youngs Moduli (GPa) = 119.31637 257.56644 113.84142
#
# Poissons Ratio (x) = -0.00666 -0.09730
# Poissons Ratio (y) = -0.00309 0.08482
# Poissons Ratio (z) = -0.10198 0.19191
#
# Static dielectric constant tensor:
#      x y z
#    x 2.180320 0.000000 0.000000 
#    y 0.000000 2.194880 0.000000 
#    z 0.000000 0.000000 2.331060 
# 
# From -- ./inp_files/6812.got.cif
#   From: 2010.05.17/outbox.cif.g08.bks.cpg/sg36_4_cif.got.tgz:6812.got - 2010.06.03 17:41:39.
