data_PCOD9350385
_publ_section_title
;
Structure prediction by ZEFSAII (Michael W. Deem and Ramdas Pophale) SiO2 
 PCOD9350385
Probable space group: C M M 2
;
_chemical_formula_sum "Si O2"
_cell_formula_units_Z 40
_cell_length_a 8.384816
_cell_length_b 26.991109
_cell_length_c 9.787316
_cell_angle_alpha 90.000000
_cell_angle_beta 90.000000
_cell_angle_gamma 90.000000
_cell_volume 2215.021144
_symmetry_space_group_name_H-M "C M M 2"
_symmetry_group_IT_number 35
_symmetry_cell_setting 'orthorhombic'
loop_
_space_group_symop_operation_xyz
x,y,z
-x,-y,z
-x,y,z
x,-y,z
1/2+x,1/2+y,z
1/2-x,1/2-y,z
1/2-x,1/2+y,z
1/2+x,1/2-y,z
loop_
_atom_site_type_symbol
_atom_site_label
_atom_site_fract_x
_atom_site_fract_y
_atom_site_fract_z
Si Si1 0.190900 0.104195 0.051970
Si Si2 0.189832 0.304448 0.230952
Si Si3 0.687945 0.000000 0.031583
Si Si4 0.805088 0.892800 0.734454
Si Si5 0.311778 0.500000 0.725173
Si Si6 0.308263 0.696189 0.541071
O O1 0.242417 0.151059 0.140442
O O2 0.000000 0.099462 0.054836
O O3 0.241730 0.111957 0.893408
O O4 0.265129 0.051905 0.100996
O O5 0.250000 0.250000 0.186308
O O6 0.244994 0.311082 0.387667
O O7 0.000000 0.304793 0.225165
O O8 0.786416 0.000000 0.889201
O O9 0.500000 0.000000 0.002245
O O10 0.753021 0.847394 0.641249
O O11 0.000000 0.893431 0.732774
O O12 0.747736 0.946543 0.680224
O O13 0.500000 0.500000 0.695312
O O14 0.500000 0.696198 0.536301
O O15 0.250000 0.750000 0.588908
#
# Coordination Sequence:
#
# PCOD9350385 Si02
#       6
#     8   8   4   8   4   8
#     4  10  19  35  56  79 105 138 174 213 257 307
#     4  11  22  37  54  75 102 137 175 216 261 312
#     4  10  18  30  49  78 109 138 170 210 256 306
#     4   8  16  30  53  78 100 127 168 212 252 300
#     4   8  14  30  51  72  99 134 168 206 254 306
#     4  10  19  34  52  73 100 134 170 209 255 309
#
# _framework density 18.058517999999999
#
# number of rings (size 3 to 8) (size 9 to 14) (size 15 to 20)
#    0.000    2.400    0.000    6.300    0.000    0.800 
#    0.000   13.000    0.000    2.400    0.000    0.000 
#    0.000    0.000    0.000    0.000    0.000    0.000 
#
# Total GULP energy -111501.736490 kJ/mol
# GULP energy per Si atom -5575.086824 kJ/mol
# Density = 1.801742 g / cm^3
# Si number density = 18.058518 Si / 1000 Ang^3
#
#
#
# Elastic Constant Matrix: (Units=GPa)
#
#
# Indices 1 2 3 4 5 6 
#
# 1 55.6286 26.5363 14.5607 0.0000 0.0000 0.0000
# 2 26.5363 218.0111 83.2877 0.0000 0.0000 0.0000
# 3 14.5607 83.2877 50.2767 0.0000 0.0000 0.0000
# 4 0.0000 0.0000 0.0000 25.8239 0.0000 0.0000
# 5 0.0000 0.0000 0.0000 0.0000 16.1331 0.0000
# 6 0.0000 0.0000 0.0000 0.0000 0.0000 31.1614
#
#
#
# Elastic Compliance Matrix: (Units=1/GPa)
#
#
# Indices 1 2 3 4 5 6 
#
# 1 0.019478 -0.000588 -0.004667 0.000000 0.000000 0.000000
# 2 -0.000588 0.012512 -0.020557 0.000000 0.000000 0.000000
# 3 -0.004667 -0.020557 0.055295 0.000000 0.000000 0.000000
# 4 0.000000 0.000000 0.000000 0.038724 0.000000 0.000000
# 5 0.000000 0.000000 0.000000 0.000000 0.061984 0.000000
# 6 0.000000 0.000000 0.000000 0.000000 0.000000 0.032091
#
#
# Mechanical properties :
#
#
# Convention : Reuss Voigt Hill
#
# Bulk Modulus (GPa) = 28.04108 63.63176 45.83642
# Shear Modulus (GPa) = 17.63072 27.92580 22.77826
#
# Velocity S-wave (km/s) = 3.12799 3.93670 3.55541
# Velocity P-wave (km/s) = 5.34858 7.48174 6.50322
#
# Compressibility (1/GPa) = 0.03566196
#
# Stress axis : x y z
#
# Youngs Moduli (GPa) = 51.33872 79.92456 18.08466
#
# Poissons Ratio (x) = 0.04698 0.08441
# Poissons Ratio (y) = 0.03018 0.37176
# Poissons Ratio (z) = 0.23962 1.64298
#
# Static dielectric constant tensor:
#      x y z
#    x 1.624910 0.000000 0.000000 
#    y 0.000000 1.652700 0.000000 
#    z 0.000000 0.000000 1.592460 
# 
# From -- ./inp_files/4992.got.cif
#   From: 2010.05.17/outbox.cif.g08.bks.cpg/sg35_3_cif.got.tgz:4992.got - 2010.06.03 17:29:28.
