data_PCOD9350707
_publ_section_title
;
Structure prediction by ZEFSAII (Michael W. Deem and Ramdas Pophale) SiO2 
 PCOD9350707
Probable space group: C M C 21
;
_chemical_formula_sum "Si O2"
_cell_formula_units_Z 64
_cell_length_a 7.358853
_cell_length_b 20.188139
_cell_length_c 18.881634
_cell_angle_alpha 90.000000
_cell_angle_beta 90.000000
_cell_angle_gamma 90.000000
_cell_volume 2805.084762
_symmetry_space_group_name_H-M "C M C 21"
_symmetry_group_IT_number 36
_symmetry_cell_setting 'orthorhombic'
loop_
_space_group_symop_operation_xyz
x,y,z
-x,-y,1/2+z
x,-y,1/2+z
-x,y,z
1/2+x,1/2+y,z
1/2-x,1/2-y,1/2+z
1/2+x,1/2-y,1/2+z
1/2-x,1/2+y,z
loop_
_atom_site_type_symbol
_atom_site_label
_atom_site_fract_x
_atom_site_fract_y
_atom_site_fract_z
Si Si1 0.222047 0.576283 0.176070
Si Si2 0.711205 0.832915 0.805302
Si Si3 0.713338 0.217992 0.569415
Si Si4 0.778746 0.447378 0.255168
Si Si5 0.222576 0.384854 0.956062
Si Si6 0.718860 0.864002 0.526680
Si Si7 0.780463 0.297465 0.227307
Si Si8 0.778703 0.470319 0.415517
O O1 0.285258 0.625117 0.238986
O O2 0.276945 0.502186 0.197921
O O3 0.282650 0.602184 0.099843
O O4 0.000000 0.577721 0.174438
O O5 0.500000 0.852265 0.808676
O O6 0.784205 0.851715 0.882182
O O7 0.723217 0.756116 0.785253
O O8 0.500000 0.204464 0.578566
O O9 0.787287 0.157984 0.522499
O O10 0.731550 0.287121 0.528614
O O11 0.785692 0.224267 0.649236
O O12 0.720396 0.372497 0.240697
O O13 0.721445 0.469168 0.333825
O O14 0.000000 0.447106 0.254552
O O15 0.275706 0.461562 0.953367
O O16 0.000000 0.382951 0.957844
O O17 0.500000 0.866744 0.526664
O O18 0.781762 0.906558 0.459736
O O19 0.000000 0.296712 0.228882
O O20 0.000000 0.469779 0.414556
#
# Coordination Sequence:
#
# PCOD9350707 Si02
#       8
#     8   8   8   8   8   8   8   8
#     4   9  16  29  50  74  96 123 164 210 248 284
#     4  10  18  33  55  74  97 132 170 207 246 296
#     4  10  21  35  49  72 106 139 166 197 246 309
#     4   9  17  30  48  74 103 127 160 212 258 286
#     4   9  18  32  51  75 102 134 170 206 249 300
#     4  10  20  32  52  78 100 128 168 212 252 293
#     4  10  21  33  50  76 105 133 164 207 254 298
#     4   9  17  30  49  75 101 124 162 213 253 286
#
# _framework density 22.815709999999999
#
# number of rings (size 3 to 8) (size 9 to 14) (size 15 to 20)
#    0.000    2.500    2.500    0.000    3.500    0.000 
#    0.000    0.000    0.000    3.000    0.000    0.000 
#    0.000    0.000    0.000    0.000    0.000    0.000 
#
# Total GULP energy -178827.078341 kJ/mol
# GULP energy per Si atom -5588.346198 kJ/mol
# Density = 2.276378 g / cm^3
# Si number density = 22.815710 Si / 1000 Ang^3
#
#
#
# Elastic Constant Matrix: (Units=GPa)
#
#
# Indices 1 2 3 4 5 6 
#
# 1 79.7188 -21.0484 -2.3316 0.0000 0.0000 0.0000
# 2 -21.0484 93.3944 -10.5874 0.0000 0.0000 0.0000
# 3 -2.3316 -10.5874 27.3490 0.0000 0.0000 0.0000
# 4 0.0000 0.0000 0.0000 45.2460 0.0000 0.0000
# 5 0.0000 0.0000 0.0000 0.0000 -9.6556 0.0000
# 6 0.0000 0.0000 0.0000 0.0000 0.0000 64.2626
#
#
#
# Elastic Compliance Matrix: (Units=1/GPa)
#
#
# Indices 1 2 3 4 5 6 
#
# 1 0.013491 0.003316 0.002434 0.000000 0.000000 0.000000
# 2 0.003316 0.012014 0.004934 0.000000 0.000000 0.000000
# 3 0.002434 0.004934 0.038682 0.000000 0.000000 0.000000
# 4 0.000000 0.000000 0.000000 0.022101 0.000000 0.000000
# 5 0.000000 0.000000 0.000000 0.000000 -0.103567 0.000000
# 6 0.000000 0.000000 0.000000 0.000000 0.000000 0.015561
#
#
# Mechanical properties :
#
#
# Convention : Reuss Voigt Hill
#
# Bulk Modulus (GPa) = 11.68842 14.72526 13.20684
# Shear Modulus (GPa) = 920.31815 35.59924 477.95869
#
# Velocity S-wave (km/s) = 20.10587 3.95434 14.48936
# Velocity P-wave (km/s) = 23.32657 5.22658 16.90334
#
# Compressibility (1/GPa) = 0.08555478
#
# Stress axis : x y z
#
# Youngs Moduli (GPa) = 74.12398 83.23630 25.85193
#
# Poissons Ratio (x) = -0.27604 -0.06292
# Poissons Ratio (y) = -0.24582 -0.12754
# Poissons Ratio (z) = -0.18042 -0.41066
#
# Static dielectric constant tensor:
#      x y z
#    x 1.915530 0.000000 0.000000 
#    y 0.000000 1.799620 0.000000 
#    z 0.000000 0.000000 1.813060 
# 
# From -- ./inp_files/13968.got.cif
#   From: 2010.05.17/outbox.cif.g08.bks.cpg/sg36_7_cif.got.tgz:13968.got - 2010.06.03 17:41:39.
