data_PCOD9350536
_publ_section_title
;
Structure prediction by ZEFSAII (Michael W. Deem and Ramdas Pophale) SiO2 
 PCOD9350536
Probable space group: C M C 21
;
_chemical_formula_sum "Si O2"
_cell_formula_units_Z 48
_cell_length_a 7.652682
_cell_length_b 15.770900
_cell_length_c 14.503667
_cell_angle_alpha 90.000000
_cell_angle_beta 90.000000
_cell_angle_gamma 90.000000
_cell_volume 1750.442966
_symmetry_space_group_name_H-M "C M C 21"
_symmetry_group_IT_number 36
_symmetry_cell_setting 'orthorhombic'
loop_
_space_group_symop_operation_xyz
x,y,z
-x,-y,1/2+z
x,-y,1/2+z
-x,y,z
1/2+x,1/2+y,z
1/2-x,1/2-y,1/2+z
1/2+x,1/2-y,1/2+z
1/2-x,1/2+y,z
loop_
_atom_site_type_symbol
_atom_site_label
_atom_site_fract_x
_atom_site_fract_y
_atom_site_fract_z
Si Si1 0.210678 0.057479 0.418110
Si Si2 0.210515 0.895307 0.299838
Si Si3 0.294503 0.345677 0.749491
Si Si4 0.703295 0.280308 0.454463
Si Si5 0.294326 0.942647 0.578619
Si Si6 0.790671 0.308003 0.126116
O O1 0.270146 0.977409 0.355130
O O2 0.267079 0.029022 0.520166
O O3 0.000000 0.059568 0.418867
O O4 0.274357 0.134077 0.351959
O O5 0.282163 0.814975 0.359283
O O6 0.260949 0.886096 0.193881
O O7 0.000000 0.894509 0.304262
O O8 0.500000 0.329826 0.759030
O O9 0.277863 0.426743 0.681048
O O10 0.217121 0.269236 0.689462
O O11 0.500000 0.262478 0.438692
O O12 0.710406 0.366374 0.517948
O O13 0.781588 0.208885 0.523166
O O14 0.500000 0.928715 0.583156
O O15 0.000000 0.299240 0.116477
#
# Coordination Sequence:
#
# PCOD9350536 Si02
#       6
#     8   8   8   8   8   8
#     4   9  18  34  53  69  91 128 167 195 225 278
#     4   9  17  30  49  71  93 120 155 194 233 273
#     4   9  18  34  53  69  91 128 167 195 225 278
#     4   8  16  32  49  64  89 129 167 187 217 282
#     4  10  18  28  47  74  99 121 151 197 245 282
#     4   9  17  30  49  71  93 120 155 194 233 273
#
# _framework density 27.421627999999998
#
# number of rings (size 3 to 8) (size 9 to 14) (size 15 to 20)
#    0.000    3.000    0.000    3.500    0.000    6.000 
#    0.000    1.667    0.000    6.000    0.000    0.000 
#    0.000    0.000    0.000    0.000    0.000    0.000 
#
# Total GULP energy -134165.560461 kJ/mol
# GULP energy per Si atom -5590.231686 kJ/mol
# Density = 2.735922 g / cm^3
# Si number density = 27.421628 Si / 1000 Ang^3
#
#
#
# Elastic Constant Matrix: (Units=GPa)
#
#
# Indices 1 2 3 4 5 6 
#
# 1 97.5901 9.9289 3.6688 0.0000 0.0000 0.0000
# 2 9.9289 60.2519 2.5151 0.0000 0.0000 0.0000
# 3 3.6688 2.5151 232.9870 0.0000 0.0000 0.0000
# 4 0.0000 0.0000 0.0000 55.4995 0.0000 0.0000
# 5 0.0000 0.0000 0.0000 0.0000 25.6215 0.0000
# 6 0.0000 0.0000 0.0000 0.0000 0.0000 7.2169
#
#
#
# Elastic Compliance Matrix: (Units=1/GPa)
#
#
# Indices 1 2 3 4 5 6 
#
# 1 0.010427 -0.001712 -0.000146 0.000000 0.000000 0.000000
# 2 -0.001712 0.016886 -0.000155 0.000000 0.000000 0.000000
# 3 -0.000146 -0.000155 0.004296 0.000000 0.000000 0.000000
# 4 0.000000 0.000000 0.000000 0.018018 0.000000 0.000000
# 5 0.000000 0.000000 0.000000 0.000000 0.039030 0.000000
# 6 0.000000 0.000000 0.000000 0.000000 0.000000 0.138564
#
#
# Mechanical properties :
#
#
# Convention : Reuss Voigt Hill
#
# Bulk Modulus (GPa) = 36.25553 47.00606 41.63079
# Shear Modulus (GPa) = 20.79516 42.64866 31.72191
#
# Velocity S-wave (km/s) = 2.75680 3.94800 3.40490
# Velocity P-wave (km/s) = 4.83565 6.16129 5.53827
#
# Compressibility (1/GPa) = 0.02758200
#
# Stress axis : x y z
#
# Youngs Moduli (GPa) = 95.90848 59.22201 232.77168
#
# Poissons Ratio (x) = 0.10140 0.03392
# Poissons Ratio (y) = 0.16421 0.03615
# Poissons Ratio (z) = 0.01397 0.00920
#
# Static dielectric constant tensor:
#      x y z
#    x 2.027940 0.000000 0.000000 
#    y 0.000000 2.340450 0.000000 
#    z 0.000000 0.000000 2.164400 
# 
# From -- ./inp_files/10379.got.cif
#   From: 2010.05.17/outbox.cif.g08.bks.cpg/sg36_6_cif.got.tgz:10379.got - 2010.06.03 17:41:39.
