data_PCOD9350083
_publ_section_title
;
Structure prediction by ZEFSAII (Michael W. Deem and Ramdas Pophale) SiO2 
 PCOD9350083
Probable space group: C M M 2
;
_chemical_formula_sum "Si O2"
_cell_formula_units_Z 48
_cell_length_a 8.664582
_cell_length_b 15.627306
_cell_length_c 17.588216
_cell_angle_alpha 90.000000
_cell_angle_beta 90.000000
_cell_angle_gamma 90.000000
_cell_volume 2381.516106
_symmetry_space_group_name_H-M "C M M 2"
_symmetry_group_IT_number 35
_symmetry_cell_setting 'orthorhombic'
loop_
_space_group_symop_operation_xyz
x,y,z
-x,-y,z
-x,y,z
x,-y,z
1/2+x,1/2+y,z
1/2-x,1/2-y,z
1/2-x,1/2+y,z
1/2+x,1/2-y,z
loop_
_atom_site_type_symbol
_atom_site_label
_atom_site_fract_x
_atom_site_fract_y
_atom_site_fract_z
Si Si1 0.181978 0.344771 0.789840
Si Si2 0.673869 0.601585 0.635690
Si Si3 0.184504 0.500000 0.049393
Si Si4 0.815647 0.152674 0.948253
Si Si5 0.684116 0.500000 0.218862
Si Si6 0.685796 0.602092 0.468734
Si Si7 0.316780 0.159456 0.311686
O O1 0.250000 0.250000 0.784011
O O2 0.222091 0.385109 0.708950
O O3 0.264415 0.381216 0.864756
O O4 0.000000 0.344242 0.803185
O O5 0.500000 0.635868 0.650576
O O6 0.659560 0.500000 0.624994
O O7 0.730383 0.633444 0.553433
O O8 0.238381 0.500000 0.136408
O O9 0.000000 0.500000 0.043805
O O10 0.250054 0.585155 0.008543
O O11 0.750000 0.250000 0.957006
O O12 0.000000 0.156696 0.952504
O O13 0.500000 0.500000 0.211757
O O14 0.738688 0.582737 0.265623
O O15 0.500000 0.613080 0.461757
O O16 0.716780 0.500000 0.462238
O O17 0.771762 0.647276 0.400063
O O18 0.500000 0.156342 0.302635
O O19 0.250000 0.250000 0.285314
#
# Coordination Sequence:
#
# PCOD9350083 Si02
#       7
#     8   8   4   8   4   8   8
#     4  11  22  37  57  83 119 163 209 262 316 370
#     4   9  19  35  56  84 119 162 210 259 314 371
#     4  12  26  46  72 103 132 167 212 256 314 387
#     4  11  23  43  68  97 132 172 215 265 320 378
#     4  12  26  48  72  99 134 167 206 262 320 381
#     4   9  18  36  61  87 122 167 212 265 322 376
#     4  12  25  42  67  99 131 172 216 262 318 381
#
# _framework density 20.155228999999999
#
# number of rings (size 3 to 8) (size 9 to 14) (size 15 to 20)
#    0.000    1.333    0.833    8.000    1.167    2.333 
#    0.000    5.000    0.000    0.000    0.000    0.000 
#    0.000    0.000    0.000    0.000    0.000    0.000 
#
# Total GULP energy -134142.994555 kJ/mol
# GULP energy per Si atom -5589.291440 kJ/mol
# Density = 2.010935 g / cm^3
# Si number density = 20.155229 Si / 1000 Ang^3
#
#
#
# Elastic Constant Matrix: (Units=GPa)
#
#
# Indices 1 2 3 4 5 6 
#
# 1 161.9192 45.7354 56.8031 0.0000 0.0000 0.0000
# 2 45.7354 93.8445 49.1443 0.0000 0.0000 0.0000
# 3 56.8031 49.1443 134.8740 0.0000 0.0000 0.0000
# 4 0.0000 0.0000 0.0000 -60.1722 0.0000 0.0000
# 5 0.0000 0.0000 0.0000 0.0000 58.3741 0.0000
# 6 0.0000 0.0000 0.0000 0.0000 0.0000 28.5133
#
#
#
# Elastic Compliance Matrix: (Units=1/GPa)
#
#
# Indices 1 2 3 4 5 6 
#
# 1 0.007708 -0.002541 -0.002320 0.000000 0.000000 0.000000
# 2 -0.002541 0.014007 -0.004033 0.000000 0.000000 0.000000
# 3 -0.002320 -0.004033 0.009861 0.000000 0.000000 0.000000
# 4 0.000000 0.000000 0.000000 -0.016619 0.000000 0.000000
# 5 0.000000 0.000000 0.000000 0.000000 0.017131 0.000000
# 6 0.000000 0.000000 0.000000 0.000000 0.000000 0.035071
#
#
# Mechanical properties :
#
#
# Convention : Reuss Voigt Hill
#
# Bulk Modulus (GPa) = 72.53852 77.11148 74.82500
# Shear Modulus (GPa) = 55.83874 21.27337 38.55606
#
# Velocity S-wave (km/s) = 5.26920 3.25233 4.37848
# Velocity P-wave (km/s) = 8.54912 7.24192 7.92252
#
# Compressibility (1/GPa) = 0.01378578
#
# Stress axis : x y z
#
# Youngs Moduli (GPa) = 129.74075 71.39482 101.40854
#
# Poissons Ratio (x) = 0.18144 0.23528
# Poissons Ratio (y) = 0.32972 0.40901
# Poissons Ratio (z) = 0.30102 0.28796
#
# Static dielectric constant tensor:
#      x y z
#    x 1.666440 0.000000 0.000000 
#    y 0.000000 1.672720 0.000000 
#    z 0.000000 0.000000 1.740240 
# 
# From -- ./inp_files/17934.got.cif
#   From: 2010.05.17/outbox.cif.g08.bks.cpg/sg35_9_cif.got.tgz:17934.got - 2010.06.03 17:29:28.
