data_PCOD9350944
_publ_section_title
;
Structure prediction by ZEFSAII (Michael W. Deem and Ramdas Pophale) SiO2 
 PCOD9350944
Probable space group: C M C 21
;
_chemical_formula_sum "Si O2"
_cell_formula_units_Z 64
_cell_length_a 9.088019
_cell_length_b 15.913988
_cell_length_c 18.800540
_cell_angle_alpha 90.000000
_cell_angle_beta 90.000000
_cell_angle_gamma 90.000000
_cell_volume 2719.058654
_symmetry_space_group_name_H-M "C M C 21"
_symmetry_group_IT_number 36
_symmetry_cell_setting 'orthorhombic'
loop_
_space_group_symop_operation_xyz
x,y,z
-x,-y,1/2+z
x,-y,1/2+z
-x,y,z
1/2+x,1/2+y,z
1/2-x,1/2-y,1/2+z
1/2+x,1/2-y,1/2+z
1/2-x,1/2+y,z
loop_
_atom_site_type_symbol
_atom_site_label
_atom_site_fract_x
_atom_site_fract_y
_atom_site_fract_z
Si Si1 0.175368 0.441430 0.432940
Si Si2 0.673437 0.164789 0.066721
Si Si3 0.667498 0.184701 0.398758
Si Si4 0.668142 0.235534 0.682929
Si Si5 0.328884 0.356105 0.307060
Si Si6 0.674738 0.402567 0.013727
Si Si7 0.833719 0.093676 0.279572
Si Si8 0.323452 0.506779 0.141877
O O1 0.200755 0.361296 0.485233
O O2 0.241754 0.421394 0.356163
O O3 0.259047 0.517693 0.471107
O O4 0.000000 0.455811 0.430460
O O5 0.500000 0.179657 0.076053
O O6 0.759357 0.237360 0.108565
O O7 0.725010 0.079736 0.107225
O O8 0.500000 0.169390 0.419084
O O9 0.676086 0.271306 0.355759
O O10 0.722632 0.115287 0.342004
O O11 0.762665 0.175357 0.469792
O O12 0.500000 0.208090 0.673112
O O13 0.756515 0.171562 0.732929
O O14 0.665158 0.322953 0.729111
O O15 0.500000 0.378316 0.297446
O O16 0.500000 0.400078 0.008164
O O17 0.710409 0.423806 0.096030
O O18 0.800004 0.017207 0.225977
O O19 0.000000 0.084634 0.308320
O O20 0.500000 0.524118 0.131475
#
# Coordination Sequence:
#
# PCOD9350944 Si02
#       8
#     8   8   8   8   8   8   8   8
#     4  10  20  33  50  73 101 130 161 200 243 288
#     4   9  16  26  43  68  95 122 155 196 239 283
#     4  10  20  32  47  71 100 128 160 198 239 284
#     4   9  16  27  45  68  94 123 157 199 242 284
#     4  10  20  33  50  72  99 130 164 202 243 290
#     4  10  19  32  51  73  98 129 162 197 240 289
#     4   8  14  26  44  66  91 119 154 195 237 281
#     4   8  15  27  44  67  92 119 155 197 239 283
#
# _framework density 23.537558000000001
#
# number of rings (size 3 to 8) (size 9 to 14) (size 15 to 20)
#    0.000    2.750    0.000    3.000    0.000    6.500 
#    0.000    0.000    0.000    1.500    0.000    5.250 
#    0.000    0.000    0.000    0.000    0.000    0.000 
#
# Total GULP energy -178893.395476 kJ/mol
# GULP energy per Si atom -5590.418609 kJ/mol
# Density = 2.348399 g / cm^3
# Si number density = 23.537558 Si / 1000 Ang^3
#
#
#
# Elastic Constant Matrix: (Units=GPa)
#
#
# Indices 1 2 3 4 5 6 
#
# 1 89.1864 12.4117 57.8608 0.0000 0.0000 0.0000
# 2 12.4117 87.4925 16.2792 0.0000 0.0000 0.0000
# 3 57.8608 16.2792 137.2022 0.0000 0.0000 0.0000
# 4 0.0000 0.0000 0.0000 45.3307 0.0000 0.0000
# 5 0.0000 0.0000 0.0000 0.0000 32.6420 0.0000
# 6 0.0000 0.0000 0.0000 0.0000 0.0000 9.4321
#
#
#
# Elastic Compliance Matrix: (Units=1/GPa)
#
#
# Indices 1 2 3 4 5 6 
#
# 1 0.015522 -0.001006 -0.006426 0.000000 0.000000 0.000000
# 2 -0.001006 0.011753 -0.000970 0.000000 0.000000 0.000000
# 3 -0.006426 -0.000970 0.010114 0.000000 0.000000 0.000000
# 4 0.000000 0.000000 0.000000 0.022060 0.000000 0.000000
# 5 0.000000 0.000000 0.000000 0.000000 0.030635 0.000000
# 6 0.000000 0.000000 0.000000 0.000000 0.000000 0.106021
#
#
# Mechanical properties :
#
#
# Convention : Reuss Voigt Hill
#
# Bulk Modulus (GPa) = 48.58435 54.10939 51.34687
# Shear Modulus (GPa) = 22.75091 32.63624 27.69358
#
# Velocity S-wave (km/s) = 3.11236 3.72769 3.43384
# Velocity P-wave (km/s) = 5.79670 6.44717 6.13057
#
# Compressibility (1/GPa) = 0.02058276
#
# Stress axis : x y z
#
# Youngs Moduli (GPa) = 64.42578 85.08607 98.87503
#
# Poissons Ratio (x) = 0.08561 0.63541
# Poissons Ratio (y) = 0.06482 0.09592
# Poissons Ratio (z) = 0.41403 0.08255
#
# Static dielectric constant tensor:
#      x y z
#    x 1.783990 0.000000 0.000000 
#    y 0.000000 1.975660 0.000000 
#    z 0.000000 0.000000 1.879550 
# 
# From -- ./inp_files/15636.got.cif
#   From: 2010.05.17/outbox.cif.g08.bks.cpg/sg36_8_cif.got.tgz:15636.got - 2010.06.03 17:41:39.
