data_PCOD9350275
_publ_section_title
;
Structure prediction by ZEFSAII (Michael W. Deem and Ramdas Pophale) SiO2 
 PCOD9350275
Probable space group: C M M 2
;
_chemical_formula_sum "Si O2"
_cell_formula_units_Z 40
_cell_length_a 30.957343
_cell_length_b 8.632107
_cell_length_c 7.401064
_cell_angle_alpha 90.000000
_cell_angle_beta 90.000000
_cell_angle_gamma 90.000000
_cell_volume 1977.764849
_symmetry_space_group_name_H-M "C M M 2"
_symmetry_group_IT_number 35
_symmetry_cell_setting 'orthorhombic'
loop_
_space_group_symop_operation_xyz
x,y,z
-x,-y,z
-x,y,z
x,-y,z
1/2+x,1/2+y,z
1/2-x,1/2-y,z
1/2-x,1/2+y,z
1/2+x,1/2-y,z
loop_
_atom_site_type_symbol
_atom_site_label
_atom_site_fract_x
_atom_site_fract_y
_atom_site_fract_z
Si Si1 0.616413 0.816536 0.773560
Si Si2 0.550097 0.313764 0.492369
Si Si3 0.793903 0.815322 0.779088
Si Si4 0.115376 0.185034 0.176567
Si Si5 0.794738 0.315470 0.189911
O O1 0.576086 0.767393 0.652639
O O2 0.660217 0.735894 0.699940
O O3 0.622861 0.000000 0.772385
O O4 0.609766 0.759275 0.979158
O O5 0.500000 0.269069 0.484727
O O6 0.552413 0.500000 0.518837
O O7 0.575669 0.278827 0.307713
O O8 0.750000 0.750000 0.692644
O O9 0.791432 0.000000 0.792454
O O10 0.794973 0.740520 0.980215
O O11 0.160202 0.248010 0.260488
O O12 0.119165 0.000000 0.155364
O O13 0.794665 0.500000 0.198567
O O14 0.750000 0.250000 0.267906
#
# Coordination Sequence:
#
# PCOD9350275 Si02
#       5
#     8   8   8   8   8
#     4  11  22  37  59  88 121 155 191 234 287 346
#     4  10  23  43  64  85 111 147 193 244 295 346
#     4  10  17  29  51  80 115 153 193 234 278 333
#     4  10  20  37  61  87 116 152 194 238 285 341
#     4  10  17  28  49  79 115 152 190 231 278 335
#
# _framework density 20.22485
#
# number of rings (size 3 to 8) (size 9 to 14) (size 15 to 20)
#    0.000    1.800    0.000    9.600    0.000    2.800 
#    0.000    3.000    0.000    4.800    0.000    0.000 
#    0.000    0.000    0.000    0.000    0.000    0.000 
#
# Total GULP energy -111759.400519 kJ/mol
# GULP energy per Si atom -5587.970026 kJ/mol
# Density = 2.017882 g / cm^3
# Si number density = 20.224850 Si / 1000 Ang^3
#
#
#
# Elastic Constant Matrix: (Units=GPa)
#
#
# Indices 1 2 3 4 5 6 
#
# 1 190.3580 56.8521 47.1724 0.0000 0.0000 0.0000
# 2 56.8521 87.2939 24.5759 0.0000 0.0000 0.0000
# 3 47.1724 24.5759 80.8213 0.0000 0.0000 0.0000
# 4 0.0000 0.0000 0.0000 53.3255 0.0000 0.0000
# 5 0.0000 0.0000 0.0000 0.0000 38.3503 0.0000
# 6 0.0000 0.0000 0.0000 0.0000 0.0000 34.1477
#
#
#
# Elastic Compliance Matrix: (Units=1/GPa)
#
#
# Indices 1 2 3 4 5 6 
#
# 1 0.007133 -0.003799 -0.003008 0.000000 0.000000 0.000000
# 2 -0.003799 0.014551 -0.002207 0.000000 0.000000 0.000000
# 3 -0.003008 -0.002207 0.014800 0.000000 0.000000 0.000000
# 4 0.000000 0.000000 0.000000 0.018753 0.000000 0.000000
# 5 0.000000 0.000000 0.000000 0.000000 0.026075 0.000000
# 6 0.000000 0.000000 0.000000 0.000000 0.000000 0.029285
#
#
# Mechanical properties :
#
#
# Convention : Reuss Voigt Hill
#
# Bulk Modulus (GPa) = 54.18491 68.40823 61.29657
# Shear Modulus (GPa) = 37.09809 40.48958 38.79383
#
# Velocity S-wave (km/s) = 4.28750 4.47919 4.38439
# Velocity P-wave (km/s) = 7.16656 7.78769 7.48358
#
# Compressibility (1/GPa) = 0.01845532
#
# Stress axis : x y z
#
# Youngs Moduli (GPa) = 140.18795 68.72358 67.56735
#
# Poissons Ratio (x) = 0.26107 0.20326
# Poissons Ratio (y) = 0.53254 0.14915
# Poissons Ratio (z) = 0.42173 0.15170
#
# Static dielectric constant tensor:
#      x y z
#    x 1.750360 0.000000 0.000000 
#    y 0.000000 1.673420 0.000000 
#    z 0.000000 0.000000 1.764000 
# 
# From -- ./inp_files/5116.got.cif
#   From: 2010.05.17/outbox.cif.g08.bks.cpg/sg35_3_cif.got.tgz:5116.got - 2010.06.03 17:29:28.
