data_PCOD9350885
_publ_section_title
;
Structure prediction by ZEFSAII (Michael W. Deem and Ramdas Pophale) SiO2 
 PCOD9350885
Probable space group: C M C 21
;
_chemical_formula_sum "Si O2"
_cell_formula_units_Z 64
_cell_length_a 8.192919
_cell_length_b 14.566130
_cell_length_c 29.306905
_cell_angle_alpha 90.000000
_cell_angle_beta 90.000000
_cell_angle_gamma 90.000000
_cell_volume 3497.460347
_symmetry_space_group_name_H-M "C M C 21"
_symmetry_group_IT_number 36
_symmetry_cell_setting 'orthorhombic'
loop_
_space_group_symop_operation_xyz
x,y,z
-x,-y,1/2+z
x,-y,1/2+z
-x,y,z
1/2+x,1/2+y,z
1/2-x,1/2-y,1/2+z
1/2+x,1/2-y,1/2+z
1/2-x,1/2+y,z
loop_
_atom_site_type_symbol
_atom_site_label
_atom_site_fract_x
_atom_site_fract_y
_atom_site_fract_z
Si Si1 0.693345 0.112784 0.790340
Si Si2 0.695522 0.603347 0.536273
Si Si3 0.806525 0.738429 0.358706
Si Si4 0.196553 0.747964 0.462216
Si Si5 0.699121 0.746037 0.213586
Si Si6 0.302752 0.247491 0.609711
Si Si7 0.699421 0.394292 0.535440
Si Si8 0.806725 0.905492 0.784552
O O1 0.500000 0.127629 0.794823
O O2 0.775248 0.166083 0.832411
O O3 0.747389 0.166529 0.744406
O O4 0.728882 0.005355 0.788274
O O5 0.500000 0.602549 0.534848
O O6 0.757576 0.660478 0.492784
O O7 0.749549 0.658556 0.581225
O O8 0.755744 0.498792 0.536103
O O9 0.743190 0.742456 0.410465
O O10 0.727096 0.658183 0.328480
O O11 0.000000 0.721041 0.359690
O O12 0.253106 0.836791 0.490997
O O13 0.000000 0.753197 0.460359
O O14 0.500000 0.744528 0.212624
O O15 0.756914 0.750326 0.161643
O O16 0.751956 0.655375 0.241394
O O17 0.500000 0.248327 0.610555
O O18 0.249824 0.335256 0.579619
O O19 0.500000 0.395132 0.535266
O O20 0.000000 0.918156 0.779919
#
# Coordination Sequence:
#
# PCOD9350885 Si02
#       8
#     8   8   8   8   8   8   8   8
#     4  10  20  35  53  77 108 138 173 215 261 313
#     4  10  19  31  49  76 104 130 166 211 253 296
#     4  10  20  35  55  78 103 134 175 220 266 312
#     4   9  19  36  54  72  97 133 171 205 251 310
#     4   8  17  33  53  74  98 133 174 214 256 305
#     4   9  17  34  54  70  97 137 173 207 253 304
#     4   8  16  31  50  70  96 129 162 199 245 299
#     4  10  20  35  54  77 105 138 176 215 261 313
#
# _framework density 18.298994
#
# number of rings (size 3 to 8) (size 9 to 14) (size 15 to 20)
#    0.000    2.750    0.000    3.000    0.000    3.000 
#    0.000   11.250    0.000    0.000    0.000    0.000 
#    0.000    0.000    0.000    0.000    0.000    0.000 
#
# Total GULP energy -178450.590062 kJ/mol
# GULP energy per Si atom -5576.580939 kJ/mol
# Density = 1.825734 g / cm^3
# Si number density = 18.298994 Si / 1000 Ang^3
#
#
#
# Elastic Constant Matrix: (Units=GPa)
#
#
# Indices 1 2 3 4 5 6 
#
# 1 6.2201 -11.0929 -1.4776 0.0000 0.0000 0.0000
# 2 -11.0929 145.2423 67.9522 0.0000 0.0000 0.0000
# 3 -1.4776 67.9522 171.7561 0.0000 0.0000 0.0000
# 4 0.0000 0.0000 0.0000 5.3938 0.0000 0.0000
# 5 0.0000 0.0000 0.0000 0.0000 20.2169 0.0000
# 6 0.0000 0.0000 0.0000 0.0000 0.0000 25.5482
#
#
#
# Elastic Compliance Matrix: (Units=1/GPa)
#
#
# Indices 1 2 3 4 5 6 
#
# 1 0.189595 0.016833 -0.005029 0.000000 0.000000 0.000000
# 2 0.016833 0.009943 -0.003789 0.000000 0.000000 0.000000
# 3 -0.005029 -0.003789 0.007278 0.000000 0.000000 0.000000
# 4 0.000000 0.000000 0.000000 0.185396 0.000000 0.000000
# 5 0.000000 0.000000 0.000000 0.000000 0.049464 0.000000
# 6 0.000000 0.000000 0.000000 0.000000 0.000000 0.039142
#
#
# Mechanical properties :
#
#
# Convention : Reuss Voigt Hill
#
# Bulk Modulus (GPa) = 4.48739 48.22023 26.35381
# Shear Modulus (GPa) = 9.27524 28.08756 18.68140
#
# Velocity S-wave (km/s) = 2.25382 3.92206 3.19862
# Velocity P-wave (km/s) = 3.03818 6.84971 5.29854
#
# Compressibility (1/GPa) = 0.22284671
#
# Stress axis : x y z
#
# Youngs Moduli (GPa) = 5.27441 100.56891 137.39937
#
# Poissons Ratio (x) = -1.69288 0.69093
# Poissons Ratio (y) = -0.08878 0.52062
# Poissons Ratio (z) = 0.02652 0.38107
#
# Static dielectric constant tensor:
#      x y z
#    x 1.637800 0.000000 0.000000 
#    y 0.000000 1.603290 0.000000 
#    z 0.000000 0.000000 1.625060 
# 
# From -- ./inp_files/17340.got.cif
#   From: 2010.05.17/outbox.cif.g08.bks.cpg/sg36_9_cif.got.tgz:17340.got - 2010.06.03 17:41:39.
