data_PCOD9350409
_publ_section_title
;
Structure prediction by ZEFSAII (Michael W. Deem and Ramdas Pophale) SiO2 
 PCOD9350409
Probable space group: C M M 2
;
_chemical_formula_sum "Si O2"
_cell_formula_units_Z 56
_cell_length_a 8.765826
_cell_length_b 22.333495
_cell_length_c 14.692382
_cell_angle_alpha 90.000000
_cell_angle_beta 90.000000
_cell_angle_gamma 90.000000
_cell_volume 2876.350120
_symmetry_space_group_name_H-M "C M M 2"
_symmetry_group_IT_number 35
_symmetry_cell_setting 'orthorhombic'
loop_
_space_group_symop_operation_xyz
x,y,z
-x,-y,z
-x,y,z
x,-y,z
1/2+x,1/2+y,z
1/2-x,1/2-y,z
1/2-x,1/2+y,z
1/2+x,1/2-y,z
loop_
_atom_site_type_symbol
_atom_site_label
_atom_site_fract_x
_atom_site_fract_y
_atom_site_fract_z
Si Si1 0.184000 0.500000 0.079131
Si Si2 0.818249 0.068669 0.576489
Si Si3 0.820764 0.430198 0.774340
Si Si4 0.819189 0.313844 0.478846
Si Si5 0.183612 0.000000 0.281695
Si Si6 0.180767 0.187566 0.121166
Si Si7 0.683678 0.883280 0.964486
Si Si8 0.682847 0.630398 0.309084
O O1 0.252634 0.500000 0.179515
O O2 0.000000 0.500000 0.086454
O O3 0.230467 0.442182 0.021129
O O4 0.776057 0.075503 0.683099
O O5 0.744557 0.126167 0.527672
O O6 0.000000 0.071018 0.562013
O O7 0.768198 0.000000 0.551135
O O8 0.814596 0.500000 0.803991
O O9 0.768649 0.390596 0.859813
O O10 0.000000 0.417484 0.754366
O O11 0.750000 0.250000 0.510108
O O12 0.770265 0.324524 0.374142
O O13 0.000000 0.311562 0.488596
O O14 0.227294 0.938204 0.329914
O O15 0.000000 0.000000 0.275651
O O16 0.250000 0.250000 0.151502
O O17 0.216320 0.141641 0.202858
O O18 0.000000 0.191104 0.112964
O O19 0.251005 0.169926 0.024527
O O20 0.500000 0.880871 0.964206
O O21 0.500000 0.637487 0.322514
#
# Coordination Sequence:
#
# PCOD9350409 Si02
#       8
#     4   8   8   8   4   8   8   8
#     4  10  18  30  52  83 116 151 188 229 280 334
#     4  10  22  41  65  94 127 160 197 247 305 363
#     4   9  17  33  58  88 121 155 193 239 294 353
#     4  12  26  44  67  92 120 157 203 251 304 367
#     4  10  20  36  56  85 122 157 192 241 298 348
#     4  11  23  38  56  78 111 155 202 247 292 345
#     4  10  19  33  55  84 118 154 192 236 285 339
#     4  10  22  39  60  87 120 157 196 242 299 355
#
# _framework density 19.469118000000002
#
# number of rings (size 3 to 8) (size 9 to 14) (size 15 to 20)
#    0.000    1.714    2.143    2.571    1.000    4.286 
#    0.000    0.714    0.000    3.429    0.000    0.000 
#    0.000    0.000    0.000    0.000    0.000    0.000 
#
# Total GULP energy -156296.774611 kJ/mol
# GULP energy per Si atom -5582.027665 kJ/mol
# Density = 1.942481 g / cm^3
# Si number density = 19.469118 Si / 1000 Ang^3
#
#
#
# Elastic Constant Matrix: (Units=GPa)
#
#
# Indices 1 2 3 4 5 6 
#
# 1 44.7067 46.7362 27.8565 0.0000 0.0000 0.0000
# 2 46.7362 119.8821 37.8620 0.0000 0.0000 0.0000
# 3 27.8565 37.8620 77.8047 0.0000 0.0000 0.0000
# 4 0.0000 0.0000 0.0000 28.6606 0.0000 0.0000
# 5 0.0000 0.0000 0.0000 0.0000 27.7567 0.0000
# 6 0.0000 0.0000 0.0000 0.0000 0.0000 25.7709
#
#
#
# Elastic Compliance Matrix: (Units=1/GPa)
#
#
# Indices 1 2 3 4 5 6 
#
# 1 0.041873 -0.013694 -0.008328 0.000000 0.000000 0.000000
# 2 -0.013694 0.014335 -0.002073 0.000000 0.000000 0.000000
# 3 -0.008328 -0.002073 0.016843 0.000000 0.000000 0.000000
# 4 0.000000 0.000000 0.000000 0.034891 0.000000 0.000000
# 5 0.000000 0.000000 0.000000 0.000000 0.036027 0.000000
# 6 0.000000 0.000000 0.000000 0.000000 0.000000 0.038803
#
#
# Mechanical properties :
#
#
# Convention : Reuss Voigt Hill
#
# Bulk Modulus (GPa) = 40.22335 51.92253 46.07294
# Shear Modulus (GPa) = 20.89876 25.10023 22.99949
#
# Velocity S-wave (km/s) = 3.27988 3.59448 3.44078
# Velocity P-wave (km/s) = 5.92017 6.62979 6.28501
#
# Compressibility (1/GPa) = 0.02486118
#
# Stress axis : x y z
#
# Youngs Moduli (GPa) = 23.88196 69.76031 59.37176
#
# Poissons Ratio (x) = 0.95529 0.49444
# Poissons Ratio (y) = 0.32704 0.12307
# Poissons Ratio (z) = 0.19888 0.14460
#
# Static dielectric constant tensor:
#      x y z
#    x 1.652030 0.000000 0.000000 
#    y 0.000000 1.691330 0.000000 
#    z 0.000000 0.000000 1.669490 
# 
# From -- ./inp_files/15787.got.cif
#   From: 2010.05.17/outbox.cif.g08.bks.cpg/sg35_8_cif.got.tgz:15787.got - 2010.06.03 17:29:28.
