data_PCOD9350231
_publ_section_title
;
Structure prediction by ZEFSAII (Michael W. Deem and Ramdas Pophale) SiO2 
 PCOD9350231
Probable space group: C M M 2
;
_chemical_formula_sum "Si O2"
_cell_formula_units_Z 38
_cell_length_a 9.632278
_cell_length_b 15.190087
_cell_length_c 13.206990
_cell_angle_alpha 90.000000
_cell_angle_beta 90.000000
_cell_angle_gamma 90.000000
_cell_volume 1932.382602
_symmetry_space_group_name_H-M "C M M 2"
_symmetry_group_IT_number 35
_symmetry_cell_setting 'orthorhombic'
loop_
_space_group_symop_operation_xyz
x,y,z
-x,-y,z
-x,y,z
x,-y,z
1/2+x,1/2+y,z
1/2-x,1/2-y,z
1/2-x,1/2+y,z
1/2+x,1/2-y,z
loop_
_atom_site_type_symbol
_atom_site_label
_atom_site_fract_x
_atom_site_fract_y
_atom_site_fract_z
Si Si1 0.665552 0.500000 0.554811
Si Si2 0.500000 0.623249 0.980097
Si Si3 0.224794 0.644716 0.885756
Si Si4 0.500000 0.500000 0.168663
Si Si5 0.746679 0.000000 0.324929
Si Si6 0.836053 0.342485 0.658397
Si Si7 0.000000 0.594401 0.244519
Si Si8 0.500000 0.171704 0.037997
O O1 0.500000 0.500000 0.580476
O O2 0.683571 0.500000 0.433568
O O3 0.748624 0.414926 0.596725
O O4 0.500000 0.580100 0.089819
O O5 0.500000 0.727385 0.002582
O O6 0.368966 0.601066 0.911887
O O7 0.250000 0.750000 0.882564
O O8 0.165257 0.625199 0.775725
O O9 0.129881 0.627619 0.982835
O O10 0.363657 0.500000 0.238840
O O11 0.639824 0.917306 0.309756
O O12 0.750000 0.250000 0.652311
O O13 0.000000 0.333229 0.628756
O O14 0.000000 0.666239 0.158451
O O15 0.000000 0.500000 0.184702
#
# Coordination Sequence:
#
# PCOD9350231 Si02
#       8
#     4   4   8   2   4   8   4   4
#     4  12  26  45  69  92 126 169 223 276 330 388
#     4  10  22  30  59  82 125 161 201 242 297 373
#     4   9  19  34  56  86 127 163 195 247 304 365
#     4  12  20  40  52  86 114 160 204 258 310 362
#     4   9  22  41  62  80 117 157 197 268 332 348
#     4  11  24  43  69  98 133 170 214 264 323 390
#     4   8  20  36  62  80 109 154 192 251 303 370
#     4  10  16  38  54  89 116 161 199 239 301 367
#
# _framework density 19.664842
#
# number of rings (size 3 to 8) (size 9 to 14) (size 15 to 20)
#    0.632    1.263    1.579    2.211    8.842    0.842 
#    1.895    2.105    0.000    0.000    0.000    0.000 
#    0.000    0.000    0.000    0.000    0.000    0.000 
#
# Total GULP energy -105797.961849 kJ/mol
# GULP energy per Si atom -5568.313782 kJ/mol
# Density = 1.962008 g / cm^3
# Si number density = 19.664842 Si / 1000 Ang^3
#
#
#
# Elastic Constant Matrix: (Units=GPa)
#
#
# Indices 1 2 3 4 5 6 
#
# 1 187.1160 42.8929 44.3593 0.0000 0.0000 0.0000
# 2 42.8929 69.5229 23.6060 0.0000 0.0000 0.0000
# 3 44.3593 23.6060 84.9230 0.0000 0.0000 0.0000
# 4 0.0000 0.0000 0.0000 24.8424 0.0000 0.0000
# 5 0.0000 0.0000 0.0000 0.0000 36.3619 0.0000
# 6 0.0000 0.0000 0.0000 0.0000 0.0000 10.0598
#
#
#
# Elastic Compliance Matrix: (Units=1/GPa)
#
#
# Indices 1 2 3 4 5 6 
#
# 1 0.006706 -0.003255 -0.002598 0.000000 0.000000 0.000000
# 2 -0.003255 0.017463 -0.003154 0.000000 0.000000 0.000000
# 3 -0.002598 -0.003154 0.014009 0.000000 0.000000 0.000000
# 4 0.000000 0.000000 0.000000 0.040254 0.000000 0.000000
# 5 0.000000 0.000000 0.000000 0.000000 0.027501 0.000000
# 6 0.000000 0.000000 0.000000 0.000000 0.000000 0.099406
#
#
# Mechanical properties :
#
#
# Convention : Reuss Voigt Hill
#
# Bulk Modulus (GPa) = 49.59336 62.58646 56.08991
# Shear Modulus (GPa) = 21.73197 29.63305 25.68251
#
# Velocity S-wave (km/s) = 3.32794 3.88610 3.61780
# Velocity P-wave (km/s) = 6.32779 7.21328 6.78499
#
# Compressibility (1/GPa) = 0.02016399
#
# Stress axis : x y z
#
# Youngs Moduli (GPa) = 149.10951 57.26379 71.38177
#
# Poissons Ratio (x) = 0.18642 0.18546
# Poissons Ratio (y) = 0.48542 0.22512
# Poissons Ratio (z) = 0.38742 0.18059
#
# Static dielectric constant tensor:
#      x y z
#    x 1.693360 0.000000 0.000000 
#    y 0.000000 1.724350 0.000000 
#    z 0.000000 0.000000 1.643090 
# 
# From -- ./inp_files/11074.got.cif
#   From: 2010.05.17/outbox.cif.g08.bks.cpg/sg35_6_cif.got.tgz:11074.got - 2010.06.03 17:29:28.
