data_PCOD9350053
_publ_section_title
;
Structure prediction by ZEFSAII (Michael W. Deem and Ramdas Pophale) SiO2 
 PCOD9350053
Probable space group: C M M 2
;
_chemical_formula_sum "Si O2"
_cell_formula_units_Z 48
_cell_length_a 8.696302
_cell_length_b 17.127483
_cell_length_c 16.587935
_cell_angle_alpha 90.000000
_cell_angle_beta 90.000000
_cell_angle_gamma 90.000000
_cell_volume 2470.702663
_symmetry_space_group_name_H-M "C M M 2"
_symmetry_group_IT_number 35
_symmetry_cell_setting 'orthorhombic'
loop_
_space_group_symop_operation_xyz
x,y,z
-x,-y,z
-x,y,z
x,-y,z
1/2+x,1/2+y,z
1/2-x,1/2-y,z
1/2-x,1/2+y,z
1/2+x,1/2-y,z
loop_
_atom_site_type_symbol
_atom_site_label
_atom_site_fract_x
_atom_site_fract_y
_atom_site_fract_z
Si Si1 0.324976 0.407143 0.725550
Si Si2 0.684963 0.338817 0.051030
Si Si3 0.817007 0.662361 0.564918
Si Si4 0.317007 0.162361 0.886182
Si Si5 0.815037 0.838817 0.400070
Si Si6 0.814790 0.838233 0.225550
O O1 0.500000 0.375624 0.725549
O O2 0.331226 0.500000 0.725550
O O3 0.239929 0.379815 0.645059
O O4 0.239930 0.379815 0.806040
O O5 0.500000 0.336620 0.044514
O O6 0.750000 0.250000 0.052954
O O7 0.728331 0.374132 0.138647
O O8 0.753261 0.374477 0.969445
O O9 0.750000 0.750000 0.569091
O O10 0.753260 0.625523 0.481655
O O11 0.000000 0.665421 0.561495
O O12 0.500000 0.165421 0.889604
O O13 0.250000 0.250000 0.882010
O O14 0.750000 0.750000 0.398146
O O15 0.771669 0.874132 0.312453
O O16 0.000000 0.836620 0.406585
O O17 0.750000 0.750000 0.225550
O O18 0.000000 0.833272 0.225550
#
# Coordination Sequence:
#
# PCOD9350053 Si02
#       6
#     8   8   8   8   8   8
#     4  11  24  41  58  75  97 127 164 207 256 307
#     4   9  15  25  41  65  97 131 167 203 244 289
#     4  11  21  34  53  77 105 135 169 207 248 295
#     4  11  21  34  53  77 105 135 169 207 248 295
#     4   9  15  25  41  65  97 131 167 203 244 289
#     4   8  14  22  36  60  93 130 163 200 241 285
#
# _framework density 19.427671
#
# number of rings (size 3 to 8) (size 9 to 14) (size 15 to 20)
#    0.000    2.167    0.000    7.000    0.000    2.667 
#    0.000    0.000    0.000    0.000    0.000    1.167 
#    0.000    9.333    0.000    0.000    0.000    0.000 
#
# Total GULP energy -133771.803018 kJ/mol
# GULP energy per Si atom -5573.825126 kJ/mol
# Density = 1.938345 g / cm^3
# Si number density = 19.427671 Si / 1000 Ang^3
#
#
#
# Elastic Constant Matrix: (Units=GPa)
#
#
# Indices 1 2 3 4 5 6 
#
# 1 135.3948 12.2466 82.4981 0.0000 0.0000 0.0000
# 2 12.2466 12.8609 29.2902 0.0000 0.0000 0.0000
# 3 82.4981 29.2902 258.3489 0.0000 0.0000 0.0000
# 4 0.0000 0.0000 0.0000 -9.2301 0.0000 0.0000
# 5 0.0000 0.0000 0.0000 0.0000 40.9873 0.0000
# 6 0.0000 0.0000 0.0000 0.0000 0.0000 10.3080
#
#
#
# Elastic Compliance Matrix: (Units=1/GPa)
#
#
# Indices 1 2 3 4 5 6 
#
# 1 0.009244 -0.002804 -0.002634 0.000000 0.000000 0.000000
# 2 -0.002804 0.105670 -0.011085 0.000000 0.000000 0.000000
# 3 -0.002634 -0.011085 0.005969 0.000000 0.000000 0.000000
# 4 0.000000 0.000000 0.000000 -0.108341 0.000000 0.000000
# 5 0.000000 0.000000 0.000000 0.000000 0.024398 0.000000
# 6 0.000000 0.000000 0.000000 0.000000 0.000000 0.097012
#
#
# Mechanical properties :
#
#
# Convention : Reuss Voigt Hill
#
# Bulk Modulus (GPa) = 11.38464 72.74162 42.06313
# Shear Modulus (GPa) = 25.47416 27.25100 26.36258
#
# Velocity S-wave (km/s) = 3.62502 3.74931 3.68769
# Velocity P-wave (km/s) = 4.83671 7.50111 6.31112
#
# Compressibility (1/GPa) = 0.08783762
#
# Stress axis : x y z
#
# Youngs Moduli (GPa) = 108.17329 9.46340 167.54198
#
# Poissons Ratio (x) = 0.02653 0.44133
# Poissons Ratio (y) = 0.30329 1.85721
# Poissons Ratio (z) = 0.28494 0.10490
#
# Static dielectric constant tensor:
#      x y z
#    x 1.660770 0.000000 0.000000 
#    y 0.000000 1.633890 0.000000 
#    z 0.000000 0.000000 1.770620 
# 
# From -- ./inp_files/17822.got.cif
#   From: 2010.05.17/outbox.cif.g08.bks.cpg/sg35_9_cif.got.tgz:17822.got - 2010.06.03 17:29:28.
