data_PCOD9350344
_publ_section_title
;
Structure prediction by ZEFSAII (Michael W. Deem and Ramdas Pophale) SiO2 
 PCOD9350344
Probable space group: C M M 2
;
_chemical_formula_sum "Si O2"
_cell_formula_units_Z 56
_cell_length_a 8.997453
_cell_length_b 18.605271
_cell_length_c 19.026021
_cell_angle_alpha 90.000000
_cell_angle_beta 90.000000
_cell_angle_gamma 90.000000
_cell_volume 3184.956893
_symmetry_space_group_name_H-M "C M M 2"
_symmetry_group_IT_number 35
_symmetry_cell_setting 'orthorhombic'
loop_
_space_group_symop_operation_xyz
x,y,z
-x,-y,z
-x,y,z
x,-y,z
1/2+x,1/2+y,z
1/2-x,1/2-y,z
1/2-x,1/2+y,z
1/2+x,1/2-y,z
loop_
_atom_site_type_symbol
_atom_site_label
_atom_site_fract_x
_atom_site_fract_y
_atom_site_fract_z
Si Si1 0.673696 0.413644 0.845160
Si Si2 0.327433 0.587704 0.558833
Si Si3 0.179310 0.829231 0.266949
Si Si4 0.677103 0.828831 0.970937
Si Si5 0.670374 0.087584 0.701190
Si Si6 0.321837 0.829675 0.126954
Si Si7 0.319129 0.417516 0.405039
O O1 0.500000 0.396162 0.849964
O O2 0.690187 0.500000 0.849118
O O3 0.760298 0.377228 0.908807
O O4 0.736940 0.390054 0.769451
O O5 0.500000 0.608308 0.566944
O O6 0.323996 0.500000 0.557091
O O7 0.237183 0.611923 0.626835
O O8 0.270577 0.610686 0.481795
O O9 0.250000 0.750000 0.272221
O O10 0.245781 0.863696 0.195518
O O11 0.221956 0.872065 0.337102
O O12 0.000000 0.825187 0.261955
O O13 0.500000 0.821365 0.965053
O O14 0.750000 0.750000 0.966434
O O15 0.708277 0.860349 0.049206
O O16 0.500000 0.109729 0.708727
O O17 0.674608 0.000000 0.699801
O O18 0.500000 0.825047 0.136617
O O19 0.250000 0.750000 0.124046
O O20 0.500000 0.418411 0.408160
O O21 0.269653 0.500000 0.397072
#
# Coordination Sequence:
#
# PCOD9350344 Si02
#       7
#     8   8   8   8   8   8   8
#     4  10  20  33  50  73 100 129 162 199 239 284
#     4   8  13  24  43  64  86 114 152 195 233 272
#     4  10  18  29  48  70  93 121 154 192 231 275
#     4  10  20  34  53  74  97 126 160 199 242 288
#     4   9  16  26  42  66  95 124 155 192 235 281
#     4   9  17  30  48  69  92 120 156 194 230 273
#     4   8  15  28  46  68  92 120 155 193 232 274
#
# _framework density 17.582654999999999
#
# number of rings (size 3 to 8) (size 9 to 14) (size 15 to 20)
#    0.000    2.857    0.000    3.857    0.000    4.286 
#    0.000    2.143    0.000    6.857    0.000    4.000 
#    0.000    0.000    0.000    0.000    0.000    0.000 
#
# Total GULP energy -155942.808360 kJ/mol
# GULP energy per Si atom -5569.386013 kJ/mol
# Density = 1.754264 g / cm^3
# Si number density = 17.582655 Si / 1000 Ang^3
#
#
#
# Elastic Constant Matrix: (Units=GPa)
#
#
# Indices 1 2 3 4 5 6 
#
# 1 86.0508 20.8223 75.5886 0.0000 0.0000 0.0000
# 2 20.8223 13.2608 37.1208 0.0000 0.0000 0.0000
# 3 75.5886 37.1208 202.5796 0.0000 0.0000 0.0000
# 4 0.0000 0.0000 0.0000 37.0784 0.0000 0.0000
# 5 0.0000 0.0000 0.0000 0.0000 31.1583 0.0000
# 6 0.0000 0.0000 0.0000 0.0000 0.0000 15.7204
#
#
#
# Elastic Compliance Matrix: (Units=1/GPa)
#
#
# Indices 1 2 3 4 5 6 
#
# 1 0.019872 -0.021450 -0.003484 0.000000 0.000000 0.000000
# 2 -0.021450 0.177981 -0.024610 0.000000 0.000000 0.000000
# 3 -0.003484 -0.024610 0.010746 0.000000 0.000000 0.000000
# 4 0.000000 0.000000 0.000000 0.026970 0.000000 0.000000
# 5 0.000000 0.000000 0.000000 0.000000 0.032094 0.000000
# 6 0.000000 0.000000 0.000000 0.000000 0.000000 0.063611
#
#
# Mechanical properties :
#
#
# Convention : Reuss Voigt Hill
#
# Bulk Modulus (GPa) = 9.13145 63.21717 36.17431
# Shear Modulus (GPa) = 10.70969 28.01539 19.36254
#
# Velocity S-wave (km/s) = 2.47068 3.99601 3.32208
# Velocity P-wave (km/s) = 3.65291 7.57121 5.94420
#
# Compressibility (1/GPa) = 0.10951163
#
# Stress axis : x y z
#
# Youngs Moduli (GPa) = 50.32160 5.61856 93.05770
#
# Poissons Ratio (x) = 0.12052 0.32426
# Poissons Ratio (y) = 1.07938 2.29014
# Poissons Ratio (z) = 0.17534 0.13827
#
# Static dielectric constant tensor:
#      x y z
#    x 1.589800 0.000000 0.000000 
#    y 0.000000 1.582550 0.000000 
#    z 0.000000 0.000000 1.638790 
# 
# From -- ./inp_files/18206.got.cif
#   From: 2010.05.17/outbox.cif.g08.bks.cpg/sg35_10_cif.got.tgz:18206.got - 2010.06.03 17:29:28.
