data_PCOD9350462
_publ_section_title
;
Structure prediction by ZEFSAII (Michael W. Deem and Ramdas Pophale) SiO2 
 PCOD9350462
Probable space group: C M C 21
;
_chemical_formula_sum "Si O2"
_cell_formula_units_Z 64
_cell_length_a 27.481785
_cell_length_b 31.143611
_cell_length_c 5.470171
_cell_angle_alpha 90.000000
_cell_angle_beta 90.000000
_cell_angle_gamma 90.000000
_cell_volume 4681.821014
_symmetry_space_group_name_H-M "C M C 21"
_symmetry_group_IT_number 36
_symmetry_cell_setting 'orthorhombic'
loop_
_space_group_symop_operation_xyz
x,y,z
-x,-y,1/2+z
x,-y,1/2+z
-x,y,z
1/2+x,1/2+y,z
1/2-x,1/2-y,1/2+z
1/2+x,1/2-y,1/2+z
1/2-x,1/2+y,z
loop_
_atom_site_type_symbol
_atom_site_label
_atom_site_fract_x
_atom_site_fract_y
_atom_site_fract_z
Si Si1 0.054375 0.599059 0.263300
Si Si2 0.340978 0.020678 0.763301
Si Si3 0.383372 0.816912 0.763300
Si Si4 0.369899 0.793951 0.263300
Si Si5 0.807119 0.382083 0.263301
Si Si6 0.723648 0.734993 0.263300
Si Si7 0.054167 0.455854 0.263300
Si Si8 0.273737 0.849343 0.763301
O O1 0.095289 0.635297 0.263299
O O2 0.057914 0.572131 0.514694
O O3 0.000000 0.618520 0.263300
O O4 0.057914 0.572131 0.011907
O O5 0.332312 0.071712 0.763300
O O6 0.399331 0.013731 0.763301
O O7 0.321547 1.000000 0.513301
O O8 0.398340 0.793300 0.516236
O O9 0.324107 0.820826 0.763301
O O10 0.398340 0.793300 0.010365
O O11 0.344731 0.841815 0.263301
O O12 0.328542 0.757725 0.263299
O O13 0.777067 0.376063 0.513552
O O14 0.777066 0.376063 0.013051
O O15 0.750000 0.750000 0.513300
O O16 0.729188 0.683665 0.263301
O O17 0.000000 0.475985 0.263299
#
# Coordination Sequence:
#
# PCOD9350462 Si02
#       8
#     8   8   8   8   8   8   8   8
#     4  10  19  31  47  62  74  92 121 160 191 236
#     4  12  24  35  46  58  73  92 122 164 196 236
#     4  10  16  25  37  55  76  97 120 136 174 209
#     4  10  18  26  42  60  78 100 112 141 166 224
#     4  10  18  30  41  55  70  96 122 136 178 214
#     4  12  16  27  38  65  88  96 120 132 166 206
#     4  10  20  34  48  59  70  85 111 152 211 259
#     4  10  17  26  44  58  79 100 112 141 166 224
#
# _framework density 13.669895
#
# number of rings (size 3 to 8) (size 9 to 14) (size 15 to 20)
#    0.000    1.500    5.000    5.250    0.000    0.500 
#    0.000    0.000    0.000    0.000    0.000    0.000 
#    0.000    0.000    0.000    0.000    0.000    0.000 
#
# Total GULP energy -178387.525891 kJ/mol
# GULP energy per Si atom -5574.610184 kJ/mol
# Density = 1.363878 g / cm^3
# Si number density = 13.669895 Si / 1000 Ang^3
#
#
#
# Elastic Constant Matrix: (Units=GPa)
#
#
# Indices 1 2 3 4 5 6 
#
# 1 12.6036 21.1976 12.3581 0.0000 0.0000 0.0000
# 2 21.1976 52.2965 24.5189 0.0000 0.0000 0.0000
# 3 12.3581 24.5189 153.7711 0.0000 0.0000 0.0000
# 4 0.0000 0.0000 0.0000 24.1088 0.0000 0.0000
# 5 0.0000 0.0000 0.0000 0.0000 12.3344 0.0000
# 6 0.0000 0.0000 0.0000 0.0000 0.0000 15.6679
#
#
#
# Elastic Compliance Matrix: (Units=1/GPa)
#
#
# Indices 1 2 3 4 5 6 
#
# 1 0.251866 -0.100081 -0.004284 0.000000 0.000000 0.000000
# 2 -0.100081 0.060435 -0.001593 0.000000 0.000000 0.000000
# 3 -0.004284 -0.001593 0.007101 0.000000 0.000000 0.000000
# 4 0.000000 0.000000 0.000000 0.041479 0.000000 0.000000
# 5 0.000000 0.000000 0.000000 0.000000 0.081074 0.000000
# 6 0.000000 0.000000 0.000000 0.000000 0.000000 0.063825
#
#
# Mechanical properties :
#
#
# Convention : Reuss Voigt Hill
#
# Bulk Modulus (GPa) = 9.30356 37.20227 23.25291
# Shear Modulus (GPa) = 6.63548 21.12865 13.88207
#
# Velocity S-wave (km/s) = 2.20559 3.93572 3.19018
# Velocity P-wave (km/s) = 3.64785 6.92293 5.53326
#
# Compressibility (1/GPa) = 0.10748577
#
# Stress axis : x y z
#
# Youngs Moduli (GPa) = 3.97037 16.54668 140.81591
#
# Poissons Ratio (x) = 1.65602 0.60322
# Poissons Ratio (y) = 0.39736 0.22434
# Poissons Ratio (z) = 0.01701 0.02636
#
# Static dielectric constant tensor:
#      x y z
#    x 1.431260 0.000000 0.000000 
#    y 0.000000 1.443800 0.000000 
#    z 0.000000 0.000000 1.554490 
# 
# From -- ./inp_files/1835.got.cif
#   From: 2010.05.17/outbox.cif.g08.bks.cpg/sg36_1_cif.got.tgz:1835.got - 2010.06.03 17:41:39.
