data_PCOD9350929
_publ_section_title
;
Structure prediction by ZEFSAII (Michael W. Deem and Ramdas Pophale) SiO2 
 PCOD9350929
Probable space group: C M C 21
;
_chemical_formula_sum "Si O2"
_cell_formula_units_Z 64
_cell_length_a 9.513216
_cell_length_b 27.414963
_cell_length_c 13.447665
_cell_angle_alpha 90.000000
_cell_angle_beta 90.000000
_cell_angle_gamma 90.000000
_cell_volume 3507.211071
_symmetry_space_group_name_H-M "C M C 21"
_symmetry_group_IT_number 36
_symmetry_cell_setting 'orthorhombic'
loop_
_space_group_symop_operation_xyz
x,y,z
-x,-y,1/2+z
x,-y,1/2+z
-x,y,z
1/2+x,1/2+y,z
1/2-x,1/2-y,1/2+z
1/2+x,1/2-y,1/2+z
1/2-x,1/2+y,z
loop_
_atom_site_type_symbol
_atom_site_label
_atom_site_fract_x
_atom_site_fract_y
_atom_site_fract_z
Si Si1 0.828221 0.553323 0.080660
Si Si2 0.842313 0.770033 0.178101
Si Si3 0.160799 0.697495 0.361020
Si Si4 0.163058 0.730598 0.973072
Si Si5 0.829233 0.410340 0.797487
Si Si6 0.829002 0.374905 0.402999
Si Si7 0.828810 0.554322 0.512803
Si Si8 0.830640 0.632216 0.678960
O O1 0.780412 0.569922 0.190586
O O2 0.000000 0.554654 0.081650
O O3 0.782503 0.588943 0.990774
O O4 0.786034 0.498166 0.055037
O O5 0.834900 0.739626 0.278621
O O6 0.733502 0.813891 0.172317
O O7 0.000000 0.790888 0.167723
O O8 0.826970 0.729901 0.091634
O O9 0.259116 0.719806 0.444336
O O10 0.206693 0.646307 0.315113
O O11 0.000000 0.691235 0.396696
O O12 0.218938 0.680356 0.926980
O O13 0.000000 0.734538 0.943258
O O14 0.783259 0.437644 0.898546
O O15 0.000000 0.413277 0.794738
O O16 0.791252 0.387835 0.289326
O O17 0.000000 0.374423 0.407153
O O18 0.784937 0.597343 0.588380
O O19 0.000000 0.555207 0.511802
O O20 0.000000 0.635193 0.675912
#
# Coordination Sequence:
#
# PCOD9350929 Si02
#       8
#     8   8   8   8   8   8   8   8
#     4   9  17  28  45  68  98 132 162 199 249 300
#     4  10  20  32  49  72 100 134 172 203 238 295
#     4  10  19  32  49  71 100 133 165 200 247 294
#     4  10  19  32  49  72 100 134 170 202 240 294
#     4   9  17  29  43  64  97 131 162 199 244 297
#     4   9  17  29  46  68  97 131 162 198 246 295
#     4   9  18  28  44  70  98 128 161 201 252 300
#     4  10  19  32  50  75 104 129 162 208 254 295
#
# _framework density 18.248117000000001
#
# number of rings (size 3 to 8) (size 9 to 14) (size 15 to 20)
#    0.000    2.500    1.250    1.500    1.750    4.500 
#    0.000    0.000    0.000    0.000    0.000    2.625 
#    0.000    0.000    0.000    0.000    0.000    0.000 
#
# Total GULP energy -178245.211581 kJ/mol
# GULP energy per Si atom -5570.162862 kJ/mol
# Density = 1.820658 g / cm^3
# Si number density = 18.248117 Si / 1000 Ang^3
#
#
#
# Elastic Constant Matrix: (Units=GPa)
#
#
# Indices 1 2 3 4 5 6 
#
# 1 4.2775 8.6895 8.0941 0.0000 0.0000 0.0000
# 2 8.6895 89.5815 32.5501 0.0000 0.0000 0.0000
# 3 8.0941 32.5501 106.7154 0.0000 0.0000 0.0000
# 4 0.0000 0.0000 0.0000 27.6623 0.0000 0.0000
# 5 0.0000 0.0000 0.0000 0.0000 10.6981 0.0000
# 6 0.0000 0.0000 0.0000 0.0000 0.0000 13.2167
#
#
#
# Elastic Compliance Matrix: (Units=1/GPa)
#
#
# Indices 1 2 3 4 5 6 
#
# 1 0.314686 -0.024576 -0.016372 0.000000 0.000000 0.000000
# 2 -0.024576 0.014474 -0.002551 0.000000 0.000000 0.000000
# 3 -0.016372 -0.002551 0.011391 0.000000 0.000000 0.000000
# 4 0.000000 0.000000 0.000000 0.036150 0.000000 0.000000
# 5 0.000000 0.000000 0.000000 0.000000 0.093475 0.000000
# 6 0.000000 0.000000 0.000000 0.000000 0.000000 0.075662
#
#
# Mechanical properties :
#
#
# Convention : Reuss Voigt Hill
#
# Bulk Modulus (GPa) = 3.94395 33.24908 18.59651
# Shear Modulus (GPa) = 6.97007 20.39811 13.68409
#
# Velocity S-wave (km/s) = 1.95650 3.34701 2.74138
# Velocity P-wave (km/s) = 2.69627 5.76166 4.49814
#
# Compressibility (1/GPa) = 0.25355304
#
# Stress axis : x y z
#
# Youngs Moduli (GPa) = 3.17777 69.09071 87.79229
#
# Poissons Ratio (x) = 1.69796 1.43735
# Poissons Ratio (y) = 0.07810 0.22393
# Poissons Ratio (z) = 0.05203 0.17623
#
# Static dielectric constant tensor:
#      x y z
#    x 1.623240 0.000000 0.000000 
#    y 0.000000 1.618000 0.000000 
#    z 0.000000 0.000000 1.664580 
# 
# From -- ./inp_files/7183.got.cif
#   From: 2010.05.17/outbox.cif.g08.bks.cpg/sg36_4_cif.got.tgz:7183.got - 2010.06.03 17:41:39.
