data_PCOD9350292
_publ_section_title
;
Structure prediction by ZEFSAII (Michael W. Deem and Ramdas Pophale) SiO2 
 PCOD9350292
Probable space group: C M M 2
;
_chemical_formula_sum "Si O2"
_cell_formula_units_Z 64
_cell_length_a 19.621032
_cell_length_b 17.196359
_cell_length_c 10.514205
_cell_angle_alpha 90.000000
_cell_angle_beta 90.000000
_cell_angle_gamma 90.000000
_cell_volume 3547.601171
_symmetry_space_group_name_H-M "C M M 2"
_symmetry_group_IT_number 35
_symmetry_cell_setting 'orthorhombic'
loop_
_space_group_symop_operation_xyz
x,y,z
-x,-y,z
-x,y,z
x,-y,z
1/2+x,1/2+y,z
1/2-x,1/2-y,z
1/2-x,1/2+y,z
1/2+x,1/2-y,z
loop_
_atom_site_type_symbol
_atom_site_label
_atom_site_fract_x
_atom_site_fract_y
_atom_site_fract_z
Si Si1 0.577671 0.169839 0.264020
Si Si2 0.922620 0.910325 0.090338
Si Si3 0.718776 0.663982 0.096449
Si Si4 0.778247 0.837101 0.403655
Si Si5 0.925379 0.154746 0.359018
Si Si6 0.850938 0.591089 0.027870
Si Si7 0.852489 0.408675 0.504945
Si Si8 0.078640 0.594606 0.764981
O O1 0.500000 0.145358 0.244780
O O2 0.579624 0.262076 0.286154
O O3 0.620603 0.141397 0.144624
O O4 0.607297 0.132938 0.391718
O O5 0.858683 0.855226 0.054774
O O6 0.923222 0.906887 0.244734
O O7 0.000000 0.886250 0.051290
O O8 0.911511 0.000000 0.050914
O O9 0.750000 0.750000 0.072783
O O10 0.723534 0.650914 0.250015
O O11 0.770279 0.604926 0.028399
O O12 0.750000 0.750000 0.425122
O O13 0.856992 0.848591 0.440999
O O14 0.726489 0.892450 0.476776
O O15 0.000000 0.151540 0.421723
O O16 0.866378 0.500000 0.049413
O O17 0.885856 0.616885 0.896881
O O18 0.866282 0.500000 0.497131
O O19 0.879315 0.379874 0.641113
O O20 0.078439 0.500000 0.763822
O O21 0.000000 0.620162 0.758561
#
# Coordination Sequence:
#
# PCOD9350292 Si02
#       8
#     8   8   8   8   8   8   8   8
#     4  11  20  31  51  80 108 137 171 210 259 315
#     4   9  17  29  47  72 104 142 177 210 257 317
#     4  10  19  32  51  76 111 138 167 221 275 316
#     4  10  17  31  49  72 104 136 164 212 267 309
#     4   9  18  31  48  74 108 141 168 207 267 318
#     4  11  20  32  51  77 105 142 181 217 260 311
#     4  11  21  33  52  77 100 135 178 217 260 308
#     4   9  20  37  51  69 107 147 174 210 262 317
#
# _framework density 18.040358999999999
#
# number of rings (size 3 to 8) (size 9 to 14) (size 15 to 20)
#    0.000    2.000    2.500    3.000    0.000    4.000 
#    0.000    1.250    0.000    0.000    0.000    0.875 
#    0.000    3.000    0.000    0.000    0.000    1.000 
#
# Total GULP energy -178367.253120 kJ/mol
# GULP energy per Si atom -5573.976660 kJ/mol
# Density = 1.799930 g / cm^3
# Si number density = 18.040359 Si / 1000 Ang^3
#
#
#
# Elastic Constant Matrix: (Units=GPa)
#
#
# Indices 1 2 3 4 5 6 
#
# 1 151.0838 15.4774 14.4658 0.0000 0.0000 0.0000
# 2 15.4774 45.9720 12.1992 0.0000 0.0000 0.0000
# 3 14.4658 12.1992 53.9409 0.0000 0.0000 0.0000
# 4 0.0000 0.0000 0.0000 44.9512 0.0000 0.0000
# 5 0.0000 0.0000 0.0000 0.0000 10.6129 0.0000
# 6 0.0000 0.0000 0.0000 0.0000 0.0000 24.8592
#
#
#
# Elastic Compliance Matrix: (Units=1/GPa)
#
#
# Indices 1 2 3 4 5 6 
#
# 1 0.006956 -0.001965 -0.001421 0.000000 0.000000 0.000000
# 2 -0.001965 0.023696 -0.004832 0.000000 0.000000 0.000000
# 3 -0.001421 -0.004832 0.020013 0.000000 0.000000 0.000000
# 4 0.000000 0.000000 0.000000 0.022246 0.000000 0.000000
# 5 0.000000 0.000000 0.000000 0.000000 0.094225 0.000000
# 6 0.000000 0.000000 0.000000 0.000000 0.000000 0.040227
#
#
# Mechanical properties :
#
#
# Convention : Reuss Voigt Hill
#
# Bulk Modulus (GPa) = 29.21513 37.25350 33.23431
# Shear Modulus (GPa) = 21.25771 30.00828 25.63299
#
# Velocity S-wave (km/s) = 3.43642 4.08290 3.77353
# Velocity P-wave (km/s) = 5.65463 6.55146 6.11950
#
# Compressibility (1/GPa) = 0.03422884
#
# Stress axis : x y z
#
# Youngs Moduli (GPa) = 143.75669 42.20095 49.96817
#
# Poissons Ratio (x) = 0.08292 0.07101
# Poissons Ratio (y) = 0.28246 0.24145
# Poissons Ratio (z) = 0.20430 0.20392
#
# Static dielectric constant tensor:
#      x y z
#    x 1.697840 0.000000 0.000000 
#    y 0.000000 1.593960 0.000000 
#    z 0.000000 0.000000 1.582590 
# 
# From -- ./inp_files/9443.got.cif
#   From: 2010.05.17/outbox.cif.g08.bks.cpg/sg35_5_cif.got.tgz:9443.got - 2010.06.03 17:29:28.
