data_PCOD9350768
_publ_section_title
;
Structure prediction by ZEFSAII (Michael W. Deem and Ramdas Pophale) SiO2 
 PCOD9350768
Probable space group: C M C 21
;
_chemical_formula_sum "Si O2"
_cell_formula_units_Z 56
_cell_length_a 13.030989
_cell_length_b 9.840294
_cell_length_c 19.822690
_cell_angle_alpha 90.000000
_cell_angle_beta 90.000000
_cell_angle_gamma 90.000000
_cell_volume 2541.839015
_symmetry_space_group_name_H-M "C M C 21"
_symmetry_group_IT_number 36
_symmetry_cell_setting 'orthorhombic'
loop_
_space_group_symop_operation_xyz
x,y,z
-x,-y,1/2+z
x,-y,1/2+z
-x,y,z
1/2+x,1/2+y,z
1/2-x,1/2-y,1/2+z
1/2+x,1/2-y,1/2+z
1/2-x,1/2+y,z
loop_
_atom_site_type_symbol
_atom_site_label
_atom_site_fract_x
_atom_site_fract_y
_atom_site_fract_z
Si Si1 0.615537 0.691763 0.515300
Si Si2 0.336771 0.724767 0.026761
Si Si3 0.118830 0.636759 0.286819
Si Si4 0.386866 0.045331 0.432686
Si Si5 0.718804 0.418985 0.264673
Si Si6 0.835483 0.025982 0.911034
Si Si7 0.113684 0.971317 0.634948
O O1 0.500000 0.746001 0.520148
O O2 0.713256 0.784612 0.529254
O O3 0.633517 0.619110 0.442783
O O4 0.625028 0.576010 0.572805
O O5 0.368088 0.874014 0.002046
O O6 0.379552 0.630847 0.965808
O O7 0.374131 0.673472 0.098628
O O8 0.117330 0.647163 0.368400
O O9 0.168813 0.487562 0.274766
O O10 0.193456 0.757527 0.260707
O O11 0.000000 0.649012 0.263294
O O12 0.500000 0.983502 0.430749
O O13 0.287486 0.955634 0.419426
O O14 0.651154 0.462224 0.331024
O O15 0.685754 0.488065 0.195316
O O16 0.000000 0.984794 0.662705
#
# Coordination Sequence:
#
# PCOD9350768 Si02
#       7
#     8   8   8   8   8   8   8
#     4   9  20  36  56  83 114 151 197 247 301 365
#     4  10  18  35  56  80 112 151 194 251 303 360
#     4  10  22  40  65  93 124 165 209 257 316 374
#     4   9  17  32  56  81 111 152 195 243 304 366
#     4  11  22  40  65  91 128 164 208 261 315 375
#     4   9  19  34  56  83 115 148 197 252 303 358
#     4  10  22  37  56  83 114 153 200 249 306 372
#
# _framework density 22.031291
#
# number of rings (size 3 to 8) (size 9 to 14) (size 15 to 20)
#    0.000    2.286    1.429    0.857    2.000    2.286 
#    0.000    1.429    0.000    0.857    0.000    0.000 
#    0.000    0.000    0.000    0.000    0.000    0.000 
#
# Total GULP energy -155913.082603 kJ/mol
# GULP energy per Si atom -5568.324379 kJ/mol
# Density = 2.198115 g / cm^3
# Si number density = 22.031291 Si / 1000 Ang^3
#
#
#
# Elastic Constant Matrix: (Units=GPa)
#
#
# Indices 1 2 3 4 5 6 
#
# 1 110.6470 21.5311 17.0106 0.0000 0.0000 0.0000
# 2 21.5311 46.0867 0.2345 0.0000 0.0000 0.0000
# 3 17.0106 0.2345 54.4307 0.0000 0.0000 0.0000
# 4 0.0000 0.0000 0.0000 12.8768 0.0000 0.0000
# 5 0.0000 0.0000 0.0000 0.0000 13.5503 0.0000
# 6 0.0000 0.0000 0.0000 0.0000 0.0000 11.5308
#
#
#
# Elastic Compliance Matrix: (Units=1/GPa)
#
#
# Indices 1 2 3 4 5 6 
#
# 1 0.010489 -0.004884 -0.003257 0.000000 0.000000 0.000000
# 2 -0.004884 0.023973 0.001423 0.000000 0.000000 0.000000
# 3 -0.003257 0.001423 0.019384 0.000000 0.000000 0.000000
# 4 0.000000 0.000000 0.000000 0.077659 0.000000 0.000000
# 5 0.000000 0.000000 0.000000 0.000000 0.073799 0.000000
# 6 0.000000 0.000000 0.000000 0.000000 0.000000 0.086724
#
#
# Mechanical properties :
#
#
# Convention : Reuss Voigt Hill
#
# Bulk Modulus (GPa) = 24.74644 32.07965 28.41305
# Shear Modulus (GPa) = 15.67729 19.08411 17.38070
#
# Velocity S-wave (km/s) = 2.67046 2.94637 2.81180
# Velocity P-wave (km/s) = 4.55689 5.11540 4.84420
#
# Compressibility (1/GPa) = 0.04040985
#
# Stress axis : x y z
#
# Youngs Moduli (GPa) = 95.33989 41.71431 51.58975
#
# Poissons Ratio (x) = 0.20372 0.16802
# Poissons Ratio (y) = 0.46561 -0.07341
# Poissons Ratio (z) = 0.31051 -0.05936
#
# Static dielectric constant tensor:
#      x y z
#    x 1.834540 0.000000 0.000000 
#    y 0.000000 1.892810 0.000000 
#    z 0.000000 0.000000 1.796070 
# 
# From -- ./inp_files/15957.got.cif
#   From: 2010.05.17/outbox.cif.g08.bks.cpg/sg36_8_cif.got.tgz:15957.got - 2010.06.03 17:41:39.
