data_PCOD9350477
_publ_section_title
;
Structure prediction by ZEFSAII (Michael W. Deem and Ramdas Pophale) SiO2 
 PCOD9350477
Probable space group: C M C 21
;
_chemical_formula_sum "Si O2"
_cell_formula_units_Z 64
_cell_length_a 7.609860
_cell_length_b 13.482794
_cell_length_c 22.389444
_cell_angle_alpha 90.000000
_cell_angle_beta 90.000000
_cell_angle_gamma 90.000000
_cell_volume 2297.205646
_symmetry_space_group_name_H-M "C M C 21"
_symmetry_group_IT_number 36
_symmetry_cell_setting 'orthorhombic'
loop_
_space_group_symop_operation_xyz
x,y,z
-x,-y,1/2+z
x,-y,1/2+z
-x,y,z
1/2+x,1/2+y,z
1/2-x,1/2-y,1/2+z
1/2+x,1/2-y,1/2+z
1/2-x,1/2+y,z
loop_
_atom_site_type_symbol
_atom_site_label
_atom_site_fract_x
_atom_site_fract_y
_atom_site_fract_z
Si Si1 0.701276 0.086700 0.308560
Si Si2 0.295004 0.681954 0.840445
Si Si3 0.296442 0.276720 0.465905
Si Si4 0.711148 0.216807 0.589012
Si Si5 0.711636 0.991152 0.559549
Si Si6 0.788678 0.859726 0.208057
Si Si7 0.797263 0.944353 0.936205
Si Si8 0.700275 0.074856 0.178671
O O1 0.500000 0.056378 0.299116
O O2 0.703821 0.199907 0.328837
O O3 0.765971 0.027072 0.366686
O O4 0.789086 0.091371 0.243192
O O5 0.500000 0.651206 0.844114
O O6 0.212834 0.676009 0.906356
O O7 0.225922 0.645797 0.776568
O O8 0.500000 0.309329 0.468742
O O9 0.215470 0.278326 0.532232
O O10 0.304011 0.157370 0.451390
O O11 0.500000 0.217799 0.584185
O O12 0.774533 0.104038 0.573568
O O13 0.753814 0.228408 0.659938
O O14 0.500000 0.988164 0.564096
O O15 0.758039 0.979252 0.489806
O O16 0.783949 0.919565 0.612406
O O17 0.691558 0.954675 0.182559
O O18 0.000000 0.871897 0.209375
O O19 0.000000 0.918307 0.939941
O O20 0.500000 0.114228 0.178953
#
# Coordination Sequence:
#
# PCOD9350477 Si02
#       8
#     8   8   8   8   8   8   8   8
#     4   9  17  32  50  64  84 117 154 185 212 253
#     4   8  15  28  46  66  85 112 147 176 211 258
#     4   8  14  27  44  59  80 113 151 183 208 246
#     4   8  14  25  42  62  83 110 146 183 212 246
#     4   8  14  26  42  61  84 111 145 181 216 255
#     4  10  18  27  43  67  94 117 136 172 224 270
#     4  10  17  24  39  66  92 111 138 180 227 263
#     4   9  18  31  48  67  86 115 153 186 214 251
#
# _framework density 27.859936999999999
#
# number of rings (size 3 to 8) (size 9 to 14) (size 15 to 20)
#    0.000    3.250    0.000    3.750    0.000    5.000 
#    0.000    5.000    0.000    1.500    0.000    5.250 
#    0.000    0.000    0.000    0.000    0.000    0.000 
#
# Total GULP energy -178626.062195 kJ/mol
# GULP energy per Si atom -5582.064444 kJ/mol
# Density = 2.779653 g / cm^3
# Si number density = 27.859937 Si / 1000 Ang^3
#
#
#
# Elastic Constant Matrix: (Units=GPa)
#
#
# Indices 1 2 3 4 5 6 
#
# 1 99.0862 5.6160 16.1996 0.0000 0.0000 0.0000
# 2 5.6160 45.6439 40.5845 0.0000 0.0000 0.0000
# 3 16.1996 40.5845 330.6604 0.0000 0.0000 0.0000
# 4 0.0000 0.0000 0.0000 72.1451 0.0000 0.0000
# 5 0.0000 0.0000 0.0000 0.0000 24.4823 0.0000
# 6 0.0000 0.0000 0.0000 0.0000 0.0000 18.1129
#
#
#
# Elastic Compliance Matrix: (Units=1/GPa)
#
#
# Indices 1 2 3 4 5 6 
#
# 1 0.010207 -0.000911 -0.000388 0.000000 0.000000 0.000000
# 2 -0.000911 0.024674 -0.002984 0.000000 0.000000 0.000000
# 3 -0.000388 -0.002984 0.003409 0.000000 0.000000 0.000000
# 4 0.000000 0.000000 0.000000 0.013861 0.000000 0.000000
# 5 0.000000 0.000000 0.000000 0.000000 0.040846 0.000000
# 6 0.000000 0.000000 0.000000 0.000000 0.000000 0.055209
#
#
# Mechanical properties :
#
#
# Convention : Reuss Voigt Hill
#
# Bulk Modulus (GPa) = 33.64149 66.68785 50.16467
# Shear Modulus (GPa) = 29.99749 50.48075 40.23912
#
# Velocity S-wave (km/s) = 3.28491 4.26132 3.80457
# Velocity P-wave (km/s) = 5.14674 6.94266 6.11103
#
# Compressibility (1/GPa) = 0.02972520
#
# Stress axis : x y z
#
# Youngs Moduli (GPa) = 97.96888 40.52873 293.29827
#
# Poissons Ratio (x) = 0.03691 0.11389
# Poissons Ratio (y) = 0.08921 0.87514
# Poissons Ratio (z) = 0.03804 0.12093
#
# Static dielectric constant tensor:
#      x y z
#    x 2.163400 0.000000 0.000000 
#    y 0.000000 2.313150 0.000000 
#    z 0.000000 0.000000 2.351120 
# 
# From -- ./inp_files/15830.got.cif
#   From: 2010.05.17/outbox.cif.g08.bks.cpg/sg36_8_cif.got.tgz:15830.got - 2010.06.03 17:41:39.
