data_PCOD9350441
_publ_section_title
;
Structure prediction by ZEFSAII (Michael W. Deem and Ramdas Pophale) SiO2 
 PCOD9350441
Probable space group: C M M 2
;
_chemical_formula_sum "Si O2"
_cell_formula_units_Z 64
_cell_length_a 8.734635
_cell_length_b 30.255112
_cell_length_c 12.471701
_cell_angle_alpha 90.000000
_cell_angle_beta 90.000000
_cell_angle_gamma 90.000000
_cell_volume 3295.863501
_symmetry_space_group_name_H-M "C M M 2"
_symmetry_group_IT_number 35
_symmetry_cell_setting 'orthorhombic'
loop_
_space_group_symop_operation_xyz
x,y,z
-x,-y,z
-x,y,z
x,-y,z
1/2+x,1/2+y,z
1/2-x,1/2-y,z
1/2-x,1/2+y,z
1/2+x,1/2-y,z
loop_
_atom_site_type_symbol
_atom_site_label
_atom_site_fract_x
_atom_site_fract_y
_atom_site_fract_z
Si Si1 0.680022 0.568190 0.328930
Si Si2 0.682279 0.293638 0.202384
Si Si3 0.315027 0.451243 0.571790
Si Si4 0.317404 0.048554 0.098110
Si Si5 0.179230 0.659428 0.385896
Si Si6 0.683665 0.299622 0.822299
Si Si7 0.183333 0.862079 0.018710
Si Si8 0.319172 0.857419 0.632461
O O1 0.500000 0.559680 0.315271
O O2 0.728466 0.549393 0.445006
O O3 0.764013 0.552665 0.222069
O O4 0.714560 0.619818 0.344071
O O5 0.500000 0.290522 0.215367
O O6 0.750000 0.250000 0.148195
O O7 0.769027 0.299722 0.314638
O O8 0.718156 0.335159 0.126974
O O9 0.500000 0.446933 0.575988
O O10 0.273417 0.500000 0.615055
O O11 0.242837 0.407955 0.626379
O O12 0.500000 0.050850 0.095937
O O13 0.252446 0.089360 0.030480
O O14 0.267861 0.000000 0.058837
O O15 0.201708 0.662330 0.512855
O O16 0.000000 0.649146 0.367110
O O17 0.500000 0.296232 0.826451
O O18 0.750000 0.250000 0.826373
O O19 0.734617 0.326265 0.716654
O O20 0.735100 0.331039 0.920947
O O21 0.000000 0.866494 0.011035
O O22 0.500000 0.858393 0.655896
#
# Coordination Sequence:
#
# PCOD9350441 Si02
#       8
#     8   8   8   8   8   8   8   8
#     4  10  18  31  53  82 118 161 203 243 289 347
#     4  11  22  36  57  86 118 154 193 236 295 361
#     4   9  18  33  55  85 121 162 205 246 293 351
#     4  11  23  36  55  86 122 161 202 243 292 349
#     4  10  20  35  55  83 120 159 196 241 295 350
#     4  11  24  44  69  93 116 149 198 250 304 361
#     4  10  23  42  63  88 117 152 197 247 298 354
#     4  10  22  39  60  88 121 156 199 249 300 353
#
# _framework density 19.418279999999999
#
# number of rings (size 3 to 8) (size 9 to 14) (size 15 to 20)
#    0.000    1.750    1.250    3.000    0.000    5.750 
#    0.000    0.625    0.000    0.750    0.000    0.000 
#    0.000    0.000    0.000    0.000    0.000    0.000 
#
# Total GULP energy -178624.973343 kJ/mol
# GULP energy per Si atom -5582.030417 kJ/mol
# Density = 1.937408 g / cm^3
# Si number density = 19.418280 Si / 1000 Ang^3
#
#
#
# Elastic Constant Matrix: (Units=GPa)
#
#
# Indices 1 2 3 4 5 6 
#
# 1 37.5622 42.6788 33.0894 0.0000 0.0000 0.0000
# 2 42.6788 163.2895 58.9561 0.0000 0.0000 0.0000
# 3 33.0894 58.9561 73.1000 0.0000 0.0000 0.0000
# 4 0.0000 0.0000 0.0000 11.0354 0.0000 0.0000
# 5 0.0000 0.0000 0.0000 0.0000 20.7692 0.0000
# 6 0.0000 0.0000 0.0000 0.0000 0.0000 30.5499
#
#
#
# Elastic Compliance Matrix: (Units=1/GPa)
#
#
# Indices 1 2 3 4 5 6 
#
# 1 0.049081 -0.006782 -0.016748 0.000000 0.000000 0.000000
# 2 -0.006782 0.009577 -0.004654 0.000000 0.000000 0.000000
# 3 -0.016748 -0.004654 0.025015 0.000000 0.000000 0.000000
# 4 0.000000 0.000000 0.000000 0.090617 0.000000 0.000000
# 5 0.000000 0.000000 0.000000 0.000000 0.048148 0.000000
# 6 0.000000 0.000000 0.000000 0.000000 0.000000 0.032733
#
#
# Mechanical properties :
#
#
# Convention : Reuss Voigt Hill
#
# Bulk Modulus (GPa) = 36.62209 60.37782 48.49995
# Shear Modulus (GPa) = 15.59378 21.75272 18.67325
#
# Velocity S-wave (km/s) = 2.83688 3.35060 3.10438
# Velocity P-wave (km/s) = 5.44344 6.79187 6.15469
#
# Compressibility (1/GPa) = 0.02730592
#
# Stress axis : x y z
#
# Youngs Moduli (GPa) = 20.37436 104.41669 39.97664
#
# Poissons Ratio (x) = 0.70811 0.66952
# Poissons Ratio (y) = 0.13817 0.18606
# Poissons Ratio (z) = 0.34122 0.48598
#
# Static dielectric constant tensor:
#      x y z
#    x 1.656810 0.000000 0.000000 
#    y 0.000000 1.761720 0.000000 
#    z 0.000000 0.000000 1.681670 
# 
# From -- ./inp_files/12000.got.cif
#   From: 2010.05.17/outbox.cif.g08.bks.cpg/sg35_6_cif.got.tgz:12000.got - 2010.06.03 17:29:28.
