data_PCOD9350751
_publ_section_title
;
Structure prediction by ZEFSAII (Michael W. Deem and Ramdas Pophale) SiO2 
 PCOD9350751
Probable space group: C M C 21
;
_chemical_formula_sum "Si O2"
_cell_formula_units_Z 64
_cell_length_a 28.140550
_cell_length_b 21.914009
_cell_length_c 5.548256
_cell_angle_alpha 90.000000
_cell_angle_beta 90.000000
_cell_angle_gamma 90.000000
_cell_volume 3421.455600
_symmetry_space_group_name_H-M "C M C 21"
_symmetry_group_IT_number 36
_symmetry_cell_setting 'orthorhombic'
loop_
_space_group_symop_operation_xyz
x,y,z
-x,-y,1/2+z
x,-y,1/2+z
-x,y,z
1/2+x,1/2+y,z
1/2-x,1/2-y,1/2+z
1/2+x,1/2-y,1/2+z
1/2-x,1/2+y,z
loop_
_atom_site_type_symbol
_atom_site_label
_atom_site_fract_x
_atom_site_fract_y
_atom_site_fract_z
Si Si1 0.600896 0.750000 0.708120
Si Si2 0.220983 0.250000 0.208120
Si Si3 0.146756 0.840552 0.574275
Si Si4 0.806875 0.464702 0.470979
Si Si5 0.447457 0.318199 0.825500
Si Si6 0.806875 0.035298 0.945260
Si Si7 0.353244 0.840552 0.341965
Si Si8 0.052543 0.681801 0.590740
O O1 0.567050 0.698252 0.596585
O O2 0.633737 0.785506 0.521984
O O3 0.633737 0.714495 0.894256
O O4 0.567050 0.801748 0.819655
O O5 0.250000 0.257206 0.458120
O O6 0.188023 0.189600 0.235493
O O7 0.188023 0.310400 0.180747
O O8 0.097324 0.852683 0.712662
O O9 0.166378 0.900387 0.449430
O O10 0.818325 0.499957 0.720115
O O11 0.750000 0.454666 0.458120
O O12 0.833621 0.400387 0.466810
O O13 0.500000 0.344745 0.799760
O O14 0.448283 0.250000 0.708120
O O15 0.818325 0.000043 0.696125
O O16 0.402676 0.852683 0.203578
O O17 0.000000 0.655255 0.616480
#
# Coordination Sequence:
#
# PCOD9350751 Si02
#       8
#     8   8   8   8   8   8   8   8
#     4  10  18  34  57  92 124 157 190 243 313 366
#     4  12  25  36  56  90 127 157 186 241 314 366
#     4  11  22  37  59  87 123 155 200 245 307 365
#     4  10  24  42  61  84 114 162 213 251 289 347
#     4   9  18  33  56  87 122 154 193 240 301 371
#     4  10  24  42  61  84 114 162 213 251 289 347
#     4  11  22  37  59  87 123 155 200 245 307 365
#     4   9  18  33  56  87 122 154 193 240 301 371
#
# _framework density 18.705490000000001
#
# number of rings (size 3 to 8) (size 9 to 14) (size 15 to 20)
#    0.000    1.750    3.750    1.875    3.500    4.000 
#    0.000    0.000    0.000    1.500    0.000    0.000 
#    0.000    0.000    0.000    0.000    0.000    0.000 
#
# Total GULP energy -178338.640781 kJ/mol
# GULP energy per Si atom -5573.082524 kJ/mol
# Density = 1.866292 g / cm^3
# Si number density = 18.705490 Si / 1000 Ang^3
#
#
#
# Elastic Constant Matrix: (Units=GPa)
#
#
# Indices 1 2 3 4 5 6 
#
# 1 105.9796 42.2332 43.0132 0.0000 0.0000 0.0000
# 2 42.2332 59.4192 21.0282 0.0000 0.0000 0.0000
# 3 43.0132 21.0282 87.0403 0.0000 0.0000 0.0000
# 4 0.0000 0.0000 0.0000 23.4385 0.0000 0.0000
# 5 0.0000 0.0000 0.0000 0.0000 18.6407 0.0000
# 6 0.0000 0.0000 0.0000 0.0000 0.0000 20.7334
#
#
#
# Elastic Compliance Matrix: (Units=1/GPa)
#
#
# Indices 1 2 3 4 5 6 
#
# 1 0.015137 -0.008870 -0.005337 0.000000 0.000000 0.000000
# 2 -0.008870 0.023601 -0.001318 0.000000 0.000000 0.000000
# 3 -0.005337 -0.001318 0.014445 0.000000 0.000000 0.000000
# 4 0.000000 0.000000 0.000000 0.042665 0.000000 0.000000
# 5 0.000000 0.000000 0.000000 0.000000 0.053646 0.000000
# 6 0.000000 0.000000 0.000000 0.000000 0.000000 0.048231
#
#
# Mechanical properties :
#
#
# Convention : Reuss Voigt Hill
#
# Bulk Modulus (GPa) = 45.18526 51.66537 48.42531
# Shear Modulus (GPa) = 21.17274 22.30679 21.73976
#
# Velocity S-wave (km/s) = 3.36802 3.45704 3.41282
# Velocity P-wave (km/s) = 6.27163 6.60419 6.44005
#
# Compressibility (1/GPa) = 0.02213111
#
# Stress axis : x y z
#
# Youngs Moduli (GPa) = 66.06494 42.37194 69.22797
#
# Poissons Ratio (x) = 0.37583 0.36949
# Poissons Ratio (y) = 0.58598 0.09128
# Poissons Ratio (z) = 0.35261 0.05587
#
# Static dielectric constant tensor:
#      x y z
#    x 1.688510 0.000000 0.000000 
#    y 0.000000 1.618370 0.000000 
#    z 0.000000 0.000000 1.768130 
# 
# From -- ./inp_files/1816.got.cif
#   From: 2010.05.17/outbox.cif.g08.bks.cpg/sg36_1_cif.got.tgz:1816.got - 2010.06.03 17:41:39.
