data_PCOD9350353
_publ_section_title
;
Structure prediction by ZEFSAII (Michael W. Deem and Ramdas Pophale) SiO2 
 PCOD9350353
Probable space group: C M M 2
;
_chemical_formula_sum "Si O2"
_cell_formula_units_Z 48
_cell_length_a 15.888898
_cell_length_b 8.476276
_cell_length_c 17.795466
_cell_angle_alpha 90.000000
_cell_angle_beta 90.000000
_cell_angle_gamma 90.000000
_cell_volume 2396.669956
_symmetry_space_group_name_H-M "C M M 2"
_symmetry_group_IT_number 35
_symmetry_cell_setting 'orthorhombic'
loop_
_space_group_symop_operation_xyz
x,y,z
-x,-y,z
-x,y,z
x,-y,z
1/2+x,1/2+y,z
1/2-x,1/2-y,z
1/2-x,1/2+y,z
1/2+x,1/2-y,z
loop_
_atom_site_type_symbol
_atom_site_label
_atom_site_fract_x
_atom_site_fract_y
_atom_site_fract_z
Si Si1 0.654200 0.189809 0.825350
Si Si2 0.153526 0.311936 0.141958
Si Si3 0.500000 0.687693 0.240915
Si Si4 0.846401 0.188043 0.981210
Si Si5 0.904061 0.691049 0.662416
Si Si6 0.000000 0.308517 0.410314
Si Si7 0.162140 0.309837 0.506661
O O1 0.750000 0.250000 0.823097
O O2 0.615159 0.245895 0.746641
O O3 0.652424 0.000000 0.828323
O O4 0.614569 0.253339 0.902772
O O5 0.157722 0.500000 0.142335
O O6 0.250000 0.250000 0.153169
O O7 0.121156 0.254430 0.059976
O O8 0.084767 0.253658 0.201663
O O9 0.500000 0.500000 0.233143
O O10 0.500000 0.737762 0.327669
O O11 0.750000 0.250000 0.979355
O O12 0.846922 0.000000 0.983071
O O13 0.895949 0.500000 0.664917
O O14 0.848870 0.748938 0.592745
O O15 0.000000 0.727266 0.643120
O O16 0.917328 0.260960 0.456996
O O17 0.000000 0.500000 0.405150
O O18 0.162213 0.500000 0.508684
O O19 0.250000 0.250000 0.475380
#
# Coordination Sequence:
#
# PCOD9350353 Si02
#       7
#     8   8   4   8   8   4   8
#     4  10  18  29  49  76 109 148 197 248 295 350
#     4  11  22  41  67  95 126 163 207 253 307 368
#     4  12  26  44  66  95 128 161 200 251 306 369
#     4  10  18  32  54  80 115 156 200 249 301 354
#     4   9  17  32  53  78 110 152 198 245 293 351
#     4  10  22  42  64  87 120 159 196 241 298 369
#     4  10  20  37  63  89 117 154 199 244 298 358
#
# _framework density 20.027788999999999
#
# number of rings (size 3 to 8) (size 9 to 14) (size 15 to 20)
#    0.000    1.833    0.833    6.750    0.000    1.333 
#    1.500    2.500    0.000    3.500    0.000    0.000 
#    0.000    0.000    0.000    0.000    0.000    0.000 
#
# Total GULP energy -133971.910192 kJ/mol
# GULP energy per Si atom -5582.162925 kJ/mol
# Density = 1.998220 g / cm^3
# Si number density = 20.027789 Si / 1000 Ang^3
#
#
#
# Elastic Constant Matrix: (Units=GPa)
#
#
# Indices 1 2 3 4 5 6 
#
# 1 110.0977 29.4596 74.2088 0.0000 0.0000 0.0000
# 2 29.4596 104.2919 49.9554 0.0000 0.0000 0.0000
# 3 74.2088 49.9554 167.5166 0.0000 0.0000 0.0000
# 4 0.0000 0.0000 0.0000 26.7201 0.0000 0.0000
# 5 0.0000 0.0000 0.0000 0.0000 31.2211 0.0000
# 6 0.0000 0.0000 0.0000 0.0000 0.0000 23.1397
#
#
#
# Elastic Compliance Matrix: (Units=1/GPa)
#
#
# Indices 1 2 3 4 5 6 
#
# 1 0.013051 -0.001070 -0.005462 0.000000 0.000000 0.000000
# 2 -0.001070 0.011274 -0.002888 0.000000 0.000000 0.000000
# 3 -0.005462 -0.002888 0.009251 0.000000 0.000000 0.000000
# 4 0.000000 0.000000 0.000000 0.037425 0.000000 0.000000
# 5 0.000000 0.000000 0.000000 0.000000 0.032030 0.000000
# 6 0.000000 0.000000 0.000000 0.000000 0.000000 0.043216
#
#
# Mechanical properties :
#
#
# Convention : Reuss Voigt Hill
#
# Bulk Modulus (GPa) = 67.86713 76.57267 72.21990
# Shear Modulus (GPa) = 29.41198 31.43499 30.42348
#
# Velocity S-wave (km/s) = 3.83634 3.96608 3.90174
# Velocity P-wave (km/s) = 7.32006 7.69995 7.51241
#
# Compressibility (1/GPa) = 0.01473467
#
# Stress axis : x y z
#
# Youngs Moduli (GPa) = 76.62270 88.69892 108.10100
#
# Poissons Ratio (x) = 0.09491 0.59049
# Poissons Ratio (y) = 0.08199 0.31220
# Poissons Ratio (z) = 0.41854 0.25617
#
# Static dielectric constant tensor:
#      x y z
#    x 1.704120 0.000000 0.000000 
#    y 0.000000 1.680440 0.000000 
#    z 0.000000 0.000000 1.739310 
# 
# From -- ./inp_files/17118.got.cif
#   From: 2010.05.17/outbox.cif.g08.bks.cpg/sg35_9_cif.got.tgz:17118.got - 2010.06.03 17:29:28.
