data_PCOD9350472
_publ_section_title
;
Structure prediction by ZEFSAII (Michael W. Deem and Ramdas Pophale) SiO2 
 PCOD9350472
Probable space group: C M C 21
;
_chemical_formula_sum "Si O2"
_cell_formula_units_Z 48
_cell_length_a 23.310837
_cell_length_b 19.713618
_cell_length_c 5.912819
_cell_angle_alpha 90.000000
_cell_angle_beta 90.000000
_cell_angle_gamma 90.000000
_cell_volume 2717.182377
_symmetry_space_group_name_H-M "C M C 21"
_symmetry_group_IT_number 36
_symmetry_cell_setting 'orthorhombic'
loop_
_space_group_symop_operation_xyz
x,y,z
-x,-y,1/2+z
x,-y,1/2+z
-x,y,z
1/2+x,1/2+y,z
1/2-x,1/2-y,1/2+z
1/2+x,1/2-y,1/2+z
1/2-x,1/2+y,z
loop_
_atom_site_type_symbol
_atom_site_label
_atom_site_fract_x
_atom_site_fract_y
_atom_site_fract_z
Si Si1 0.825785 0.223846 0.656940
Si Si2 0.434913 0.903161 0.637420
Si Si3 0.564296 0.755754 0.887948
Si Si4 0.125671 0.677233 0.777944
Si Si5 0.726060 0.840526 0.938592
Si Si6 0.317676 0.031972 0.231068
O O1 0.886485 0.209862 0.776468
O O2 0.842283 0.276959 0.461276
O O3 0.787454 0.164083 0.556930
O O4 0.787495 0.266598 0.834079
O O5 0.500000 0.928847 0.639643
O O6 0.433987 0.830496 0.768981
O O7 0.411999 0.881363 0.390759
O O8 0.385830 0.951027 0.736125
O O9 0.500000 0.729634 0.869925
O O10 0.583760 0.773267 0.140395
O O11 0.174565 0.647640 0.615982
O O12 0.717466 0.897542 0.751245
O O13 0.305159 0.996585 0.476780
#
# Coordination Sequence:
#
# PCOD9350472 Si02
#       6
#     8   8   8   8   8   8
#     4  10  19  30  57  78  99 140 177 241 282 353
#     4  10  20  34  51  70 101 146 198 238 272 323
#     4   9  18  31  50  79 107 136 173 229 298 346
#     4  10  16  31  51  77 103 141 177 238 294 335
#     4  11  20  34  53  80 106 137 199 235 295 347
#     4  12  26  40  54  74 111 154 192 243 283 322
#
# _framework density 17.665357
#
# number of rings (size 3 to 8) (size 9 to 14) (size 15 to 20)
#    0.000    1.667    6.667    1.500    0.000    1.333 
#    0.000    0.000    0.000    0.000    0.000    0.000 
#    0.000    1.333    0.000    0.000    0.000    0.000 
#
# Total GULP energy -133743.849919 kJ/mol
# GULP energy per Si atom -5572.660413 kJ/mol
# Density = 1.762515 g / cm^3
# Si number density = 17.665357 Si / 1000 Ang^3
#
#
#
# Elastic Constant Matrix: (Units=GPa)
#
#
# Indices 1 2 3 4 5 6 
#
# 1 107.8670 21.0230 28.4487 0.0000 0.0000 0.0000
# 2 21.0230 24.3526 12.0475 0.0000 0.0000 0.0000
# 3 28.4487 12.0475 76.1620 0.0000 0.0000 0.0000
# 4 0.0000 0.0000 0.0000 29.1576 0.0000 0.0000
# 5 0.0000 0.0000 0.0000 0.0000 18.4434 0.0000
# 6 0.0000 0.0000 0.0000 0.0000 0.0000 20.9058
#
#
#
# Elastic Compliance Matrix: (Units=1/GPa)
#
#
# Indices 1 2 3 4 5 6 
#
# 1 0.011754 -0.008652 -0.003022 0.000000 0.000000 0.000000
# 2 -0.008652 0.050918 -0.004823 0.000000 0.000000 0.000000
# 3 -0.003022 -0.004823 0.015022 0.000000 0.000000 0.000000
# 4 0.000000 0.000000 0.000000 0.034296 0.000000 0.000000
# 5 0.000000 0.000000 0.000000 0.000000 0.054220 0.000000
# 6 0.000000 0.000000 0.000000 0.000000 0.000000 0.047834
#
#
# Mechanical properties :
#
#
# Convention : Reuss Voigt Hill
#
# Bulk Modulus (GPa) = 22.37093 36.82444 29.59768
# Shear Modulus (GPa) = 19.08859 23.49219 21.29039
#
# Velocity S-wave (km/s) = 3.29076 3.65066 3.47537
# Velocity P-wave (km/s) = 5.20865 6.21776 5.73544
#
# Compressibility (1/GPa) = 0.04470088
#
# Stress axis : x y z
#
# Youngs Moduli (GPa) = 85.07824 19.63931 66.57121
#
# Poissons Ratio (x) = 0.16992 0.20117
# Poissons Ratio (y) = 0.73609 0.32105
# Poissons Ratio (z) = 0.25709 0.09471
#
# Static dielectric constant tensor:
#      x y z
#    x 1.609790 0.000000 0.000000 
#    y 0.000000 1.615530 0.000000 
#    z 0.000000 0.000000 1.693750 
# 
# From -- ./inp_files/1351.got.cif
#   From: 2010.05.17/outbox.cif.g08.bks.cpg/sg36_1_cif.got.tgz:1351.got - 2010.06.03 17:41:39.
