data_PCOD9350084
_publ_section_title
;
Structure prediction by ZEFSAII (Michael W. Deem and Ramdas Pophale) SiO2 
 PCOD9350084
Probable space group: C M M 2
;
_chemical_formula_sum "Si O2"
_cell_formula_units_Z 36
_cell_length_a 7.441212
_cell_length_b 15.040601
_cell_length_c 12.650674
_cell_angle_alpha 90.000000
_cell_angle_beta 90.000000
_cell_angle_gamma 90.000000
_cell_volume 1415.867237
_symmetry_space_group_name_H-M "C M M 2"
_symmetry_group_IT_number 35
_symmetry_cell_setting 'orthorhombic'
loop_
_space_group_symop_operation_xyz
x,y,z
-x,-y,z
-x,y,z
x,-y,z
1/2+x,1/2+y,z
1/2-x,1/2-y,z
1/2-x,1/2+y,z
1/2+x,1/2-y,z
loop_
_atom_site_type_symbol
_atom_site_label
_atom_site_fract_x
_atom_site_fract_y
_atom_site_fract_z
Si Si1 0.279274 0.604933 0.000000
Si Si2 0.209503 0.596995 0.692475
Si Si3 0.250000 0.250000 0.831446
Si Si4 0.204771 0.106772 0.233250
Si Si5 0.787630 0.852204 0.463102
O O1 0.500000 0.612069 0.993685
O O2 0.236143 0.500000 0.983717
O O3 0.220358 0.631629 0.118902
O O4 0.197216 0.673623 0.916923
O O5 0.269782 0.500000 0.730040
O O6 0.316408 0.677526 0.744648
O O7 0.217700 0.598116 0.565761
O O8 0.000000 0.610595 0.720978
O O9 0.288778 0.130098 0.345992
O O10 0.000000 0.142412 0.235260
O O11 0.195752 0.000000 0.230488
O O12 0.750000 0.750000 0.485578
O O13 0.000000 0.871834 0.458180
#
# Coordination Sequence:
#
# PCOD9350084 Si02
#       5
#     8   8   4   8   8
#     4   9  19  36  58  86 119 156 201 250 298 354
#     4  11  25  43  61  86 125 166 206 258 311 357
#     4  12  22  36  62  86 118 160 210 256 298 362
#     4   8  16  33  56  84 117 152 195 247 299 355
#     4  11  22  37  62  92 123 157 200 251 306 373
#
# _framework density 25.426114999999999
#
# number of rings (size 3 to 8) (size 9 to 14) (size 15 to 20)
#    0.000    2.000    1.111    4.000    1.556    2.222 
#    0.000    0.000    0.000    0.000    0.000    9.333 
#    0.000    0.000    0.000    0.000    0.000    0.000 
#
# Total GULP energy -100320.936134 kJ/mol
# GULP energy per Si atom -5573.385341 kJ/mol
# Density = 2.536824 g / cm^3
# Si number density = 25.426115 Si / 1000 Ang^3
#
#
#
# Elastic Constant Matrix: (Units=GPa)
#
#
# Indices 1 2 3 4 5 6 
#
# 1 111.2620 22.4158 25.9507 0.0000 0.0000 0.0000
# 2 22.4158 171.6898 77.3241 0.0000 0.0000 0.0000
# 3 25.9507 77.3241 235.3943 0.0000 0.0000 0.0000
# 4 0.0000 0.0000 0.0000 64.0317 0.0000 0.0000
# 5 0.0000 0.0000 0.0000 0.0000 23.7033 0.0000
# 6 0.0000 0.0000 0.0000 0.0000 0.0000 -16.6549
#
#
#
# Elastic Compliance Matrix: (Units=1/GPa)
#
#
# Indices 1 2 3 4 5 6 
#
# 1 0.009339 -0.000887 -0.000738 0.000000 0.000000 0.000000
# 2 -0.000887 0.006920 -0.002175 0.000000 0.000000 0.000000
# 3 -0.000738 -0.002175 0.005044 0.000000 0.000000 0.000000
# 4 0.000000 0.000000 0.000000 0.015617 0.000000 0.000000
# 5 0.000000 0.000000 0.000000 0.000000 0.042188 0.000000
# 6 0.000000 0.000000 0.000000 0.000000 0.000000 -0.060042
#
#
# Mechanical properties :
#
#
# Convention : Reuss Voigt Hill
#
# Bulk Modulus (GPa) = 72.98191 85.52524 79.25358
# Shear Modulus (GPa) = 160.08338 40.39308 100.23823
#
# Velocity S-wave (km/s) = 7.94336 3.99011 6.28561
# Velocity P-wave (km/s) = 10.62521 7.41200 9.16059
#
# Compressibility (1/GPa) = 0.01370202
#
# Stress axis : x y z
#
# Youngs Moduli (GPa) = 107.08200 144.50961 198.24929
#
# Poissons Ratio (x) = 0.12815 0.14635
# Poissons Ratio (y) = 0.09496 0.43126
# Poissons Ratio (z) = 0.07905 0.31436
#
# Static dielectric constant tensor:
#      x y z
#    x 1.681420 0.000000 0.000000 
#    y 0.000000 1.929200 0.000000 
#    z 0.000000 0.000000 2.023260 
# 
# From -- ./inp_files/14654.got.cif
#   From: 2010.05.17/outbox.cif.g08.bks.cpg/sg35_8_cif.got.tgz:14654.got - 2010.06.03 17:29:28.
