data_PCOD9350887
_publ_section_title
;
Structure prediction by ZEFSAII (Michael W. Deem and Ramdas Pophale) SiO2 
 PCOD9350887
Probable space group: C M C 21
;
_chemical_formula_sum "Si O2"
_cell_formula_units_Z 48
_cell_length_a 7.959422
_cell_length_b 15.999096
_cell_length_c 14.513019
_cell_angle_alpha 90.000000
_cell_angle_beta 90.000000
_cell_angle_gamma 90.000000
_cell_volume 1848.139458
_symmetry_space_group_name_H-M "C M C 21"
_symmetry_group_IT_number 36
_symmetry_cell_setting 'orthorhombic'
loop_
_space_group_symop_operation_xyz
x,y,z
-x,-y,1/2+z
x,-y,1/2+z
-x,y,z
1/2+x,1/2+y,z
1/2-x,1/2-y,1/2+z
1/2+x,1/2-y,1/2+z
1/2-x,1/2+y,z
loop_
_atom_site_type_symbol
_atom_site_label
_atom_site_fract_x
_atom_site_fract_y
_atom_site_fract_z
Si Si1 0.700411 0.143467 0.165010
Si Si2 0.198629 0.939545 0.836223
Si Si3 0.699893 0.304491 0.396983
Si Si4 0.694684 0.032383 0.009873
Si Si5 0.797139 0.807274 0.052584
Si Si6 0.795927 0.100275 0.722520
O O1 0.500000 0.142222 0.152391
O O2 0.758420 0.226904 0.114081
O O3 0.731657 0.134351 0.273045
O O4 0.772092 0.064089 0.106798
O O5 0.230289 0.961719 0.942871
O O6 0.266301 0.020343 0.778971
O O7 0.000000 0.934914 0.826999
O O8 0.500000 0.317622 0.404908
O O9 0.788413 0.380403 0.452003
O O10 0.741561 0.219035 0.450430
O O11 0.743397 0.321927 0.290708
O O12 0.500000 0.012206 0.020573
O O13 0.735877 0.882461 0.118625
O O14 0.000000 0.811513 0.049677
O O15 0.000000 0.094994 0.718811
#
# Coordination Sequence:
#
# PCOD9350887 Si02
#       6
#     8   8   8   8   8   8
#     4   9  18  31  49  71  93 123 159 194 233 279
#     4  10  19  31  50  73  97 125 156 197 242 280
#     4   9  16  28  47  71  95 120 155 195 236 280
#     4   9  17  31  50  69  92 126 164 195 228 280
#     4   9  17  32  51  68  91 125 161 193 229 279
#     4   8  16  31  49  68  92 123 155 188 232 280
#
# _framework density 25.972065000000001
#
# number of rings (size 3 to 8) (size 9 to 14) (size 15 to 20)
#    0.000    3.000    0.000    3.500    0.000    3.333 
#    0.000    6.667    0.000    6.000    0.000    0.000 
#    0.000    0.000    0.000    0.000    0.000    0.000 
#
# Total GULP energy -134027.002096 kJ/mol
# GULP energy per Si atom -5584.458421 kJ/mol
# Density = 2.591295 g / cm^3
# Si number density = 25.972065 Si / 1000 Ang^3
#
#
#
# Elastic Constant Matrix: (Units=GPa)
#
#
# Indices 1 2 3 4 5 6 
#
# 1 40.4777 -7.7343 -9.5978 0.0000 0.0000 0.0000
# 2 -7.7343 67.2529 3.9255 0.0000 0.0000 0.0000
# 3 -9.5978 3.9255 183.2682 0.0000 0.0000 0.0000
# 4 0.0000 0.0000 0.0000 48.3744 0.0000 0.0000
# 5 0.0000 0.0000 0.0000 0.0000 31.9728 0.0000
# 6 0.0000 0.0000 0.0000 0.0000 0.0000 6.1333
#
#
#
# Elastic Compliance Matrix: (Units=1/GPa)
#
#
# Indices 1 2 3 4 5 6 
#
# 1 0.025555 0.002864 0.001277 0.000000 0.000000 0.000000
# 2 0.002864 0.015209 -0.000176 0.000000 0.000000 0.000000
# 3 0.001277 -0.000176 0.005527 0.000000 0.000000 0.000000
# 4 0.000000 0.000000 0.000000 0.020672 0.000000 0.000000
# 5 0.000000 0.000000 0.000000 0.000000 0.031277 0.000000
# 6 0.000000 0.000000 0.000000 0.000000 0.000000 0.163043
#
#
# Mechanical properties :
#
#
# Convention : Reuss Voigt Hill
#
# Bulk Modulus (GPa) = 18.44257 29.35393 23.89825
# Shear Modulus (GPa) = 18.42124 37.58980 28.00552
#
# Velocity S-wave (km/s) = 2.66610 3.80849 3.28730
# Velocity P-wave (km/s) = 4.07355 5.53770 4.86107
#
# Compressibility (1/GPa) = 0.05422237
#
# Stress axis : x y z
#
# Youngs Moduli (GPa) = 39.13115 65.75085 180.92589
#
# Poissons Ratio (x) = -0.18834 -0.23104
# Poissons Ratio (y) = -0.11209 0.03180
# Poissons Ratio (z) = -0.04997 0.01156
#
# Static dielectric constant tensor:
#      x y z
#    x 1.899110 0.000000 0.000000 
#    y 0.000000 2.177910 0.000000 
#    z 0.000000 0.000000 2.080780 
# 
# From -- ./inp_files/6725.got.cif
#   From: 2010.05.17/outbox.cif.g08.bks.cpg/sg36_4_cif.got.tgz:6725.got - 2010.06.03 17:41:39.
