data_PCOD9350644
_publ_section_title
;
Structure prediction by ZEFSAII (Michael W. Deem and Ramdas Pophale) SiO2 
 PCOD9350644
Probable space group: C M C 21
;
_chemical_formula_sum "Si O2"
_cell_formula_units_Z 56
_cell_length_a 21.280221
_cell_length_b 10.781118
_cell_length_c 11.123620
_cell_angle_alpha 90.000000
_cell_angle_beta 90.000000
_cell_angle_gamma 90.000000
_cell_volume 2552.031776
_symmetry_space_group_name_H-M "C M C 21"
_symmetry_group_IT_number 36
_symmetry_cell_setting 'orthorhombic'
loop_
_space_group_symop_operation_xyz
x,y,z
-x,-y,1/2+z
x,-y,1/2+z
-x,y,z
1/2+x,1/2+y,z
1/2-x,1/2-y,1/2+z
1/2+x,1/2-y,1/2+z
1/2-x,1/2+y,z
loop_
_atom_site_type_symbol
_atom_site_label
_atom_site_fract_x
_atom_site_fract_y
_atom_site_fract_z
Si Si1 0.331917 0.830655 0.923730
Si Si2 0.754295 0.955334 0.110707
Si Si3 0.284966 0.831002 0.327915
Si Si4 0.850821 0.835746 0.627038
Si Si5 0.574120 0.524851 0.322090
Si Si6 0.427656 0.238682 0.253926
Si Si7 0.636496 0.708533 0.515425
O O1 0.276108 0.745145 0.870258
O O2 0.379662 0.856907 0.816183
O O3 0.298220 0.930771 0.009889
O O4 0.372241 0.748175 0.017847
O O5 0.734534 0.952802 0.251698
O O6 0.794344 0.076434 0.083994
O O7 0.804822 0.845190 0.091187
O O8 0.318706 0.753912 0.222756
O O9 0.335528 0.818473 0.434041
O O10 0.902549 0.914681 0.696825
O O11 0.500000 0.543297 0.339917
O O12 0.585684 0.378119 0.305695
O O13 0.611037 0.598062 0.427995
O O14 0.500000 0.209083 0.276870
O O15 0.414075 0.248381 0.111976
#
# Coordination Sequence:
#
# PCOD9350644 Si02
#       7
#     8   8   8   8   8   8   8
#     4  10  20  33  50  78 108 138 175 220 265 311
#     4  10  18  33  53  74 105 138 174 222 265 314
#     4   9  19  32  52  73 104 138 173 223 264 310
#     4  10  19  33  54  76 108 148 170 217 267 313
#     4  10  20  31  47  73 107 147 182 204 244 330
#     4  11  21  32  50  73 107 146 178 211 259 324
#     4  10  18  32  48  69 104 143 172 209 258 304
#
# _framework density 21.943301000000002
#
# number of rings (size 3 to 8) (size 9 to 14) (size 15 to 20)
#    0.000    2.000    2.857    1.286    0.000    2.857 
#    0.000    0.000    0.000    0.000    0.000    1.000 
#    0.000    0.286    0.000    0.000    0.000    0.000 
#
# Total GULP energy -156334.012188 kJ/mol
# GULP energy per Si atom -5583.357578 kJ/mol
# Density = 2.189336 g / cm^3
# Si number density = 21.943301 Si / 1000 Ang^3
#
#
#
# Elastic Constant Matrix: (Units=GPa)
#
#
# Indices 1 2 3 4 5 6 
#
# 1 85.1461 7.5715 29.8178 0.0000 0.0000 0.0000
# 2 7.5715 29.1153 12.2664 0.0000 0.0000 0.0000
# 3 29.8178 12.2664 106.6242 0.0000 0.0000 0.0000
# 4 0.0000 0.0000 0.0000 15.6298 0.0000 0.0000
# 5 0.0000 0.0000 0.0000 0.0000 28.0892 0.0000
# 6 0.0000 0.0000 0.0000 0.0000 0.0000 24.9277
#
#
#
# Elastic Compliance Matrix: (Units=1/GPa)
#
#
# Indices 1 2 3 4 5 6 
#
# 1 0.013125 -0.001962 -0.003445 0.000000 0.000000 0.000000
# 2 -0.001962 0.036389 -0.003638 0.000000 0.000000 0.000000
# 3 -0.003445 -0.003638 0.010761 0.000000 0.000000 0.000000
# 4 0.000000 0.000000 0.000000 0.063980 0.000000 0.000000
# 5 0.000000 0.000000 0.000000 0.000000 0.035601 0.000000
# 6 0.000000 0.000000 0.000000 0.000000 0.000000 0.040116
#
#
# Mechanical properties :
#
#
# Convention : Reuss Voigt Hill
#
# Bulk Modulus (GPa) = 23.70453 35.57744 29.64099
# Shear Modulus (GPa) = 21.54030 25.14467 23.34249
#
# Velocity S-wave (km/s) = 3.13650 3.38878 3.26508
# Velocity P-wave (km/s) = 4.89315 5.61785 5.26798
#
# Compressibility (1/GPa) = 0.04218603
#
# Stress axis : x y z
#
# Youngs Moduli (GPa) = 76.18847 27.48086 92.93180
#
# Poissons Ratio (x) = 0.05392 0.32013
# Poissons Ratio (y) = 0.14948 0.33805
# Poissons Ratio (z) = 0.26246 0.09996
#
# Static dielectric constant tensor:
#      x y z
#    x 1.761620 0.000000 0.000000 
#    y 0.000000 1.873620 0.000000 
#    z 0.000000 0.000000 1.873770 
# 
# From -- ./inp_files/9225.got.cif
#   From: 2010.05.17/outbox.cif.g08.bks.cpg/sg36_5_cif.got.tgz:9225.got - 2010.06.03 17:41:39.
