data_PCOD9350130
_publ_section_title
;
Structure prediction by ZEFSAII (Michael W. Deem and Ramdas Pophale) SiO2 
 PCOD9350130
Probable space group: C M M 2
;
_chemical_formula_sum "Si O2"
_cell_formula_units_Z 56
_cell_length_a 7.237683
_cell_length_b 28.714968
_cell_length_c 11.223665
_cell_angle_alpha 90.000000
_cell_angle_beta 90.000000
_cell_angle_gamma 90.000000
_cell_volume 2332.612453
_symmetry_space_group_name_H-M "C M M 2"
_symmetry_group_IT_number 35
_symmetry_cell_setting 'orthorhombic'
loop_
_space_group_symop_operation_xyz
x,y,z
-x,-y,z
-x,y,z
x,-y,z
1/2+x,1/2+y,z
1/2-x,1/2-y,z
1/2-x,1/2+y,z
1/2+x,1/2-y,z
loop_
_atom_site_type_symbol
_atom_site_label
_atom_site_fract_x
_atom_site_fract_y
_atom_site_fract_z
Si Si1 0.775218 0.146838 0.329920
Si Si2 0.280349 0.305394 0.830318
Si Si3 0.210423 0.056727 0.700754
Si Si4 0.775218 0.853162 0.071588
Si Si5 0.274769 0.552799 0.438720
Si Si6 0.780349 0.194606 0.571190
Si Si7 0.225231 0.947201 0.962787
O O1 0.714068 0.164531 0.200754
O O2 0.724659 0.092679 0.346842
O O3 0.709682 0.172947 0.448483
O O4 0.000000 0.149351 0.330420
O O5 0.500000 0.314017 0.829395
O O6 0.250000 0.250000 0.833782
O O7 0.210137 0.322422 0.700754
O O8 0.209682 0.327053 0.953024
O O9 0.288876 0.068048 0.571400
O O10 0.288876 0.068048 0.830107
O O11 0.000000 0.074699 0.700754
O O12 0.203910 0.000000 0.700754
O O13 0.000000 0.850649 0.071088
O O14 0.724659 0.907321 0.054665
O O15 0.500000 0.551573 0.444353
O O16 0.215274 0.500000 0.413681
O O17 0.750000 0.250000 0.567726
O O18 0.000000 0.185983 0.572113
O O19 0.000000 0.948427 0.957154
O O20 0.284726 0.000000 0.987826
#
# Coordination Sequence:
#
# PCOD9350130 Si02
#       7
#     8   8   8   8   8   8   8
#     4   9  17  26  37  57  84 114 146 178 215 258
#     4   9  18  32  49  67  87 113 145 181 221 263
#     4   7  10  16  26  42  63  92 133 173 203 235
#     4   9  17  26  37  57  84 114 146 178 215 258
#     4   8  13  20  31  49  76 110 144 174 206 250
#     4   9  18  32  49  67  87 113 145 181 221 263
#     4   8  13  20  31  49  76 110 144 174 206 250
#
# _framework density 24.007415000000002
#
# number of rings (size 3 to 8) (size 9 to 14) (size 15 to 20)
#    0.000    3.571    0.000    1.714    2.000    1.143 
#    0.000    2.857    0.000    0.000    0.000    0.000 
#    0.000    1.143    0.000    9.714    0.000   10.286 
#
# Total GULP energy -156257.801792 kJ/mol
# GULP energy per Si atom -5580.635778 kJ/mol
# Density = 2.395277 g / cm^3
# Si number density = 24.007415 Si / 1000 Ang^3
#
#
#
# Elastic Constant Matrix: (Units=GPa)
#
#
# Indices 1 2 3 4 5 6 
#
# 1 112.5852 -5.2694 11.9817 0.0000 0.0000 0.0000
# 2 -5.2694 75.0593 82.0445 0.0000 0.0000 0.0000
# 3 11.9817 82.0445 242.7233 0.0000 0.0000 0.0000
# 4 0.0000 0.0000 0.0000 25.1781 0.0000 0.0000
# 5 0.0000 0.0000 0.0000 0.0000 -27.4321 0.0000
# 6 0.0000 0.0000 0.0000 0.0000 0.0000 -33.2369
#
#
#
# Elastic Compliance Matrix: (Units=1/GPa)
#
#
# Indices 1 2 3 4 5 6 
#
# 1 0.009078 0.001788 -0.001052 0.000000 0.000000 0.000000
# 2 0.001788 0.021482 -0.007349 0.000000 0.000000 0.000000
# 3 -0.001052 -0.007349 0.006656 0.000000 0.000000 0.000000
# 4 0.000000 0.000000 0.000000 0.039717 0.000000 0.000000
# 5 0.000000 0.000000 0.000000 0.000000 -0.036454 0.000000
# 6 0.000000 0.000000 0.000000 0.000000 0.000000 -0.030087
#
#
# Mechanical properties :
#
#
# Convention : Reuss Voigt Hill
#
# Bulk Modulus (GPa) = 41.68892 67.54237 54.61564
# Shear Modulus (GPa) = 158.14785 15.67588 86.91187
#
# Velocity S-wave (km/s) = 8.12512 2.55808 6.02334
# Velocity P-wave (km/s) = 10.26772 6.07619 8.43642
#
# Compressibility (1/GPa) = 0.02398719
#
# Stress axis : x y z
#
# Youngs Moduli (GPa) = 110.15866 46.55144 150.23866
#
# Poissons Ratio (x) = -0.08321 0.15810
# Poissons Ratio (y) = -0.19692 1.10416
# Poissons Ratio (z) = 0.11592 0.34212
#
# Static dielectric constant tensor:
#      x y z
#    x 2.230210 0.000000 0.000000 
#    y 0.000000 1.877290 0.000000 
#    z 0.000000 0.000000 1.921240 
# 
# From -- ./inp_files/12568.got.cif
#   From: 2010.05.17/outbox.cif.g08.bks.cpg/sg35_7_cif.got.tgz:12568.got - 2010.06.03 17:29:28.
