data_PCOD9350316
_publ_section_title
;
Structure prediction by ZEFSAII (Michael W. Deem and Ramdas Pophale) SiO2 
 PCOD9350316
Probable space group: C M M 2
;
_chemical_formula_sum "Si O2"
_cell_formula_units_Z 56
_cell_length_a 16.688747
_cell_length_b 27.498754
_cell_length_c 7.197808
_cell_angle_alpha 90.000000
_cell_angle_beta 90.000000
_cell_angle_gamma 90.000000
_cell_volume 3303.216236
_symmetry_space_group_name_H-M "C M M 2"
_symmetry_group_IT_number 35
_symmetry_cell_setting 'orthorhombic'
loop_
_space_group_symop_operation_xyz
x,y,z
-x,-y,z
-x,y,z
x,-y,z
1/2+x,1/2+y,z
1/2-x,1/2-y,z
1/2-x,1/2+y,z
1/2+x,1/2-y,z
loop_
_atom_site_type_symbol
_atom_site_label
_atom_site_fract_x
_atom_site_fract_y
_atom_site_fract_z
Si Si1 0.347076 0.181165 0.698880
Si Si2 0.087937 0.577983 0.722406
Si Si3 0.087503 0.558124 0.158176
Si Si4 0.724979 0.305508 0.024514
Si Si5 0.222609 0.555410 0.438196
Si Si6 0.796676 0.845713 0.431669
Si Si7 0.906019 0.791038 0.712876
O O1 0.405777 0.135631 0.688185
O O2 0.281545 0.176244 0.535819
O O3 0.387717 0.233585 0.688160
O O4 0.297074 0.176009 0.891756
O O5 0.162197 0.555455 0.613048
O O6 0.000000 0.559757 0.663396
O O7 0.095771 0.568021 0.940646
O O8 0.085529 0.500000 0.186386
O O9 0.163780 0.574719 0.274449
O O10 0.000000 0.577996 0.217192
O O11 0.750000 0.250000 0.069282
O O12 0.708599 0.333170 0.214978
O O13 0.646964 0.305815 0.892036
O O14 0.249329 0.500000 0.402601
O O15 0.290136 0.596164 0.462319
O O16 0.870674 0.820678 0.537492
O O17 0.000000 0.799015 0.737199
#
# Coordination Sequence:
#
# PCOD9350316 Si02
#       7
#     8   8   8   8   8   8   8
#     4   9  18  31  48  72 101 130 159 189 222 270
#     4  10  18  28  45  69  99 133 161 187 225 272
#     4   9  17  28  42  63  94 130 164 196 228 266
#     4   9  17  31  50  70  95 128 160 189 226 275
#     4  10  20  32  47  68  92 122 163 204 238 276
#     4  10  19  33  52  71  95 127 159 194 235 277
#     4  10  20  33  50  74 100 124 154 193 236 282
#
# _framework density 16.953175000000002
#
# number of rings (size 3 to 8) (size 9 to 14) (size 15 to 20)
#    0.000    2.429    0.000    4.286    0.000    2.000 
#    0.000    0.000    0.000    9.857    0.000    0.000 
#    0.000    0.000    0.000    0.000    0.000    0.000 
#
# Total GULP energy -156096.124120 kJ/mol
# GULP energy per Si atom -5574.861576 kJ/mol
# Density = 1.691459 g / cm^3
# Si number density = 16.953175 Si / 1000 Ang^3
#
#
#
# Elastic Constant Matrix: (Units=GPa)
#
#
# Indices 1 2 3 4 5 6 
#
# 1 73.4403 29.6761 17.2762 0.0000 0.0000 0.0000
# 2 29.6761 76.4727 23.6614 0.0000 0.0000 0.0000
# 3 17.2762 23.6614 81.3973 0.0000 0.0000 0.0000
# 4 0.0000 0.0000 0.0000 19.2531 0.0000 0.0000
# 5 0.0000 0.0000 0.0000 0.0000 19.0707 0.0000
# 6 0.0000 0.0000 0.0000 0.0000 0.0000 121.4455
#
#
#
# Elastic Compliance Matrix: (Units=1/GPa)
#
#
# Indices 1 2 3 4 5 6 
#
# 1 0.016383 -0.005804 -0.001790 0.000000 0.000000 0.000000
# 2 -0.005804 0.016425 -0.003543 0.000000 0.000000 0.000000
# 3 -0.001790 -0.003543 0.013695 0.000000 0.000000 0.000000
# 4 0.000000 0.000000 0.000000 0.051940 0.000000 0.000000
# 5 0.000000 0.000000 0.000000 0.000000 0.052436 0.000000
# 6 0.000000 0.000000 0.000000 0.000000 0.000000 0.008234
#
#
# Mechanical properties :
#
#
# Convention : Reuss Voigt Hill
#
# Bulk Modulus (GPa) = 41.27140 41.39308 41.33224
# Shear Modulus (GPa) = 26.39040 42.66697 34.52869
#
# Velocity S-wave (km/s) = 3.94974 5.02217 4.51789
# Velocity P-wave (km/s) = 6.72293 7.62225 7.18667
#
# Compressibility (1/GPa) = 0.02422985
#
# Stress axis : x y z
#
# Youngs Moduli (GPa) = 61.03968 60.88316 73.01830
#
# Poissons Ratio (x) = 0.35335 0.13071
# Poissons Ratio (y) = 0.35425 0.25869
# Poissons Ratio (z) = 0.10927 0.21569
#
# Static dielectric constant tensor:
#      x y z
#    x 1.591260 0.000000 0.000000 
#    y 0.000000 1.598700 0.000000 
#    z 0.000000 0.000000 1.583440 
# 
# From -- ./inp_files/2071.got.cif
#   From: 2010.05.17/outbox.cif.g08.bks.cpg/sg35_2_cif.got.tgz:2071.got - 2010.06.03 17:29:28.
