data_PCOD9350984
_publ_section_title
;
Structure prediction by ZEFSAII (Michael W. Deem and Ramdas Pophale) SiO2 
 PCOD9350984
Probable space group: C M C 21
;
_chemical_formula_sum "Si O2"
_cell_formula_units_Z 64
_cell_length_a 8.577936
_cell_length_b 21.081744
_cell_length_c 19.930076
_cell_angle_alpha 90.000000
_cell_angle_beta 90.000000
_cell_angle_gamma 90.000000
_cell_volume 3604.112110
_symmetry_space_group_name_H-M "C M C 21"
_symmetry_group_IT_number 36
_symmetry_cell_setting 'orthorhombic'
loop_
_space_group_symop_operation_xyz
x,y,z
-x,-y,1/2+z
x,-y,1/2+z
-x,y,z
1/2+x,1/2+y,z
1/2-x,1/2-y,1/2+z
1/2+x,1/2-y,1/2+z
1/2-x,1/2+y,z
loop_
_atom_site_type_symbol
_atom_site_label
_atom_site_fract_x
_atom_site_fract_y
_atom_site_fract_z
Si Si1 0.188021 0.685597 0.912340
Si Si2 0.812272 0.993947 0.052057
Si Si3 0.310893 0.867276 0.702727
Si Si4 0.686166 0.056061 0.838011
Si Si5 0.685833 0.810352 0.841304
Si Si6 0.186650 0.989720 0.203744
Si Si7 0.312240 0.136055 0.052309
Si Si8 0.686240 0.433611 0.915135
O O1 0.234620 0.621473 0.873233
O O2 0.247421 0.747577 0.875043
O O3 0.000000 0.687626 0.912760
O O4 0.242328 0.678095 0.989638
O O5 0.770083 0.972572 0.127203
O O6 0.000000 0.000693 0.050061
O O7 0.740643 0.063548 0.040818
O O8 0.766367 0.947405 0.992064
O O9 0.500000 0.872463 0.703787
O O10 0.262237 0.822821 0.764318
O O11 0.262407 0.845887 0.627870
O O12 0.242075 0.937563 0.713682
O O13 0.500000 0.049374 0.844677
O O14 0.734219 0.052648 0.760382
O O15 0.765820 0.996177 0.873922
O O16 0.500000 0.805994 0.840865
O O17 0.735951 0.872152 0.883188
O O18 0.000000 0.986825 0.210722
O O19 0.500000 0.137015 0.051672
O O20 0.500000 0.425943 0.912180
#
# Coordination Sequence:
#
# PCOD9350984 Si02
#       8
#     8   8   8   8   8   8   8   8
#     4  10  22  38  56  79 110 147 186 227 277 330
#     4   9  19  33  52  82 113 141 180 227 276 327
#     4   9  18  33  54  79 107 139 180 227 275 327
#     4  11  21  35  55  82 112 143 183 227 273 328
#     4  11  23  37  55  81 113 146 185 228 273 332
#     4  10  19  32  53  82 112 144 181 226 278 326
#     4   9  17  33  56  79 104 140 181 225 275 327
#     4  11  21  35  57  82 111 144 180 227 277 325
#
# _framework density 17.757493
#
# number of rings (size 3 to 8) (size 9 to 14) (size 15 to 20)
#    0.000    2.000    2.500    1.500    0.000    3.000 
#    0.000    1.250    0.000    6.000    0.000    0.000 
#    0.000    0.000    0.000    0.000    0.000    0.000 
#
# Total GULP energy -178555.767486 kJ/mol
# GULP energy per Si atom -5579.867734 kJ/mol
# Density = 1.771708 g / cm^3
# Si number density = 17.757493 Si / 1000 Ang^3
#
#
#
# Elastic Constant Matrix: (Units=GPa)
#
#
# Indices 1 2 3 4 5 6 
#
# 1 7.1506 12.7980 21.2642 0.0000 0.0000 0.0000
# 2 12.7980 99.8428 73.0611 0.0000 0.0000 0.0000
# 3 21.2642 73.0611 169.8307 0.0000 0.0000 0.0000
# 4 0.0000 0.0000 0.0000 27.8853 0.0000 0.0000
# 5 0.0000 0.0000 0.0000 0.0000 23.8076 0.0000
# 6 0.0000 0.0000 0.0000 0.0000 0.0000 28.0951
#
#
#
# Elastic Compliance Matrix: (Units=1/GPa)
#
#
# Indices 1 2 3 4 5 6 
#
# 1 0.232916 -0.012427 -0.023817 0.000000 0.000000 0.000000
# 2 -0.012427 0.015280 -0.005018 0.000000 0.000000 0.000000
# 3 -0.023817 -0.005018 0.011029 0.000000 0.000000 0.000000
# 4 0.000000 0.000000 0.000000 0.035861 0.000000 0.000000
# 5 0.000000 0.000000 0.000000 0.000000 0.042003 0.000000
# 6 0.000000 0.000000 0.000000 0.000000 0.000000 0.035593
#
#
# Mechanical properties :
#
#
# Convention : Reuss Voigt Hill
#
# Bulk Modulus (GPa) = 5.65926 54.56340 30.11133
# Shear Modulus (GPa) = 9.72561 27.27098 18.49829
#
# Velocity S-wave (km/s) = 2.34282 3.92311 3.23107
# Velocity P-wave (km/s) = 3.24226 7.16343 5.55999
#
# Compressibility (1/GPa) = 0.17670163
#
# Stress axis : x y z
#
# Youngs Moduli (GPa) = 4.29340 65.44343 90.67108
#
# Poissons Ratio (x) = 0.81327 2.15950
# Poissons Ratio (y) = 0.05335 0.45495
# Poissons Ratio (z) = 0.10226 0.32837
#
# Static dielectric constant tensor:
#      x y z
#    x 1.603720 0.000000 0.000000 
#    y 0.000000 1.554880 0.000000 
#    z 0.000000 0.000000 1.655030 
# 
# From -- ./inp_files/15621.got.cif
#   From: 2010.05.17/outbox.cif.g08.bks.cpg/sg36_8_cif.got.tgz:15621.got - 2010.06.03 17:41:39.
