data_PCOD9350858
_publ_section_title
;
Structure prediction by ZEFSAII (Michael W. Deem and Ramdas Pophale) SiO2 
 PCOD9350858
Probable space group: C M C 21
;
_chemical_formula_sum "Si O2"
_cell_formula_units_Z 44
_cell_length_a 26.172889
_cell_length_b 16.682021
_cell_length_c 5.383044
_cell_angle_alpha 90.000000
_cell_angle_beta 90.000000
_cell_angle_gamma 90.000000
_cell_volume 2350.326821
_symmetry_space_group_name_H-M "C M C 21"
_symmetry_group_IT_number 36
_symmetry_cell_setting 'orthorhombic'
loop_
_space_group_symop_operation_xyz
x,y,z
-x,-y,1/2+z
x,-y,1/2+z
-x,y,z
1/2+x,1/2+y,z
1/2-x,1/2-y,1/2+z
1/2+x,1/2-y,1/2+z
1/2-x,1/2+y,z
loop_
_atom_site_type_symbol
_atom_site_label
_atom_site_fract_x
_atom_site_fract_y
_atom_site_fract_z
Si Si1 0.120044 0.726386 0.211560
Si Si2 0.843245 0.543281 0.211560
Si Si3 0.770234 0.022594 0.711560
Si Si4 0.500000 0.947177 0.211560
Si Si5 0.557591 0.787618 0.211560
Si Si6 0.270377 0.708030 0.711560
O O1 0.142378 0.635788 0.211560
O O2 0.087265 0.734748 0.461861
O O3 0.168528 0.784542 0.211560
O O4 0.087265 0.734748 0.961259
O O5 0.861935 0.500000 0.461560
O O6 0.781651 0.530846 0.211560
O O7 0.754750 0.115230 0.711560
O O8 0.798900 1.000000 0.461560
O O9 0.547149 0.884115 0.211560
O O10 0.500000 0.000000 0.461560
O O11 0.500000 0.753557 0.211560
O O12 0.250000 0.750000 0.461560
#
# Coordination Sequence:
#
# PCOD9350858 Si02
#       6
#     8   8   8   4   8   8
#     4  12  22  37  58  83 110 156 199 243 289 357
#     4  10  19  31  47  72 103 143 188 223 275 332
#     4  10  20  36  53  76 114 154 187 235 294 346
#     4  10  20  36  54  76 110 152 192 242 302 338
#     4  10  24  39  55  77 113 145 195 253 292 337
#     4  12  23  38  59  87 121 155 206 253 299 354
#
# _framework density 18.720803
#
# number of rings (size 3 to 8) (size 9 to 14) (size 15 to 20)
#    0.545    0.727    0.000    9.273    0.000    4.364 
#    0.000    0.000    0.000    0.000    0.000    0.000 
#    0.000   14.545    0.000    0.000    0.000    0.000 
#
# Total GULP energy -122892.552077 kJ/mol
# GULP energy per Si atom -5586.025094 kJ/mol
# Density = 1.867819 g / cm^3
# Si number density = 18.720803 Si / 1000 Ang^3
#
#
#
# Elastic Constant Matrix: (Units=GPa)
#
#
# Indices 1 2 3 4 5 6 
#
# 1 111.2145 4.1881 48.6878 0.0000 0.0000 0.0000
# 2 4.1881 41.0577 22.5233 0.0000 0.0000 0.0000
# 3 48.6878 22.5233 207.0789 0.0000 0.0000 0.0000
# 4 0.0000 0.0000 0.0000 19.8468 0.0000 0.0000
# 5 0.0000 0.0000 0.0000 0.0000 29.0854 0.0000
# 6 0.0000 0.0000 0.0000 0.0000 0.0000 22.5797
#
#
#
# Elastic Compliance Matrix: (Units=1/GPa)
#
#
# Indices 1 2 3 4 5 6 
#
# 1 0.010027 0.000288 -0.002389 0.000000 0.000000 0.000000
# 2 0.000288 0.025910 -0.002886 0.000000 0.000000 0.000000
# 3 -0.002389 -0.002886 0.005705 0.000000 0.000000 0.000000
# 4 0.000000 0.000000 0.000000 0.050386 0.000000 0.000000
# 5 0.000000 0.000000 0.000000 0.000000 0.034382 0.000000
# 6 0.000000 0.000000 0.000000 0.000000 0.000000 0.044288
#
#
# Mechanical properties :
#
#
# Convention : Reuss Voigt Hill
#
# Bulk Modulus (GPa) = 31.57845 56.68328 44.13086
# Shear Modulus (GPa) = 26.14719 33.23251 29.68985
#
# Velocity S-wave (km/s) = 3.74129 4.21784 3.98669
# Velocity P-wave (km/s) = 5.96387 7.35284 6.69447
#
# Compressibility (1/GPa) = 0.03166717
#
# Stress axis : x y z
#
# Youngs Moduli (GPa) = 99.73537 38.59560 175.29806
#
# Poissons Ratio (x) = -0.01110 0.41873
# Poissons Ratio (y) = -0.02868 0.50586
# Poissons Ratio (z) = 0.23824 0.11138
#
# Static dielectric constant tensor:
#      x y z
#    x 1.665900 0.000000 0.000000 
#    y 0.000000 1.626280 0.000000 
#    z 0.000000 0.000000 1.715540 
# 
# From -- ./inp_files/1719.got.cif
#   From: 2010.05.17/outbox.cif.g08.bks.cpg/sg36_1_cif.got.tgz:1719.got - 2010.06.03 17:41:39.
