data_PCOD9350243
_publ_section_title
;
Structure prediction by ZEFSAII (Michael W. Deem and Ramdas Pophale) SiO2 
 PCOD9350243
Probable space group: C M M 2
;
_chemical_formula_sum "Si O2"
_cell_formula_units_Z 48
_cell_length_a 17.593048
_cell_length_b 8.724081
_cell_length_c 16.447041
_cell_angle_alpha 90.000000
_cell_angle_beta 90.000000
_cell_angle_gamma 90.000000
_cell_volume 2524.344085
_symmetry_space_group_name_H-M "C M M 2"
_symmetry_group_IT_number 35
_symmetry_cell_setting 'orthorhombic'
loop_
_space_group_symop_operation_xyz
x,y,z
-x,-y,z
-x,y,z
x,-y,z
1/2+x,1/2+y,z
1/2-x,1/2-y,z
1/2-x,1/2+y,z
1/2+x,1/2-y,z
loop_
_atom_site_type_symbol
_atom_site_label
_atom_site_fract_x
_atom_site_fract_y
_atom_site_fract_z
Si Si1 0.164038 0.816508 0.742840
Si Si2 0.336103 0.316162 0.920670
Si Si3 0.335136 0.816308 0.577292
Si Si4 0.834488 0.818914 0.251394
Si Si5 0.663692 0.182813 0.085747
Si Si6 0.409563 0.822187 0.406921
O O1 0.250000 0.750000 0.744296
O O2 0.129640 0.779475 0.831704
O O3 0.128975 0.748192 0.660751
O O4 0.167946 0.000000 0.736038
O O5 0.332530 0.500000 0.928997
O O6 0.250000 0.250000 0.917913
O O7 0.371959 0.244932 0.001899
O O8 0.250000 0.750000 0.571237
O O9 0.378075 0.773554 0.494722
O O10 0.332049 0.000000 0.583070
O O11 0.750000 0.750000 0.260905
O O12 0.870283 0.743000 0.170386
O O13 0.878847 0.777461 0.332909
O O14 0.829296 0.000000 0.239048
O O15 0.750000 0.250000 0.086652
O O16 0.666602 0.000000 0.084748
O O17 0.500000 0.817716 0.408673
O O18 0.385330 0.000000 0.393629
#
# Coordination Sequence:
#
# PCOD9350243 Si02
#       6
#     8   8   8   8   8   8
#     4   9  16  25  40  63  94 128 160 197 239 285
#     4   9  15  23  36  59  92 127 159 194 238 285
#     4  10  19  31  50  73  98 129 163 202 245 291
#     4  11  21  34  53  76 102 132 168 207 249 297
#     4  10  17  26  42  65  95 129 162 198 242 289
#     4  10  22  39  55  73  99 130 165 207 255 303
#
# _framework density 19.014841000000001
#
# number of rings (size 3 to 8) (size 9 to 14) (size 15 to 20)
#    0.000    2.167    0.000    8.000    0.000    5.000 
#    0.000    0.000    0.000    0.000    0.000    1.167 
#    0.000    4.000    0.000    0.000    0.000    0.000 
#
# Total GULP energy -133809.898520 kJ/mol
# GULP energy per Si atom -5575.412438 kJ/mol
# Density = 1.897156 g / cm^3
# Si number density = 19.014841 Si / 1000 Ang^3
#
#
#
# Elastic Constant Matrix: (Units=GPa)
#
#
# Indices 1 2 3 4 5 6 
#
# 1 10.8503 12.4694 26.0220 0.0000 0.0000 0.0000
# 2 12.4694 122.8080 81.9430 0.0000 0.0000 0.0000
# 3 26.0220 81.9430 215.1734 0.0000 0.0000 0.0000
# 4 0.0000 0.0000 0.0000 37.1037 0.0000 0.0000
# 5 0.0000 0.0000 0.0000 0.0000 -10.2373 0.0000
# 6 0.0000 0.0000 0.0000 0.0000 0.0000 8.6614
#
#
#
# Elastic Compliance Matrix: (Units=1/GPa)
#
#
# Indices 1 2 3 4 5 6 
#
# 1 0.131031 -0.003661 -0.014452 0.000000 0.000000 0.000000
# 2 -0.003661 0.011019 -0.003754 0.000000 0.000000 0.000000
# 3 -0.014452 -0.003754 0.007825 0.000000 0.000000 0.000000
# 4 0.000000 0.000000 0.000000 0.026952 0.000000 0.000000
# 5 0.000000 0.000000 0.000000 0.000000 -0.097682 0.000000
# 6 0.000000 0.000000 0.000000 0.000000 0.000000 0.115455
#
#
# Mechanical properties :
#
#
# Convention : Reuss Voigt Hill
#
# Bulk Modulus (GPa) = 9.42139 65.52227 37.47183
# Shear Modulus (GPa) = 18.26725 22.33203 20.29964
#
# Velocity S-wave (km/s) = 3.10285 3.43075 3.27091
# Velocity P-wave (km/s) = 4.21929 7.08708 5.83220
#
# Compressibility (1/GPa) = 0.10614144
#
# Stress axis : x y z
#
# Youngs Moduli (GPa) = 7.63175 90.75173 127.80201
#
# Poissons Ratio (x) = 0.33227 1.84699
# Poissons Ratio (y) = 0.02794 0.47971
# Poissons Ratio (z) = 0.11029 0.34064
#
# Static dielectric constant tensor:
#      x y z
#    x 1.621050 0.000000 0.000000 
#    y 0.000000 1.646090 0.000000 
#    z 0.000000 0.000000 1.749830 
# 
# From -- ./inp_files/17257.got.cif
#   From: 2010.05.17/outbox.cif.g08.bks.cpg/sg35_9_cif.got.tgz:17257.got - 2010.06.03 17:29:28.
