data_PCOD9350992
_publ_section_title
;
Structure prediction by ZEFSAII (Michael W. Deem and Ramdas Pophale) SiO2 
 PCOD9350992
Probable space group: C M C 21
;
_chemical_formula_sum "Si O2"
_cell_formula_units_Z 64
_cell_length_a 18.095335
_cell_length_b 5.289874
_cell_length_c 33.788492
_cell_angle_alpha 90.000000
_cell_angle_beta 90.000000
_cell_angle_gamma 90.000000
_cell_volume 3234.303455
_symmetry_space_group_name_H-M "C M C 21"
_symmetry_group_IT_number 36
_symmetry_cell_setting 'orthorhombic'
loop_
_space_group_symop_operation_xyz
x,y,z
-x,-y,1/2+z
x,-y,1/2+z
-x,y,z
1/2+x,1/2+y,z
1/2-x,1/2-y,1/2+z
1/2+x,1/2-y,1/2+z
1/2-x,1/2+y,z
loop_
_atom_site_type_symbol
_atom_site_label
_atom_site_fract_x
_atom_site_fract_y
_atom_site_fract_z
Si Si1 0.413391 0.310449 0.594840
Si Si2 0.913955 0.690336 0.041971
Si Si3 0.290451 0.700395 0.390147
Si Si4 0.300909 0.155781 0.970084
Si Si5 0.417162 0.651415 0.238261
Si Si6 0.300724 0.313942 0.668137
Si Si7 0.236280 0.733235 0.304904
Si Si8 0.419177 0.849410 0.791348
O O1 0.500000 0.316362 0.607828
O O2 0.401269 0.555204 0.567192
O O3 0.355826 0.316174 0.630584
O O4 0.402616 0.054839 0.569604
O O5 0.859485 0.678057 0.004930
O O6 0.000000 0.689894 0.029435
O O7 0.276165 0.404447 0.396638
O O8 0.339233 0.800753 0.426509
O O9 0.292374 0.724396 0.342306
O O10 0.241826 0.387644 0.972903
O O11 0.500000 0.678267 0.220684
O O12 0.354163 0.680284 0.206117
O O13 0.415411 0.377034 0.259260
O O14 0.411471 0.878276 0.270415
O O15 0.248913 0.561511 0.667686
O O16 0.253796 0.484897 0.280869
O O17 0.151763 0.703887 0.318239
O O18 0.500000 0.837307 0.810545
#
# Coordination Sequence:
#
# PCOD9350992 Si02
#       8
#     8   8   8   8   8   8   8   8
#     4  10  22  40  57  76 109 149 182 217 274 333
#     4  10  21  36  56  81 107 140 184 228 268 318
#     4   8  16  30  48  72 102 136 174 206 256 324
#     4  10  19  32  54  78 106 140 175 219 268 323
#     4  10  22  40  57  76 109 149 182 217 274 333
#     4  12  25  38  57  84 112 140 182 232 271 314
#     4  10  19  32  54  78 106 140 175 219 268 323
#     4  10  21  36  56  81 107 140 184 228 268 318
#
# _framework density 19.787876000000001
#
# number of rings (size 3 to 8) (size 9 to 14) (size 15 to 20)
#    0.000    2.000    0.000    3.375    0.000    6.000 
#    0.000    5.000    0.000   13.500    0.000    0.000 
#    0.000    0.000    0.000    0.000    0.000    0.000 
#
# Total GULP energy -178164.016213 kJ/mol
# GULP energy per Si atom -5567.625507 kJ/mol
# Density = 1.974284 g / cm^3
# Si number density = 19.787876 Si / 1000 Ang^3
#
#
#
# Elastic Constant Matrix: (Units=GPa)
#
#
# Indices 1 2 3 4 5 6 
#
# 1 92.2046 35.2375 51.4276 0.0000 0.0000 0.0000
# 2 35.2375 156.9219 30.6833 0.0000 0.0000 0.0000
# 3 51.4276 30.6833 76.9760 0.0000 0.0000 0.0000
# 4 0.0000 0.0000 0.0000 19.6469 0.0000 0.0000
# 5 0.0000 0.0000 0.0000 0.0000 16.4706 0.0000
# 6 0.0000 0.0000 0.0000 0.0000 0.0000 18.7417
#
#
#
# Elastic Compliance Matrix: (Units=1/GPa)
#
#
# Indices 1 2 3 4 5 6 
#
# 1 0.017748 -0.001808 -0.011137 0.000000 0.000000 0.000000
# 2 -0.001808 0.007095 -0.001621 0.000000 0.000000 0.000000
# 3 -0.011137 -0.001621 0.021078 0.000000 0.000000 0.000000
# 4 0.000000 0.000000 0.000000 0.050899 0.000000 0.000000
# 5 0.000000 0.000000 0.000000 0.000000 0.060714 0.000000
# 6 0.000000 0.000000 0.000000 0.000000 0.000000 0.053357
#
#
# Mechanical properties :
#
#
# Convention : Reuss Voigt Hill
#
# Bulk Modulus (GPa) = 59.55688 62.31104 60.93396
# Shear Modulus (GPa) = 20.35684 24.88877 22.62280
#
# Velocity S-wave (km/s) = 3.21090 3.55036 3.38489
# Velocity P-wave (km/s) = 6.62642 6.95447 6.79243
#
# Compressibility (1/GPa) = 0.01679067
#
# Stress axis : x y z
#
# Youngs Moduli (GPa) = 56.34468 140.93627 47.44394
#
# Poissons Ratio (x) = 0.25478 0.52837
# Poissons Ratio (y) = 0.10186 0.07688
# Poissons Ratio (z) = 0.62750 0.22839
#
# Static dielectric constant tensor:
#      x y z
#    x 1.733300 0.000000 0.000000 
#    y 0.000000 1.750820 0.000000 
#    z 0.000000 0.000000 1.722390 
# 
# From -- ./inp_files/17430.got.cif
#   From: 2010.05.17/outbox.cif.g08.bks.cpg/sg36_9_cif.got.tgz:17430.got - 2010.06.03 17:41:39.
