data_PCOD9350729
_publ_section_title
;
Structure prediction by ZEFSAII (Michael W. Deem and Ramdas Pophale) SiO2 
 PCOD9350729
Probable space group: C M C 21
;
_chemical_formula_sum "Si O2"
_cell_formula_units_Z 64
_cell_length_a 8.790766
_cell_length_b 21.988395
_cell_length_c 14.449237
_cell_angle_alpha 90.000000
_cell_angle_beta 90.000000
_cell_angle_gamma 90.000000
_cell_volume 2792.962884
_symmetry_space_group_name_H-M "C M C 21"
_symmetry_group_IT_number 36
_symmetry_cell_setting 'orthorhombic'
loop_
_space_group_symop_operation_xyz
x,y,z
-x,-y,1/2+z
x,-y,1/2+z
-x,y,z
1/2+x,1/2+y,z
1/2-x,1/2-y,1/2+z
1/2+x,1/2-y,1/2+z
1/2-x,1/2+y,z
loop_
_atom_site_type_symbol
_atom_site_label
_atom_site_fract_x
_atom_site_fract_y
_atom_site_fract_z
Si Si1 0.816633 0.410048 0.560220
Si Si2 0.674650 0.906326 0.902970
Si Si3 0.821518 0.328106 0.725212
Si Si4 0.181122 0.789276 0.996814
Si Si5 0.319653 0.974352 0.183092
Si Si6 0.321338 0.215658 0.830321
Si Si7 0.177157 0.852659 0.174019
Si Si8 0.321331 0.468639 0.387576
O O1 0.775429 0.352298 0.624234
O O2 0.768820 0.469439 0.620130
O O3 0.751688 0.420389 0.458258
O O4 0.000000 0.409237 0.553836
O O5 0.500000 0.922059 0.925168
O O6 0.680808 0.886323 0.794751
O O7 0.728157 0.845840 0.954679
O O8 0.779309 0.963673 0.923606
O O9 0.717080 0.277835 0.774042
O O10 0.000000 0.307452 0.723490
O O11 0.221365 0.730525 0.936226
O O12 0.000000 0.798004 0.980410
O O13 0.203975 0.795148 0.106129
O O14 0.500000 0.978995 0.193606
O O15 0.273937 0.909689 0.139748
O O16 0.246020 0.970711 0.284403
O O17 0.500000 0.201211 0.824457
O O18 0.225927 0.165616 0.776602
O O19 0.000000 0.868087 0.170069
O O20 0.500000 0.459492 0.383899
#
# Coordination Sequence:
#
# PCOD9350729 Si02
#       8
#     8   8   8   8   8   8   8   8
#     4  10  21  39  62  88 120 159 202 245 299 364
#     4  10  18  33  58  86 116 152 197 244 292 349
#     4   9  18  36  60  85 112 147 192 244 297 347
#     4   9  20  38  61  90 119 153 200 249 304 358
#     4  11  23  42  64  89 122 162 204 250 303 361
#     4  10  21  39  62  89 118 155 200 249 300 358
#     4  11  23  41  62  88 122 160 202 251 306 362
#     4  12  24  36  55  87 125 162 199 242 299 361
#
# _framework density 22.914733999999999
#
# number of rings (size 3 to 8) (size 9 to 14) (size 15 to 20)
#    0.000    1.750    1.250    3.375    0.000    5.500 
#    2.250    0.000    0.000    0.000    0.000    0.000 
#    0.000    0.000    0.000    0.000    0.000    0.000 
#
# Total GULP energy -178957.890713 kJ/mol
# GULP energy per Si atom -5592.434085 kJ/mol
# Density = 2.286258 g / cm^3
# Si number density = 22.914734 Si / 1000 Ang^3
#
#
#
# Elastic Constant Matrix: (Units=GPa)
#
#
# Indices 1 2 3 4 5 6 
#
# 1 32.3983 0.1945 22.9926 0.0000 0.0000 0.0000
# 2 0.1945 48.8768 2.1133 0.0000 0.0000 0.0000
# 3 22.9926 2.1133 118.4985 0.0000 0.0000 0.0000
# 4 0.0000 0.0000 0.0000 37.6383 0.0000 0.0000
# 5 0.0000 0.0000 0.0000 0.0000 21.9291 0.0000
# 6 0.0000 0.0000 0.0000 0.0000 0.0000 25.3727
#
#
#
# Elastic Compliance Matrix: (Units=1/GPa)
#
#
# Indices 1 2 3 4 5 6 
#
# 1 0.035796 0.000158 -0.006948 0.000000 0.000000 0.000000
# 2 0.000158 0.020476 -0.000396 0.000000 0.000000 0.000000
# 3 -0.006948 -0.000396 0.009794 0.000000 0.000000 0.000000
# 4 0.000000 0.000000 0.000000 0.026569 0.000000 0.000000
# 5 0.000000 0.000000 0.000000 0.000000 0.045601 0.000000
# 6 0.000000 0.000000 0.000000 0.000000 0.000000 0.039412
#
#
# Mechanical properties :
#
#
# Convention : Reuss Voigt Hill
#
# Bulk Modulus (GPa) = 19.34468 27.81938 23.58203
# Shear Modulus (GPa) = 23.89455 28.61957 26.25706
#
# Velocity S-wave (km/s) = 3.23268 3.53790 3.38873
# Velocity P-wave (km/s) = 4.73223 5.37175 5.06210
#
# Compressibility (1/GPa) = 0.05169379
#
# Stress axis : x y z
#
# Youngs Moduli (GPa) = 27.93604 48.83741 102.10109
#
# Poissons Ratio (x) = -0.00771 0.70944
# Poissons Ratio (y) = -0.00441 0.04041
# Poissons Ratio (z) = 0.19411 0.01933
#
# Static dielectric constant tensor:
#      x y z
#    x 1.754540 0.000000 0.000000 
#    y 0.000000 1.927000 0.000000 
#    z 0.000000 0.000000 1.908680 
# 
# From -- ./inp_files/10868.got.cif
#   From: 2010.05.17/outbox.cif.g08.bks.cpg/sg36_6_cif.got.tgz:10868.got - 2010.06.03 17:41:39.
