data_PCOD9350619
_publ_section_title
;
Structure prediction by ZEFSAII (Michael W. Deem and Ramdas Pophale) SiO2 
 PCOD9350619
Probable space group: C M C 21
;
_chemical_formula_sum "Si O2"
_cell_formula_units_Z 64
_cell_length_a 22.445684
_cell_length_b 8.379859
_cell_length_c 14.793756
_cell_angle_alpha 90.000000
_cell_angle_beta 90.000000
_cell_angle_gamma 90.000000
_cell_volume 2782.582228
_symmetry_space_group_name_H-M "C M C 21"
_symmetry_group_IT_number 36
_symmetry_cell_setting 'orthorhombic'
loop_
_space_group_symop_operation_xyz
x,y,z
-x,-y,1/2+z
x,-y,1/2+z
-x,y,z
1/2+x,1/2+y,z
1/2-x,1/2-y,1/2+z
1/2+x,1/2-y,1/2+z
1/2-x,1/2+y,z
loop_
_atom_site_type_symbol
_atom_site_label
_atom_site_fract_x
_atom_site_fract_y
_atom_site_fract_z
Si Si1 0.311318 0.197529 0.252940
Si Si2 0.435858 0.668516 0.491908
Si Si3 0.809402 0.813057 0.971411
Si Si4 0.062606 0.552497 0.521231
Si Si5 0.312037 0.575895 0.260834
Si Si6 0.813108 0.567359 0.456106
Si Si7 0.434256 0.038581 0.221163
Si Si8 0.065859 0.794436 0.782459
O O1 0.310123 0.386464 0.259355
O O2 0.247704 0.141454 0.212627
O O3 0.310432 0.115818 0.351529
O O4 0.375221 0.144081 0.213868
O O5 0.500000 0.609454 0.529244
O O6 0.368744 0.621472 0.521197
O O7 0.437200 0.860948 0.504190
O O8 0.435612 0.636506 0.384248
O O9 0.810592 0.868467 0.866409
O O10 0.811714 0.622281 0.968817
O O11 0.745055 0.865892 0.006149
O O12 0.122829 0.629031 0.487143
O O13 0.062845 0.561024 0.628881
O O14 0.000000 0.616982 0.484131
O O15 0.376553 0.640530 0.230519
O O16 0.500000 0.116736 0.232529
O O17 0.427267 0.897964 0.294345
O O18 0.000000 0.824769 0.743339
#
# Coordination Sequence:
#
# PCOD9350619 Si02
#       8
#     8   8   8   8   8   8   8   8
#     4  11  20  32  52  76 103 133 167 208 250 297
#     4   8  14  27  48  70  92 122 162 200 238 289
#     4   9  16  28  48  74  99 126 159 201 248 290
#     4   9  18  32  50  72  99 131 166 206 249 294
#     4  10  19  32  52  77 106 133 165 210 255 295
#     4  10  18  31  52  75 102 131 165 205 249 300
#     4  10  20  34  52  74 101 133 171 211 252 299
#     4   9  17  32  54  76  98 131 171 207 249 302
#
# _framework density 23.000219000000001
#
# number of rings (size 3 to 8) (size 9 to 14) (size 15 to 20)
#    0.000    2.500    0.000    6.000    0.000    2.000 
#    0.000    5.000    0.000    6.750    0.000   15.750 
#    0.000    0.000    0.000    0.000    0.000    0.000 
#
# Total GULP energy -178336.795471 kJ/mol
# GULP energy per Si atom -5573.024858 kJ/mol
# Density = 2.294787 g / cm^3
# Si number density = 23.000219 Si / 1000 Ang^3
#
#
#
# Elastic Constant Matrix: (Units=GPa)
#
#
# Indices 1 2 3 4 5 6 
#
# 1 295.3010 56.1202 10.4447 0.0000 0.0000 0.0000
# 2 56.1202 60.2519 -7.6300 0.0000 0.0000 0.0000
# 3 10.4447 -7.6300 20.0706 0.0000 0.0000 0.0000
# 4 0.0000 0.0000 0.0000 3.7972 0.0000 0.0000
# 5 0.0000 0.0000 0.0000 0.0000 30.2318 0.0000
# 6 0.0000 0.0000 0.0000 0.0000 0.0000 69.1645
#
#
#
# Elastic Compliance Matrix: (Units=1/GPa)
#
#
# Indices 1 2 3 4 5 6 
#
# 1 0.004407 -0.004618 -0.004049 0.000000 0.000000 0.000000
# 2 -0.004618 0.022275 0.010871 0.000000 0.000000 0.000000
# 3 -0.004049 0.010871 0.056064 0.000000 0.000000 0.000000
# 4 0.000000 0.000000 0.000000 0.263349 0.000000 0.000000
# 5 0.000000 0.000000 0.000000 0.000000 0.033078 0.000000
# 6 0.000000 0.000000 0.000000 0.000000 0.000000 0.014458
#
#
# Mechanical properties :
#
#
# Convention : Reuss Voigt Hill
#
# Bulk Modulus (GPa) = 11.47388 54.83260 33.15324
# Shear Modulus (GPa) = 11.95388 41.75127 26.85257
#
# Velocity S-wave (km/s) = 2.28223 4.26520 3.42057
# Velocity P-wave (km/s) = 3.45604 6.93886 5.48142
#
# Compressibility (1/GPa) = 0.08715444
#
# Stress axis : x y z
#
# Youngs Moduli (GPa) = 226.90425 44.89408 17.83677
#
# Poissons Ratio (x) = 0.20731 0.07222
# Poissons Ratio (y) = 1.04777 -0.19390
# Poissons Ratio (z) = 0.91872 -0.48804
#
# Static dielectric constant tensor:
#      x y z
#    x 2.004640 0.000000 0.000000 
#    y 0.000000 1.826730 0.000000 
#    z 0.000000 0.000000 1.920360 
# 
# From -- ./inp_files/15118.got.cif
#   From: 2010.05.17/outbox.cif.g08.bks.cpg/sg36_8_cif.got.tgz:15118.got - 2010.06.03 17:41:39.
