data_PCOD9350236
_publ_section_title
;
Structure prediction by ZEFSAII (Michael W. Deem and Ramdas Pophale) SiO2 
 PCOD9350236
Probable space group: C M M 2
;
_chemical_formula_sum "Si O2"
_cell_formula_units_Z 56
_cell_length_a 8.776942
_cell_length_b 15.312929
_cell_length_c 19.159865
_cell_angle_alpha 90.000000
_cell_angle_beta 90.000000
_cell_angle_gamma 90.000000
_cell_volume 2575.099070
_symmetry_space_group_name_H-M "C M M 2"
_symmetry_group_IT_number 35
_symmetry_cell_setting 'orthorhombic'
loop_
_space_group_symop_operation_xyz
x,y,z
-x,-y,z
-x,y,z
x,-y,z
1/2+x,1/2+y,z
1/2-x,1/2-y,z
1/2-x,1/2+y,z
1/2+x,1/2-y,z
loop_
_atom_site_type_symbol
_atom_site_label
_atom_site_fract_x
_atom_site_fract_y
_atom_site_fract_z
Si Si1 0.669879 0.603428 0.079480
Si Si2 0.317085 0.848679 0.504292
Si Si3 0.819043 0.652907 0.221994
Si Si4 0.317526 0.848592 0.657322
Si Si5 0.682260 0.650738 0.363008
Si Si6 0.319017 0.347259 0.797645
Si Si7 0.670108 0.896540 0.941054
O O1 0.500000 0.640720 0.090863
O O2 0.653538 0.500000 0.068193
O O3 0.770652 0.613205 0.148363
O O4 0.747312 0.640349 0.009649
O O5 0.500000 0.844830 0.496020
O O6 0.250000 0.750000 0.507200
O O7 0.283708 0.888070 0.580843
O O8 0.243404 0.889666 0.435199
O O9 0.750000 0.750000 0.218857
O O10 0.744369 0.610520 0.291036
O O11 0.000000 0.654713 0.230249
O O12 0.500000 0.844058 0.664494
O O13 0.250000 0.750000 0.655128
O O14 0.247899 0.890059 0.727044
O O15 0.500000 0.653794 0.362666
O O16 0.750000 0.750000 0.363076
O O17 0.500000 0.345163 0.793037
O O18 0.250000 0.250000 0.799048
O O19 0.264959 0.386829 0.870460
O O20 0.500000 0.858909 0.932136
O O21 0.654307 0.000000 0.952744
#
# Coordination Sequence:
#
# PCOD9350236 Si02
#       7
#     8   8   8   8   8   8   8
#     4  10  21  38  58  79 103 130 164 205 249 299
#     4   9  15  23  37  59  89 126 164 201 243 292
#     4  11  21  34  52  75 105 136 170 209 252 299
#     4   9  16  26  41  63  94 129 165 204 247 294
#     4  10  17  26  41  63  94 129 165 204 248 294
#     4  11  21  33  51  75 105 136 169 209 253 299
#     4  10  21  38  58  78 101 130 166 206 249 299
#
# _framework density 21.746737
#
# number of rings (size 3 to 8) (size 9 to 14) (size 15 to 20)
#    0.000    2.000    0.000    8.143    0.000    4.000 
#    0.000    2.857    0.000    0.000    0.000    1.000 
#    0.000    1.143    0.000    0.000    0.000    0.000 
#
# Total GULP energy -156273.479359 kJ/mol
# GULP energy per Si atom -5581.195691 kJ/mol
# Density = 2.169724 g / cm^3
# Si number density = 21.746737 Si / 1000 Ang^3
#
#
#
# Elastic Constant Matrix: (Units=GPa)
#
#
# Indices 1 2 3 4 5 6 
#
# 1 199.7682 7.4326 102.3906 0.0000 0.0000 0.0000
# 2 7.4326 29.7391 9.8730 0.0000 0.0000 0.0000
# 3 102.3906 9.8730 235.3544 0.0000 0.0000 0.0000
# 4 0.0000 0.0000 0.0000 10.5075 0.0000 0.0000
# 5 0.0000 0.0000 0.0000 0.0000 72.7723 0.0000
# 6 0.0000 0.0000 0.0000 0.0000 0.0000 8.2521
#
#
#
# Elastic Compliance Matrix: (Units=1/GPa)
#
#
# Indices 1 2 3 4 5 6 
#
# 1 0.006456 -0.000691 -0.002780 0.000000 0.000000 0.000000
# 2 -0.000691 0.034175 -0.001133 0.000000 0.000000 0.000000
# 3 -0.002780 -0.001133 0.005506 0.000000 0.000000 0.000000
# 4 0.000000 0.000000 0.000000 0.095170 0.000000 0.000000
# 5 0.000000 0.000000 0.000000 0.000000 0.013741 0.000000
# 6 0.000000 0.000000 0.000000 0.000000 0.000000 0.121181
#
#
# Mechanical properties :
#
#
# Convention : Reuss Voigt Hill
#
# Bulk Modulus (GPa) = 27.07870 78.25043 52.66457
# Shear Modulus (GPa) = 16.79281 41.31741 29.05511
#
# Velocity S-wave (km/s) = 2.78186 4.36355 3.65919
# Velocity P-wave (km/s) = 4.77464 7.83889 6.49020
#
# Compressibility (1/GPa) = 0.03692939
#
# Stress axis : x y z
#
# Youngs Moduli (GPa) = 154.88768 29.26148 181.62660
#
# Poissons Ratio (x) = 0.02021 0.50489
# Poissons Ratio (y) = 0.10699 0.20580
# Poissons Ratio (z) = 0.43056 0.03316
#
# Static dielectric constant tensor:
#      x y z
#    x 1.753130 0.000000 0.000000 
#    y 0.000000 1.801730 0.000000 
#    z 0.000000 0.000000 1.868250 
# 
# From -- ./inp_files/18236.got.cif
#   From: 2010.05.17/outbox.cif.g08.bks.cpg/sg35_10_cif.got.tgz:18236.got - 2010.06.03 17:29:28.
