data_PCOD9350215
_publ_section_title
;
Structure prediction by ZEFSAII (Michael W. Deem and Ramdas Pophale) SiO2 
 PCOD9350215
Probable space group: C M M 2
;
_chemical_formula_sum "Si O2"
_cell_formula_units_Z 64
_cell_length_a 17.093908
_cell_length_b 13.231782
_cell_length_c 14.119795
_cell_angle_alpha 90.000000
_cell_angle_beta 90.000000
_cell_angle_gamma 90.000000
_cell_volume 3193.655675
_symmetry_space_group_name_H-M "C M M 2"
_symmetry_group_IT_number 35
_symmetry_cell_setting 'orthorhombic'
loop_
_space_group_symop_operation_xyz
x,y,z
-x,-y,z
-x,y,z
x,-y,z
1/2+x,1/2+y,z
1/2-x,1/2-y,z
1/2-x,1/2+y,z
1/2+x,1/2-y,z
loop_
_atom_site_type_symbol
_atom_site_label
_atom_site_fract_x
_atom_site_fract_y
_atom_site_fract_z
Si Si1 0.877737 0.271588 0.668260
Si Si2 0.089186 0.244160 0.353128
Si Si3 0.385881 0.884793 0.848792
Si Si4 0.797941 0.110892 0.797255
Si Si5 0.693382 0.118227 0.492796
Si Si6 0.594535 0.382182 0.172993
Si Si7 0.619764 0.384361 0.519403
Si Si8 0.658980 0.717385 0.982929
O O1 0.918127 0.329739 0.754872
O O2 0.819611 0.194335 0.721448
O O3 0.841898 0.352185 0.595225
O O4 0.915602 0.192268 0.595793
O O5 0.147533 0.319411 0.410505
O O6 0.118775 0.198473 0.254031
O O7 0.084776 0.145238 0.419116
O O8 0.000000 0.285727 0.344105
O O9 0.293361 0.888307 0.822518
O O10 0.388678 0.814324 0.941840
O O11 0.411844 0.000000 0.861980
O O12 0.840534 0.140364 0.894378
O O13 0.819554 0.000000 0.762875
O O14 0.786556 0.136101 0.504807
O O15 0.682517 0.000000 0.474309
O O16 0.500000 0.383012 0.173505
O O17 0.620129 0.500000 0.186876
O O18 0.625038 0.337204 0.074124
O O19 0.608435 0.500000 0.544286
O O20 0.750000 0.750000 0.998313
#
# Coordination Sequence:
#
# PCOD9350215 Si02
#       8
#     8   8   8   8   8   8   8   8
#     4  10  16  25  44  72 105 139 173 207 245 293
#     4  10  21  37  55  74  99 132 171 212 255 310
#     4   9  16  26  43  71 106 139 169 204 246 293
#     4   9  15  24  42  72 107 138 168 205 251 298
#     4  10  20  33  51  77 107 138 172 210 251 295
#     4  10  21  38  59  79  99 128 167 212 265 320
#     4  10  19  31  50  78 109 136 167 212 260 301
#     4   9  18  31  50  77 106 133 167 212 255 301
#
# _framework density 20.039731
#
# number of rings (size 3 to 8) (size 9 to 14) (size 15 to 20)
#    0.000    2.375    0.000    5.625    0.000    4.500 
#    0.000    0.625    0.000   13.125    0.000    0.000 
#    0.000    0.000    0.000    0.000    0.000    0.000 
#
# Total GULP energy -178318.496958 kJ/mol
# GULP energy per Si atom -5572.453030 kJ/mol
# Density = 1.999412 g / cm^3
# Si number density = 20.039731 Si / 1000 Ang^3
#
#
#
# Elastic Constant Matrix: (Units=GPa)
#
#
# Indices 1 2 3 4 5 6 
#
# 1 69.4423 39.2318 30.6643 0.0000 0.0000 0.0000
# 2 39.2318 142.0936 46.0518 0.0000 0.0000 0.0000
# 3 30.6643 46.0518 132.6143 0.0000 0.0000 0.0000
# 4 0.0000 0.0000 0.0000 18.5735 0.0000 0.0000
# 5 0.0000 0.0000 0.0000 0.0000 39.7609 0.0000
# 6 0.0000 0.0000 0.0000 0.0000 0.0000 3.7104
#
#
#
# Elastic Compliance Matrix: (Units=1/GPa)
#
#
# Indices 1 2 3 4 5 6 
#
# 1 0.017898 -0.004057 -0.002730 0.000000 0.000000 0.000000
# 2 -0.004057 0.008850 -0.002135 0.000000 0.000000 0.000000
# 3 -0.002730 -0.002135 0.008913 0.000000 0.000000 0.000000
# 4 0.000000 0.000000 0.000000 0.053840 0.000000 0.000000
# 5 0.000000 0.000000 0.000000 0.000000 0.025150 0.000000
# 6 0.000000 0.000000 0.000000 0.000000 0.000000 0.269510
#
#
# Mechanical properties :
#
#
# Convention : Reuss Voigt Hill
#
# Bulk Modulus (GPa) = 56.12480 64.00512 60.06496
# Shear Modulus (GPa) = 12.25660 27.62246 19.93953
#
# Velocity S-wave (km/s) = 2.47577 3.71669 3.15778
# Velocity P-wave (km/s) = 6.01998 7.10118 6.58282
#
# Compressibility (1/GPa) = 0.01781743
#
# Stress axis : x y z
#
# Youngs Moduli (GPa) = 55.87293 112.99854 112.19210
#
# Poissons Ratio (x) = 0.45842 0.30625
# Poissons Ratio (y) = 0.22667 0.23954
# Poissons Ratio (z) = 0.15252 0.24126
#
# Static dielectric constant tensor:
#      x y z
#    x 1.777920 0.000000 0.000000 
#    y 0.000000 1.732750 0.000000 
#    z 0.000000 0.000000 1.693760 
# 
# From -- ./inp_files/13579.got.cif
#   From: 2010.05.17/outbox.cif.g08.bks.cpg/sg35_7_cif.got.tgz:13579.got - 2010.06.03 17:29:28.
