data_PCOD9350852
_publ_section_title
;
Structure prediction by ZEFSAII (Michael W. Deem and Ramdas Pophale) SiO2 
 PCOD9350852
Probable space group: C M C 21
;
_chemical_formula_sum "Si O2"
_cell_formula_units_Z 48
_cell_length_a 16.907191
_cell_length_b 16.331386
_cell_length_c 8.056787
_cell_angle_alpha 90.000000
_cell_angle_beta 90.000000
_cell_angle_gamma 90.000000
_cell_volume 2224.622804
_symmetry_space_group_name_H-M "C M C 21"
_symmetry_group_IT_number 36
_symmetry_cell_setting 'orthorhombic'
loop_
_space_group_symop_operation_xyz
x,y,z
-x,-y,1/2+z
x,-y,1/2+z
-x,y,z
1/2+x,1/2+y,z
1/2-x,1/2-y,1/2+z
1/2+x,1/2-y,1/2+z
1/2-x,1/2+y,z
loop_
_atom_site_type_symbol
_atom_site_label
_atom_site_fract_x
_atom_site_fract_y
_atom_site_fract_z
Si Si1 0.904636 0.025671 0.423010
Si Si2 0.412318 0.331636 0.162407
Si Si3 0.404256 0.625788 0.109147
Si Si4 0.838360 0.707374 0.953988
Si Si5 0.094664 0.319971 0.120990
Si Si6 0.309295 0.198480 0.316799
O O1 0.891391 0.081508 0.585647
O O2 0.872568 0.077321 0.269980
O O3 0.000000 0.023163 0.403147
O O4 0.878100 0.933446 0.458453
O O5 0.500000 0.334379 0.235302
O O6 0.352413 0.285440 0.280029
O O7 0.411241 0.265614 0.010158
O O8 0.500000 0.620887 0.113481
O O9 0.388298 0.721710 0.117287
O O10 0.865296 0.654524 0.795840
O O11 0.771537 0.772435 0.899381
O O12 0.809069 0.664655 0.126599
O O13 0.000000 0.333427 0.116852
O O14 0.138729 0.349586 0.953220
#
# Coordination Sequence:
#
# PCOD9350852 Si02
#       6
#     8   8   8   8   8   8
#     4   9  16  25  36  55  81 106 135 176 207 228
#     4   9  17  29  43  58  81 110 145 179 202 239
#     4   9  17  25  36  56  80 105 137 174 207 232
#     4  10  19  31  42  59  83 106 142 182 215 252
#     4  11  19  30  46  62  81 113 150 179 206 245
#     4  10  20  30  43  60  80 108 143 178 219 254
#
# _framework density 21.576691
#
# number of rings (size 3 to 8) (size 9 to 14) (size 15 to 20)
#    1.000    1.333    3.333    1.000    2.333    0.000 
#    0.000    0.000    0.000    0.000    0.000    0.000 
#    0.000    0.000    0.000    0.000    0.000  116.667 
#
# Total GULP energy -133607.423748 kJ/mol
# GULP energy per Si atom -5566.975989 kJ/mol
# Density = 2.152758 g / cm^3
# Si number density = 21.576691 Si / 1000 Ang^3
#
#
#
# Elastic Constant Matrix: (Units=GPa)
#
#
# Indices 1 2 3 4 5 6 
#
# 1 74.1472 -20.7226 34.8168 0.0000 0.0000 0.0000
# 2 -20.7226 16.7574 -13.6609 0.0000 0.0000 0.0000
# 3 34.8168 -13.6609 155.4913 0.0000 0.0000 0.0000
# 4 0.0000 0.0000 0.0000 15.6845 0.0000 0.0000
# 5 0.0000 0.0000 0.0000 0.0000 24.1527 0.0000
# 6 0.0000 0.0000 0.0000 0.0000 0.0000 -1.3626
#
#
#
# Elastic Compliance Matrix: (Units=1/GPa)
#
#
# Indices 1 2 3 4 5 6 
#
# 1 0.021600 0.024525 -0.002682 0.000000 0.000000 0.000000
# 2 0.024525 0.092125 0.002602 0.000000 0.000000 0.000000
# 3 -0.002682 0.002602 0.007260 0.000000 0.000000 0.000000
# 4 0.000000 0.000000 0.000000 0.063757 0.000000 0.000000
# 5 0.000000 0.000000 0.000000 0.000000 0.041403 0.000000
# 6 0.000000 0.000000 0.000000 0.000000 0.000000 -0.733869
#
#
# Mechanical properties :
#
#
# Convention : Reuss Voigt Hill
#
# Bulk Modulus (GPa) = 5.88663 27.47362 16.68013
# Shear Modulus (GPa) = -10.00023 24.09242 7.04610
#
# Velocity S-wave (km/s) = -2.15518 3.34517 1.80906
# Velocity P-wave (km/s) = 1.85981 5.26126 3.48009
#
# Compressibility (1/GPa) = 0.16987637
#
# Stress axis : x y z
#
# Youngs Moduli (GPa) = 46.29570 10.85482 137.73388
#
# Poissons Ratio (x) = -0.26622 0.36939
# Poissons Ratio (y) = -1.13541 -0.35841
# Poissons Ratio (z) = 0.12416 -0.02825
#
# Static dielectric constant tensor:
#      x y z
#    x 1.772880 0.000000 0.000000 
#    y 0.000000 1.750950 0.000000 
#    z 0.000000 0.000000 2.020960 
# 
# From -- ./inp_files/4846.got.cif
#   From: 2010.05.17/outbox.cif.g08.bks.cpg/sg36_3_cif.got.tgz:4846.got - 2010.06.03 17:41:39.
