data_PCOD9350111
_publ_section_title
;
Structure prediction by ZEFSAII (Michael W. Deem and Ramdas Pophale) SiO2 
 PCOD9350111
Probable space group: C M M 2
;
_chemical_formula_sum "Si O2"
_cell_formula_units_Z 48
_cell_length_a 8.818501
_cell_length_b 18.301677
_cell_length_c 16.006687
_cell_angle_alpha 90.000000
_cell_angle_beta 90.000000
_cell_angle_gamma 90.000000
_cell_volume 2583.372948
_symmetry_space_group_name_H-M "C M M 2"
_symmetry_group_IT_number 35
_symmetry_cell_setting 'orthorhombic'
loop_
_space_group_symop_operation_xyz
x,y,z
-x,-y,z
-x,y,z
x,-y,z
1/2+x,1/2+y,z
1/2-x,1/2-y,z
1/2-x,1/2+y,z
1/2+x,1/2-y,z
loop_
_atom_site_type_symbol
_atom_site_label
_atom_site_fract_x
_atom_site_fract_y
_atom_site_fract_z
Si Si1 0.182013 0.915605 0.728370
Si Si2 0.180204 0.412994 0.403318
Si Si3 0.176060 0.411256 0.901195
Si Si4 0.682841 0.669190 0.561826
Si Si5 0.818788 0.169131 0.244482
Si Si6 0.316778 0.086760 0.086654
O O1 0.237922 0.887335 0.818136
O O2 0.230503 0.867635 0.649568
O O3 0.000000 0.916742 0.729209
O O4 0.234565 0.000000 0.718108
O O5 0.202294 0.500000 0.402233
O O6 0.254733 0.378587 0.485516
O O7 0.255167 0.377166 0.322080
O O8 0.000000 0.398034 0.402909
O O9 0.183262 0.500000 0.902592
O O10 0.000000 0.390772 0.893601
O O11 0.230991 0.388586 0.993229
O O12 0.500000 0.671447 0.558454
O O13 0.750000 0.750000 0.555400
O O14 0.750000 0.250000 0.249406
O O15 0.763271 0.131161 0.159286
O O16 0.000000 0.172187 0.247691
O O17 0.500000 0.094944 0.092144
O O18 0.285068 0.000000 0.095490
#
# Coordination Sequence:
#
# PCOD9350111 Si02
#       6
#     8   8   8   8   8   8
#     4   9  18  33  54  80 110 145 186 233 280 326
#     4  11  24  42  64  88 113 143 181 226 276 331
#     4   8  15  29  52  81 111 144 182 227 277 327
#     4  11  23  39  58  82 115 151 188 230 278 331
#     4  12  25  40  59  83 114 150 187 228 277 332
#     4   9  18  35  58  84 115 149 187 232 280 330
#
# _framework density 18.580361
#
# number of rings (size 3 to 8) (size 9 to 14) (size 15 to 20)
#    0.000    2.000    0.000    5.000    0.000    6.333 
#    0.000    4.167    0.000    2.000    0.000    0.000 
#    0.000    0.000    0.000    0.000    0.000    0.000 
#
# Total GULP energy -134025.719520 kJ/mol
# GULP energy per Si atom -5584.404980 kJ/mol
# Density = 1.853807 g / cm^3
# Si number density = 18.580361 Si / 1000 Ang^3
#
#
#
# Elastic Constant Matrix: (Units=GPa)
#
#
# Indices 1 2 3 4 5 6 
#
# 1 82.1094 61.2419 74.7154 0.0000 0.0000 0.0000
# 2 61.2419 85.6136 77.0555 0.0000 0.0000 0.0000
# 3 74.7154 77.0555 198.9882 0.0000 0.0000 0.0000
# 4 0.0000 0.0000 0.0000 -33.8094 0.0000 0.0000
# 5 0.0000 0.0000 0.0000 0.0000 40.5570 0.0000
# 6 0.0000 0.0000 0.0000 0.0000 0.0000 24.7740
#
#
#
# Elastic Compliance Matrix: (Units=1/GPa)
#
#
# Indices 1 2 3 4 5 6 
#
# 1 0.028297 -0.016392 -0.004277 0.000000 0.000000 0.000000
# 2 -0.016392 0.027425 -0.004465 0.000000 0.000000 0.000000
# 3 -0.004277 -0.004465 0.008360 0.000000 0.000000 0.000000
# 4 0.000000 0.000000 0.000000 -0.029578 0.000000 0.000000
# 5 0.000000 0.000000 0.000000 0.000000 0.024657 0.000000
# 6 0.000000 0.000000 0.000000 0.000000 0.000000 0.040365
#
#
# Mechanical properties :
#
#
# Convention : Reuss Voigt Hill
#
# Bulk Modulus (GPa) = 72.39233 88.08187 80.23710
# Shear Modulus (GPa) = 32.38349 16.55087 24.46718
#
# Velocity S-wave (km/s) = 4.17932 2.98782 3.63275
# Velocity P-wave (km/s) = 7.89527 7.70789 7.80214
#
# Compressibility (1/GPa) = 0.01381362
#
# Stress axis : x y z
#
# Youngs Moduli (GPa) = 35.33932 36.46337 119.61015
#
# Poissons Ratio (x) = 0.59771 0.51161
# Poissons Ratio (y) = 0.57928 0.53407
# Poissons Ratio (z) = 0.15116 0.16281
#
# Static dielectric constant tensor:
#      x y z
#    x 1.624620 0.000000 0.000000 
#    y 0.000000 1.617850 0.000000 
#    z 0.000000 0.000000 1.634100 
# 
# From -- ./inp_files/15152.got.cif
#   From: 2010.05.17/outbox.cif.g08.bks.cpg/sg35_8_cif.got.tgz:15152.got - 2010.06.03 17:29:28.
