data_PCOD9350325
_publ_section_title
;
Structure prediction by ZEFSAII (Michael W. Deem and Ramdas Pophale) SiO2 
 PCOD9350325
Probable space group: C M M 2
;
_chemical_formula_sum "Si O2"
_cell_formula_units_Z 56
_cell_length_a 22.088248
_cell_length_b 7.676183
_cell_length_c 14.541249
_cell_angle_alpha 90.000000
_cell_angle_beta 90.000000
_cell_angle_gamma 90.000000
_cell_volume 2465.518700
_symmetry_space_group_name_H-M "C M M 2"
_symmetry_group_IT_number 35
_symmetry_cell_setting 'orthorhombic'
loop_
_space_group_symop_operation_xyz
x,y,z
-x,-y,z
-x,y,z
x,-y,z
1/2+x,1/2+y,z
1/2-x,1/2-y,z
1/2-x,1/2+y,z
1/2+x,1/2-y,z
loop_
_atom_site_type_symbol
_atom_site_label
_atom_site_fract_x
_atom_site_fract_y
_atom_site_fract_z
Si Si1 0.500000 0.300792 0.618440
Si Si2 0.315637 0.794071 0.457752
Si Si3 0.183422 0.209550 0.031751
Si Si4 0.566082 0.709423 0.140016
Si Si5 0.000000 0.707762 0.831280
Si Si6 0.629006 0.291803 0.639532
Si Si7 0.133501 0.206951 0.846126
Si Si8 0.566101 0.209569 0.356322
O O1 0.500000 0.500000 0.585465
O O2 0.500000 0.297162 0.730569
O O3 0.565311 0.218405 0.598638
O O4 0.250000 0.750000 0.418496
O O5 0.320635 0.738765 0.563967
O O6 0.374185 0.718511 0.405768
O O7 0.320853 0.000000 0.454941
O O8 0.250000 0.250000 0.068395
O O9 0.126071 0.276243 0.089565
O O10 0.178555 0.000000 0.029285
O O11 0.175468 0.277008 0.927125
O O12 0.500000 0.775066 0.106894
O O13 0.565443 0.500000 0.129331
O O14 0.569819 0.749397 0.248238
O O15 0.063424 0.763404 0.875320
O O16 0.000000 0.500000 0.819605
O O17 0.620136 0.500000 0.648522
O O18 0.640746 0.222182 0.742292
O O19 0.143655 0.000000 0.840232
O O20 0.500000 0.273265 0.390554
O O21 0.565729 0.000000 0.365899
#
# Coordination Sequence:
#
# PCOD9350325 Si02
#       8
#     4   8   8   8   4   8   8   8
#     4   8  16  32  52  76 107 144 183 228 283 340
#     4  11  24  39  57  82 115 154 192 234 285 341
#     4  10  22  38  58  84 116 154 192 235 284 338
#     4   9  19  37  62  90 113 142 187 232 279 339
#     4  10  18  28  48  80 109 138 185 242 285 324
#     4   9  18  34  55  81 112 148 194 236 280 333
#     4   9  19  36  56  77 111 158 195 232 283 339
#     4   9  20  40  63  86 112 145 183 229 290 345
#
# _framework density 22.713272
#
# number of rings (size 3 to 8) (size 9 to 14) (size 15 to 20)
#    0.000    2.571    0.000    1.929    2.000    5.714 
#    0.000    4.286    0.000    0.000    0.000    0.000 
#    0.000    0.000    0.000    0.000    0.000    0.000 
#
# Total GULP energy -156273.112945 kJ/mol
# GULP energy per Si atom -5581.182605 kJ/mol
# Density = 2.266158 g / cm^3
# Si number density = 22.713272 Si / 1000 Ang^3
#
#
#
# Elastic Constant Matrix: (Units=GPa)
#
#
# Indices 1 2 3 4 5 6 
#
# 1 186.4207 -1.7545 75.7808 0.0000 0.0000 0.0000
# 2 -1.7545 49.3884 4.2134 0.0000 0.0000 0.0000
# 3 75.7808 4.2134 73.2496 0.0000 0.0000 0.0000
# 4 0.0000 0.0000 0.0000 115.1446 0.0000 0.0000
# 5 0.0000 0.0000 0.0000 0.0000 22.7238 0.0000
# 6 0.0000 0.0000 0.0000 0.0000 0.0000 4.3907
#
#
#
# Elastic Compliance Matrix: (Units=1/GPa)
#
#
# Indices 1 2 3 4 5 6 
#
# 1 0.009323 0.001160 -0.009712 0.000000 0.000000 0.000000
# 2 0.001160 0.020492 -0.002379 0.000000 0.000000 0.000000
# 3 -0.009712 -0.002379 0.023836 0.000000 0.000000 0.000000
# 4 0.000000 0.000000 0.000000 0.008685 0.000000 0.000000
# 5 0.000000 0.000000 0.000000 0.000000 0.044007 0.000000
# 6 0.000000 0.000000 0.000000 0.000000 0.000000 0.227753
#
#
# Mechanical properties :
#
#
# Convention : Reuss Voigt Hill
#
# Bulk Modulus (GPa) = 31.45670 51.72644 41.59157
# Shear Modulus (GPa) = 13.64055 43.83976 28.74016
#
# Velocity S-wave (km/s) = 2.45328 4.39810 3.56103
# Velocity P-wave (km/s) = 4.68021 6.97238 5.93795
#
# Compressibility (1/GPa) = 0.03178973
#
# Stress axis : x y z
#
# Youngs Moduli (GPa) = 107.26067 48.79999 41.95274
#
# Poissons Ratio (x) = -0.05660 0.40744
# Poissons Ratio (y) = -0.12440 0.09979
# Poissons Ratio (z) = 1.04171 0.11607
#
# Static dielectric constant tensor:
#      x y z
#    x 1.891770 0.000000 0.000000 
#    y 0.000000 1.825740 0.000000 
#    z 0.000000 0.000000 1.843030 
# 
# From -- ./inp_files/17483.got.cif
#   From: 2010.05.17/outbox.cif.g08.bks.cpg/sg35_9_cif.got.tgz:17483.got - 2010.06.03 17:29:28.
