data_PCOD9350134
_publ_section_title
;
Structure prediction by ZEFSAII (Michael W. Deem and Ramdas Pophale) SiO2 
 PCOD9350134
Probable space group: C M M 2
;
_chemical_formula_sum "Si O2"
_cell_formula_units_Z 48
_cell_length_a 17.123493
_cell_length_b 14.354018
_cell_length_c 7.573792
_cell_angle_alpha 90.000000
_cell_angle_beta 90.000000
_cell_angle_gamma 90.000000
_cell_volume 1861.569355
_symmetry_space_group_name_H-M "C M M 2"
_symmetry_group_IT_number 35
_symmetry_cell_setting 'orthorhombic'
loop_
_space_group_symop_operation_xyz
x,y,z
-x,-y,z
-x,y,z
x,-y,z
1/2+x,1/2+y,z
1/2-x,1/2-y,z
1/2-x,1/2+y,z
1/2+x,1/2-y,z
loop_
_atom_site_type_symbol
_atom_site_label
_atom_site_fract_x
_atom_site_fract_y
_atom_site_fract_z
Si Si1 0.748007 0.395713 0.710690
Si Si2 0.248513 0.863571 0.117998
Si Si3 0.083274 0.392999 0.667060
Si Si4 0.083039 0.365917 0.253450
Si Si5 0.916078 0.851258 0.169637
Si Si6 0.584199 0.386772 0.751750
O O1 0.756479 0.500000 0.634375
O O2 0.832421 0.347425 0.698680
O O3 0.663623 0.357523 0.652377
O O4 0.738573 0.399541 0.920730
O O5 0.250000 0.750000 0.115880
O O6 0.333062 0.895984 0.181662
O O7 0.168907 0.891581 0.218784
O O8 0.086466 0.500000 0.734404
O O9 0.079692 0.394473 0.456224
O O10 0.000000 0.352309 0.731180
O O11 0.083548 0.254255 0.236999
O O12 0.000000 0.396205 0.169373
O O13 0.000000 0.894182 0.221252
O O14 0.916121 0.850423 0.954072
O O15 0.500000 0.361725 0.670436
O O16 0.587359 0.500000 0.762271
#
# Coordination Sequence:
#
# PCOD9350134 Si02
#       6
#     8   8   8   8   8   8
#     4   9  17  29  46  68  93 120 149 183 225 271
#     4   9  17  29  45  69  93 115 147 190 231 266
#     4   9  18  32  47  64  90 123 155 187 225 268
#     4   9  17  29  45  63  86 120 157 189 224 265
#     4   8  14  26  44  65  90 117 145 180 221 265
#     4   8  13  23  43  71  98 121 145 177 222 273
#
# _framework density 25.784696
#
# number of rings (size 3 to 8) (size 9 to 14) (size 15 to 20)
#    0.000    3.333    0.000    0.000    0.000    1.333 
#    0.000    2.500    0.000    1.000    0.000    0.000 
#    0.000    0.000    0.000    0.000    0.000    0.000 
#
# Total GULP energy -133741.154221 kJ/mol
# GULP energy per Si atom -5572.548093 kJ/mol
# Density = 2.572601 g / cm^3
# Si number density = 25.784696 Si / 1000 Ang^3
#
#
#
# Elastic Constant Matrix: (Units=GPa)
#
#
# Indices 1 2 3 4 5 6 
#
# 1 357.5757 13.9666 15.8197 0.0000 0.0000 0.0000
# 2 13.9666 134.3413 -7.2944 0.0000 0.0000 0.0000
# 3 15.8197 -7.2944 39.5204 0.0000 0.0000 0.0000
# 4 0.0000 0.0000 0.0000 16.5082 0.0000 0.0000
# 5 0.0000 0.0000 0.0000 0.0000 414.0666 0.0000
# 6 0.0000 0.0000 0.0000 0.0000 0.0000 -73.3337
#
#
#
# Elastic Compliance Matrix: (Units=1/GPa)
#
#
# Indices 1 2 3 4 5 6 
#
# 1 0.002865 -0.000364 -0.001214 0.000000 0.000000 0.000000
# 2 -0.000364 0.007565 0.001542 0.000000 0.000000 0.000000
# 3 -0.001214 0.001542 0.026074 0.000000 0.000000 0.000000
# 4 0.000000 0.000000 0.000000 0.060576 0.000000 0.000000
# 5 0.000000 0.000000 0.000000 0.000000 0.002415 0.000000
# 6 0.000000 0.000000 0.000000 0.000000 0.000000 -0.013636
#
#
# Mechanical properties :
#
#
# Convention : Reuss Voigt Hill
#
# Bulk Modulus (GPa) = 27.44799 64.04681 45.74740
# Shear Modulus (GPa) = 50.98200 105.37792 78.17996
#
# Velocity S-wave (km/s) = 4.45142 6.39977 5.51236
# Velocity P-wave (km/s) = 6.09002 8.91642 7.63514
#
# Compressibility (1/GPa) = 0.03643254
#
# Stress axis : x y z
#
# Youngs Moduli (GPa) = 349.09907 132.18312 38.35257
#
# Poissons Ratio (x) = 0.04808 0.04655
# Poissons Ratio (y) = 0.12697 -0.05914
# Poissons Ratio (z) = 0.42373 -0.20382
#
# Static dielectric constant tensor:
#      x y z
#    x 2.197040 0.000000 0.000000 
#    y 0.000000 1.959380 0.000000 
#    z 0.000000 0.000000 1.943210 
# 
# From -- ./inp_files/7299.got.cif
#   From: 2010.05.17/outbox.cif.g08.bks.cpg/sg35_4_cif.got.tgz:7299.got - 2010.06.03 17:29:28.
