data_PCOD9350283
_publ_section_title
;
Structure prediction by ZEFSAII (Michael W. Deem and Ramdas Pophale) SiO2 
 PCOD9350283
Probable space group: C M M 2
;
_chemical_formula_sum "Si O2"
_cell_formula_units_Z 56
_cell_length_a 23.643226
_cell_length_b 23.640552
_cell_length_c 5.145285
_cell_angle_alpha 90.000000
_cell_angle_beta 90.000000
_cell_angle_gamma 90.000000
_cell_volume 2875.900009
_symmetry_space_group_name_H-M "C M M 2"
_symmetry_group_IT_number 35
_symmetry_cell_setting 'orthorhombic'
loop_
_space_group_symop_operation_xyz
x,y,z
-x,-y,z
-x,y,z
x,-y,z
1/2+x,1/2+y,z
1/2-x,1/2-y,z
1/2-x,1/2+y,z
1/2+x,1/2-y,z
loop_
_atom_site_type_symbol
_atom_site_label
_atom_site_fract_x
_atom_site_fract_y
_atom_site_fract_z
Si Si1 0.181909 0.096485 0.327980
Si Si2 0.887198 0.064419 0.829033
Si Si3 0.853289 0.500000 0.790675
Si Si4 0.725443 0.000000 0.291240
Si Si5 0.938914 0.173388 0.713702
Si Si6 0.564858 0.106075 0.828730
Si Si7 0.875251 0.205391 0.214115
Si Si8 0.933870 0.682200 0.328879
O O1 0.160194 0.084020 0.619183
O O2 0.236428 0.057160 0.284332
O O3 0.178925 0.164683 0.272535
O O4 0.137167 0.072806 0.117112
O O5 0.937577 0.107644 0.784498
O O6 0.901253 0.000000 0.780773
O O7 0.810175 0.500000 0.553205
O O8 0.892520 0.444770 0.783197
O O9 0.816796 0.500000 0.051423
O O10 0.920958 0.178801 0.415344
O O11 0.000000 0.199580 0.759133
O O12 0.893635 0.199261 0.914306
O O13 0.500000 0.085670 0.808442
O O14 0.571987 0.154418 0.610970
O O15 0.572473 0.134353 0.109857
O O16 0.885360 0.270854 0.284030
O O17 0.000000 0.703306 0.303916
#
# Coordination Sequence:
#
# PCOD9350283 Si02
#       8
#     8   8   4   4   8   8   8   8
#     4  10  20  34  54  78 106 148 195 242 286 320
#     4  10  17  30  47  66  99 140 186 239 285 339
#     4  12  25  40  64  92 116 142 181 236 282 344
#     4  12  22  38  63  84 113 150 200 244 280 334
#     4  10  19  28  43  70 105 143 185 237 285 328
#     4  10  22  40  62  90 122 150 174 214 283 354
#     4  10  20  33  53  79 111 149 196 235 276 331
#     4  10  19  34  60  87 116 155 191 224 268 338
#
# _framework density 19.472166000000001
#
# number of rings (size 3 to 8) (size 9 to 14) (size 15 to 20)
#    0.000    1.714    1.429    4.071    0.000    1.429 
#    0.000    2.857    0.000   10.286    0.000    0.000 
#    0.000    0.000    0.000    0.000    0.000    0.000 
#
# Total GULP energy -156070.451797 kJ/mol
# GULP energy per Si atom -5573.944707 kJ/mol
# Density = 1.942785 g / cm^3
# Si number density = 19.472166 Si / 1000 Ang^3
#
#
#
# Elastic Constant Matrix: (Units=GPa)
#
#
# Indices 1 2 3 4 5 6 
#
# 1 78.5987 38.8424 15.0961 0.0000 0.0000 0.0000
# 2 38.8424 76.1980 -4.7933 0.0000 0.0000 0.0000
# 3 15.0961 -4.7933 80.4603 0.0000 0.0000 0.0000
# 4 0.0000 0.0000 0.0000 6.8502 0.0000 0.0000
# 5 0.0000 0.0000 0.0000 0.0000 19.0826 0.0000
# 6 0.0000 0.0000 0.0000 0.0000 0.0000 37.0579
#
#
#
# Elastic Compliance Matrix: (Units=1/GPa)
#
#
# Indices 1 2 3 4 5 6 
#
# 1 0.018195 -0.009525 -0.003981 0.000000 0.000000 0.000000
# 2 -0.009525 0.018160 0.002869 0.000000 0.000000 0.000000
# 3 -0.003981 0.002869 0.013346 0.000000 0.000000 0.000000
# 4 0.000000 0.000000 0.000000 0.145981 0.000000 0.000000
# 5 0.000000 0.000000 0.000000 0.000000 0.052404 0.000000
# 6 0.000000 0.000000 0.000000 0.000000 0.000000 0.026985
#
#
# Mechanical properties :
#
#
# Convention : Reuss Voigt Hill
#
# Bulk Modulus (GPa) = 35.17923 37.06083 36.12003
# Shear Modulus (GPa) = 16.34942 25.00558 20.67750
#
# Velocity S-wave (km/s) = 2.90078 3.58742 3.26222
# Velocity P-wave (km/s) = 5.41526 6.01943 5.72532
#
# Compressibility (1/GPa) = 0.02842586
#
# Stress axis : x y z
#
# Youngs Moduli (GPa) = 54.96075 55.06669 74.92677
#
# Poissons Ratio (x) = 0.52453 0.29830
# Poissons Ratio (y) = 0.52352 -0.21497
# Poissons Ratio (z) = 0.21881 -0.15799
#
# Static dielectric constant tensor:
#      x y z
#    x 1.659850 0.000000 0.000000 
#    y 0.000000 1.729940 0.000000 
#    z 0.000000 0.000000 1.656630 
# 
# From -- ./inp_files/3429.got.cif
#   From: 2010.05.17/outbox.cif.g08.bks.cpg/sg35_2_cif.got.tgz:3429.got - 2010.06.03 17:29:28.
