data_PCOD9350758
_publ_section_title
;
Structure prediction by ZEFSAII (Michael W. Deem and Ramdas Pophale) SiO2 
 PCOD9350758
Probable space group: C M C 21
;
_chemical_formula_sum "Si O2"
_cell_formula_units_Z 64
_cell_length_a 8.779625
_cell_length_b 17.121167
_cell_length_c 19.544433
_cell_angle_alpha 90.000000
_cell_angle_beta 90.000000
_cell_angle_gamma 90.000000
_cell_volume 2937.868858
_symmetry_space_group_name_H-M "C M C 21"
_symmetry_group_IT_number 36
_symmetry_cell_setting 'orthorhombic'
loop_
_space_group_symop_operation_xyz
x,y,z
-x,-y,1/2+z
x,-y,1/2+z
-x,y,z
1/2+x,1/2+y,z
1/2-x,1/2-y,1/2+z
1/2+x,1/2-y,1/2+z
1/2-x,1/2+y,z
loop_
_atom_site_type_symbol
_atom_site_label
_atom_site_fract_x
_atom_site_fract_y
_atom_site_fract_z
Si Si1 0.174105 0.824635 0.774910
Si Si2 0.326467 0.780889 0.490729
Si Si3 0.328902 0.831578 0.079101
Si Si4 0.319609 0.995027 0.803947
Si Si5 0.169390 0.352258 0.644154
Si Si6 0.174877 0.925142 0.430964
Si Si7 0.313422 0.158575 0.733855
Si Si8 0.333605 0.013116 0.056726
O O1 0.193894 0.831476 0.692954
O O2 0.230231 0.733549 0.782082
O O3 0.000000 0.827404 0.798103
O O4 0.253876 0.906339 0.797158
O O5 0.500000 0.774982 0.468030
O O6 0.254191 0.699275 0.511215
O O7 0.321349 0.817692 0.567929
O O8 0.233455 0.836751 0.441131
O O9 0.500000 0.796996 0.080156
O O10 0.258859 0.824357 0.155685
O O11 0.338368 0.923020 0.068824
O O12 0.500000 0.988821 0.793649
O O13 0.277548 0.026163 0.879163
O O14 0.266197 0.071484 0.758740
O O15 0.177111 0.444177 0.629315
O O16 0.000000 0.332959 0.672239
O O17 0.000000 0.927864 0.410022
O O18 0.201818 0.962477 0.505603
O O19 0.500000 0.158337 0.732018
O O20 0.500000 0.038581 0.027077
#
# Coordination Sequence:
#
# PCOD9350758 Si02
#       8
#     8   8   8   8   8   8   8   8
#     4  11  21  36  60  90 121 154 198 250 301 357
#     4  10  20  35  57  84 117 155 192 236 294 354
#     4  10  18  34  59  90 123 154 191 241 299 362
#     4  11  23  43  65  85 117 165 209 251 307 370
#     4   9  17  32  54  81 114 152 189 229 286 355
#     4  11  23  41  61  83 113 153 204 255 302 358
#     4   9  20  38  62  91 125 161 197 242 304 366
#     4   9  19  35  58  86 118 154 196 242 297 362
#
# _framework density 21.784500000000001
#
# number of rings (size 3 to 8) (size 9 to 14) (size 15 to 20)
#    0.000    2.000    1.250    3.750    0.000    4.500 
#    2.250    5.000    0.000    0.000    0.000    0.000 
#    0.000    0.000    0.000    0.000    0.000    0.000 
#
# Total GULP energy -178177.508055 kJ/mol
# GULP energy per Si atom -5568.047127 kJ/mol
# Density = 2.173492 g / cm^3
# Si number density = 21.784500 Si / 1000 Ang^3
#
#
#
# Elastic Constant Matrix: (Units=GPa)
#
#
# Indices 1 2 3 4 5 6 
#
# 1 26.1246 10.4955 0.3354 0.0000 0.0000 0.0000
# 2 10.4955 80.8788 0.1022 0.0000 0.0000 0.0000
# 3 0.3354 0.1022 32.1326 0.0000 0.0000 0.0000
# 4 0.0000 0.0000 0.0000 27.8895 0.0000 0.0000
# 5 0.0000 0.0000 0.0000 0.0000 20.2309 0.0000
# 6 0.0000 0.0000 0.0000 0.0000 0.0000 20.4994
#
#
#
# Elastic Compliance Matrix: (Units=1/GPa)
#
#
# Indices 1 2 3 4 5 6 
#
# 1 0.040389 -0.005241 -0.000405 0.000000 0.000000 0.000000
# 2 -0.005241 0.013044 0.000013 0.000000 0.000000 0.000000
# 3 -0.000405 0.000013 0.031125 0.000000 0.000000 0.000000
# 4 0.000000 0.000000 0.000000 0.035856 0.000000 0.000000
# 5 0.000000 0.000000 0.000000 0.000000 0.049429 0.000000
# 6 0.000000 0.000000 0.000000 0.000000 0.000000 0.048782
#
#
# Mechanical properties :
#
#
# Convention : Reuss Voigt Hill
#
# Bulk Modulus (GPa) = 13.64375 17.88911 15.76643
# Shear Modulus (GPa) = 19.66017 22.27080 20.96549
#
# Velocity S-wave (km/s) = 3.00740 3.20085 3.10563
# Velocity P-wave (km/s) = 4.28204 4.67870 4.48476
#
# Compressibility (1/GPa) = 0.07329364
#
# Stress axis : x y z
#
# Youngs Moduli (GPa) = 24.75936 76.66223 32.12825
#
# Poissons Ratio (x) = 0.40176 0.01301
# Poissons Ratio (y) = 0.12976 -0.00042
# Poissons Ratio (z) = 0.01002 -0.00101
#
# Static dielectric constant tensor:
#      x y z
#    x 1.828960 0.000000 0.000000 
#    y 0.000000 1.929480 0.000000 
#    z 0.000000 0.000000 1.811800 
# 
# From -- ./inp_files/15680.got.cif
#   From: 2010.05.17/outbox.cif.g08.bks.cpg/sg36_8_cif.got.tgz:15680.got - 2010.06.03 17:41:39.
