data_PCOD9350367
_publ_section_title
;
Structure prediction by ZEFSAII (Michael W. Deem and Ramdas Pophale) SiO2 
 PCOD9350367
Probable space group: C M M 2
;
_chemical_formula_sum "Si O2"
_cell_formula_units_Z 56
_cell_length_a 8.430615
_cell_length_b 26.793330
_cell_length_c 14.852327
_cell_angle_alpha 90.000000
_cell_angle_beta 90.000000
_cell_angle_gamma 90.000000
_cell_volume 3354.906742
_symmetry_space_group_name_H-M "C M M 2"
_symmetry_group_IT_number 35
_symmetry_cell_setting 'orthorhombic'
loop_
_space_group_symop_operation_xyz
x,y,z
-x,-y,z
-x,y,z
x,-y,z
1/2+x,1/2+y,z
1/2-x,1/2-y,z
1/2-x,1/2+y,z
1/2+x,1/2-y,z
loop_
_atom_site_type_symbol
_atom_site_label
_atom_site_fract_x
_atom_site_fract_y
_atom_site_fract_z
Si Si1 0.316115 0.136621 0.569180
Si Si2 0.688931 0.193316 0.929927
Si Si3 0.188135 0.192870 0.738681
Si Si4 0.190117 0.942373 0.421829
Si Si5 0.811073 0.191945 0.123342
Si Si6 0.820224 0.201062 0.425545
Si Si7 0.313504 0.871285 0.286041
O O1 0.500000 0.126529 0.585378
O O2 0.231480 0.153651 0.660488
O O3 0.244842 0.092672 0.505987
O O4 0.292722 0.185444 0.506677
O O5 0.500000 0.191874 0.940714
O O6 0.750000 0.250000 0.923946
O O7 0.738579 0.173014 0.832615
O O8 0.770473 0.175042 0.021392
O O9 0.250000 0.250000 0.720381
O O10 0.000000 0.196991 0.748133
O O11 0.273979 0.925581 0.327787
O O12 0.000000 0.937485 0.412795
O O13 0.227755 0.000000 0.440989
O O14 0.750000 0.250000 0.135029
O O15 0.728918 0.151591 0.189214
O O16 0.000000 0.192622 0.137817
O O17 0.750000 0.250000 0.381989
O O18 0.802473 0.159717 0.350714
O O19 0.000000 0.205917 0.456407
O O20 0.500000 0.861601 0.303458
#
# Coordination Sequence:
#
# PCOD9350367 Si02
#       7
#     8   8   8   8   8   8   8
#     4  11  21  33  49  71  96 125 162 200 241 288
#     4  10  18  30  46  68  97 132 171 206 242 282
#     4  11  20  32  48  70 101 136 171 205 243 285
#     4  10  21  38  57  76  98 124 157 200 249 299
#     4  11  20  32  48  70 101 136 171 205 243 285
#     4  11  20  31  44  63  93 127 160 194 235 283
#     4  11  21  33  49  71  96 125 162 200 241 288
#
# _framework density 16.691969
#
# number of rings (size 3 to 8) (size 9 to 14) (size 15 to 20)
#    0.000    1.286    0.000   12.429    0.000    1.143 
#    0.000    0.000    0.000    0.000    0.000    1.000 
#    0.000    8.000    0.000    0.000    0.000    0.000 
#
# Total GULP energy -155957.101375 kJ/mol
# GULP energy per Si atom -5569.896478 kJ/mol
# Density = 1.665398 g / cm^3
# Si number density = 16.691969 Si / 1000 Ang^3
#
#
#
# Elastic Constant Matrix: (Units=GPa)
#
#
# Indices 1 2 3 4 5 6 
#
# 1 103.4814 26.3528 8.7747 0.0000 0.0000 0.0000
# 2 26.3528 62.5941 24.1766 0.0000 0.0000 0.0000
# 3 8.7747 24.1766 99.5688 0.0000 0.0000 0.0000
# 4 0.0000 0.0000 0.0000 13.9576 0.0000 0.0000
# 5 0.0000 0.0000 0.0000 0.0000 26.7854 0.0000
# 6 0.0000 0.0000 0.0000 0.0000 0.0000 18.3078
#
#
#
# Elastic Compliance Matrix: (Units=1/GPa)
#
#
# Indices 1 2 3 4 5 6 
#
# 1 0.010827 -0.004623 0.000168 0.000000 0.000000 0.000000
# 2 -0.004623 0.019604 -0.004353 0.000000 0.000000 0.000000
# 3 0.000168 -0.004353 0.011085 0.000000 0.000000 0.000000
# 4 0.000000 0.000000 0.000000 0.071646 0.000000 0.000000
# 5 0.000000 0.000000 0.000000 0.000000 0.037334 0.000000
# 6 0.000000 0.000000 0.000000 0.000000 0.000000 0.054622
#
#
# Mechanical properties :
#
#
# Convention : Reuss Voigt Hill
#
# Bulk Modulus (GPa) = 41.83949 42.69473 42.26711
# Shear Modulus (GPa) = 21.67334 25.56615 23.61975
#
# Velocity S-wave (km/s) = 3.60728 3.91787 3.76578
# Velocity P-wave (km/s) = 6.51690 6.78968 6.65469
#
# Compressibility (1/GPa) = 0.02390086
#
# Stress axis : x y z
#
# Youngs Moduli (GPa) = 92.36479 51.01125 90.20938
#
# Poissons Ratio (x) = 0.23583 -0.01520
# Poissons Ratio (y) = 0.42702 0.39264
# Poissons Ratio (z) = -0.01556 0.22203
#
# Static dielectric constant tensor:
#      x y z
#    x 1.552290 0.000000 0.000000 
#    y 0.000000 1.761540 0.000000 
#    z 0.000000 0.000000 1.620110 
# 
# From -- ./inp_files/16094.got.cif
#   From: 2010.05.17/outbox.cif.g08.bks.cpg/sg35_9_cif.got.tgz:16094.got - 2010.06.03 17:29:28.
