data_PCOD9350854
_publ_section_title
;
Structure prediction by ZEFSAII (Michael W. Deem and Ramdas Pophale) SiO2 
 PCOD9350854
Probable space group: C M C 21
;
_chemical_formula_sum "Si O2"
_cell_formula_units_Z 48
_cell_length_a 34.396408
_cell_length_b 7.118213
_cell_length_c 7.137643
_cell_angle_alpha 90.000000
_cell_angle_beta 90.000000
_cell_angle_gamma 90.000000
_cell_volume 1747.587354
_symmetry_space_group_name_H-M "C M C 21"
_symmetry_group_IT_number 36
_symmetry_cell_setting 'orthorhombic'
loop_
_space_group_symop_operation_xyz
x,y,z
-x,-y,1/2+z
x,-y,1/2+z
-x,y,z
1/2+x,1/2+y,z
1/2-x,1/2-y,1/2+z
1/2+x,1/2-y,1/2+z
1/2-x,1/2+y,z
loop_
_atom_site_type_symbol
_atom_site_label
_atom_site_fract_x
_atom_site_fract_y
_atom_site_fract_z
Si Si1 0.794442 0.302568 0.368920
Si Si2 0.874043 0.855195 0.308564
Si Si3 0.957886 0.162327 0.830709
Si Si4 0.209415 0.098683 0.766478
Si Si5 0.041032 0.721988 0.896777
Si Si6 0.376938 0.210529 0.883093
O O1 0.792298 0.215365 0.576122
O O2 0.753382 0.399032 0.341982
O O3 0.836712 0.396541 0.341665
O O4 0.795336 0.122422 0.235201
O O5 0.914447 0.798279 0.410886
O O6 0.829457 0.831657 0.375197
O O7 0.876204 0.082471 0.289923
O O8 0.876165 0.762213 0.103698
O O9 0.958606 0.244928 0.620934
O O10 0.000000 0.210930 0.921502
O O11 0.958567 0.934637 0.816958
O O12 0.081143 0.623641 0.839878
O O13 0.000000 0.631324 0.844370
#
# Coordination Sequence:
#
# PCOD9350854 Si02
#       6
#     8   8   8   8   8   8
#     4  10  19  31  46  64  87 115 147 181 217 256
#     4   8  14  23  35  52  75 103 133 165 201 242
#     4   8  12  18  29  46  69  97 127 157 191 234
#     4  10  19  31  46  64  87 115 147 181 217 256
#     4   8  12  18  29  46  69  97 127 157 191 234
#     4   8  14  23  35  52  75 103 133 165 201 242
#
# _framework density 27.466438
#
# number of rings (size 3 to 8) (size 9 to 14) (size 15 to 20)
#    0.000    3.333    0.000    1.000    0.000    1.333 
#    0.000    0.000    0.000    0.000    0.000    0.000 
#    0.000    1.333    0.000    2.333    0.000   16.667 
#
# Total GULP energy -133863.445044 kJ/mol
# GULP energy per Si atom -5577.643544 kJ/mol
# Density = 2.740392 g / cm^3
# Si number density = 27.466438 Si / 1000 Ang^3
#
#
#
# Elastic Constant Matrix: (Units=GPa)
#
#
# Indices 1 2 3 4 5 6 
#
# 1 400.8854 17.8167 47.6423 0.0000 0.0000 0.0000
# 2 17.8167 85.3830 5.3802 0.0000 0.0000 0.0000
# 3 47.6423 5.3802 84.1040 0.0000 0.0000 0.0000
# 4 0.0000 0.0000 0.0000 1.0378 0.0000 0.0000
# 5 0.0000 0.0000 0.0000 0.0000 21.9262 0.0000
# 6 0.0000 0.0000 0.0000 0.0000 0.0000 -5.2370
#
#
#
# Elastic Compliance Matrix: (Units=1/GPa)
#
#
# Indices 1 2 3 4 5 6 
#
# 1 0.002693 -0.000468 -0.001496 0.000000 0.000000 0.000000
# 2 -0.000468 0.011841 -0.000493 0.000000 0.000000 0.000000
# 3 -0.001496 -0.000493 0.012769 0.000000 0.000000 0.000000
# 4 0.000000 0.000000 0.000000 0.963559 0.000000 0.000000
# 5 0.000000 0.000000 0.000000 0.000000 0.045608 0.000000
# 6 0.000000 0.000000 0.000000 0.000000 0.000000 -0.190949
#
#
# Mechanical properties :
#
#
# Convention : Reuss Voigt Hill
#
# Bulk Modulus (GPa) = 44.66138 79.11676 61.88907
# Shear Modulus (GPa) = 5.82822 36.84763 21.33792
#
# Velocity S-wave (km/s) = 1.45827 3.66669 2.79027
# Velocity P-wave (km/s) = 4.37391 6.84058 5.74128
#
# Compressibility (1/GPa) = 0.02239071
#
# Stress axis : x y z
#
# Youngs Moduli (GPa) = 371.33263 84.45549 78.31623
#
# Poissons Ratio (x) = 0.03950 0.11713
# Poissons Ratio (y) = 0.17367 0.03857
# Poissons Ratio (z) = 0.55536 0.04160
#
# Static dielectric constant tensor:
#      x y z
#    x 2.247690 0.000000 0.000000 
#    y 0.000000 2.132060 0.000000 
#    z 0.000000 0.000000 2.141670 
# 
# From -- ./inp_files/6033.got.cif
#   From: 2010.05.17/outbox.cif.g08.bks.cpg/sg36_4_cif.got.tgz:6033.got - 2010.06.03 17:41:39.
