data_PCOD9350687
_publ_section_title
;
Structure prediction by ZEFSAII (Michael W. Deem and Ramdas Pophale) SiO2 
 PCOD9350687
Probable space group: C M C 21
;
_chemical_formula_sum "Si O2"
_cell_formula_units_Z 64
_cell_length_a 8.916586
_cell_length_b 21.743115
_cell_length_c 14.419773
_cell_angle_alpha 90.000000
_cell_angle_beta 90.000000
_cell_angle_gamma 90.000000
_cell_volume 2795.624187
_symmetry_space_group_name_H-M "C M C 21"
_symmetry_group_IT_number 36
_symmetry_cell_setting 'orthorhombic'
loop_
_space_group_symop_operation_xyz
x,y,z
-x,-y,1/2+z
x,-y,1/2+z
-x,y,z
1/2+x,1/2+y,z
1/2-x,1/2-y,1/2+z
1/2+x,1/2-y,1/2+z
1/2-x,1/2+y,z
loop_
_atom_site_type_symbol
_atom_site_label
_atom_site_fract_x
_atom_site_fract_y
_atom_site_fract_z
Si Si1 0.180352 0.344640 0.444030
Si Si2 0.826754 0.093138 0.785234
Si Si3 0.826074 0.524871 0.509080
Si Si4 0.821779 0.597098 0.338941
Si Si5 0.671209 0.463387 0.675685
Si Si6 0.327588 0.155363 0.615554
Si Si7 0.178717 0.777667 0.827670
Si Si8 0.821604 0.722633 0.124057
O O1 0.259406 0.399296 0.387934
O O2 0.219487 0.282868 0.385681
O O3 0.224649 0.329202 0.549598
O O4 0.000000 0.352648 0.441291
O O5 0.823884 0.026869 0.735596
O O6 0.726134 0.135425 0.717915
O O7 0.000000 0.113805 0.785273
O O8 0.773125 0.541439 0.406136
O O9 0.731958 0.480501 0.574581
O O10 0.821429 0.592508 0.557372
O O11 0.000000 0.504488 0.507726
O O12 0.774187 0.582216 0.234316
O O13 0.746973 0.660276 0.369727
O O14 0.000000 0.602148 0.346310
O O15 0.500000 0.441681 0.673146
O O16 0.500000 0.176628 0.616997
O O17 0.221601 0.210433 0.582795
O O18 0.241359 0.777314 0.723013
O O19 0.000000 0.781539 0.825854
O O20 0.000000 0.718256 0.136919
#
# Coordination Sequence:
#
# PCOD9350687 Si02
#       8
#     8   8   8   8   8   8   8   8
#     4  10  22  38  58  86 121 158 197 240 297 358
#     4  10  20  35  58  84 112 148 194 243 293 349
#     4   9  20  38  62  91 118 155 204 250 299 357
#     4  11  23  41  64  90 121 160 203 249 302 361
#     4  10  22  40  62  90 120 155 198 250 304 356
#     4  10  18  32  56  84 116 151 192 244 295 347
#     4  11  23  40  61  88 123 163 199 246 302 357
#     4  11  22  36  55  85 121 160 199 240 294 359
#
# _framework density 22.892918999999999
#
# number of rings (size 3 to 8) (size 9 to 14) (size 15 to 20)
#    0.000    1.750    1.250    3.000    0.000    4.500 
#    2.250    0.000    0.000    0.000    0.000    0.000 
#    0.000    0.000    0.000    0.000    0.000    0.000 
#
# Total GULP energy -179014.833979 kJ/mol
# GULP energy per Si atom -5594.213562 kJ/mol
# Density = 2.284081 g / cm^3
# Si number density = 22.892919 Si / 1000 Ang^3
#
#
#
# Elastic Constant Matrix: (Units=GPa)
#
#
# Indices 1 2 3 4 5 6 
#
# 1 44.2120 10.7385 24.3374 0.0000 0.0000 0.0000
# 2 10.7385 69.6169 14.7786 0.0000 0.0000 0.0000
# 3 24.3374 14.7786 123.6672 0.0000 0.0000 0.0000
# 4 0.0000 0.0000 0.0000 37.9488 0.0000 0.0000
# 5 0.0000 0.0000 0.0000 0.0000 24.7503 0.0000
# 6 0.0000 0.0000 0.0000 0.0000 0.0000 21.2543
#
#
#
# Elastic Compliance Matrix: (Units=1/GPa)
#
#
# Indices 1 2 3 4 5 6 
#
# 1 0.025961 -0.002996 -0.004751 0.000000 0.000000 0.000000
# 2 -0.002996 0.015084 -0.001213 0.000000 0.000000 0.000000
# 3 -0.004751 -0.001213 0.009166 0.000000 0.000000 0.000000
# 4 0.000000 0.000000 0.000000 0.026351 0.000000 0.000000
# 5 0.000000 0.000000 0.000000 0.000000 0.040404 0.000000
# 6 0.000000 0.000000 0.000000 0.000000 0.000000 0.047049
#
#
# Mechanical properties :
#
#
# Convention : Reuss Voigt Hill
#
# Bulk Modulus (GPa) = 30.96803 37.46721 34.21762
# Shear Modulus (GPa) = 25.94713 29.30012 27.62363
#
# Velocity S-wave (km/s) = 3.37027 3.58142 3.47745
# Velocity P-wave (km/s) = 5.35740 5.78825 5.57699
#
# Compressibility (1/GPa) = 0.03229137
#
# Stress axis : x y z
#
# Youngs Moduli (GPa) = 38.51885 66.29558 109.09674
#
# Poissons Ratio (x) = 0.19862 0.51833
# Poissons Ratio (y) = 0.11540 0.13233
# Poissons Ratio (z) = 0.18301 0.08041
#
# Static dielectric constant tensor:
#      x y z
#    x 1.761260 0.000000 0.000000 
#    y 0.000000 1.919210 0.000000 
#    z 0.000000 0.000000 1.879840 
# 
# From -- ./inp_files/11019.got.cif
#   From: 2010.05.17/outbox.cif.g08.bks.cpg/sg36_6_cif.got.tgz:11019.got - 2010.06.03 17:41:39.
