data_PCOD9350255
_publ_section_title
;
Structure prediction by ZEFSAII (Michael W. Deem and Ramdas Pophale) SiO2 
 PCOD9350255
Probable space group: C M M 2
;
_chemical_formula_sum "Si O2"
_cell_formula_units_Z 64
_cell_length_a 31.278273
_cell_length_b 8.798959
_cell_length_c 15.703098
_cell_angle_alpha 90.000000
_cell_angle_beta 90.000000
_cell_angle_gamma 90.000000
_cell_volume 4321.747615
_symmetry_space_group_name_H-M "C M M 2"
_symmetry_group_IT_number 35
_symmetry_cell_setting 'orthorhombic'
loop_
_space_group_symop_operation_xyz
x,y,z
-x,-y,z
-x,y,z
x,-y,z
1/2+x,1/2+y,z
1/2-x,1/2-y,z
1/2-x,1/2+y,z
1/2+x,1/2-y,z
loop_
_atom_site_type_symbol
_atom_site_label
_atom_site_fract_x
_atom_site_fract_y
_atom_site_fract_z
Si Si1 0.297671 0.181643 0.739860
Si Si2 0.701732 0.682128 0.916085
Si Si3 0.135983 0.819563 0.407605
Si Si4 0.702039 0.182132 0.087849
Si Si5 0.702535 0.181131 0.277191
Si Si6 0.046910 0.322248 0.405212
Si Si7 0.047303 0.322084 0.611566
Si Si8 0.363257 0.681016 0.608132
O O1 0.250000 0.250000 0.727683
O O2 0.316125 0.251963 0.827901
O O3 0.328129 0.232026 0.663239
O O4 0.294699 0.000000 0.746957
O O5 0.703078 0.500000 0.914788
O O6 0.750000 0.750000 0.916671
O O7 0.681492 0.742462 0.004171
O O8 0.171639 0.742455 0.349798
O O9 0.088750 0.768174 0.378312
O O10 0.140709 0.778631 0.507754
O O11 0.139788 0.000000 0.401297
O O12 0.750000 0.250000 0.091671
O O13 0.684503 0.216660 0.182109
O O14 0.703938 0.000000 0.076539
O O15 0.750000 0.250000 0.285153
O O16 0.706181 0.000000 0.282792
O O17 0.051374 0.500000 0.382573
O O18 0.046215 0.314687 0.508386
O O19 0.000000 0.268341 0.375684
O O20 0.052579 0.500000 0.634137
O O21 0.088984 0.228415 0.637357
O O22 0.000000 0.271288 0.641257
O O23 0.357671 0.500000 0.616628
#
# Coordination Sequence:
#
# PCOD9350255 Si02
#       8
#     8   8   8   8   8   8   8   8
#     4  11  21  33  47  62  84 115 149 184 218 255
#     4  10  17  27  44  64  85 108 135 172 216 260
#     4  10  20  31  44  62  87 117 149 184 218 256
#     4   9  16  27  43  63  83 106 137 174 216 258
#     4  10  20  32  46  62  85 116 150 185 217 254
#     4   8  14  26  44  63  83 108 139 176 218 261
#     4   8  14  26  44  64  84 108 139 175 217 261
#     4  10  20  32  44  62  87 116 150 184 218 256
#
# _framework density 14.808824
#
# number of rings (size 3 to 8) (size 9 to 14) (size 15 to 20)
#    0.000    2.500    0.000    6.000    0.000    4.000 
#    0.000    2.500    0.000    0.000    0.000    0.000 
#    0.000    1.000    0.000    8.750    0.000    5.625 
#
# Total GULP energy -178177.211718 kJ/mol
# GULP energy per Si atom -5568.037866 kJ/mol
# Density = 1.477512 g / cm^3
# Si number density = 14.808824 Si / 1000 Ang^3
#
#
#
# Elastic Constant Matrix: (Units=GPa)
#
#
# Indices 1 2 3 4 5 6 
#
# 1 77.1615 41.1438 48.1639 0.0000 0.0000 0.0000
# 2 41.1438 87.2266 49.2951 0.0000 0.0000 0.0000
# 3 48.1639 49.2951 81.3591 0.0000 0.0000 0.0000
# 4 0.0000 0.0000 0.0000 20.5533 0.0000 0.0000
# 5 0.0000 0.0000 0.0000 0.0000 -1.1541 0.0000
# 6 0.0000 0.0000 0.0000 0.0000 0.0000 23.6227
#
#
#
# Elastic Compliance Matrix: (Units=1/GPa)
#
#
# Indices 1 2 3 4 5 6 
#
# 1 0.021666 -0.004518 -0.010089 0.000000 0.000000 0.000000
# 2 -0.004518 0.018376 -0.008459 0.000000 0.000000 0.000000
# 3 -0.010089 -0.008459 0.023389 0.000000 0.000000 0.000000
# 4 0.000000 0.000000 0.000000 0.048654 0.000000 0.000000
# 5 0.000000 0.000000 0.000000 0.000000 -0.866463 0.000000
# 6 0.000000 0.000000 0.000000 0.000000 0.000000 0.042332
#
#
# Mechanical properties :
#
#
# Convention : Reuss Voigt Hill
#
# Bulk Modulus (GPa) = 57.80637 58.10588 57.95613
# Shear Modulus (GPa) = -7.57409 15.74733 4.08662
#
# Velocity S-wave (km/s) = -2.26400 3.26448 1.66300
# Velocity P-wave (km/s) = 5.68204 7.31653 6.55047
#
# Compressibility (1/GPa) = 0.01729913
#
# Stress axis : x y z
#
# Youngs Moduli (GPa) = 46.15442 54.41788 42.75492
#
# Poissons Ratio (x) = 0.24587 0.43134
# Poissons Ratio (y) = 0.20854 0.36168
# Poissons Ratio (z) = 0.46564 0.46034
#
# Static dielectric constant tensor:
#      x y z
#    x 1.483290 0.000000 0.000000 
#    y 0.000000 1.495150 0.000000 
#    z 0.000000 0.000000 1.520810 
# 
# From -- ./inp_files/17738.got.cif
#   From: 2010.05.17/outbox.cif.g08.bks.cpg/sg35_9_cif.got.tgz:17738.got - 2010.06.03 17:29:28.
