data_PCOD9350453
_publ_section_title
;
Structure prediction by ZEFSAII (Michael W. Deem and Ramdas Pophale) SiO2 
 PCOD9350453
Probable space group: C M M 2
;
_chemical_formula_sum "Si O2"
_cell_formula_units_Z 32
_cell_length_a 25.118474
_cell_length_b 8.933422
_cell_length_c 7.319058
_cell_angle_alpha 90.000000
_cell_angle_beta 90.000000
_cell_angle_gamma 90.000000
_cell_volume 1642.352176
_symmetry_space_group_name_H-M "C M M 2"
_symmetry_group_IT_number 35
_symmetry_cell_setting 'orthorhombic'
loop_
_space_group_symop_operation_xyz
x,y,z
-x,-y,z
-x,y,z
x,-y,z
1/2+x,1/2+y,z
1/2-x,1/2-y,z
1/2-x,1/2+y,z
1/2+x,1/2-y,z
loop_
_atom_site_type_symbol
_atom_site_label
_atom_site_fract_x
_atom_site_fract_y
_atom_site_fract_z
Si Si1 0.888958 0.676982 0.997880
Si Si2 0.808019 0.822699 0.721246
Si Si3 0.882261 0.674201 0.435414
Si Si4 0.500000 0.323394 0.007991
Si Si5 0.500000 0.823440 0.399196
O O1 0.889904 0.500000 0.960602
O O2 0.841634 0.754397 0.888657
O O3 0.881934 0.696426 0.216597
O O4 0.945410 0.748503 0.941460
O O5 0.750000 0.750000 0.713247
O O6 0.841727 0.777896 0.541994
O O7 0.803768 0.000000 0.738651
O O8 0.868983 0.500000 0.471778
O O9 0.943681 0.698682 0.496768
O O10 0.500000 0.500000 0.975697
O O11 0.500000 0.284430 0.224587
O O12 0.500000 0.000000 0.335889
#
# Coordination Sequence:
#
# PCOD9350453 Si02
#       5
#     8   8   8   4   4
#     4  10  21  40  64  88 119 157 195 239 293 349
#     4  12  26  42  60  84 116 154 200 249 294 347
#     4   9  19  38  63  89 118 154 193 235 288 349
#     4  10  18  31  56  91 125 153 189 236 288 349
#     4   8  16  33  58  87 119 155 191 230 286 351
#
# _framework density 19.484248999999998
#
# number of rings (size 3 to 8) (size 9 to 14) (size 15 to 20)
#    0.000    2.000    0.000    5.625    0.000    7.000 
#    0.000    3.750    0.000    0.000    0.000    0.000 
#    0.000    0.000    0.000    0.000    0.000    0.000 
#
# Total GULP energy -89385.831028 kJ/mol
# GULP energy per Si atom -5586.614439 kJ/mol
# Density = 1.943990 g / cm^3
# Si number density = 19.484249 Si / 1000 Ang^3
#
#
#
# Elastic Constant Matrix: (Units=GPa)
#
#
# Indices 1 2 3 4 5 6 
#
# 1 185.0635 109.0125 51.6437 0.0000 0.0000 0.0000
# 2 109.0125 168.6401 58.7652 0.0000 0.0000 0.0000
# 3 51.6437 58.7652 76.8224 0.0000 0.0000 0.0000
# 4 0.0000 0.0000 0.0000 31.3334 0.0000 0.0000
# 5 0.0000 0.0000 0.0000 0.0000 25.4460 0.0000
# 6 0.0000 0.0000 0.0000 0.0000 0.0000 37.2610
#
#
#
# Elastic Compliance Matrix: (Units=1/GPa)
#
#
# Indices 1 2 3 4 5 6 
#
# 1 0.008986 -0.005050 -0.002178 0.000000 0.000000 0.000000
# 2 -0.005050 0.010923 -0.004961 0.000000 0.000000 0.000000
# 3 -0.002178 -0.004961 0.018276 0.000000 0.000000 0.000000
# 4 0.000000 0.000000 0.000000 0.031915 0.000000 0.000000
# 5 0.000000 0.000000 0.000000 0.000000 0.039299 0.000000
# 6 0.000000 0.000000 0.000000 0.000000 0.000000 0.026838
#
#
# Mechanical properties :
#
#
# Convention : Reuss Voigt Hill
#
# Bulk Modulus (GPa) = 72.42318 96.59653 84.50986
# Shear Modulus (GPa) = 30.26363 32.88173 31.57268
#
# Velocity S-wave (km/s) = 3.94539 4.11250 4.02981
# Velocity P-wave (km/s) = 7.61614 8.49909 8.06970
#
# Compressibility (1/GPa) = 0.01380773
#
# Stress axis : x y z
#
# Youngs Moduli (GPa) = 111.28542 91.55312 54.71729
#
# Poissons Ratio (x) = 0.46232 0.11917
# Poissons Ratio (y) = 0.56196 0.27143
# Poissons Ratio (z) = 0.24238 0.45416
#
# Static dielectric constant tensor:
#      x y z
#    x 1.665850 0.000000 0.000000 
#    y 0.000000 1.644660 0.000000 
#    z 0.000000 0.000000 1.710890 
# 
# From -- ./inp_files/4779.got.cif
#   From: 2010.05.17/outbox.cif.g08.bks.cpg/sg35_3_cif.got.tgz:4779.got - 2010.06.03 17:29:28.
