data_PCOD9350467
_publ_section_title
;
Structure prediction by ZEFSAII (Michael W. Deem and Ramdas Pophale) SiO2 
 PCOD9350467
Probable space group: C M C 21
;
_chemical_formula_sum "Si O2"
_cell_formula_units_Z 64
_cell_length_a 22.948675
_cell_length_b 9.514661
_cell_length_c 15.662626
_cell_angle_alpha 90.000000
_cell_angle_beta 90.000000
_cell_angle_gamma 90.000000
_cell_volume 3419.916579
_symmetry_space_group_name_H-M "C M C 21"
_symmetry_group_IT_number 36
_symmetry_cell_setting 'orthorhombic'
loop_
_space_group_symop_operation_xyz
x,y,z
-x,-y,1/2+z
x,-y,1/2+z
-x,y,z
1/2+x,1/2+y,z
1/2-x,1/2-y,1/2+z
1/2+x,1/2-y,1/2+z
1/2-x,1/2+y,z
loop_
_atom_site_type_symbol
_atom_site_label
_atom_site_fract_x
_atom_site_fract_y
_atom_site_fract_z
Si Si1 0.434822 0.164810 0.318910
Si Si2 0.236170 0.744187 0.742921
Si Si3 0.068063 0.168982 0.644144
Si Si4 0.772097 0.337807 0.933090
Si Si5 0.362321 0.392266 0.409571
Si Si6 0.343519 0.926850 0.360556
Si Si7 0.172752 0.976987 0.219191
Si Si8 0.140893 0.183059 0.483827
O O1 0.500000 0.121692 0.338860
O O2 0.431472 0.222382 0.222798
O O3 0.414360 0.293948 0.377958
O O4 0.390698 0.039410 0.333715
O O5 0.260845 0.807341 0.832070
O O6 0.191339 0.627570 0.778198
O O7 0.204208 0.875823 0.699504
O O8 0.286721 0.657543 0.695590
O O9 0.104052 0.230826 0.564864
O O10 0.000000 0.135372 0.626215
O O11 0.109510 0.041497 0.677008
O O12 0.816654 0.212540 0.955464
O O13 0.801502 0.491441 0.928344
O O14 0.711699 0.330257 0.983942
O O15 0.334707 0.458417 0.322156
O O16 0.379919 0.525078 0.464563
O O17 0.369511 0.791049 0.406821
#
# Coordination Sequence:
#
# PCOD9350467 Si02
#       8
#     8   8   8   8   8   8   8   8
#     4   9  20  39  58  76 107 157 199 229 283 348
#     4  10  16  29  56  90 112 137 178 232 284 332
#     4  10  24  41  54  75 119 161 189 232 295 344
#     4   9  16  31  51  84 121 145 164 224 297 341
#     4   9  17  31  58  82 110 142 184 230 284 337
#     4  10  18  32  60  89 115 141 191 245 280 338
#     4  10  18  34  56  84 112 146 182 226 282 343
#     4  11  19  33  57  86 110 145 187 236 285 339
#
# _framework density 18.713906000000001
#
# number of rings (size 3 to 8) (size 9 to 14) (size 15 to 20)
#    0.000    2.250    3.750    2.250    0.000    1.000 
#    4.500    0.625    2.750    0.000    0.000    0.000 
#    0.000    0.000    0.000    0.000    0.000    0.000 
#
# Total GULP energy -178319.040439 kJ/mol
# GULP energy per Si atom -5572.470014 kJ/mol
# Density = 1.867131 g / cm^3
# Si number density = 18.713906 Si / 1000 Ang^3
#
#
#
# Elastic Constant Matrix: (Units=GPa)
#
#
# Indices 1 2 3 4 5 6 
#
# 1 118.5375 36.3562 28.7397 0.0000 0.0000 0.0000
# 2 36.3562 76.5851 -1.5644 0.0000 0.0000 0.0000
# 3 28.7397 -1.5644 32.2922 0.0000 0.0000 0.0000
# 4 0.0000 0.0000 0.0000 5.0538 0.0000 0.0000
# 5 0.0000 0.0000 0.0000 0.0000 19.7325 0.0000
# 6 0.0000 0.0000 0.0000 0.0000 0.0000 11.5950
#
#
#
# Elastic Compliance Matrix: (Units=1/GPa)
#
#
# Indices 1 2 3 4 5 6 
#
# 1 0.013453 -0.006637 -0.012294 0.000000 0.000000 0.000000
# 2 -0.006637 0.016345 0.006699 0.000000 0.000000 0.000000
# 3 -0.012294 0.006699 0.042234 0.000000 0.000000 0.000000
# 4 0.000000 0.000000 0.000000 0.197869 0.000000 0.000000
# 5 0.000000 0.000000 0.000000 0.000000 0.050678 0.000000
# 6 0.000000 0.000000 0.000000 0.000000 0.000000 0.086244
#
#
# Mechanical properties :
#
#
# Convention : Reuss Voigt Hill
#
# Bulk Modulus (GPa) = 21.02339 39.38640 30.20489
# Shear Modulus (GPa) = 11.18211 18.20182 14.69197
#
# Velocity S-wave (km/s) = 2.44709 3.12209 2.80497
# Velocity P-wave (km/s) = 4.38667 5.83857 5.16390
#
# Compressibility (1/GPa) = 0.04756608
#
# Stress axis : x y z
#
# Youngs Moduli (GPa) = 74.33498 61.18057 23.67788
#
# Poissons Ratio (x) = 0.40607 0.29110
# Poissons Ratio (y) = 0.49338 -0.15862
# Poissons Ratio (z) = 0.91389 -0.40985
#
# Static dielectric constant tensor:
#      x y z
#    x 1.662730 0.000000 0.000000 
#    y 0.000000 1.661270 0.000000 
#    z 0.000000 0.000000 1.686560 
# 
# From -- ./inp_files/15114.got.cif
#   From: 2010.05.17/outbox.cif.g08.bks.cpg/sg36_8_cif.got.tgz:15114.got - 2010.06.03 17:41:39.
