data_PCOD9350058
_publ_section_title
;
Structure prediction by ZEFSAII (Michael W. Deem and Ramdas Pophale) SiO2 
 PCOD9350058
Probable space group: C M M 2
;
_chemical_formula_sum "Si O2"
_cell_formula_units_Z 40
_cell_length_a 7.840698
_cell_length_b 18.670904
_cell_length_c 14.989778
_cell_angle_alpha 90.000000
_cell_angle_beta 90.000000
_cell_angle_gamma 90.000000
_cell_volume 2194.397366
_symmetry_space_group_name_H-M "C M M 2"
_symmetry_group_IT_number 35
_symmetry_cell_setting 'orthorhombic'
loop_
_space_group_symop_operation_xyz
x,y,z
-x,-y,z
-x,y,z
x,-y,z
1/2+x,1/2+y,z
1/2-x,1/2-y,z
1/2-x,1/2+y,z
1/2+x,1/2-y,z
loop_
_atom_site_type_symbol
_atom_site_label
_atom_site_fract_x
_atom_site_fract_y
_atom_site_fract_z
Si Si1 0.706107 0.581994 0.262390
Si Si2 0.500000 0.912980 0.588080
Si Si3 0.698050 0.831355 0.088323
Si Si4 0.000000 0.413623 0.795918
Si Si5 0.805518 0.166153 0.895019
Si Si6 0.803679 0.912485 0.460522
O O1 0.500000 0.582072 0.260629
O O2 0.765344 0.500000 0.256142
O O3 0.770488 0.624251 0.177267
O O4 0.752569 0.610368 0.360848
O O5 0.500000 0.893133 0.691441
O O6 0.668699 0.889271 0.534616
O O7 0.500000 0.000000 0.585276
O O8 0.500000 0.833542 0.063683
O O9 0.750000 0.750000 0.107234
O O10 0.797089 0.855170 0.999669
O O11 0.167710 0.380324 0.841922
O O12 0.000000 0.500000 0.803758
O O13 0.750000 0.250000 0.891220
O O14 0.000000 0.158771 0.862998
O O15 0.000000 0.890416 0.476809
O O16 0.804652 0.000000 0.458359
#
# Coordination Sequence:
#
# PCOD9350058 Si02
#       6
#     8   4   8   4   8   8
#     4   9  18  32  51  80 114 147 186 230 277 332
#     4   9  18  32  53  79 115 148 183 238 294 345
#     4  11  21  35  55  81 111 149 195 232 273 345
#     4  11  24  40  59  97 126 144 199 266 305 343
#     4  11  21  41  66  85 114 162 205 239 293 370
#     4   8  15  29  50  76 108 148 188 224 276 347
#
# _framework density 18.228238999999999
#
# number of rings (size 3 to 8) (size 9 to 14) (size 15 to 20)
#    0.000    2.200    2.000    4.200    1.400    2.400 
#    0.000    2.000    0.000    1.200    0.000    0.000 
#    0.000    0.000    0.000    0.000    0.000    0.000 
#
# Total GULP energy -111554.808550 kJ/mol
# GULP energy per Si atom -5577.740427 kJ/mol
# Density = 1.818675 g / cm^3
# Si number density = 18.228239 Si / 1000 Ang^3
#
#
#
# Elastic Constant Matrix: (Units=GPa)
#
#
# Indices 1 2 3 4 5 6 
#
# 1 131.1206 32.1924 70.4353 0.0000 0.0000 0.0000
# 2 32.1924 36.8670 50.7679 0.0000 0.0000 0.0000
# 3 70.4353 50.7679 150.9406 0.0000 0.0000 0.0000
# 4 0.0000 0.0000 0.0000 -23.5294 0.0000 0.0000
# 5 0.0000 0.0000 0.0000 0.0000 21.0190 0.0000
# 6 0.0000 0.0000 0.0000 0.0000 0.0000 15.4973
#
#
#
# Elastic Compliance Matrix: (Units=1/GPa)
#
#
# Indices 1 2 3 4 5 6 
#
# 1 0.010571 -0.004541 -0.003405 0.000000 0.000000 0.000000
# 2 -0.004541 0.052477 -0.015531 0.000000 0.000000 0.000000
# 3 -0.003405 -0.015531 0.013438 0.000000 0.000000 0.000000
# 4 0.000000 0.000000 0.000000 -0.042500 0.000000 0.000000
# 5 0.000000 0.000000 0.000000 0.000000 0.047576 0.000000
# 6 0.000000 0.000000 0.000000 0.000000 0.000000 0.064528
#
#
# Mechanical properties :
#
#
# Convention : Reuss Voigt Hill
#
# Bulk Modulus (GPa) = 33.86322 69.52437 51.69380
# Shear Modulus (GPa) = 24.64409 13.63290 19.13849
#
# Velocity S-wave (km/s) = 3.68091 2.73774 3.24379
# Velocity P-wave (km/s) = 6.05666 6.94388 6.51539
#
# Compressibility (1/GPa) = 0.02953056
#
# Stress axis : x y z
#
# Youngs Moduli (GPa) = 94.60028 19.05592 74.41517
#
# Poissons Ratio (x) = 0.08653 0.25342
# Poissons Ratio (y) = 0.42957 1.15577
# Poissons Ratio (z) = 0.32216 0.29596
#
# Static dielectric constant tensor:
#      x y z
#    x 1.646610 0.000000 0.000000 
#    y 0.000000 1.604630 0.000000 
#    z 0.000000 0.000000 1.624590 
# 
# From -- ./inp_files/11230.got.cif
#   From: 2010.05.17/outbox.cif.g08.bks.cpg/sg35_6_cif.got.tgz:11230.got - 2010.06.03 17:29:28.
