data_PCOD9350436
_publ_section_title
;
Structure prediction by ZEFSAII (Michael W. Deem and Ramdas Pophale) SiO2 
 PCOD9350436
Probable space group: C M M 2
;
_chemical_formula_sum "Si O2"
_cell_formula_units_Z 64
_cell_length_a 8.775262
_cell_length_b 30.121206
_cell_length_c 12.506522
_cell_angle_alpha 90.000000
_cell_angle_beta 90.000000
_cell_angle_gamma 90.000000
_cell_volume 3305.742335
_symmetry_space_group_name_H-M "C M M 2"
_symmetry_group_IT_number 35
_symmetry_cell_setting 'orthorhombic'
loop_
_space_group_symop_operation_xyz
x,y,z
-x,-y,z
-x,y,z
x,-y,z
1/2+x,1/2+y,z
1/2-x,1/2-y,z
1/2-x,1/2+y,z
1/2+x,1/2-y,z
loop_
_atom_site_type_symbol
_atom_site_label
_atom_site_fract_x
_atom_site_fract_y
_atom_site_fract_z
Si Si1 0.180218 0.931229 0.984480
Si Si2 0.680160 0.161034 0.042430
Si Si3 0.820284 0.138468 0.670313
Si Si4 0.681829 0.049387 0.755062
Si Si5 0.821029 0.207248 0.857044
Si Si6 0.317850 0.142722 0.283503
Si Si7 0.816261 0.951465 0.226679
Si Si8 0.816920 0.299639 0.486940
O O1 0.264397 0.947551 0.878699
O O2 0.000000 0.938474 0.970332
O O3 0.219660 0.879709 0.999449
O O4 0.226599 0.950483 0.100246
O O5 0.500000 0.151535 0.030589
O O6 0.714016 0.164714 0.167945
O O7 0.728598 0.200780 0.966367
O O8 0.756639 0.089197 0.688563
O O9 0.799830 0.164867 0.781503
O O10 0.736977 0.167988 0.581747
O O11 0.000000 0.136818 0.646534
O O12 0.500000 0.054491 0.752030
O O13 0.722246 0.000000 0.715489
O O14 0.750000 0.250000 0.799732
O O15 0.000000 0.212993 0.876208
O O16 0.500000 0.137639 0.292546
O O17 0.248874 0.092986 0.280609
O O18 0.266718 0.174952 0.378320
O O19 0.000000 0.948780 0.230661
O O20 0.769575 0.000000 0.270184
O O21 0.750000 0.250000 0.494930
O O22 0.000000 0.296283 0.487553
#
# Coordination Sequence:
#
# PCOD9350436 Si02
#       8
#     8   8   8   8   8   8   8   8
#     4  10  18  31  52  81 119 162 203 244 289 344
#     4  10  19  34  56  83 120 159 196 241 294 352
#     4  11  24  42  64  89 119 153 198 250 301 355
#     4  11  23  37  57  87 122 161 202 244 295 352
#     4  11  23  37  56  85 118 154 193 238 296 360
#     4   9  21  39  59  87 119 154 196 247 299 351
#     4   9  18  32  53  84 121 161 203 245 290 345
#     4  11  24  44  68  91 117 150 198 252 304 360
#
# _framework density 19.360251000000002
#
# number of rings (size 3 to 8) (size 9 to 14) (size 15 to 20)
#    0.000    1.750    1.250    3.000    0.000    6.750 
#    0.000    1.875    0.000    0.750    0.000    0.000 
#    0.000    0.000    0.000    0.000    0.000    0.000 
#
# Total GULP energy -178619.536326 kJ/mol
# GULP energy per Si atom -5581.860510 kJ/mol
# Density = 1.931619 g / cm^3
# Si number density = 19.360251 Si / 1000 Ang^3
#
#
#
# Elastic Constant Matrix: (Units=GPa)
#
#
# Indices 1 2 3 4 5 6 
#
# 1 41.5329 45.1397 37.4289 0.0000 0.0000 0.0000
# 2 45.1397 149.3358 53.1787 0.0000 0.0000 0.0000
# 3 37.4289 53.1787 84.3706 0.0000 0.0000 0.0000
# 4 0.0000 0.0000 0.0000 12.4107 0.0000 0.0000
# 5 0.0000 0.0000 0.0000 0.0000 19.8999 0.0000
# 6 0.0000 0.0000 0.0000 0.0000 0.0000 30.7037
#
#
#
# Elastic Compliance Matrix: (Units=1/GPa)
#
#
# Indices 1 2 3 4 5 6 
#
# 1 0.047803 -0.008894 -0.015601 0.000000 0.000000 0.000000
# 2 -0.008894 0.010289 -0.002540 0.000000 0.000000 0.000000
# 3 -0.015601 -0.002540 0.020374 0.000000 0.000000 0.000000
# 4 0.000000 0.000000 0.000000 0.080576 0.000000 0.000000
# 5 0.000000 0.000000 0.000000 0.000000 0.050251 0.000000
# 6 0.000000 0.000000 0.000000 0.000000 0.000000 0.032569
#
#
# Mechanical properties :
#
#
# Convention : Reuss Voigt Hill
#
# Bulk Modulus (GPa) = 40.98794 60.74819 50.86806
# Shear Modulus (GPa) = 16.44398 21.90234 19.17316
#
# Velocity S-wave (km/s) = 2.91755 3.36714 3.15037
# Velocity P-wave (km/s) = 5.70672 6.82369 6.29005
#
# Compressibility (1/GPa) = 0.02439742
#
# Stress axis : x y z
#
# Youngs Moduli (GPa) = 20.91936 97.19086 49.08219
#
# Poissons Ratio (x) = 0.86440 0.76571
# Poissons Ratio (y) = 0.18605 0.12465
# Poissons Ratio (z) = 0.32635 0.24683
#
# Static dielectric constant tensor:
#      x y z
#    x 1.651660 0.000000 0.000000 
#    y 0.000000 1.810110 0.000000 
#    z 0.000000 0.000000 1.680460 
# 
# From -- ./inp_files/11903.got.cif
#   From: 2010.05.17/outbox.cif.g08.bks.cpg/sg35_6_cif.got.tgz:11903.got - 2010.06.03 17:29:28.
