data_PCOD9350031
_publ_section_title
;
Structure prediction by ZEFSAII (Michael W. Deem and Ramdas Pophale) SiO2 
 PCOD9350031
Probable space group: C M M 2
;
_chemical_formula_sum "Si O2"
_cell_formula_units_Z 58
_cell_length_a 18.112483
_cell_length_b 24.532246
_cell_length_c 6.310113
_cell_angle_alpha 90.000000
_cell_angle_beta 90.000000
_cell_angle_gamma 90.000000
_cell_volume 2803.834908
_symmetry_space_group_name_H-M "C M M 2"
_symmetry_group_IT_number 35
_symmetry_cell_setting 'orthorhombic'
loop_
_space_group_symop_operation_xyz
x,y,z
-x,-y,z
-x,y,z
x,-y,z
1/2+x,1/2+y,z
1/2-x,1/2-y,z
1/2-x,1/2+y,z
1/2+x,1/2-y,z
loop_
_atom_site_type_symbol
_atom_site_label
_atom_site_fract_x
_atom_site_fract_y
_atom_site_fract_z
Si Si1 0.633266 0.266722 0.114070
Si Si2 0.818047 0.156224 0.746161
Si Si3 0.803459 0.938462 0.083517
Si Si4 0.678416 0.183873 0.457576
Si Si5 0.584173 0.629657 0.370070
Si Si6 0.000000 0.500000 0.188772
Si Si7 0.081451 0.673354 0.842308
Si Si8 0.136487 0.586733 0.159758
O O1 0.678843 0.230716 0.282031
O O2 0.592132 0.315121 0.233892
O O3 0.677350 0.296469 0.923696
O O4 0.580849 0.221644 0.011813
O O5 0.755132 0.170529 0.574149
O O6 0.890970 0.145778 0.607036
O O7 0.805070 0.101362 0.880613
O O8 0.856613 0.911620 0.262318
O O9 0.717560 0.939575 0.151501
O O10 0.827564 0.000000 0.036722
O O11 0.622255 0.198356 0.642532
O O12 0.644768 0.130148 0.348617
O O13 0.500000 0.609691 0.362181
O O14 0.933549 0.452634 0.185185
O O15 0.000000 0.654573 0.787466
O O16 0.124744 0.622907 0.946898
#
# Coordination Sequence:
#
# PCOD9350031 Si02
#       8
#     8   8   8   8   8   2   8   8
#     4  10  25  41  66 100 142 182 233 290 351 417
#     4  11  24  44  68 103 136 187 238 292 350 434
#     4  11  24  47  73  98 138 182 231 298 355 412
#     4  11  24  42  65 101 144 184 236 286 352 424
#     4  11  25  46  70 101 136 180 236 293 360 430
#     4  12  24  44  78 104 142 186 240 300 344 400
#     4  11  23  40  64  96 142 185 227 280 344 422
#     4  11  23  44  67 101 137 182 235 287 343 412
#
# _framework density 20.685953999999999
#
# number of rings (size 3 to 8) (size 9 to 14) (size 15 to 20)
#    0.000    1.103    4.138    1.241    0.966    9.103 
#    1.241    1.379    0.000    0.000    0.000    0.000 
#    0.000    0.000    0.000    0.000    0.000    0.000 
#
# Total GULP energy -161703.434511 kJ/mol
# GULP energy per Si atom -5575.980500 kJ/mol
# Density = 2.063887 g / cm^3
# Si number density = 20.685954 Si / 1000 Ang^3
#
#
#
# Elastic Constant Matrix: (Units=GPa)
#
#
# Indices 1 2 3 4 5 6 
#
# 1 154.1770 54.3626 59.5787 0.0000 0.0000 0.0000
# 2 54.3626 131.5739 50.6367 0.0000 0.0000 0.0000
# 3 59.5787 50.6367 104.5514 0.0000 0.0000 0.0000
# 4 0.0000 0.0000 0.0000 10.7612 0.0000 0.0000
# 5 0.0000 0.0000 0.0000 0.0000 13.4040 0.0000
# 6 0.0000 0.0000 0.0000 0.0000 0.0000 17.9426
#
#
#
# Elastic Compliance Matrix: (Units=1/GPa)
#
#
# Indices 1 2 3 4 5 6 
#
# 1 0.008761 -0.002087 -0.003981 0.000000 0.000000 0.000000
# 2 -0.002087 0.009839 -0.003576 0.000000 0.000000 0.000000
# 3 -0.003981 -0.003576 0.013565 0.000000 0.000000 0.000000
# 4 0.000000 0.000000 0.000000 0.092927 0.000000 0.000000
# 5 0.000000 0.000000 0.000000 0.000000 0.074605 0.000000
# 6 0.000000 0.000000 0.000000 0.000000 0.000000 0.055733
#
#
# Mechanical properties :
#
#
# Convention : Reuss Voigt Hill
#
# Bulk Modulus (GPa) = 77.66422 79.93981 78.80202
# Shear Modulus (GPa) = 17.92051 23.46983 20.69517
#
# Velocity S-wave (km/s) = 2.94651 3.37200 3.16641
# Velocity P-wave (km/s) = 7.01440 7.34091 7.17951
#
# Compressibility (1/GPa) = 0.01287594
#
# Stress axis : x y z
#
# Youngs Moduli (GPa) = 114.14831 101.63771 73.71824
#
# Poissons Ratio (x) = 0.21216 0.29349
# Poissons Ratio (y) = 0.23827 0.26359
# Poissons Ratio (z) = 0.45445 0.36342
#
# Static dielectric constant tensor:
#      x y z
#    x 1.763310 0.000000 0.000000 
#    y 0.000000 1.732230 0.000000 
#    z 0.000000 0.000000 1.744930 
# 
# From -- ./inp_files/2669.got.cif
#   From: 2010.05.17/outbox.cif.g08.bks.cpg/sg35_2_cif.got.tgz:2669.got - 2010.06.03 17:29:28.
