data_PCOD9350897
_publ_section_title
;
Structure prediction by ZEFSAII (Michael W. Deem and Ramdas Pophale) SiO2 
 PCOD9350897
Probable space group: C M C 21
;
_chemical_formula_sum "Si O2"
_cell_formula_units_Z 64
_cell_length_a 7.554124
_cell_length_b 22.389479
_cell_length_c 14.429997
_cell_angle_alpha 90.000000
_cell_angle_beta 90.000000
_cell_angle_gamma 90.000000
_cell_volume 2440.587249
_symmetry_space_group_name_H-M "C M C 21"
_symmetry_group_IT_number 36
_symmetry_cell_setting 'orthorhombic'
loop_
_space_group_symop_operation_xyz
x,y,z
-x,-y,1/2+z
x,-y,1/2+z
-x,y,z
1/2+x,1/2+y,z
1/2-x,1/2-y,1/2+z
1/2+x,1/2-y,1/2+z
1/2-x,1/2+y,z
loop_
_atom_site_type_symbol
_atom_site_label
_atom_site_fract_x
_atom_site_fract_y
_atom_site_fract_z
Si Si1 0.717328 0.346090 0.395220
Si Si2 0.791539 0.076636 0.734796
Si Si3 0.788218 0.527566 0.447954
Si Si4 0.206684 0.600857 0.289084
Si Si5 0.707026 0.463356 0.621943
Si Si6 0.712750 0.146366 0.559189
Si Si7 0.291782 0.771656 0.787206
Si Si8 0.714390 0.722054 0.070390
O O1 0.500000 0.349277 0.395152
O O2 0.780807 0.402861 0.334557
O O3 0.775796 0.287877 0.335633
O O4 0.772559 0.330083 0.499914
O O5 0.714351 0.021661 0.675255
O O6 0.772478 0.132164 0.663786
O O7 0.000000 0.065773 0.745280
O O8 0.724080 0.542708 0.344403
O O9 0.724588 0.474204 0.513048
O O10 0.730148 0.589322 0.499199
O O11 0.000000 0.522026 0.450319
O O12 0.216913 0.591182 0.179447
O O13 0.286365 0.664214 0.316802
O O14 0.000000 0.603609 0.313735
O O15 0.500000 0.459481 0.639463
O O16 0.500000 0.145472 0.557417
O O17 0.765637 0.212700 0.529412
O O18 0.500000 0.772248 0.811313
O O19 0.276446 0.774083 0.676038
O O20 0.500000 0.718636 0.073764
#
# Coordination Sequence:
#
# PCOD9350897 Si02
#       8
#     8   8   8   8   8   8   8   8
#     4   9  17  32  54  77 106 143 177 211 262 326
#     4   9  17  32  53  74  99 135 176 213 260 319
#     4   9  18  35  59  83 106 141 189 233 273 319
#     4  10  21  38  59  81 109 146 187 228 273 328
#     4  10  21  36  56  82 111 142 181 230 278 327
#     4   9  16  28  50  78 106 134 173 224 265 307
#     4  10  20  36  57  80 109 145 182 222 269 324
#     4  10  19  31  50  79 112 144 177 213 266 328
#
# _framework density 26.223196000000002
#
# number of rings (size 3 to 8) (size 9 to 14) (size 15 to 20)
#    0.000    2.500    1.250    1.125    0.000    4.500 
#    2.250    1.250    0.000    3.000    0.000    0.000 
#    0.000    0.000    0.000    0.000    0.000    0.000 
#
# Total GULP energy -178752.534098 kJ/mol
# GULP energy per Si atom -5586.016691 kJ/mol
# Density = 2.616351 g / cm^3
# Si number density = 26.223196 Si / 1000 Ang^3
#
#
#
# Elastic Constant Matrix: (Units=GPa)
#
#
# Indices 1 2 3 4 5 6 
#
# 1 61.7262 -4.1636 -11.9872 0.0000 0.0000 0.0000
# 2 -4.1636 62.1483 12.1046 0.0000 0.0000 0.0000
# 3 -11.9872 12.1046 127.4744 0.0000 0.0000 0.0000
# 4 0.0000 0.0000 0.0000 52.9238 0.0000 0.0000
# 5 0.0000 0.0000 0.0000 0.0000 16.0484 0.0000
# 6 0.0000 0.0000 0.0000 0.0000 0.0000 0.0323
#
#
#
# Elastic Compliance Matrix: (Units=1/GPa)
#
#
# Indices 1 2 3 4 5 6 
#
# 1 0.016543 0.000820 0.001478 0.000000 0.000000 0.000000
# 2 0.000820 0.016434 -0.001483 0.000000 0.000000 0.000000
# 3 0.001478 -0.001483 0.008125 0.000000 0.000000 0.000000
# 4 0.000000 0.000000 0.000000 0.018895 0.000000 0.000000
# 5 0.000000 0.000000 0.000000 0.000000 0.062311 0.000000
# 6 0.000000 0.000000 0.000000 0.000000 0.000000 30.912614
#
#
# Mechanical properties :
#
#
# Convention : Reuss Voigt Hill
#
# Bulk Modulus (GPa) = 23.40199 27.02850 25.21524
# Shear Modulus (GPa) = 0.16104 30.82725 15.49415
#
# Velocity S-wave (km/s) = 0.24808 3.43238 2.43339
# Velocity P-wave (km/s) = 3.00426 5.10272 4.18709
#
# Compressibility (1/GPa) = 0.04273141
#
# Stress axis : x y z
#
# Youngs Moduli (GPa) = 60.44892 60.84784 123.08397
#
# Poissons Ratio (x) = -0.04992 -0.18188
# Poissons Ratio (y) = -0.04960 0.18258
# Poissons Ratio (z) = -0.08933 0.09026
#
# Static dielectric constant tensor:
#      x y z
#    x 1.967420 0.000000 0.000000 
#    y 0.000000 2.118630 0.000000 
#    z 0.000000 0.000000 2.092630 
# 
# From -- ./inp_files/11020.got.cif
#   From: 2010.05.17/outbox.cif.g08.bks.cpg/sg36_6_cif.got.tgz:11020.got - 2010.06.03 17:41:39.
