data_PCOD9350167
_publ_section_title
;
Structure prediction by ZEFSAII (Michael W. Deem and Ramdas Pophale) SiO2 
 PCOD9350167
Probable space group: C M M 2
;
_chemical_formula_sum "Si O2"
_cell_formula_units_Z 32
_cell_length_a 9.000000
_cell_length_b 30.000000
_cell_length_c 12.000000
_cell_angle_alpha 90.000000
_cell_angle_beta 90.000000
_cell_angle_gamma 90.000000
_cell_volume 3240.000000
_symmetry_space_group_name_H-M "C M M 2"
_symmetry_group_IT_number 35
_symmetry_cell_setting 'orthorhombic'
loop_
_space_group_symop_operation_xyz
x,y,z
-x,-y,z
-x,y,z
x,-y,z
1/2+x,1/2+y,z
1/2-x,1/2-y,z
1/2-x,1/2+y,z
1/2+x,1/2-y,z
loop_
_atom_site_type_symbol
_atom_site_label
_atom_site_fract_x
_atom_site_fract_y
_atom_site_fract_z
Si Si1 0.677768 0.703688 0.073000
Si Si2 0.170836 0.616391 0.130648
Si Si3 0.320187 0.547758 0.973350
Si Si4 0.677248 0.203975 0.584520
Si Si5 0.670262 0.316397 0.816237
Si Si6 0.671302 0.947681 0.343423
Si Si7 0.169464 0.919411 0.751885
Si Si8 0.178222 0.112356 0.521413
O O1 0.500000 0.704760 0.080103
O O2 0.750000 0.750000 0.108521
O O3 0.741932 0.662491 0.143083
O O4 0.716564 0.696206 0.941279
O O5 0.249576 0.589103 0.033699
O O6 0.174626 0.581639 0.231777
O O7 0.000000 0.626751 0.104518
O O8 0.500000 0.551860 0.974016
O O9 0.281406 0.500000 0.024782
O O10 0.265872 0.549534 0.846082
O O11 0.500000 0.204756 0.575337
O O12 0.750000 0.250000 0.543406
O O13 0.726809 0.199355 0.714772
O O14 0.744895 0.160798 0.521756
O O15 0.500000 0.300177 0.797615
O O16 0.664851 0.369865 0.804560
O O17 0.500000 0.945828 0.385070
O O18 0.780804 0.920803 0.423336
O O19 0.708879 0.000000 0.328408
O O20 0.238373 0.912464 0.632210
O O21 0.000000 0.934718 0.732906
O O22 0.000000 0.119108 0.531359
#
# Coordination Sequence:
#
# PCOD9350167 Si02
#       8
#     8   8   8   8   8   8   8   8
#     4  11  22  37  58  86 121 158 200 245 295 353
#     4  11  23  40  61  85 118 156 199 249 300 352
#     4  10  19  33  56  85 117 155 195 237 294 358
#     4  11  21  34  55  85 123 163 203 243 291 349
#     4   9  17  32  53  79 117 160 201 243 287 341
#     4  10  23  44  66  87 115 153 198 251 306 356
#     4   8  15  31  52  80 118 154 186 232 290 343
#     4  10  21  38  61  89 119 152 199 250 299 355
#
# _framework density 9.8765429999999999
#
# number of rings (size 3 to 8) (size 9 to 14) (size 15 to 20)
#    0.000    2.000    1.250    3.750    0.000    4.500 
#    0.000    2.500    0.000    3.000    0.000    0.000 
#    0.000    0.000    0.000    0.000    0.000    0.000 
#
# Total GULP energy -178412.653981 kJ/mol
# GULP energy per Si atom -5575.395437 kJ/mol
# Density = 0.985406 g / cm^3
# Si number density = 9.876543 Si / 1000 Ang^3
#
#
#
# Elastic Constant Matrix: (Units=GPa)
#
#
# Indices 1 2 3 4 5 6 
#
# 1 85.2773 58.1972 25.1739 0.0000 0.0000 0.0000
# 2 58.1972 135.9731 30.7554 0.0000 0.0000 0.0000
# 3 25.1739 30.7554 31.4079 0.0000 0.0000 0.0000
# 4 0.0000 0.0000 0.0000 12.0969 0.0000 0.0000
# 5 0.0000 0.0000 0.0000 0.0000 34.1426 0.0000
# 6 0.0000 0.0000 0.0000 0.0000 0.0000 29.3026
#
#
#
# Elastic Compliance Matrix: (Units=1/GPa)
#
#
# Indices 1 2 3 4 5 6 
#
# 1 0.018359 -0.005818 -0.009018 0.000000 0.000000 0.000000
# 2 -0.005818 0.011291 -0.006393 0.000000 0.000000 0.000000
# 3 -0.009018 -0.006393 0.045327 0.000000 0.000000 0.000000
# 4 0.000000 0.000000 0.000000 0.082666 0.000000 0.000000
# 5 0.000000 0.000000 0.000000 0.000000 0.029289 0.000000
# 6 0.000000 0.000000 0.000000 0.000000 0.000000 0.034127
#
#
# Mechanical properties :
#
#
# Convention : Reuss Voigt Hill
#
# Bulk Modulus (GPa) = 30.75100 53.43459 42.09280
# Shear Modulus (GPa) = 18.22458 24.34386 21.28422
#
# Velocity S-wave (km/s) = 3.04076 3.51438 3.28611
# Velocity P-wave (km/s) = 5.28486 6.60135 5.97945
#
# Compressibility (1/GPa) = 0.03251927
#
# Stress axis : x y z
#
# Youngs Moduli (GPa) = 54.46907 88.57003 22.06194
#
# Poissons Ratio (x) = 0.51530 0.19895
# Poissons Ratio (y) = 0.31690 0.14104
# Poissons Ratio (z) = 0.49119 0.56620
#
# Static dielectric constant tensor:
#      x y z
#    x 1.659700 0.000000 0.000000 
#    y 0.000000 1.721380 0.000000 
#    z 0.000000 0.000000 1.745330 
# 
# From -- ./inp_files/11841.got.cif
#   From: 2010.05.17/outbox.ucp.g08.bks.cvg/sg35_6_cif.got.tgz:11841.got - 2010.06.11 10:36:28.
