data_PCOD9350496
_publ_section_title
;
Structure prediction by ZEFSAII (Michael W. Deem and Ramdas Pophale) SiO2 
 PCOD9350496
Probable space group: C M C 21
;
_chemical_formula_sum "Si O2"
_cell_formula_units_Z 52
_cell_length_a 7.779453
_cell_length_b 36.237242
_cell_length_c 6.885887
_cell_angle_alpha 90.000000
_cell_angle_beta 90.000000
_cell_angle_gamma 90.000000
_cell_volume 1941.172317
_symmetry_space_group_name_H-M "C M C 21"
_symmetry_group_IT_number 36
_symmetry_cell_setting 'orthorhombic'
loop_
_space_group_symop_operation_xyz
x,y,z
-x,-y,1/2+z
x,-y,1/2+z
-x,y,z
1/2+x,1/2+y,z
1/2-x,1/2-y,1/2+z
1/2+x,1/2-y,1/2+z
1/2-x,1/2+y,z
loop_
_atom_site_type_symbol
_atom_site_label
_atom_site_fract_x
_atom_site_fract_y
_atom_site_fract_z
Si Si1 0.206634 0.280529 0.408510
Si Si2 0.693950 0.301021 0.828076
Si Si3 0.794717 0.854696 0.293055
Si Si4 0.000000 0.512394 0.599193
Si Si5 0.308172 0.121278 0.223681
Si Si6 0.802782 0.933182 0.160601
Si Si7 0.811956 0.954915 0.619336
O O1 0.305111 0.295124 0.595356
O O2 0.270891 0.238679 0.384830
O O3 0.240595 0.312372 0.247937
O O4 0.000000 0.279359 0.437412
O O5 0.500000 0.303147 0.902900
O O6 0.772174 0.341521 0.843634
O O7 0.707058 0.865495 0.497778
O O8 0.758310 0.889717 0.156994
O O9 0.000000 0.855189 0.320159
O O10 0.846524 0.542778 0.568821
O O11 0.848809 0.481551 0.652660
O O12 0.500000 0.109160 0.259297
O O13 0.196035 0.084305 0.230860
O O14 0.799320 0.944486 0.390415
O O15 0.000000 0.938987 0.097937
O O16 0.000000 0.972158 0.655309
#
# Coordination Sequence:
#
# PCOD9350496 Si02
#       7
#     8   8   8   4   8   8   8
#     4  10  20  32  52  80 109 143 185 228 277 334
#     4  10  20  33  51  79 112 144 182 230 282 331
#     4   9  17  30  50  75 103 135 171 220 276 325
#     4  12  20  30  54  80 104 136 174 226 282 328
#     4  10  17  29  51  77 101 135 177 219 273 331
#     4   9  20  34  51  77 107 139 178 225 276 329
#     4  10  20  35  52  77 109 139 178 227 277 329
#
# _framework density 26.787935000000001
#
# number of rings (size 3 to 8) (size 9 to 14) (size 15 to 20)
#    0.000    2.154    0.769    6.462    4.308    2.462 
#    0.000    0.000    0.000    3.692    0.000    6.462 
#    0.000    0.000    0.000    0.000    0.000    0.000 
#
# Total GULP energy -144953.551471 kJ/mol
# GULP energy per Si atom -5575.136595 kJ/mol
# Density = 2.672696 g / cm^3
# Si number density = 26.787935 Si / 1000 Ang^3
#
#
#
# Elastic Constant Matrix: (Units=GPa)
#
#
# Indices 1 2 3 4 5 6 
#
# 1 196.0169 90.5593 16.6759 0.0000 0.0000 0.0000
# 2 90.5593 236.8926 48.7079 0.0000 0.0000 0.0000
# 3 16.6759 48.7079 71.9381 0.0000 0.0000 0.0000
# 4 0.0000 0.0000 0.0000 -782.4918 0.0000 0.0000
# 5 0.0000 0.0000 0.0000 0.0000 -33.1775 0.0000
# 6 0.0000 0.0000 0.0000 0.0000 0.0000 48.8221
#
#
#
# Elastic Compliance Matrix: (Units=1/GPa)
#
#
# Indices 1 2 3 4 5 6 
#
# 1 0.006198 -0.002409 0.000195 0.000000 0.000000 0.000000
# 2 -0.002409 0.005841 -0.003396 0.000000 0.000000 0.000000
# 3 0.000195 -0.003396 0.016155 0.000000 0.000000 0.000000
# 4 0.000000 0.000000 0.000000 -0.001278 0.000000 0.000000
# 5 0.000000 0.000000 0.000000 0.000000 -0.030141 0.000000
# 6 0.000000 0.000000 0.000000 0.000000 0.000000 0.020483
#
#
# Mechanical properties :
#
#
# Convention : Reuss Voigt Hill
#
# Bulk Modulus (GPa) = 58.92001 90.74821 74.83411
# Shear Modulus (GPa) = 146.46867 -130.10913 8.17977
#
# Velocity S-wave (km/s) = 7.40242 -6.97678 1.74933
# Velocity P-wave (km/s) = 9.75212 5.56333 5.66362
#
# Compressibility (1/GPa) = 0.01697216
#
# Stress axis : x y z
#
# Youngs Moduli (GPa) = 161.33684 171.21276 61.89972
#
# Poissons Ratio (x) = 0.41253 -0.01205
# Poissons Ratio (y) = 0.38874 0.21022
# Poissons Ratio (z) = -0.03140 0.58145
#
# Static dielectric constant tensor:
#      x y z
#    x 1.948060 0.000000 0.000000 
#    y 0.000000 2.132450 0.000000 
#    z 0.000000 0.000000 2.275360 
# 
# From -- ./inp_files/7013.got.cif
#   From: 2010.05.17/outbox.cif.g08.bks.cpg/sg36_4_cif.got.tgz:7013.got - 2010.06.03 17:41:39.
