data_PCOD9350327
_publ_section_title
;
Structure prediction by ZEFSAII (Michael W. Deem and Ramdas Pophale) SiO2 
 PCOD9350327
Probable space group: C M M 2
;
_chemical_formula_sum "Si O2"
_cell_formula_units_Z 48
_cell_length_a 14.819617
_cell_length_b 10.805111
_cell_length_c 14.408596
_cell_angle_alpha 90.000000
_cell_angle_beta 90.000000
_cell_angle_gamma 90.000000
_cell_volume 2307.213993
_symmetry_space_group_name_H-M "C M M 2"
_symmetry_group_IT_number 35
_symmetry_cell_setting 'orthorhombic'
loop_
_space_group_symop_operation_xyz
x,y,z
-x,-y,z
-x,y,z
x,-y,z
1/2+x,1/2+y,z
1/2-x,1/2-y,z
1/2-x,1/2+y,z
1/2+x,1/2-y,z
loop_
_atom_site_type_symbol
_atom_site_label
_atom_site_fract_x
_atom_site_fract_y
_atom_site_fract_z
Si Si1 0.891122 0.358017 0.766520
Si Si2 0.355967 0.500000 0.485816
Si Si3 0.609894 0.856633 0.975113
Si Si4 0.641730 0.000000 0.485263
Si Si5 0.108862 0.000000 0.266728
Si Si6 0.144085 0.250247 0.574656
Si Si7 0.889678 0.750289 0.165611
Si Si8 0.391938 0.000000 0.267266
O O1 0.860736 0.500000 0.746233
O O2 0.863454 0.266254 0.685003
O O3 0.000000 0.360642 0.767560
O O4 0.860669 0.324726 0.870662
O O5 0.248715 0.500000 0.505050
O O6 0.367386 0.500000 0.375187
O O7 0.393831 0.375538 0.532112
O O8 0.500000 0.855446 0.974623
O O9 0.638361 0.768066 0.058707
O O10 0.635414 0.000000 0.994383
O O11 0.604073 0.125449 0.529734
O O12 0.628682 0.000000 0.375630
O O13 0.140870 0.124336 0.215201
O O14 0.000000 0.000000 0.261782
O O15 0.250000 0.250000 0.550476
O O16 0.859956 0.626947 0.220123
O O17 0.000000 0.752105 0.167299
O O18 0.500000 0.000000 0.255340
#
# Coordination Sequence:
#
# PCOD9350327 Si02
#       8
#     8   4   8   4   4   8   8   4
#     4   9  17  30  53  82 103 123 162 215 256 285
#     4  10  22  36  49  66  98 140 167 200 249 298
#     4   8  13  25  47  75 102 123 149 195 251 294
#     4  10  20  34  51  70  94 128 173 210 243 294
#     4  10  20  32  47  68  96 132 167 198 239 290
#     4  10  20  35  52  71  99 135 170 202 247 305
#     4   9  16  28  46  72 101 127 157 195 244 296
#     4  10  18  28  49  76  96 118 161 216 247 276
#
# _framework density 20.804313
#
# number of rings (size 3 to 8) (size 9 to 14) (size 15 to 20)
#    0.000    2.667    1.667    2.000    0.000    1.333 
#    0.000    0.833    0.000    4.000    0.000    0.000 
#    0.000    0.000    0.000    0.000    0.000    0.000 
#
# Total GULP energy -133933.164832 kJ/mol
# GULP energy per Si atom -5580.548535 kJ/mol
# Density = 2.075696 g / cm^3
# Si number density = 20.804313 Si / 1000 Ang^3
#
#
#
# Elastic Constant Matrix: (Units=GPa)
#
#
# Indices 1 2 3 4 5 6 
#
# 1 52.6646 11.8109 -15.5087 0.0000 0.0000 0.0000
# 2 11.8109 195.3717 117.6527 0.0000 0.0000 0.0000
# 3 -15.5087 117.6527 167.4037 0.0000 0.0000 0.0000
# 4 0.0000 0.0000 0.0000 39.1166 0.0000 0.0000
# 5 0.0000 0.0000 0.0000 0.0000 32.3737 0.0000
# 6 0.0000 0.0000 0.0000 0.0000 0.0000 -10.2141
#
#
#
# Elastic Compliance Matrix: (Units=1/GPa)
#
#
# Indices 1 2 3 4 5 6 
#
# 1 0.021436 -0.004320 0.005022 0.000000 0.000000 0.000000
# 2 -0.004320 0.009745 -0.007249 0.000000 0.000000 0.000000
# 3 0.005022 -0.007249 0.011534 0.000000 0.000000 0.000000
# 4 0.000000 0.000000 0.000000 0.025565 0.000000 0.000000
# 5 0.000000 0.000000 0.000000 0.000000 0.030889 0.000000
# 6 0.000000 0.000000 0.000000 0.000000 0.000000 -0.097904
#
#
# Mechanical properties :
#
#
# Convention : Reuss Voigt Hill
#
# Bulk Modulus (GPa) = 33.76080 71.48331 52.62205
# Shear Modulus (GPa) = 206.33609 32.35424 119.34516
#
# Velocity S-wave (km/s) = 9.96969 3.94784 7.58222
# Velocity P-wave (km/s) = 12.19793 7.43068 10.09962
#
# Compressibility (1/GPa) = 0.02962015
#
# Stress axis : x y z
#
# Youngs Moduli (GPa) = 46.65073 102.61628 86.70320
#
# Poissons Ratio (x) = 0.44332 -0.43544
# Poissons Ratio (y) = 0.20154 0.62852
# Poissons Ratio (z) = -0.23429 0.74388
#
# Static dielectric constant tensor:
#      x y z
#    x 1.757370 0.000000 0.000000 
#    y 0.000000 1.757690 0.000000 
#    z 0.000000 0.000000 1.727790 
# 
# From -- ./inp_files/13889.got.cif
#   From: 2010.05.17/outbox.cif.g08.bks.cpg/sg35_7_cif.got.tgz:13889.got - 2010.06.03 17:29:28.
