data_PCOD9350332
_publ_section_title
;
Structure prediction by ZEFSAII (Michael W. Deem and Ramdas Pophale) SiO2 
 PCOD9350332
Probable space group: C M M 2
;
_chemical_formula_sum "Si O2"
_cell_formula_units_Z 64
_cell_length_a 29.910794
_cell_length_b 7.694570
_cell_length_c 16.183299
_cell_angle_alpha 90.000000
_cell_angle_beta 90.000000
_cell_angle_gamma 90.000000
_cell_volume 3724.597564
_symmetry_space_group_name_H-M "C M M 2"
_symmetry_group_IT_number 35
_symmetry_cell_setting 'orthorhombic'
loop_
_space_group_symop_operation_xyz
x,y,z
-x,-y,z
-x,y,z
x,-y,z
1/2+x,1/2+y,z
1/2-x,1/2-y,z
1/2-x,1/2+y,z
1/2+x,1/2-y,z
loop_
_atom_site_type_symbol
_atom_site_label
_atom_site_fract_x
_atom_site_fract_y
_atom_site_fract_z
Si Si1 0.050874 0.291083 0.184870
Si Si2 0.799523 0.208622 0.410545
Si Si3 0.448556 0.712668 0.505539
Si Si4 0.449126 0.208917 0.826209
Si Si5 0.107140 0.209138 0.665484
Si Si6 0.107140 0.209138 0.345595
Si Si7 0.054352 0.700346 0.005539
Si Si8 0.299523 0.708622 0.600534
O O1 0.048125 0.500000 0.176670
O O2 0.083702 0.253592 0.259844
O O3 0.000000 0.228559 0.202195
O O4 0.066278 0.222215 0.094839
O O5 0.750000 0.250000 0.378811
O O6 0.842069 0.272181 0.358844
O O7 0.802794 0.273819 0.505539
O O8 0.802651 0.000000 0.414460
O O9 0.500000 0.768544 0.505539
O O10 0.448308 0.500000 0.505540
O O11 0.422635 0.770092 0.587781
O O12 0.422635 0.770091 0.423299
O O13 0.500000 0.271440 0.808883
O O14 0.416297 0.246410 0.751235
O O15 0.433722 0.277785 0.916240
O O16 0.451875 0.000000 0.834409
O O17 0.157931 0.272181 0.652234
O O18 0.107990 0.000000 0.660626
O O19 0.107990 0.000000 0.350451
O O20 0.070300 0.500000 0.005539
O O21 0.000000 0.697040 0.005540
O O22 0.302651 0.500000 0.596619
O O23 0.250000 0.750000 0.632267
#
# Coordination Sequence:
#
# PCOD9350332 Si02
#       8
#     8   8   8   8   8   8   8   8
#     4   9  17  29  45  65  89 117 149 182 215 255
#     4   9  17  30  46  63  84 111 146 185 221 258
#     4   9  16  26  40  57  83 121 153 169 194 247
#     4   9  17  29  45  65  89 117 149 182 215 255
#     4  10  18  29  44  64  88 116 149 181 214 256
#     4  10  18  29  44  64  88 116 149 181 214 256
#     4   7  12  26  45  61  82 115 148 177 214 259
#     4   9  17  30  46  63  84 111 146 185 221 258
#
# _framework density 17.183064000000002
#
# number of rings (size 3 to 8) (size 9 to 14) (size 15 to 20)
#    0.000    3.000    1.250    2.250    0.000    2.500 
#    0.000    1.250    0.000    4.500    0.000    0.875 
#    0.000    0.000    0.000    0.000    0.000    0.000 
#
# Total GULP energy -178268.136815 kJ/mol
# GULP energy per Si atom -5570.879275 kJ/mol
# Density = 1.714395 g / cm^3
# Si number density = 17.183064 Si / 1000 Ang^3
#
#
#
# Elastic Constant Matrix: (Units=GPa)
#
#
# Indices 1 2 3 4 5 6 
#
# 1 154.2287 7.9089 97.3365 0.0000 0.0000 0.0000
# 2 7.9089 27.6574 4.7718 0.0000 0.0000 0.0000
# 3 97.3365 4.7718 161.1202 0.0000 0.0000 0.0000
# 4 0.0000 0.0000 0.0000 12.6746 0.0000 0.0000
# 5 0.0000 0.0000 0.0000 0.0000 6.9039 0.0000
# 6 0.0000 0.0000 0.0000 0.0000 0.0000 15.7996
#
#
#
# Elastic Compliance Matrix: (Units=1/GPa)
#
#
# Indices 1 2 3 4 5 6 
#
# 1 0.010581 -0.001933 -0.006335 0.000000 0.000000 0.000000
# 2 -0.001933 0.036695 0.000081 0.000000 0.000000 0.000000
# 3 -0.006335 0.000081 0.010031 0.000000 0.000000 0.000000
# 4 0.000000 0.000000 0.000000 0.078898 0.000000 0.000000
# 5 0.000000 0.000000 0.000000 0.000000 0.144846 0.000000
# 6 0.000000 0.000000 0.000000 0.000000 0.000000 0.063293
#
#
# Mechanical properties :
#
#
# Convention : Reuss Voigt Hill
#
# Bulk Modulus (GPa) = 24.42964 62.56009 43.49487
# Shear Modulus (GPa) = 13.35600 22.60822 17.98211
#
# Velocity S-wave (km/s) = 2.79099 3.63123 3.23848
# Velocity P-wave (km/s) = 4.96330 7.35310 6.27306
#
# Compressibility (1/GPa) = 0.04093387
#
# Stress axis : x y z
#
# Youngs Moduli (GPa) = 94.50736 27.25137 99.68761
#
# Poissons Ratio (x) = 0.05267 0.63153
# Poissons Ratio (y) = 0.18266 -0.00806
# Poissons Ratio (z) = 0.59871 -0.00220
#
# Static dielectric constant tensor:
#      x y z
#    x 1.581090 0.000000 0.000000 
#    y 0.000000 1.652720 0.000000 
#    z 0.000000 0.000000 1.597800 
# 
# From -- ./inp_files/14175.got.cif
#   From: 2010.05.17/outbox.cif.g08.bks.cpg/sg35_8_cif.got.tgz:14175.got - 2010.06.03 17:29:28.
