data_PCOD9350037
_publ_section_title
;
Structure prediction by ZEFSAII (Michael W. Deem and Ramdas Pophale) SiO2 
 PCOD9350037
Probable space group: C M M 2
;
_chemical_formula_sum "Si O2"
_cell_formula_units_Z 56
_cell_length_a 26.835471
_cell_length_b 17.080458
_cell_length_c 7.844355
_cell_angle_alpha 90.000000
_cell_angle_beta 90.000000
_cell_angle_gamma 90.000000
_cell_volume 3595.555308
_symmetry_space_group_name_H-M "C M M 2"
_symmetry_group_IT_number 35
_symmetry_cell_setting 'orthorhombic'
loop_
_space_group_symop_operation_xyz
x,y,z
-x,-y,z
-x,y,z
x,-y,z
1/2+x,1/2+y,z
1/2-x,1/2-y,z
1/2-x,1/2+y,z
1/2+x,1/2-y,z
loop_
_atom_site_type_symbol
_atom_site_label
_atom_site_fract_x
_atom_site_fract_y
_atom_site_fract_z
Si Si1 0.160181 0.408220 0.445520
Si Si2 0.260702 0.339534 0.601261
Si Si3 0.845569 0.332163 0.091927
Si Si4 0.943675 0.590175 0.969442
Si Si5 0.751924 0.407812 0.947970
Si Si6 0.053902 0.591613 0.558670
Si Si7 0.796096 0.811615 0.241252
O O1 0.159624 0.500000 0.483935
O O2 0.207627 0.372595 0.538032
O O3 0.166645 0.390623 0.247444
O O4 0.105900 0.374033 0.493837
O O5 0.250000 0.250000 0.648913
O O6 0.274929 0.386517 0.770321
O O7 0.297645 0.340613 0.437038
O O8 0.838873 0.244304 0.164184
O O9 0.900698 0.352816 0.031818
O O10 0.803201 0.356583 0.955510
O O11 0.932160 0.500000 0.020548
O O12 0.944288 0.592028 0.763822
O O13 0.000000 0.607903 0.028539
O O14 0.762791 0.500000 0.955974
O O15 0.719162 0.378581 0.108175
O O16 0.053467 0.500000 0.504925
O O17 0.000000 0.625374 0.505378
O O18 0.750000 0.750000 0.244865
#
# Coordination Sequence:
#
# PCOD9350037 Si02
#       7
#     8   8   8   8   8   8   8
#     4  11  19  27  45  66  88 121 162 202 230 271
#     4  11  19  33  47  63  91 124 160 199 246 287
#     4  11  19  32  45  67  96 127 163 200 239 287
#     4   9  17  29  45  66  95 130 168 204 233 270
#     4  11  21  31  49  70  91 123 163 204 241 287
#     4   8  16  29  41  60  91 124 160 198 232 266
#     4   9  19  35  46  65  93 124 157 199 243 288
#
# _framework density 15.574783999999999
#
# number of rings (size 3 to 8) (size 9 to 14) (size 15 to 20)
#    0.000    2.000    4.286    4.714    0.000    2.286 
#    0.000    1.429    0.000    0.000    0.000    0.000 
#    0.000    0.571    0.000    0.571    0.000    3.143 
#
# Total GULP energy -155962.118233 kJ/mol
# GULP energy per Si atom -5570.075651 kJ/mol
# Density = 1.553933 g / cm^3
# Si number density = 15.574784 Si / 1000 Ang^3
#
#
#
# Elastic Constant Matrix: (Units=GPa)
#
#
# Indices 1 2 3 4 5 6 
#
# 1 66.7487 28.4252 14.2309 0.0000 0.0000 0.0000
# 2 28.4252 46.1419 23.5357 0.0000 0.0000 0.0000
# 3 14.2309 23.5357 70.2302 0.0000 0.0000 0.0000
# 4 0.0000 0.0000 0.0000 17.2198 0.0000 0.0000
# 5 0.0000 0.0000 0.0000 0.0000 15.9421 0.0000
# 6 0.0000 0.0000 0.0000 0.0000 0.0000 18.7024
#
#
#
# Elastic Compliance Matrix: (Units=1/GPa)
#
#
# Indices 1 2 3 4 5 6 
#
# 1 0.020310 -0.012559 0.000093 0.000000 0.000000 0.000000
# 2 -0.012559 0.033907 -0.008818 0.000000 0.000000 0.000000
# 3 0.000093 -0.008818 0.017175 0.000000 0.000000 0.000000
# 4 0.000000 0.000000 0.000000 0.058073 0.000000 0.000000
# 5 0.000000 0.000000 0.000000 0.000000 0.062727 0.000000
# 6 0.000000 0.000000 0.000000 0.000000 0.000000 0.053469
#
#
# Mechanical properties :
#
#
# Convention : Reuss Voigt Hill
#
# Bulk Modulus (GPa) = 34.69304 35.05604 34.87454
# Shear Modulus (GPa) = 16.78768 18.16813 17.47790
#
# Velocity S-wave (km/s) = 3.28666 3.41912 3.35355
# Velocity P-wave (km/s) = 6.06023 6.17611 6.11844
#
# Compressibility (1/GPa) = 0.02882423
#
# Stress axis : x y z
#
# Youngs Moduli (GPa) = 49.23647 29.49223 58.22390
#
# Poissons Ratio (x) = 0.37041 -0.00544
# Poissons Ratio (y) = 0.61838 0.51342
# Poissons Ratio (z) = -0.00460 0.26007
#
# Static dielectric constant tensor:
#      x y z
#    x 1.548370 0.000000 0.000000 
#    y 0.000000 1.511850 0.000000 
#    z 0.000000 0.000000 1.591400 
# 
# From -- ./inp_files/10654.got.cif
#   From: 2010.05.17/outbox.cif.g08.bks.cpg/sg35_6_cif.got.tgz:10654.got - 2010.06.03 17:29:28.
