data_PCOD9350906
_publ_section_title
;
Structure prediction by ZEFSAII (Michael W. Deem and Ramdas Pophale) SiO2 
 PCOD9350906
Probable space group: C M C 21
;
_chemical_formula_sum "Si O2"
_cell_formula_units_Z 64
_cell_length_a 8.111478
_cell_length_b 20.831729
_cell_length_c 20.319925
_cell_angle_alpha 90.000000
_cell_angle_beta 90.000000
_cell_angle_gamma 90.000000
_cell_volume 3433.581912
_symmetry_space_group_name_H-M "C M C 21"
_symmetry_group_IT_number 36
_symmetry_cell_setting 'orthorhombic'
loop_
_space_group_symop_operation_xyz
x,y,z
-x,-y,1/2+z
x,-y,1/2+z
-x,y,z
1/2+x,1/2+y,z
1/2-x,1/2-y,1/2+z
1/2+x,1/2-y,1/2+z
1/2-x,1/2+y,z
loop_
_atom_site_type_symbol
_atom_site_label
_atom_site_fract_x
_atom_site_fract_y
_atom_site_fract_z
Si Si1 0.804541 0.036589 0.196860
Si Si2 0.701038 0.574924 0.050019
Si Si3 0.694565 0.903379 0.158426
Si Si4 0.194834 0.321426 0.926440
Si Si5 0.298264 0.717606 0.030072
Si Si6 0.193613 0.062621 0.512876
Si Si7 0.304267 0.154436 0.280912
Si Si8 0.800917 0.260928 0.176999
O O1 0.748125 0.066048 0.126370
O O2 0.766382 0.088105 0.252551
O O3 0.000000 0.027579 0.192369
O O4 0.726668 0.966102 0.202283
O O5 0.500000 0.574607 0.049752
O O6 0.754855 0.643737 0.023476
O O7 0.754620 0.511044 0.011685
O O8 0.500000 0.898742 0.143983
O O9 0.782623 0.915176 0.088525
O O10 0.746407 0.835125 0.188265
O O11 0.263576 0.327536 0.852942
O O12 0.000000 0.308503 0.919918
O O13 0.262942 0.265010 0.973176
O O14 0.217642 0.387913 0.965279
O O15 0.500000 0.718818 0.029241
O O16 0.250401 0.742454 0.102577
O O17 0.000000 0.063644 0.497240
O O18 0.500000 0.145812 0.285985
O O19 0.268352 0.211012 0.229282
O O20 0.000000 0.255710 0.179897
#
# Coordination Sequence:
#
# PCOD9350906 Si02
#       8
#     8   8   8   8   8   8   8   8
#     4  10  19  34  55  80 108 142 184 229 278 332
#     4   8  15  28  51  79 102 126 170 224 268 312
#     4  10  19  33  55  83 112 143 181 227 280 331
#     4  10  21  37  55  76 108 150 186 224 282 343
#     4   9  15  31  56  78 101 138 183 222 269 330
#     4  10  19  31  51  81 110 140 181 230 274 325
#     4  11  23  36  53  80 114 149 188 234 284 338
#     4  10  19  34  58  81 107 148 187 224 277 335
#
# _framework density 18.639427999999999
#
# number of rings (size 3 to 8) (size 9 to 14) (size 15 to 20)
#    0.000    2.250    2.500    2.250    0.000    2.000 
#    0.000    1.250    0.000    1.500    0.000    0.000 
#    0.000    0.000    0.000    0.000    0.000    0.000 
#
# Total GULP energy -178505.375554 kJ/mol
# GULP energy per Si atom -5578.292986 kJ/mol
# Density = 1.859700 g / cm^3
# Si number density = 18.639428 Si / 1000 Ang^3
#
#
#
# Elastic Constant Matrix: (Units=GPa)
#
#
# Indices 1 2 3 4 5 6 
#
# 1 9.2466 -8.6051 -9.7846 0.0000 0.0000 0.0000
# 2 -8.6051 121.1331 24.1885 0.0000 0.0000 0.0000
# 3 -9.7846 24.1885 57.8839 0.0000 0.0000 0.0000
# 4 0.0000 0.0000 0.0000 19.8224 0.0000 0.0000
# 5 0.0000 0.0000 0.0000 0.0000 17.3687 0.0000
# 6 0.0000 0.0000 0.0000 0.0000 0.0000 25.4666
#
#
#
# Elastic Compliance Matrix: (Units=1/GPa)
#
#
# Indices 1 2 3 4 5 6 
#
# 1 0.134972 0.005490 0.020521 0.000000 0.000000 0.000000
# 2 0.005490 0.009230 -0.002929 0.000000 0.000000 0.000000
# 3 0.020521 -0.002929 0.021969 0.000000 0.000000 0.000000
# 4 0.000000 0.000000 0.000000 0.050448 0.000000 0.000000
# 5 0.000000 0.000000 0.000000 0.000000 0.057575 0.000000
# 6 0.000000 0.000000 0.000000 0.000000 0.000000 0.039267
#
#
# Mechanical properties :
#
#
# Convention : Reuss Voigt Hill
#
# Bulk Modulus (GPa) = 4.70950 22.20680 13.45815
# Shear Modulus (GPa) = 14.78961 24.69585 19.74273
#
# Velocity S-wave (km/s) = 2.81990 3.64390 3.25805
# Velocity P-wave (km/s) = 3.62416 5.44461 4.62484
#
# Compressibility (1/GPa) = 0.21233655
#
# Stress axis : x y z
#
# Youngs Moduli (GPa) = 7.40893 108.33875 45.51903
#
# Poissons Ratio (x) = -0.59483 -0.93411
# Poissons Ratio (y) = -0.04068 0.13333
# Poissons Ratio (z) = -0.15204 0.31733
#
# Static dielectric constant tensor:
#      x y z
#    x 1.668860 0.000000 0.000000 
#    y 0.000000 1.657010 0.000000 
#    z 0.000000 0.000000 1.625300 
# 
# From -- ./inp_files/13986.got.cif
#   From: 2010.05.17/outbox.cif.g08.bks.cpg/sg36_7_cif.got.tgz:13986.got - 2010.06.03 17:41:39.
