data_PCOD9350661
_publ_section_title
;
Structure prediction by ZEFSAII (Michael W. Deem and Ramdas Pophale) SiO2 
 PCOD9350661
Probable space group: C M C 21
;
_chemical_formula_sum "Si O2"
_cell_formula_units_Z 48
_cell_length_a 13.699573
_cell_length_b 20.509237
_cell_length_c 8.300000
_cell_angle_alpha 90.000000
_cell_angle_beta 90.000000
_cell_angle_gamma 90.000000
_cell_volume 2332.032652
_symmetry_space_group_name_H-M "C M C 21"
_symmetry_group_IT_number 36
_symmetry_cell_setting 'orthorhombic'
loop_
_space_group_symop_operation_xyz
x,y,z
-x,-y,1/2+z
x,-y,1/2+z
-x,y,z
1/2+x,1/2+y,z
1/2-x,1/2-y,1/2+z
1/2+x,1/2-y,1/2+z
1/2-x,1/2+y,z
loop_
_atom_site_type_symbol
_atom_site_label
_atom_site_fract_x
_atom_site_fract_y
_atom_site_fract_z
Si Si1 0.776271 0.405538 0.586250
Si Si2 0.117419 0.281101 0.471701
Si Si3 0.772642 0.970202 0.875657
Si Si4 0.117930 0.798694 0.650282
Si Si5 0.117217 0.210923 0.798075
Si Si6 0.615592 0.428034 0.170844
O O1 0.842541 0.353659 0.493991
O O2 0.769104 0.469399 0.476644
O O3 0.804293 0.432806 0.763476
O O4 0.676554 0.366465 0.634037
O O5 0.145880 0.243060 0.308087
O O6 0.151574 0.246536 0.637271
O O7 0.000000 0.281656 0.470228
O O8 0.851173 0.006265 0.759912
O O9 0.827905 0.924700 0.002537
O O10 0.142569 0.765117 0.477159
O O11 0.000000 0.809340 0.655940
O O12 0.142428 0.134672 0.777644
O O13 0.000000 0.214490 0.791298
O O14 0.500000 0.427750 0.144171
#
# Coordination Sequence:
#
# PCOD9350661 Si02
#       6
#     8   8   8   8   8   8
#     4  11  23  40  60  86 121 161 203 251 304 359
#     4  10  23  42  63  88 116 154 205 255 306 357
#     4  10  22  35  51  84 120 160 210 248 284 367
#     4  10  21  38  61  93 125 153 194 246 306 374
#     4   9  18  35  57  86 117 147 190 244 299 363
#     4  10  18  32  53  81 123 165 196 238 301 370
#
# _framework density 20.582903000000002
#
# number of rings (size 3 to 8) (size 9 to 14) (size 15 to 20)
#    0.000    2.000    1.667    1.500    2.333    4.667 
#    6.000    0.833    0.000    0.000    0.000    0.000 
#    0.000    0.000    0.000    0.000    0.000    0.000 
#
# Total GULP energy -133832.535650 kJ/mol
# GULP energy per Si atom -5576.355652 kJ/mol
# Density = 2.053606 g / cm^3
# Si number density = 20.582903 Si / 1000 Ang^3
#
#
#
# Elastic Constant Matrix: (Units=GPa)
#
#
# Indices 1 2 3 4 5 6 
#
# 1 44.4857 13.7543 30.6624 0.0000 0.0000 0.0000
# 2 13.7543 71.9705 54.3573 0.0000 0.0000 0.0000
# 3 30.6624 54.3573 174.2651 0.0000 0.0000 0.0000
# 4 0.0000 0.0000 0.0000 45.6477 0.0000 0.0000
# 5 0.0000 0.0000 0.0000 0.0000 27.0789 0.0000
# 6 0.0000 0.0000 0.0000 0.0000 0.0000 24.6287
#
#
#
# Elastic Compliance Matrix: (Units=1/GPa)
#
#
# Indices 1 2 3 4 5 6 
#
# 1 0.025792 -0.001964 -0.003925 0.000000 0.000000 0.000000
# 2 -0.001964 0.018326 -0.005371 0.000000 0.000000 0.000000
# 3 -0.003925 -0.005371 0.008104 0.000000 0.000000 0.000000
# 4 0.000000 0.000000 0.000000 0.021907 0.000000 0.000000
# 5 0.000000 0.000000 0.000000 0.000000 0.036929 0.000000
# 6 0.000000 0.000000 0.000000 0.000000 0.000000 0.040603
#
#
# Mechanical properties :
#
#
# Convention : Reuss Voigt Hill
#
# Bulk Modulus (GPa) = 33.66811 54.25213 43.96012
# Shear Modulus (GPa) = 27.16155 32.26755 29.71455
#
# Velocity S-wave (km/s) = 3.63659 3.96370 3.80366
# Velocity P-wave (km/s) = 5.83317 6.88207 6.37922
#
# Compressibility (1/GPa) = 0.02970170
#
# Stress axis : x y z
#
# Youngs Moduli (GPa) = 38.77147 54.56611 123.39054
#
# Poissons Ratio (x) = 0.10719 0.48437
# Poissons Ratio (y) = 0.07616 0.66270
# Poissons Ratio (z) = 0.15220 0.29306
#
# Static dielectric constant tensor:
#      x y z
#    x 1.740560 0.000000 0.000000 
#    y 0.000000 1.743490 0.000000 
#    z 0.000000 0.000000 1.805270 
# 
# From -- ./inp_files/3993.got.cif
#   From: 2010.05.17/outbox.cif.g08.bks.cpg/sg36_2_cif.got.tgz:3993.got - 2010.06.03 17:41:39.
