data_PCOD9350599
_publ_section_title
;
Structure prediction by ZEFSAII (Michael W. Deem and Ramdas Pophale) SiO2 
 PCOD9350599
Probable space group: C M C 21
;
_chemical_formula_sum "Si O2"
_cell_formula_units_Z 64
_cell_length_a 17.786746
_cell_length_b 20.006945
_cell_length_c 9.064298
_cell_angle_alpha 90.000000
_cell_angle_beta 90.000000
_cell_angle_gamma 90.000000
_cell_volume 3225.607027
_symmetry_space_group_name_H-M "C M C 21"
_symmetry_group_IT_number 36
_symmetry_cell_setting 'orthorhombic'
loop_
_space_group_symop_operation_xyz
x,y,z
-x,-y,1/2+z
x,-y,1/2+z
-x,y,z
1/2+x,1/2+y,z
1/2-x,1/2-y,1/2+z
1/2+x,1/2-y,1/2+z
1/2-x,1/2+y,z
loop_
_atom_site_type_symbol
_atom_site_label
_atom_site_fract_x
_atom_site_fract_y
_atom_site_fract_z
Si Si1 0.086424 0.529182 0.043080
Si Si2 0.913792 0.217091 0.594681
Si Si3 0.737659 0.637963 0.917809
Si Si4 0.079881 0.162139 0.913429
Si Si5 0.786220 0.789714 0.861652
Si Si6 0.914303 0.265673 0.153367
Si Si7 0.842458 0.643022 0.194164
Si Si8 0.358586 0.086254 0.726199
O O1 0.100098 0.581949 0.178380
O O2 0.134600 0.465490 0.093389
O O3 0.000000 0.508638 0.044470
O O4 0.103450 0.559054 0.879440
O O5 0.916815 0.172440 0.739645
O O6 0.844531 0.193610 0.492297
O O7 0.888338 0.291044 0.646455
O O8 0.000000 0.219306 0.534969
O O9 0.652734 0.621014 0.953137
O O10 0.747828 0.717596 0.890899
O O11 0.773864 0.601890 0.777809
O O12 0.787506 0.624119 0.059326
O O13 0.000000 0.133052 0.959475
O O14 0.084384 0.235436 0.989419
O O15 0.846419 0.775072 0.730808
O O16 0.717074 0.838819 0.823024
O O17 0.895326 0.343141 0.178727
O O18 0.000000 0.254573 0.209625
#
# Coordination Sequence:
#
# PCOD9350599 Si02
#       8
#     8   8   8   8   8   8   8   8
#     4  11  22  39  56  79 116 160 208 246 284 337
#     4  10  20  32  48  77 114 147 179 231 295 348
#     4   9  18  35  52  77 107 142 186 238 290 347
#     4  10  19  31  51  79 110 139 177 226 290 359
#     4  10  18  30  52  75 108 144 184 232 294 352
#     4  10  19  33  55  80 107 144 188 232 288 351
#     4  10  19  32  53  75 109 150 192 234 283 340
#     4  10  23  38  59  80 115 158 202 249 290 340
#
# _framework density 19.841225999999999
#
# number of rings (size 3 to 8) (size 9 to 14) (size 15 to 20)
#    0.000    2.000    2.500    2.625    0.000    1.000 
#    2.250    2.500    0.000    0.000    0.000    5.250 
#    0.000    0.000    0.000    0.000    0.000    0.000 
#
# Total GULP energy -178172.420068 kJ/mol
# GULP energy per Si atom -5567.888127 kJ/mol
# Density = 1.979607 g / cm^3
# Si number density = 19.841226 Si / 1000 Ang^3
#
#
#
# Elastic Constant Matrix: (Units=GPa)
#
#
# Indices 1 2 3 4 5 6 
#
# 1 94.1941 -5.0481 2.3397 0.0000 0.0000 0.0000
# 2 -5.0481 16.0393 0.9809 0.0000 0.0000 0.0000
# 3 2.3397 0.9809 49.7939 0.0000 0.0000 0.0000
# 4 0.0000 0.0000 0.0000 22.6752 0.0000 0.0000
# 5 0.0000 0.0000 0.0000 0.0000 30.5274 0.0000
# 6 0.0000 0.0000 0.0000 0.0000 0.0000 18.6855
#
#
#
# Elastic Compliance Matrix: (Units=1/GPa)
#
#
# Indices 1 2 3 4 5 6 
#
# 1 0.010815 0.003439 -0.000576 0.000000 0.000000 0.000000
# 2 0.003439 0.063515 -0.001413 0.000000 0.000000 0.000000
# 3 -0.000576 -0.001413 0.020138 0.000000 0.000000 0.000000
# 4 0.000000 0.000000 0.000000 0.044101 0.000000 0.000000
# 5 0.000000 0.000000 0.000000 0.000000 0.032757 0.000000
# 6 0.000000 0.000000 0.000000 0.000000 0.000000 0.053518
#
#
# Mechanical properties :
#
#
# Convention : Reuss Voigt Hill
#
# Bulk Modulus (GPa) = 10.27024 17.39693 13.83359
# Shear Modulus (GPa) = 19.65410 25.16127 22.40768
#
# Velocity S-wave (km/s) = 3.15074 3.56495 3.36423
# Velocity P-wave (km/s) = 4.29228 5.07269 4.69872
#
# Compressibility (1/GPa) = 0.09736871
#
# Stress axis : x y z
#
# Youngs Moduli (GPa) = 92.46430 15.74420 49.65812
#
# Poissons Ratio (x) = -0.05415 0.02860
# Poissons Ratio (y) = -0.31799 0.07016
# Poissons Ratio (z) = 0.05325 0.02224
#
# Static dielectric constant tensor:
#      x y z
#    x 1.777370 0.000000 0.000000 
#    y 0.000000 1.701040 0.000000 
#    z 0.000000 0.000000 1.773110 
# 
# From -- ./inp_files/4936.got.cif
#   From: 2010.05.17/outbox.cif.g08.bks.cpg/sg36_3_cif.got.tgz:4936.got - 2010.06.03 17:41:39.
