data_PCOD9350319
_publ_section_title
;
Structure prediction by ZEFSAII (Michael W. Deem and Ramdas Pophale) SiO2 
 PCOD9350319
Probable space group: C M M 2
;
_chemical_formula_sum "Si O2"
_cell_formula_units_Z 44
_cell_length_a 9.965341
_cell_length_b 23.727468
_cell_length_c 11.912095
_cell_angle_alpha 90.000000
_cell_angle_beta 90.000000
_cell_angle_gamma 90.000000
_cell_volume 2816.642376
_symmetry_space_group_name_H-M "C M M 2"
_symmetry_group_IT_number 35
_symmetry_cell_setting 'orthorhombic'
loop_
_space_group_symop_operation_xyz
x,y,z
-x,-y,z
-x,y,z
x,-y,z
1/2+x,1/2+y,z
1/2-x,1/2-y,z
1/2-x,1/2+y,z
1/2+x,1/2-y,z
loop_
_atom_site_type_symbol
_atom_site_label
_atom_site_fract_x
_atom_site_fract_y
_atom_site_fract_z
Si Si1 0.845278 0.647495 0.368920
Si Si2 0.344881 0.434587 0.501045
Si Si3 0.250000 0.250000 0.521823
Si Si4 0.659456 0.193278 0.878577
Si Si5 0.849825 0.843998 0.691244
Si Si6 0.343777 0.804258 0.129552
O O1 0.749777 0.599897 0.418170
O O2 0.824226 0.705503 0.440091
O O3 0.815206 0.658448 0.238232
O O4 0.000000 0.631104 0.380678
O O5 0.500000 0.431100 0.463307
O O6 0.308732 0.500000 0.512202
O O7 0.338381 0.400298 0.617537
O O8 0.166637 0.209145 0.605475
O O9 0.500000 0.202887 0.857244
O O10 0.750000 0.250000 0.877713
O O11 0.731375 0.157863 0.781782
O O12 0.672170 0.169626 0.005350
O O13 0.000000 0.840883 0.741089
O O14 0.500000 0.786714 0.138104
O O15 0.250000 0.750000 0.135431
#
# Coordination Sequence:
#
# PCOD9350319 Si02
#       6
#     8   8   4   8   8   8
#     4  10  19  31  50  74 100 129 162 200 240 290
#     4   9  20  37  53  71  96 127 163 204 249 291
#     4  10  18  28  46  70 104 126 158 188 244 288
#     4  10  19  30  46  68  99 132 162 195 234 283
#     4  10  19  30  48  71  97 128 160 197 241 289
#     4   9  18  31  46  69  99 131 162 194 233 282
#
# _framework density 15.621435999999999
#
# number of rings (size 3 to 8) (size 9 to 14) (size 15 to 20)
#    0.000    2.364    1.818    1.091    0.000    5.455 
#    0.000    0.000    0.000    1.091    0.000    5.091 
#    0.000    0.000    0.000    0.000    0.000    0.000 
#
# Total GULP energy -122486.507663 kJ/mol
# GULP energy per Si atom -5567.568530 kJ/mol
# Density = 1.558588 g / cm^3
# Si number density = 15.621436 Si / 1000 Ang^3
#
#
#
# Elastic Constant Matrix: (Units=GPa)
#
#
# Indices 1 2 3 4 5 6 
#
# 1 98.5839 48.9060 69.7337 0.0000 0.0000 0.0000
# 2 48.9060 97.2255 44.0496 0.0000 0.0000 0.0000
# 3 69.7337 44.0496 104.4467 0.0000 0.0000 0.0000
# 4 0.0000 0.0000 0.0000 9.3151 0.0000 0.0000
# 5 0.0000 0.0000 0.0000 0.0000 26.6594 0.0000
# 6 0.0000 0.0000 0.0000 0.0000 0.0000 16.5684
#
#
#
# Elastic Compliance Matrix: (Units=1/GPa)
#
#
# Indices 1 2 3 4 5 6 
#
# 1 0.021189 -0.005253 -0.011932 0.000000 0.000000 0.000000
# 2 -0.005253 0.014017 -0.002405 0.000000 0.000000 0.000000
# 3 -0.011932 -0.002405 0.018555 0.000000 0.000000 0.000000
# 4 0.000000 0.000000 0.000000 0.107353 0.000000 0.000000
# 5 0.000000 0.000000 0.000000 0.000000 0.037510 0.000000
# 6 0.000000 0.000000 0.000000 0.000000 0.000000 0.060356
#
#
# Mechanical properties :
#
#
# Convention : Reuss Voigt Hill
#
# Bulk Modulus (GPa) = 68.57375 69.51496 69.04436
# Shear Modulus (GPa) = 16.50063 19.67972 18.09017
#
# Velocity S-wave (km/s) = 3.25357 3.55320 3.40668
# Velocity P-wave (km/s) = 7.62278 7.83773 7.73100
#
# Compressibility (1/GPa) = 0.01458284
#
# Stress axis : x y z
#
# Youngs Moduli (GPa) = 47.19330 71.34190 53.89492
#
# Poissons Ratio (x) = 0.37474 0.64306
# Poissons Ratio (y) = 0.24789 0.12960
# Poissons Ratio (z) = 0.56310 0.17155
#
# Static dielectric constant tensor:
#      x y z
#    x 1.528400 0.000000 0.000000 
#    y 0.000000 1.487590 0.000000 
#    z 0.000000 0.000000 1.546640 
# 
# From -- ./inp_files/11408.got.cif
#   From: 2010.05.17/outbox.cif.g08.bks.cpg/sg35_6_cif.got.tgz:11408.got - 2010.06.03 17:29:28.
