data_PCOD9350785
_publ_section_title
;
Structure prediction by ZEFSAII (Michael W. Deem and Ramdas Pophale) SiO2 
 PCOD9350785
Probable space group: C M C 21
;
_chemical_formula_sum "Si O2"
_cell_formula_units_Z 48
_cell_length_a 17.334881
_cell_length_b 8.766154
_cell_length_c 14.639177
_cell_angle_alpha 90.000000
_cell_angle_beta 90.000000
_cell_angle_gamma 90.000000
_cell_volume 2224.572798
_symmetry_space_group_name_H-M "C M C 21"
_symmetry_group_IT_number 36
_symmetry_cell_setting 'orthorhombic'
loop_
_space_group_symop_operation_xyz
x,y,z
-x,-y,1/2+z
x,-y,1/2+z
-x,y,z
1/2+x,1/2+y,z
1/2-x,1/2-y,1/2+z
1/2+x,1/2-y,1/2+z
1/2-x,1/2+y,z
loop_
_atom_site_type_symbol
_atom_site_label
_atom_site_fract_x
_atom_site_fract_y
_atom_site_fract_z
Si Si1 0.113806 0.114038 0.652860
Si Si2 0.500000 0.163697 0.491279
Si Si3 0.153138 0.638539 0.280495
Si Si4 0.238077 0.549026 0.091700
Si Si5 0.000000 0.159010 0.179035
Si Si6 0.500000 0.034871 0.763196
Si Si7 0.000000 0.653964 0.071845
Si Si8 0.327821 0.197030 0.472370
O O1 0.115824 0.202451 0.748356
O O2 0.071265 0.227910 0.581850
O O3 0.197057 0.074112 0.616590
O O4 0.071356 0.954826 0.669878
O O5 0.500000 0.230373 0.592923
O O6 0.418741 0.228126 0.454911
O O7 0.500000 0.977736 0.495496
O O8 0.200989 0.595359 0.188988
O O9 0.082942 0.521648 0.300392
O O10 0.203667 0.662815 0.370961
O O11 0.282091 0.674065 0.028925
O O12 0.175805 0.456935 0.032434
O O13 0.000000 0.282030 0.259431
O O14 0.500000 0.943774 0.665830
#
# Coordination Sequence:
#
# PCOD9350785 Si02
#       8
#     8   4   8   8   4   4   4   8
#     4  10  20  39  65  97 131 178 220 280 340 397
#     4  11  21  41  67 102 132 177 236 278 330 426
#     4  11  25  45  69  95 144 182 230 280 343 418
#     4  12  25  43  66 104 136 181 226 282 348 401
#     4  10  18  35  71 100 128 178 228 277 340 404
#     4   9  19  40  66  99 128 182 227 282 336 402
#     4   8  18  36  66  91 130 177 219 271 346 400
#     4  12  27  44  72 101 139 184 230 282 346 406
#
# _framework density 21.577176000000001
#
# number of rings (size 3 to 8) (size 9 to 14) (size 15 to 20)
#    0.000    1.333    3.333    4.000    2.333    0.000 
#    0.000    0.000    3.667    0.000    0.000    0.000 
#    0.000    0.000    0.000    0.000    0.000    0.000 
#
# Total GULP energy -133769.869316 kJ/mol
# GULP energy per Si atom -5573.744555 kJ/mol
# Density = 2.152807 g / cm^3
# Si number density = 21.577176 Si / 1000 Ang^3
#
#
#
# Elastic Constant Matrix: (Units=GPa)
#
#
# Indices 1 2 3 4 5 6 
#
# 1 88.8475 23.3704 13.2891 0.0000 0.0000 0.0000
# 2 23.3704 120.0841 24.4447 0.0000 0.0000 0.0000
# 3 13.2891 24.4447 106.3186 0.0000 0.0000 0.0000
# 4 0.0000 0.0000 0.0000 22.6258 0.0000 0.0000
# 5 0.0000 0.0000 0.0000 0.0000 61.1667 0.0000
# 6 0.0000 0.0000 0.0000 0.0000 0.0000 12.9662
#
#
#
# Elastic Compliance Matrix: (Units=1/GPa)
#
#
# Indices 1 2 3 4 5 6 
#
# 1 0.011964 -0.002123 -0.001007 0.000000 0.000000 0.000000
# 2 -0.002123 0.009113 -0.001830 0.000000 0.000000 0.000000
# 3 -0.001007 -0.001830 0.009952 0.000000 0.000000 0.000000
# 4 0.000000 0.000000 0.000000 0.044197 0.000000 0.000000
# 5 0.000000 0.000000 0.000000 0.000000 0.016349 0.000000
# 6 0.000000 0.000000 0.000000 0.000000 0.000000 0.077124
#
#
# Mechanical properties :
#
#
# Convention : Reuss Voigt Hill
#
# Bulk Modulus (GPa) = 47.37356 48.60653 47.99005
# Shear Modulus (GPa) = 26.93136 36.29482 31.61309
#
# Velocity S-wave (km/s) = 3.53674 4.10578 3.83184
# Velocity P-wave (km/s) = 6.21941 6.71210 6.47045
#
# Compressibility (1/GPa) = 0.02110882
#
# Stress axis : x y z
#
# Youngs Moduli (GPa) = 83.58099 109.73030 100.47905
#
# Poissons Ratio (x) = 0.23301 0.10121
# Poissons Ratio (y) = 0.17748 0.18387
# Poissons Ratio (z) = 0.08419 0.20080
#
# Static dielectric constant tensor:
#      x y z
#    x 1.835050 0.000000 0.000000 
#    y 0.000000 1.798300 0.000000 
#    z 0.000000 0.000000 1.848940 
# 
# From -- ./inp_files/12528.got.cif
#   From: 2010.05.17/outbox.cif.g08.bks.cpg/sg36_7_cif.got.tgz:12528.got - 2010.06.03 17:41:39.
