data_PCOD9350572
_publ_section_title
;
Structure prediction by ZEFSAII (Michael W. Deem and Ramdas Pophale) SiO2 
 PCOD9350572
Probable space group: C M C 21
;
_chemical_formula_sum "Si O2"
_cell_formula_units_Z 64
_cell_length_a 23.297831
_cell_length_b 26.015154
_cell_length_c 5.372184
_cell_angle_alpha 90.000000
_cell_angle_beta 90.000000
_cell_angle_gamma 90.000000
_cell_volume 3256.062786
_symmetry_space_group_name_H-M "C M C 21"
_symmetry_group_IT_number 36
_symmetry_cell_setting 'orthorhombic'
loop_
_space_group_symop_operation_xyz
x,y,z
-x,-y,1/2+z
x,-y,1/2+z
-x,y,z
1/2+x,1/2+y,z
1/2-x,1/2-y,1/2+z
1/2+x,1/2-y,1/2+z
1/2-x,1/2+y,z
loop_
_atom_site_type_symbol
_atom_site_label
_atom_site_fract_x
_atom_site_fract_y
_atom_site_fract_z
Si Si1 0.904681 0.517053 0.794190
Si Si2 0.772379 0.638363 0.077109
Si Si3 0.278665 0.799191 0.076324
Si Si4 0.932625 0.622319 0.556498
Si Si5 0.154659 0.188702 0.078157
Si Si6 0.567868 0.817525 0.561127
Si Si7 0.223233 0.519897 0.939282
Si Si8 0.638831 0.715007 0.581182
O O1 0.932161 0.483219 0.571421
O O2 0.902124 0.572669 0.668200
O O3 0.840638 0.499695 0.869137
O O4 0.791075 0.670573 0.832223
O O5 0.703962 0.646629 0.086809
O O6 0.783715 0.578687 0.028737
O O7 0.791256 0.664666 0.337766
O O8 0.313645 0.745691 0.068085
O O9 0.209682 0.786250 0.072531
O O10 0.917575 0.641282 0.279403
O O11 0.000000 0.608908 0.550013
O O12 0.925464 0.664045 0.776012
O O13 0.121572 0.184243 0.824099
O O14 0.119261 0.189594 0.326981
O O15 0.500000 0.805583 0.597719
O O16 0.609288 0.769780 0.600157
O O17 0.250988 0.512344 0.665476
#
# Coordination Sequence:
#
# PCOD9350572 Si02
#       8
#     8   8   8   8   8   8   8   8
#     4  10  21  35  48  64  84 107 145 197 245 289
#     4  10  18  30  47  63  90 123 146 185 227 253
#     4  10  19  30  45  72  97 115 150 184 222 285
#     4  10  21  35  50  67  84 107 148 196 240 290
#     4  10  19  30  45  72  97 115 150 184 222 285
#     4  10  21  35  49  68  92 119 153 186 224 281
#     4  10  21  35  47  64  89 120 159 191 224 277
#     4  10  18  30  46  64  93 120 141 179 220 254
#
# _framework density 19.655640999999999
#
# number of rings (size 3 to 8) (size 9 to 14) (size 15 to 20)
#    0.000    2.000    0.000    6.000    0.000    4.500 
#    0.000    0.000    0.000    0.000    0.000    0.000 
#    0.000    0.000    0.000    0.000    0.000  200.000 
#
# Total GULP energy -178494.318399 kJ/mol
# GULP energy per Si atom -5577.947450 kJ/mol
# Density = 1.961090 g / cm^3
# Si number density = 19.655641 Si / 1000 Ang^3
#
#
#
# Elastic Constant Matrix: (Units=GPa)
#
#
# Indices 1 2 3 4 5 6 
#
# 1 25.6307 20.0410 -8.9054 0.0000 0.0000 0.0000
# 2 20.0410 53.4900 12.8474 0.0000 0.0000 0.0000
# 3 -8.9054 12.8474 157.6247 0.0000 0.0000 0.0000
# 4 0.0000 0.0000 0.0000 17.1975 0.0000 0.0000
# 5 0.0000 0.0000 0.0000 0.0000 4.4664 0.0000
# 6 0.0000 0.0000 0.0000 0.0000 0.0000 908.9734
#
#
#
# Elastic Compliance Matrix: (Units=1/GPa)
#
#
# Indices 1 2 3 4 5 6 
#
# 1 0.059157 -0.023426 0.005252 0.000000 0.000000 0.000000
# 2 -0.023426 0.028345 -0.003634 0.000000 0.000000 0.000000
# 3 0.005252 -0.003634 0.006937 0.000000 0.000000 0.000000
# 4 0.000000 0.000000 0.000000 0.058148 0.000000 0.000000
# 5 0.000000 0.000000 0.000000 0.000000 0.223892 0.000000
# 6 0.000000 0.000000 0.000000 0.000000 0.000000 0.001100
#
#
# Mechanical properties :
#
#
# Convention : Reuss Voigt Hill
#
# Bulk Modulus (GPa) = 19.67606 31.63462 25.65534
# Shear Modulus (GPa) = 11.41199 200.31163 105.86181
#
# Velocity S-wave (km/s) = 2.41217 10.10603 7.34678
# Velocity P-wave (km/s) = 4.21784 12.34119 9.22213
#
# Compressibility (1/GPa) = 0.05082319
#
# Stress axis : x y z
#
# Youngs Moduli (GPa) = 16.90413 35.27994 144.15328
#
# Poissons Ratio (x) = 0.82646 -0.75703
# Poissons Ratio (y) = 0.39599 0.52382
# Poissons Ratio (z) = -0.08877 0.12820
#
# Static dielectric constant tensor:
#      x y z
#    x 1.697890 0.000000 0.000000 
#    y 0.000000 1.694740 0.000000 
#    z 0.000000 0.000000 1.890880 
# 
# From -- ./inp_files/1668.got.cif
#   From: 2010.05.17/outbox.cif.g08.bks.cpg/sg36_1_cif.got.tgz:1668.got - 2010.06.03 17:41:39.
