data_PCOD9350173
_publ_section_title
;
Structure prediction by ZEFSAII (Michael W. Deem and Ramdas Pophale) SiO2 
 PCOD9350173
Probable space group: C M M 2
;
_chemical_formula_sum "Si O2"
_cell_formula_units_Z 32
_cell_length_a 9.000000
_cell_length_b 30.000000
_cell_length_c 12.000000
_cell_angle_alpha 90.000000
_cell_angle_beta 90.000000
_cell_angle_gamma 90.000000
_cell_volume 3240.000000
_symmetry_space_group_name_H-M "C M M 2"
_symmetry_group_IT_number 35
_symmetry_cell_setting 'orthorhombic'
loop_
_space_group_symop_operation_xyz
x,y,z
-x,-y,z
-x,y,z
x,-y,z
1/2+x,1/2+y,z
1/2-x,1/2-y,z
1/2-x,1/2+y,z
1/2+x,1/2-y,z
loop_
_atom_site_type_symbol
_atom_site_label
_atom_site_fract_x
_atom_site_fract_y
_atom_site_fract_z
Si Si1 0.176694 0.201193 0.744120
Si Si2 0.322175 0.798653 0.224632
Si Si3 0.677444 0.887634 0.701366
Si Si4 0.322996 0.701214 0.001501
Si Si5 0.821830 0.386598 0.338508
Si Si6 0.179512 0.548663 0.143258
Si Si7 0.823509 0.052084 0.521369
Si Si8 0.180836 0.450650 0.891045
O O1 0.250000 0.250000 0.725449
O O2 0.246413 0.159823 0.677039
O O3 0.203249 0.187419 0.874032
O O4 0.000000 0.204740 0.726934
O O5 0.500000 0.794137 0.213092
O O6 0.250000 0.750000 0.243372
O O7 0.291658 0.834308 0.322043
O O8 0.256989 0.819209 0.109167
O O9 0.500000 0.881765 0.697628
O O10 0.728805 0.927447 0.621590
O O11 0.725474 0.908390 0.819622
O O12 0.500000 0.702552 0.019787
O O13 0.250000 0.750000 0.002801
O O14 0.785921 0.411108 0.222859
O O15 0.724825 0.414346 0.424237
O O16 0.000000 0.391840 0.361758
O O17 0.228760 0.500000 0.186736
O O18 0.000000 0.547211 0.137380
O O19 0.233555 0.553726 0.017577
O O20 0.000000 0.055043 0.542810
O O21 0.787931 0.000000 0.499487
O O22 0.227471 0.500000 0.849448
O O23 0.000000 0.450984 0.890384
#
# Coordination Sequence:
#
# PCOD9350173 Si02
#       8
#     8   8   8   8   8   8   8   8
#     4  10  21  37  56  83 120 159 201 245 292 347
#     4  10  20  33  53  82 118 155 196 243 292 345
#     4  11  22  36  61  89 116 153 198 246 296 351
#     4   9  17  30  50  76 111 156 198 237 282 336
#     4  10  21  36  59  87 112 148 198 247 292 347
#     4   8  14  27  49  79 113 143 175 226 289 346
#     4  11  25  44  64  86 116 153 193 243 300 358
#     4   8  15  28  49  81 116 147 182 228 286 349
#
# _framework density 9.8765429999999999
#
# number of rings (size 3 to 8) (size 9 to 14) (size 15 to 20)
#    0.000    2.375    0.000    4.125    1.750    4.500 
#    0.000    0.625    0.000    1.500    0.000    3.500 
#    0.000    0.000    0.000    0.000    0.000    0.000 
#
# Total GULP energy -178227.064913 kJ/mol
# GULP energy per Si atom -5569.595779 kJ/mol
# Density = 0.985406 g / cm^3
# Si number density = 9.876543 Si / 1000 Ang^3
#
#
#
# Elastic Constant Matrix: (Units=GPa)
#
#
# Indices 1 2 3 4 5 6 
#
# 1 42.6034 27.6587 4.7755 0.0000 0.0000 0.0000
# 2 27.6587 86.1140 14.1727 0.0000 0.0000 0.0000
# 3 4.7755 14.1727 17.3666 0.0000 0.0000 0.0000
# 4 0.0000 0.0000 0.0000 27.7840 0.0000 0.0000
# 5 0.0000 0.0000 0.0000 0.0000 20.3020 0.0000
# 6 0.0000 0.0000 0.0000 0.0000 0.0000 22.2717
#
#
#
# Elastic Compliance Matrix: (Units=1/GPa)
#
#
# Indices 1 2 3 4 5 6 
#
# 1 0.029659 -0.009454 -0.000441 0.000000 0.000000 0.000000
# 2 -0.009454 0.016427 -0.010807 0.000000 0.000000 0.000000
# 3 -0.000441 -0.010807 0.066522 0.000000 0.000000 0.000000
# 4 0.000000 0.000000 0.000000 0.035992 0.000000 0.000000
# 5 0.000000 0.000000 0.000000 0.000000 0.049256 0.000000
# 6 0.000000 0.000000 0.000000 0.000000 0.000000 0.044900
#
#
# Mechanical properties :
#
#
# Convention : Reuss Voigt Hill
#
# Bulk Modulus (GPa) = 14.04360 26.58862 20.31611
# Shear Modulus (GPa) = 16.23933 20.70335 18.47134
#
# Velocity S-wave (km/s) = 2.87037 3.24096 3.06128
# Velocity P-wave (km/s) = 4.25563 5.24355 4.77520
#
# Compressibility (1/GPa) = 0.07120683
#
# Stress axis : x y z
#
# Youngs Moduli (GPa) = 33.71650 60.87377 15.03257
#
# Poissons Ratio (x) = 0.57547 0.00662
# Poissons Ratio (y) = 0.31874 0.16245
# Poissons Ratio (z) = 0.01486 0.65784
#
# Static dielectric constant tensor:
#      x y z
#    x 1.656040 0.000000 0.000000 
#    y 0.000000 1.704720 0.000000 
#    z 0.000000 0.000000 1.860500 
# 
# From -- ./inp_files/12026.got.cif
#   From: 2010.05.17/outbox.ucp.g08.bks.cvg/sg35_7_cif.got.tgz:12026.got - 2010.06.11 10:36:28.
