data_PCOD9350875
_publ_section_title
;
Structure prediction by ZEFSAII (Michael W. Deem and Ramdas Pophale) SiO2 
 PCOD9350875
Probable space group: C M C 21
;
_chemical_formula_sum "Si O2"
_cell_formula_units_Z 64
_cell_length_a 31.415250
_cell_length_b 13.993381
_cell_length_c 7.392071
_cell_angle_alpha 90.000000
_cell_angle_beta 90.000000
_cell_angle_gamma 90.000000
_cell_volume 3249.595530
_symmetry_space_group_name_H-M "C M C 21"
_symmetry_group_IT_number 36
_symmetry_cell_setting 'orthorhombic'
loop_
_space_group_symop_operation_xyz
x,y,z
-x,-y,1/2+z
x,-y,1/2+z
-x,y,z
1/2+x,1/2+y,z
1/2-x,1/2-y,1/2+z
1/2+x,1/2-y,1/2+z
1/2-x,1/2+y,z
loop_
_atom_site_type_symbol
_atom_site_label
_atom_site_fract_x
_atom_site_fract_y
_atom_site_fract_z
Si Si1 0.136626 0.708022 0.272780
Si Si2 0.547137 0.071100 0.651350
Si Si3 0.793200 0.221488 0.283060
Si Si4 0.452754 0.855056 0.738418
Si Si5 0.190009 0.551285 0.171766
Si Si6 0.636335 0.863055 0.191216
Si Si7 0.210694 0.846876 0.369690
Si Si8 0.259303 0.548791 0.421002
O O1 0.087073 0.716175 0.221515
O O2 0.157119 0.633756 0.129615
O O3 0.137188 0.655727 0.472167
O O4 0.167959 0.797633 0.294156
O O5 0.500000 0.083633 0.734514
O O6 0.545540 0.113640 0.449722
O O7 0.587490 0.120683 0.744408
O O8 0.555317 0.957283 0.641976
O O9 0.837626 0.276681 0.276549
O O10 0.754910 0.298308 0.302640
O O11 0.789773 0.139721 0.437167
O O12 0.790061 0.171298 0.086416
O O13 0.500000 0.819888 0.687744
O O14 0.162482 0.460218 0.230490
O O15 0.220472 0.601799 0.317170
O O16 0.227542 0.508669 0.051257
O O17 0.214587 0.960642 0.334216
#
# Coordination Sequence:
#
# PCOD9350875 Si02
#       8
#     8   8   8   8   8   8   8   8
#     4  10  19  32  49  71  95 130 166 199 244 289
#     4   9  17  29  47  70  97 127 158 199 245 294
#     4  11  22  34  49  69  94 131 165 203 247 287
#     4   9  17  29  47  70  98 127 159 197 243 297
#     4  12  19  32  48  68  96 128 163 198 239 289
#     4  10  19  31  49  70  97 128 166 200 240 298
#     4  11  21  34  49  68  95 128 166 205 243 294
#     4  12  22  33  47  66  96 129 164 203 243 286
#
# _framework density 19.694758
#
# number of rings (size 3 to 8) (size 9 to 14) (size 15 to 20)
#    0.000    1.500    6.250    0.750    0.000    0.000 
#    0.000    0.000    0.000    0.000    0.000    0.875 
#    0.000    0.000    0.000    0.000    0.000    0.000 
#
# Total GULP energy -178299.535327 kJ/mol
# GULP energy per Si atom -5571.860479 kJ/mol
# Density = 1.964993 g / cm^3
# Si number density = 19.694758 Si / 1000 Ang^3
#
#
#
# Elastic Constant Matrix: (Units=GPa)
#
#
# Indices 1 2 3 4 5 6 
#
# 1 182.8815 62.3456 24.8416 0.0000 0.0000 0.0000
# 2 62.3456 89.5964 9.7953 0.0000 0.0000 0.0000
# 3 24.8416 9.7953 32.9792 0.0000 0.0000 0.0000
# 4 0.0000 0.0000 0.0000 17.2656 0.0000 0.0000
# 5 0.0000 0.0000 0.0000 0.0000 17.6021 0.0000
# 6 0.0000 0.0000 0.0000 0.0000 0.0000 9.1003
#
#
#
# Elastic Compliance Matrix: (Units=1/GPa)
#
#
# Indices 1 2 3 4 5 6 
#
# 1 0.007733 -0.004903 -0.004369 0.000000 0.000000 0.000000
# 2 -0.004903 0.014645 -0.000656 0.000000 0.000000 0.000000
# 3 -0.004369 -0.000656 0.033808 0.000000 0.000000 0.000000
# 4 0.000000 0.000000 0.000000 0.057919 0.000000 0.000000
# 5 0.000000 0.000000 0.000000 0.000000 0.056811 0.000000
# 6 0.000000 0.000000 0.000000 0.000000 0.000000 0.109886
#
#
# Mechanical properties :
#
#
# Convention : Reuss Voigt Hill
#
# Bulk Modulus (GPa) = 27.52608 55.49135 41.50872
# Shear Modulus (GPa) = 15.98629 22.69192 19.33910
#
# Velocity S-wave (km/s) = 2.85213 3.39806 3.13699
# Velocity P-wave (km/s) = 4.98527 6.60550 5.85173
#
# Compressibility (1/GPa) = 0.03632918
#
# Stress axis : x y z
#
# Youngs Moduli (GPa) = 129.31547 68.28290 29.57916
#
# Poissons Ratio (x) = 0.33482 0.12922
# Poissons Ratio (y) = 0.63409 0.01941
# Poissons Ratio (z) = 0.56492 0.04481
#
# Static dielectric constant tensor:
#      x y z
#    x 1.715440 0.000000 0.000000 
#    y 0.000000 1.720810 0.000000 
#    z 0.000000 0.000000 1.982290 
# 
# From -- ./inp_files/6123.got.cif
#   From: 2010.05.17/outbox.cif.g08.bks.cpg/sg36_4_cif.got.tgz:6123.got - 2010.06.03 17:41:39.
