data_PCOD9350864
_publ_section_title
;
Structure prediction by ZEFSAII (Michael W. Deem and Ramdas Pophale) SiO2 
 PCOD9350864
Probable space group: C M C 21
;
_chemical_formula_sum "Si O2"
_cell_formula_units_Z 52
_cell_length_a 36.270020
_cell_length_b 10.037048
_cell_length_c 5.084327
_cell_angle_alpha 90.000000
_cell_angle_beta 90.000000
_cell_angle_gamma 90.000000
_cell_volume 1850.918391
_symmetry_space_group_name_H-M "C M C 21"
_symmetry_group_IT_number 36
_symmetry_cell_setting 'orthorhombic'
loop_
_space_group_symop_operation_xyz
x,y,z
-x,-y,1/2+z
x,-y,1/2+z
-x,y,z
1/2+x,1/2+y,z
1/2-x,1/2-y,1/2+z
1/2+x,1/2-y,1/2+z
1/2-x,1/2+y,z
loop_
_atom_site_type_symbol
_atom_site_label
_atom_site_fract_x
_atom_site_fract_y
_atom_site_fract_z
Si Si1 0.000000 0.095749 0.212930
Si Si2 0.681077 0.839217 0.699943
Si Si3 0.081584 0.091192 0.140788
Si Si4 0.537597 0.900887 0.715103
Si Si5 0.104559 0.431688 0.517238
Si Si6 0.744379 0.342210 0.563123
Si Si7 0.667875 0.323022 0.705905
O O1 0.041049 0.165722 0.181234
O O2 0.000000 0.018429 0.489098
O O3 0.646079 0.910758 0.584157
O O4 0.718406 0.917993 0.640139
O O5 0.677549 0.709897 0.507236
O O6 0.674340 0.797983 0.998929
O O7 0.124246 0.143691 0.180474
O O8 0.080021 0.972665 0.353540
O O9 0.500000 0.819540 0.707140
O O10 0.536692 0.005236 0.469879
O O11 0.576305 0.830085 0.658564
O O12 0.098110 0.440918 0.210041
O O13 0.750093 0.278955 0.276301
O O14 0.704309 0.405979 0.609121
#
# Coordination Sequence:
#
# PCOD9350864 Si02
#       7
#     4   8   8   8   8   8   8
#     4   8  16  30  50  72  98 132 162 190 238 310
#     4  10  19  33  51  71  98 130 166 200 247 291
#     4  10  19  33  53  78 102 130 166 202 247 299
#     4   8  14  25  42  61  81 111 149 184 218 265
#     4  10  19  31  48  70  94 123 161 200 238 283
#     4   8  16  30  48  68  91 129 166 192 232 300
#     4  10  19  33  53  72  97 129 165 202 239 291
#
# _framework density 28.094159999999999
#
# number of rings (size 3 to 8) (size 9 to 14) (size 15 to 20)
#    0.000    2.769    0.000    1.846    0.000    0.000 
#    0.000    1.538    3.385    0.000    0.000    0.000 
#    0.000    0.000    0.000    0.000    0.000    0.000 
#
# Total GULP energy -144823.241241 kJ/mol
# GULP energy per Si atom -5570.124663 kJ/mol
# Density = 2.803022 g / cm^3
# Si number density = 28.094160 Si / 1000 Ang^3
#
#
#
# Elastic Constant Matrix: (Units=GPa)
#
#
# Indices 1 2 3 4 5 6 
#
# 1 318.5527 32.4067 14.4257 0.0000 0.0000 0.0000
# 2 32.4067 52.9577 37.5491 0.0000 0.0000 0.0000
# 3 14.4257 37.5491 142.8241 0.0000 0.0000 0.0000
# 4 0.0000 0.0000 0.0000 28.6616 0.0000 0.0000
# 5 0.0000 0.0000 0.0000 0.0000 84.7323 0.0000
# 6 0.0000 0.0000 0.0000 0.0000 0.0000 45.1725
#
#
#
# Elastic Compliance Matrix: (Units=1/GPa)
#
#
# Indices 1 2 3 4 5 6 
#
# 1 0.003355 -0.002228 0.000247 0.000000 0.000000 0.000000
# 2 -0.002228 0.024689 -0.006266 0.000000 0.000000 0.000000
# 3 0.000247 -0.006266 0.008624 0.000000 0.000000 0.000000
# 4 0.000000 0.000000 0.000000 0.034890 0.000000 0.000000
# 5 0.000000 0.000000 0.000000 0.000000 0.011802 0.000000
# 6 0.000000 0.000000 0.000000 0.000000 0.000000 0.022137
#
#
# Mechanical properties :
#
#
# Convention : Reuss Voigt Hill
#
# Bulk Modulus (GPa) = 49.56869 75.89973 62.73421
# Shear Modulus (GPa) = 38.84547 60.37683 49.61115
#
# Velocity S-wave (km/s) = 3.72249 4.64086 4.20681
# Velocity P-wave (km/s) = 6.01315 7.46937 6.78047
#
# Compressibility (1/GPa) = 0.02017402
#
# Stress axis : x y z
#
# Youngs Moduli (GPa) = 298.09254 40.50383 115.95555
#
# Poissons Ratio (x) = 0.09024 -0.02863
# Poissons Ratio (y) = 0.66412 0.72656
# Poissons Ratio (z) = -0.07360 0.25379
#
# Static dielectric constant tensor:
#      x y z
#    x 2.551200 0.000000 0.000000 
#    y 0.000000 2.417920 0.000000 
#    z 0.000000 0.000000 2.111240 
# 
# From -- ./inp_files/1856.got.cif
#   From: 2010.05.17/outbox.cif.g08.bks.cpg/sg36_1_cif.got.tgz:1856.got - 2010.06.03 17:41:39.
