data_PCOD9350796
_publ_section_title
;
Structure prediction by ZEFSAII (Michael W. Deem and Ramdas Pophale) SiO2 
 PCOD9350796
Probable space group: C M C 21
;
_chemical_formula_sum "Si O2"
_cell_formula_units_Z 44
_cell_length_a 12.706827
_cell_length_b 13.604637
_cell_length_c 11.487058
_cell_angle_alpha 90.000000
_cell_angle_beta 90.000000
_cell_angle_gamma 90.000000
_cell_volume 1985.788034
_symmetry_space_group_name_H-M "C M C 21"
_symmetry_group_IT_number 36
_symmetry_cell_setting 'orthorhombic'
loop_
_space_group_symop_operation_xyz
x,y,z
-x,-y,1/2+z
x,-y,1/2+z
-x,y,z
1/2+x,1/2+y,z
1/2-x,1/2-y,1/2+z
1/2+x,1/2-y,1/2+z
1/2-x,1/2+y,z
loop_
_atom_site_type_symbol
_atom_site_label
_atom_site_fract_x
_atom_site_fract_y
_atom_site_fract_z
Si Si1 0.000000 0.749409 0.245301
Si Si2 0.500000 0.422417 0.097912
Si Si3 0.879506 0.490534 0.559892
Si Si4 0.789237 0.967204 0.239603
Si Si5 0.000000 0.110334 0.970334
Si Si6 0.224524 0.165556 0.969105
Si Si7 0.310962 0.864031 0.862182
O O1 0.000000 0.837013 0.343834
O O2 0.103283 0.686460 0.277648
O O3 0.000000 0.804382 0.120712
O O4 0.392858 0.454369 0.163137
O O5 0.500000 0.491240 0.981629
O O6 0.813781 0.544626 0.659998
O O7 0.816351 0.390165 0.535537
O O8 0.869768 0.557972 0.445055
O O9 0.000000 0.474354 0.590321
O O10 0.777151 0.075124 0.294834
O O11 0.784263 0.891094 0.345438
O O12 0.890970 0.148803 0.025263
O O13 0.238301 0.279394 0.942386
#
# Coordination Sequence:
#
# PCOD9350796 Si02
#       7
#     4   4   8   8   4   8   8
#     4  10  20  42  66  89 131 170 203 253 324 379
#     4  12  20  40  68  95 118 163 216 269 309 363
#     4  11  24  40  63  93 127 167 206 257 317 381
#     4  11  23  38  66  92 125 161 212 260 313 370
#     4  10  18  36  66  90 119 157 211 260 307 360
#     4  10  21  42  63  90 126 167 207 258 314 377
#     4  10  22  42  64  90 125 170 206 252 323 377
#
# _framework density 22.157450000000001
#
# number of rings (size 3 to 8) (size 9 to 14) (size 15 to 20)
#    0.000    1.455    6.364    0.000    1.273    2.182 
#    1.636    0.000    0.000    0.000    0.000    0.000 
#    0.000    0.000    0.000    0.000    0.000    0.000 
#
# Total GULP energy -122857.556044 kJ/mol
# GULP energy per Si atom -5584.434366 kJ/mol
# Density = 2.210702 g / cm^3
# Si number density = 22.157450 Si / 1000 Ang^3
#
#
#
# Elastic Constant Matrix: (Units=GPa)
#
#
# Indices 1 2 3 4 5 6 
#
# 1 165.6670 26.4875 25.6189 0.0000 0.0000 0.0000
# 2 26.4875 93.0405 13.8862 0.0000 0.0000 0.0000
# 3 25.6189 13.8862 48.3822 0.0000 0.0000 0.0000
# 4 0.0000 0.0000 0.0000 42.1745 0.0000 0.0000
# 5 0.0000 0.0000 0.0000 0.0000 14.8716 0.0000
# 6 0.0000 0.0000 0.0000 0.0000 0.0000 32.5150
#
#
#
# Elastic Compliance Matrix: (Units=1/GPa)
#
#
# Indices 1 2 3 4 5 6 
#
# 1 0.006757 -0.001452 -0.003161 0.000000 0.000000 0.000000
# 2 -0.001452 0.011541 -0.002544 0.000000 0.000000 0.000000
# 3 -0.003161 -0.002544 0.023073 0.000000 0.000000 0.000000
# 4 0.000000 0.000000 0.000000 0.023711 0.000000 0.000000
# 5 0.000000 0.000000 0.000000 0.000000 0.067242 0.000000
# 6 0.000000 0.000000 0.000000 0.000000 0.000000 0.030755
#
#
# Mechanical properties :
#
#
# Convention : Reuss Voigt Hill
#
# Bulk Modulus (GPa) = 36.95852 48.78610 42.87231
# Shear Modulus (GPa) = 26.82230 33.98536 30.40383
#
# Velocity S-wave (km/s) = 3.48304 3.92064 3.70830
# Velocity P-wave (km/s) = 5.73512 6.52387 6.14217
#
# Compressibility (1/GPa) = 0.02705736
#
# Stress axis : x y z
#
# Youngs Moduli (GPa) = 147.99022 86.64787 43.34121
#
# Poissons Ratio (x) = 0.12580 0.13701
# Poissons Ratio (y) = 0.21486 0.11024
# Poissons Ratio (z) = 0.46784 0.22040
#
# Static dielectric constant tensor:
#      x y z
#    x 1.804350 0.000000 0.000000 
#    y 0.000000 1.841740 0.000000 
#    z 0.000000 0.000000 1.880470 
# 
# From -- ./inp_files/11509.got.cif
#   From: 2010.05.17/outbox.cif.g08.bks.cpg/sg36_6_cif.got.tgz:11509.got - 2010.06.03 17:41:39.
