data_PCOD9350908
_publ_section_title
;
Structure prediction by ZEFSAII (Michael W. Deem and Ramdas Pophale) SiO2 
 PCOD9350908
Probable space group: C M C 21
;
_chemical_formula_sum "Si O2"
_cell_formula_units_Z 32
_cell_length_a 16.649460
_cell_length_b 15.728026
_cell_length_c 5.119303
_cell_angle_alpha 90.000000
_cell_angle_beta 90.000000
_cell_angle_gamma 90.000000
_cell_volume 1340.556757
_symmetry_space_group_name_H-M "C M C 21"
_symmetry_group_IT_number 36
_symmetry_cell_setting 'orthorhombic'
loop_
_space_group_symop_operation_xyz
x,y,z
-x,-y,1/2+z
x,-y,1/2+z
-x,y,z
1/2+x,1/2+y,z
1/2-x,1/2-y,1/2+z
1/2+x,1/2-y,1/2+z
1/2-x,1/2+y,z
loop_
_atom_site_type_symbol
_atom_site_label
_atom_site_fract_x
_atom_site_fract_y
_atom_site_fract_z
Si Si1 0.904310 0.214202 0.292800
Si Si2 0.345732 0.190440 0.276526
Si Si3 0.304038 0.439480 0.739104
Si Si4 0.090938 0.532206 0.019382
O O1 0.868771 0.271753 0.056448
O O2 0.856343 0.236904 0.558862
O O3 0.885204 0.116053 0.234486
O O4 0.000000 0.229400 0.316897
O O5 0.264621 0.134548 0.254256
O O6 0.407745 0.120622 0.166384
O O7 0.298278 0.497267 0.482889
O O8 0.129247 0.531356 0.732087
O O9 0.000000 0.507848 0.954990
#
# Coordination Sequence:
#
# PCOD9350908 Si02
#       4
#     8   8   8   8
#     4  12  26  44  70 102 138 180 226 282 342 404
#     4  12  23  43  67  98 135 174 228 281 340 403
#     4  12  26  46  72 100 136 182 230 282 338 404
#     4  10  19  31  51  82 121 164 206 253 314 383
#
# _framework density 23.870678000000002
#
# number of rings (size 3 to 8) (size 9 to 14) (size 15 to 20)
#    0.000    0.500    0.000    9.750    0.000    3.000 
#    0.000    0.000    0.000    0.000    0.000    0.000 
#    0.000    0.000    0.000    0.000    0.000    0.000 
#
# Total GULP energy -89437.869151 kJ/mol
# GULP energy per Si atom -5589.866822 kJ/mol
# Density = 2.381635 g / cm^3
# Si number density = 23.870678 Si / 1000 Ang^3
#
#
#
# Elastic Constant Matrix: (Units=GPa)
#
#
# Indices 1 2 3 4 5 6 
#
# 1 72.6774 47.6520 24.2359 0.0000 0.0000 0.0000
# 2 47.6520 94.2821 15.2376 0.0000 0.0000 0.0000
# 3 24.2359 15.2376 92.4560 0.0000 0.0000 0.0000
# 4 0.0000 0.0000 0.0000 42.9753 0.0000 0.0000
# 5 0.0000 0.0000 0.0000 0.0000 17.9070 0.0000
# 6 0.0000 0.0000 0.0000 0.0000 0.0000 43.8710
#
#
#
# Elastic Compliance Matrix: (Units=1/GPa)
#
#
# Indices 1 2 3 4 5 6 
#
# 1 0.021951 -0.010443 -0.004033 0.000000 0.000000 0.000000
# 2 -0.010443 0.015865 0.000123 0.000000 0.000000 0.000000
# 3 -0.004033 0.000123 0.011853 0.000000 0.000000 0.000000
# 4 0.000000 0.000000 0.000000 0.023269 0.000000 0.000000
# 5 0.000000 0.000000 0.000000 0.000000 0.055844 0.000000
# 6 0.000000 0.000000 0.000000 0.000000 0.000000 0.022794
#
#
# Mechanical properties :
#
#
# Convention : Reuss Voigt Hill
#
# Bulk Modulus (GPa) = 47.70399 48.18514 47.94456
# Shear Modulus (GPa) = 26.69939 32.43666 29.56803
#
# Velocity S-wave (km/s) = 3.34803 3.69026 3.52330
# Velocity P-wave (km/s) = 5.91384 6.19573 6.05642
#
# Compressibility (1/GPa) = 0.02096261
#
# Stress axis : x y z
#
# Youngs Moduli (GPa) = 45.55532 63.03340 84.36723
#
# Poissons Ratio (x) = 0.65824 0.34026
# Poissons Ratio (y) = 0.47572 -0.01036
# Poissons Ratio (z) = 0.18373 -0.00774
#
# Static dielectric constant tensor:
#      x y z
#    x 1.971260 0.000000 0.000000 
#    y 0.000000 1.960570 0.000000 
#    z 0.000000 0.000000 1.984420 
# 
# From -- ./inp_files/660.got.cif
#   From: 2010.05.17/outbox.cif.g08.bks.cpg/sg36_1_cif.got.tgz:660.got - 2010.06.03 17:41:39.
