data_PCOD9350172
_publ_section_title
;
Structure prediction by ZEFSAII (Michael W. Deem and Ramdas Pophale) SiO2 
 PCOD9350172
Probable space group: C M M 2
;
_chemical_formula_sum "Si O2"
_cell_formula_units_Z 32
_cell_length_a 9.000000
_cell_length_b 21.000000
_cell_length_c 18.000000
_cell_angle_alpha 90.000000
_cell_angle_beta 90.000000
_cell_angle_gamma 90.000000
_cell_volume 3402.000000
_symmetry_space_group_name_H-M "C M M 2"
_symmetry_group_IT_number 35
_symmetry_cell_setting 'orthorhombic'
loop_
_space_group_symop_operation_xyz
x,y,z
-x,-y,z
-x,y,z
x,-y,z
1/2+x,1/2+y,z
1/2-x,1/2-y,z
1/2-x,1/2+y,z
1/2+x,1/2-y,z
loop_
_atom_site_type_symbol
_atom_site_label
_atom_site_fract_x
_atom_site_fract_y
_atom_site_fract_z
Si Si1 0.674510 0.312954 0.330920
Si Si2 0.668924 0.929236 0.261664
Si Si3 0.679566 0.431083 0.598608
Si Si4 0.824233 0.926920 0.773822
Si Si5 0.176087 0.312749 0.856224
Si Si6 0.679204 0.314235 0.503269
Si Si7 0.168423 0.428358 0.083467
Si Si8 0.825168 0.188452 0.017995
O O1 0.500000 0.303954 0.329102
O O2 0.750000 0.250000 0.299043
O O3 0.722315 0.375678 0.289044
O O4 0.721511 0.320097 0.416928
O O5 0.500000 0.915473 0.286479
O O6 0.666805 0.930152 0.172523
O O7 0.710204 0.000000 0.287613
O O8 0.500000 0.432138 0.590394
O O9 0.737248 0.500000 0.575068
O O10 0.705634 0.422821 0.685886
O O11 0.735593 0.373929 0.549354
O O12 0.723730 0.876276 0.814680
O O13 0.000000 0.913309 0.786002
O O14 0.797840 0.000000 0.797094
O O15 0.250000 0.250000 0.820103
O O16 0.000000 0.305313 0.860516
O O17 0.247971 0.316798 0.937780
O O18 0.500000 0.310828 0.507359
O O19 0.750000 0.250000 0.533333
O O20 0.200618 0.500000 0.056565
O O21 0.285053 0.376391 0.058658
O O22 0.000000 0.411173 0.058731
O O23 0.750000 0.250000 0.055821
O O24 0.000000 0.198055 0.010747
#
# Coordination Sequence:
#
# PCOD9350172 Si02
#       8
#     8   8   8   8   8   8   8   8
#     4  10  20  33  51  75 104 138 175 217 259 305
#     4   9  19  36  56  77 104 137 171 211 259 309
#     4   8  15  30  52  75 100 132 169 209 253 302
#     4   9  18  34  55  78 105 137 173 212 255 306
#     4  11  22  37  56  77 105 138 173 214 258 305
#     4   9  18  32  50  73 101 133 170 211 256 304
#     4   9  19  37  58  79 105 137 172 210 255 307
#     4  11  22  37  57  80 107 137 172 213 256 304
#
# _framework density 9.4062319999999993
#
# number of rings (size 3 to 8) (size 9 to 14) (size 15 to 20)
#    0.000    2.500    0.000    4.875    0.000    3.750 
#    0.000    4.375    0.000    1.125    0.000    0.000 
#    0.000    0.000    0.000    0.000    0.000    0.000 
#
# Total GULP energy -178376.145225 kJ/mol
# GULP energy per Si atom -5574.254538 kJ/mol
# Density = 0.938482 g / cm^3
# Si number density = 9.406232 Si / 1000 Ang^3
#
#
#
# Elastic Constant Matrix: (Units=GPa)
#
#
# Indices 1 2 3 4 5 6 
#
# 1 79.2974 56.9234 23.9069 0.0000 0.0000 0.0000
# 2 56.9234 97.4234 38.5296 0.0000 0.0000 0.0000
# 3 23.9069 38.5296 15.0264 0.0000 0.0000 0.0000
# 4 0.0000 0.0000 0.0000 22.0580 0.0000 0.0000
# 5 0.0000 0.0000 0.0000 0.0000 11.0011 0.0000
# 6 0.0000 0.0000 0.0000 0.0000 0.0000 30.7464
#
#
#
# Elastic Compliance Matrix: (Units=1/GPa)
#
#
# Indices 1 2 3 4 5 6 
#
# 1 0.018105 -0.057795 0.119388 0.000000 0.000000 0.000000
# 2 -0.057795 -0.544858 1.489035 0.000000 0.000000 0.000000
# 3 0.119388 1.489035 -3.941462 0.000000 0.000000 0.000000
# 4 0.000000 0.000000 0.000000 0.045335 0.000000 0.000000
# 5 0.000000 0.000000 0.000000 0.000000 0.090900 0.000000
# 6 0.000000 0.000000 0.000000 0.000000 0.000000 0.032524
#
#
# Mechanical properties :
#
#
# Convention : Reuss Voigt Hill
#
# Bulk Modulus (GPa) = -0.73155 47.82966 23.54905
# Shear Modulus (GPa) = -0.63643 17.58692 8.47525
#
# Velocity S-wave (km/s) = -0.58227 3.06086 2.12483
# Velocity P-wave (km/s) = 0.91747 6.16210 4.30869
#
# Compressibility (1/GPa) = -1.36695958
#
# Stress axis : x y z
#
# Youngs Moduli (GPa) = 55.23322 -1.83534 -0.25371
#
# Poissons Ratio (x) = -0.10607 0.03029
# Poissons Ratio (y) = 3.19220 0.37779
# Poissons Ratio (z) = -6.59420 2.73288
#
# Static dielectric constant tensor:
#      x y z
#    x 1.635860 0.000000 0.000000 
#    y 0.000000 1.697360 0.000000 
#    z 0.000000 0.000000 1.649310 
# 
# From -- ./inp_files/18430.got.cif
#   From: 2010.05.17/outbox.ucp.g08.bks.cvg/sg35_10_cif.got.tgz:18430.got - 2010.06.11 10:36:28.
