data_PCOD9350901
_publ_section_title
;
Structure prediction by ZEFSAII (Michael W. Deem and Ramdas Pophale) SiO2 
 PCOD9350901
Probable space group: C M C 21
;
_chemical_formula_sum "Si O2"
_cell_formula_units_Z 48
_cell_length_a 8.091829
_cell_length_b 28.752889
_cell_length_c 7.910799
_cell_angle_alpha 90.000000
_cell_angle_beta 90.000000
_cell_angle_gamma 90.000000
_cell_volume 1840.553875
_symmetry_space_group_name_H-M "C M C 21"
_symmetry_group_IT_number 36
_symmetry_cell_setting 'orthorhombic'
loop_
_space_group_symop_operation_xyz
x,y,z
-x,-y,1/2+z
x,-y,1/2+z
-x,y,z
1/2+x,1/2+y,z
1/2-x,1/2-y,1/2+z
1/2+x,1/2-y,1/2+z
1/2-x,1/2+y,z
loop_
_atom_site_type_symbol
_atom_site_label
_atom_site_fract_x
_atom_site_fract_y
_atom_site_fract_z
Si Si1 0.309277 0.155664 0.516560
Si Si2 0.695144 0.093174 0.175633
Si Si3 0.808516 0.072411 0.730227
Si Si4 0.805521 0.322592 0.479289
Si Si5 0.694053 0.734519 0.297621
Si Si6 0.197355 0.514581 0.407958
O O1 0.500000 0.168838 0.533480
O O2 0.293069 0.122758 0.350677
O O3 0.262819 0.122422 0.673481
O O4 0.211190 0.201500 0.462703
O O5 0.500000 0.088251 0.138522
O O6 0.770167 0.127614 0.034078
O O7 0.754658 0.043252 0.240727
O O8 0.726707 0.039857 0.873546
O O9 0.000000 0.077004 0.765645
O O10 0.783325 0.040435 0.562480
O O11 0.789773 0.292022 0.650784
O O12 0.741648 0.286129 0.340902
O O13 0.000000 0.329400 0.445798
O O14 0.500000 0.736812 0.253124
O O15 0.000000 0.521496 0.429881
#
# Coordination Sequence:
#
# PCOD9350901 Si02
#       6
#     8   8   8   8   8   8
#     4   9  17  32  52  72  98 135 173 207 252 311
#     4   7  13  28  50  70  91 126 170 207 239 291
#     4  11  21  34  53  79 107 134 171 219 262 301
#     4   9  18  33  51  73 102 133 167 208 252 300
#     4  10  19  31  51  77 102 132 171 212 253 297
#     4  10  19  34  55  77 102 138 178 211 254 312
#
# _framework density 26.079107
#
# number of rings (size 3 to 8) (size 9 to 14) (size 15 to 20)
#    0.000    2.667    0.000    5.000    0.000    1.333 
#    0.000    2.500    0.000    6.000    0.000    0.000 
#    0.000    0.000    0.000    0.000    0.000    0.000 
#
# Total GULP energy -134207.560519 kJ/mol
# GULP energy per Si atom -5591.981688 kJ/mol
# Density = 2.601975 g / cm^3
# Si number density = 26.079107 Si / 1000 Ang^3
#
#
#
# Elastic Constant Matrix: (Units=GPa)
#
#
# Indices 1 2 3 4 5 6 
#
# 1 62.3320 6.9827 -2.4102 0.0000 0.0000 0.0000
# 2 6.9827 193.9765 6.0616 0.0000 0.0000 0.0000
# 3 -2.4102 6.0616 88.1673 0.0000 0.0000 0.0000
# 4 0.0000 0.0000 0.0000 59.6892 0.0000 0.0000
# 5 0.0000 0.0000 0.0000 0.0000 28.3966 0.0000
# 6 0.0000 0.0000 0.0000 0.0000 0.0000 17.2124
#
#
#
# Elastic Compliance Matrix: (Units=1/GPa)
#
#
# Indices 1 2 3 4 5 6 
#
# 1 0.016128 -0.000596 0.000482 0.000000 0.000000 0.000000
# 2 -0.000596 0.005188 -0.000373 0.000000 0.000000 0.000000
# 3 0.000482 -0.000373 0.011381 0.000000 0.000000 0.000000
# 4 0.000000 0.000000 0.000000 0.016753 0.000000 0.000000
# 5 0.000000 0.000000 0.000000 0.000000 0.035216 0.000000
# 6 0.000000 0.000000 0.000000 0.000000 0.000000 0.058098
#
#
# Mechanical properties :
#
#
# Convention : Reuss Voigt Hill
#
# Bulk Modulus (GPa) = 31.52171 40.63822 36.07996
# Shear Modulus (GPa) = 32.40176 43.31575 37.85875
#
# Velocity S-wave (km/s) = 3.52865 4.07988 3.81424
# Velocity P-wave (km/s) = 5.35864 6.14902 5.76738
#
# Compressibility (1/GPa) = 0.03172417
#
# Stress axis : x y z
#
# Youngs Moduli (GPa) = 62.00213 192.73907 87.86654
#
# Poissons Ratio (x) = 0.11480 -0.04234
# Poissons Ratio (y) = 0.03693 0.03277
# Poissons Ratio (z) = -0.02988 0.07189
#
# Static dielectric constant tensor:
#      x y z
#    x 1.882310 0.000000 0.000000 
#    y 0.000000 2.096620 0.000000 
#    z 0.000000 0.000000 2.216560 
# 
# From -- ./inp_files/2727.got.cif
#   From: 2010.05.17/outbox.cif.g08.bks.cpg/sg36_2_cif.got.tgz:2727.got - 2010.06.03 17:41:39.
