data_PCOD9350918
_publ_section_title
;
Structure prediction by ZEFSAII (Michael W. Deem and Ramdas Pophale) SiO2 
 PCOD9350918
Probable space group: C M C 21
;
_chemical_formula_sum "Si O2"
_cell_formula_units_Z 64
_cell_length_a 7.571302
_cell_length_b 23.603080
_cell_length_c 16.469000
_cell_angle_alpha 90.000000
_cell_angle_beta 90.000000
_cell_angle_gamma 90.000000
_cell_volume 2943.109885
_symmetry_space_group_name_H-M "C M C 21"
_symmetry_group_IT_number 36
_symmetry_cell_setting 'orthorhombic'
loop_
_space_group_symop_operation_xyz
x,y,z
-x,-y,1/2+z
x,-y,1/2+z
-x,y,z
1/2+x,1/2+y,z
1/2-x,1/2-y,1/2+z
1/2+x,1/2-y,1/2+z
1/2-x,1/2+y,z
loop_
_atom_site_type_symbol
_atom_site_label
_atom_site_fract_x
_atom_site_fract_y
_atom_site_fract_z
Si Si1 0.300951 0.839250 0.598440
Si Si2 0.706571 0.035890 0.074916
Si Si3 0.216876 0.222569 0.637719
Si Si4 0.785470 0.010249 0.754516
Si Si5 0.709036 0.709422 0.929928
Si Si6 0.284584 0.361429 0.277820
Si Si7 0.712491 0.328481 0.965298
Si Si8 0.709957 0.546143 0.422826
O O1 0.500000 0.849679 0.629827
O O2 0.215438 0.900367 0.583067
O O3 0.220163 0.787393 0.649647
O O4 0.306822 0.808147 0.511596
O O5 0.500000 0.042884 0.057684
O O6 0.730178 0.009922 0.164852
O O7 0.769182 0.996506 0.999929
O O8 0.273296 0.180667 0.707779
O O9 0.274416 0.193375 0.553533
O O10 0.000000 0.224821 0.637194
O O11 0.725881 0.074810 0.765561
O O12 0.000000 0.008741 0.754622
O O13 0.723809 0.976650 0.835390
O O14 0.500000 0.701980 0.943662
O O15 0.769269 0.666278 0.861780
O O16 0.739746 0.775244 0.908423
O O17 0.500000 0.362323 0.276845
O O18 0.500000 0.331907 0.968790
O O19 0.779905 0.390870 0.943276
O O20 0.500000 0.551854 0.412344
#
# Coordination Sequence:
#
# PCOD9350918 Si02
#       8
#     8   8   8   8   8   8   8   8
#     4   9  19  35  52  72 103 143 181 216 267 333
#     4  11  23  37  56  83 115 150 188 237 292 336
#     4   8  14  28  50  70  92 129 172 209 253 320
#     4  10  21  37  57  82 111 146 193 239 279 336
#     4  10  19  31  53  82 106 132 173 226 274 322
#     4   9  17  30  50  76 102 131 172 221 270 318
#     4   9  18  34  54  75 103 140 178 217 273 336
#     4  10  21  38  60  82 110 153 195 231 276 337
#
# _framework density 21.745704
#
# number of rings (size 3 to 8) (size 9 to 14) (size 15 to 20)
#    0.000    2.500    0.000    3.000    0.000    6.000 
#    0.000    2.500    0.000    6.000    0.000    0.000 
#    0.000    0.000    0.000    0.000    0.000    0.000 
#
# Total GULP energy -178417.255462 kJ/mol
# GULP energy per Si atom -5575.539233 kJ/mol
# Density = 2.169621 g / cm^3
# Si number density = 21.745704 Si / 1000 Ang^3
#
#
#
# Elastic Constant Matrix: (Units=GPa)
#
#
# Indices 1 2 3 4 5 6 
#
# 1 51.0146 -9.5271 -13.3833 0.0000 0.0000 0.0000
# 2 -9.5271 146.3572 19.1053 0.0000 0.0000 0.0000
# 3 -13.3833 19.1053 58.4638 0.0000 0.0000 0.0000
# 4 0.0000 0.0000 0.0000 37.4791 0.0000 0.0000
# 5 0.0000 0.0000 0.0000 0.0000 -4.9436 0.0000
# 6 0.0000 0.0000 0.0000 0.0000 0.0000 3.3648
#
#
#
# Elastic Compliance Matrix: (Units=1/GPa)
#
#
# Indices 1 2 3 4 5 6 
#
# 1 0.020937 0.000770 0.004541 0.000000 0.000000 0.000000
# 2 0.000770 0.007165 -0.002165 0.000000 0.000000 0.000000
# 3 0.004541 -0.002165 0.018852 0.000000 0.000000 0.000000
# 4 0.000000 0.000000 0.000000 0.026682 0.000000 0.000000
# 5 0.000000 0.000000 0.000000 0.000000 -0.202281 0.000000
# 6 0.000000 0.000000 0.000000 0.000000 0.000000 0.297195
#
#
# Mechanical properties :
#
#
# Convention : Reuss Voigt Hill
#
# Bulk Modulus (GPa) = 18.78050 27.58059 23.18055
# Shear Modulus (GPa) = 27.77664 24.48943 26.13304
#
# Velocity S-wave (km/s) = 3.57787 3.35949 3.47040
# Velocity P-wave (km/s) = 5.07182 5.26868 5.17119
#
# Compressibility (1/GPa) = 0.05324672
#
# Stress axis : x y z
#
# Youngs Moduli (GPa) = 47.76142 139.55991 53.04544
#
# Poissons Ratio (x) = -0.10748 -0.24089
# Poissons Ratio (y) = -0.03678 0.11486
# Poissons Ratio (z) = -0.21690 0.30219
#
# Static dielectric constant tensor:
#      x y z
#    x 1.844210 0.000000 0.000000 
#    y 0.000000 1.819120 0.000000 
#    z 0.000000 0.000000 1.778550 
# 
# From -- ./inp_files/13879.got.cif
#   From: 2010.05.17/outbox.cif.g08.bks.cpg/sg36_7_cif.got.tgz:13879.got - 2010.06.03 17:41:39.
