data_PCOD9350356
_publ_section_title
;
Structure prediction by ZEFSAII (Michael W. Deem and Ramdas Pophale) SiO2 
 PCOD9350356
Probable space group: C M M 2
;
_chemical_formula_sum "Si O2"
_cell_formula_units_Z 48
_cell_length_a 8.472281
_cell_length_b 18.617297
_cell_length_c 16.191653
_cell_angle_alpha 90.000000
_cell_angle_beta 90.000000
_cell_angle_gamma 90.000000
_cell_volume 2553.925160
_symmetry_space_group_name_H-M "C M M 2"
_symmetry_group_IT_number 35
_symmetry_cell_setting 'orthorhombic'
loop_
_space_group_symop_operation_xyz
x,y,z
-x,-y,z
-x,y,z
x,-y,z
1/2+x,1/2+y,z
1/2-x,1/2-y,z
1/2-x,1/2+y,z
1/2+x,1/2-y,z
loop_
_atom_site_type_symbol
_atom_site_label
_atom_site_fract_x
_atom_site_fract_y
_atom_site_fract_z
Si Si1 0.188867 0.831828 0.369170
Si Si2 0.688929 0.832071 0.542024
Si Si3 0.309006 0.668759 0.043973
Si Si4 0.807201 0.917368 0.206936
Si Si5 0.690731 0.582515 0.881369
Si Si6 0.810717 0.668121 0.723833
O O1 0.250000 0.750000 0.361807
O O2 0.243997 0.863577 0.457225
O O3 0.243580 0.877940 0.290832
O O4 0.000000 0.829328 0.369193
O O5 0.500000 0.832090 0.536842
O O6 0.750000 0.750000 0.542597
O O7 0.735870 0.860793 0.632440
O O8 0.500000 0.669257 0.043945
O O9 0.250000 0.750000 0.044230
O O10 0.256686 0.626626 0.126122
O O11 0.256018 0.627151 0.961586
O O12 0.000000 0.917487 0.206912
O O13 0.755818 0.000000 0.203645
O O14 0.500000 0.582540 0.882133
O O15 0.744252 0.500000 0.885727
O O16 0.746771 0.620582 0.798074
O O17 0.750000 0.750000 0.731948
O O18 0.000000 0.669878 0.727021
#
# Coordination Sequence:
#
# PCOD9350356 Si02
#       6
#     8   8   8   8   8   8
#     4  10  18  29  50  76 101 131 168 210 252 296
#     4   9  17  30  49  73 101 132 168 210 254 299
#     4  10  20  35  56  79 103 132 168 210 253 301
#     4   9  18  33  52  74 101 134 170 206 247 298
#     4  10  21  36  54  77 105 138 174 212 257 308
#     4  10  20  34  54  78 104 137 175 216 261 308
#
# _framework density 18.794599999999999
#
# number of rings (size 3 to 8) (size 9 to 14) (size 15 to 20)
#    0.000    2.333    0.000    4.000    0.000    6.333 
#    0.000    1.667    0.000    8.500    0.000    0.000 
#    0.000    0.000    0.000    0.000    0.000    0.000 
#
# Total GULP energy -133901.047156 kJ/mol
# GULP energy per Si atom -5579.210298 kJ/mol
# Density = 1.875182 g / cm^3
# Si number density = 18.794600 Si / 1000 Ang^3
#
#
#
# Elastic Constant Matrix: (Units=GPa)
#
#
# Indices 1 2 3 4 5 6 
#
# 1 22.9827 19.0057 32.4104 0.0000 0.0000 0.0000
# 2 19.0057 132.4857 110.3317 0.0000 0.0000 0.0000
# 3 32.4104 110.3317 237.2289 0.0000 0.0000 0.0000
# 4 0.0000 0.0000 0.0000 -5.4706 0.0000 0.0000
# 5 0.0000 0.0000 0.0000 0.0000 25.8013 0.0000
# 6 0.0000 0.0000 0.0000 0.0000 0.0000 21.7324
#
#
#
# Elastic Compliance Matrix: (Units=1/GPa)
#
#
# Indices 1 2 3 4 5 6 
#
# 1 0.054453 -0.002638 -0.006213 0.000000 0.000000 0.000000
# 2 -0.002638 0.012447 -0.005429 0.000000 0.000000 0.000000
# 3 -0.006213 -0.005429 0.007589 0.000000 0.000000 0.000000
# 4 0.000000 0.000000 0.000000 -0.182794 0.000000 0.000000
# 5 0.000000 0.000000 0.000000 0.000000 0.038758 0.000000
# 6 0.000000 0.000000 0.000000 0.000000 0.000000 0.046014
#
#
# Mechanical properties :
#
#
# Convention : Reuss Voigt Hill
#
# Bulk Modulus (GPa) = 21.77162 79.57699 50.67431
# Shear Modulus (GPa) = 245.86712 23.80925 134.83818
#
# Velocity S-wave (km/s) = 11.44998 3.56309 8.47932
# Velocity P-wave (km/s) = 13.65327 7.70453 11.08538
#
# Compressibility (1/GPa) = 0.04593135
#
# Stress axis : x y z
#
# Youngs Moduli (GPa) = 18.36431 80.33879 131.77126
#
# Poissons Ratio (x) = 0.21192 0.81865
# Poissons Ratio (y) = 0.04844 0.71534
# Poissons Ratio (z) = 0.11409 0.43613
#
# Static dielectric constant tensor:
#      x y z
#    x 1.649740 0.000000 0.000000 
#    y 0.000000 1.608430 0.000000 
#    z 0.000000 0.000000 1.675690 
# 
# From -- ./inp_files/15102.got.cif
#   From: 2010.05.17/outbox.cif.g08.bks.cpg/sg35_8_cif.got.tgz:15102.got - 2010.06.03 17:29:28.
