data_PCOD9350538
_publ_section_title
;
Structure prediction by ZEFSAII (Michael W. Deem and Ramdas Pophale) SiO2 
 PCOD9350538
Probable space group: C M C 21
;
_chemical_formula_sum "Si O2"
_cell_formula_units_Z 48
_cell_length_a 27.759098
_cell_length_b 8.333704
_cell_length_c 7.573538
_cell_angle_alpha 90.000000
_cell_angle_beta 90.000000
_cell_angle_gamma 90.000000
_cell_volume 1752.032790
_symmetry_space_group_name_H-M "C M C 21"
_symmetry_group_IT_number 36
_symmetry_cell_setting 'orthorhombic'
loop_
_space_group_symop_operation_xyz
x,y,z
-x,-y,1/2+z
x,-y,1/2+z
-x,y,z
1/2+x,1/2+y,z
1/2-x,1/2-y,1/2+z
1/2+x,1/2-y,1/2+z
1/2-x,1/2+y,z
loop_
_atom_site_type_symbol
_atom_site_label
_atom_site_fract_x
_atom_site_fract_y
_atom_site_fract_z
Si Si1 0.855855 0.091927 0.795240
Si Si2 0.200191 0.555083 0.037887
Si Si3 0.895803 0.652492 0.022320
Si Si4 0.000000 0.131614 0.147161
Si Si5 0.500000 0.260246 0.056804
Si Si6 0.733116 0.649026 0.340175
Si Si7 0.100681 0.208418 0.146538
O O1 0.866523 0.208900 0.630464
O O2 0.806996 0.986375 0.799638
O O3 0.895871 0.955676 0.763659
O O4 0.862914 0.177264 0.984020
O O5 0.224069 0.646786 0.200121
O O6 0.144017 0.513611 0.049394
O O7 0.235685 0.408580 0.006361
O O8 0.207983 0.681880 0.877034
O O9 0.950418 0.662635 0.091086
O O10 0.898096 0.670487 0.811001
O O11 0.952093 0.204591 0.060591
O O12 0.000000 0.194613 0.348481
O O13 0.000000 0.937727 0.143086
#
# Coordination Sequence:
#
# PCOD9350538 Si02
#       7
#     8   8   8   4   4   8   8
#     4  12  20  36  57  89 126 172 209 267 326 392
#     4  12  25  46  67  96 132 175 217 280 332 399
#     4  11  23  38  60  91 132 169 221 269 335 394
#     4  10  18  28  48  86 126 165 209 256 331 402
#     4  10  20  32  54  90 124 169 215 270 329 402
#     4  12  26  43  67  97 131 175 227 271 335 400
#     4  11  19  31  54  84 128 170 206 258 329 395
#
# _framework density 27.396749
#
# number of rings (size 3 to 8) (size 9 to 14) (size 15 to 20)
#    0.000    0.667    5.000    5.000    0.000    0.000 
#    3.000    0.000    0.000    1.000    0.000    0.000 
#    0.000    0.000    0.000    0.000    0.000    0.083 
#
# Total GULP energy -134205.138632 kJ/mol
# GULP energy per Si atom -5591.880776 kJ/mol
# Density = 2.733439 g / cm^3
# Si number density = 27.396749 Si / 1000 Ang^3
#
#
#
# Elastic Constant Matrix: (Units=GPa)
#
#
# Indices 1 2 3 4 5 6 
#
# 1 213.1364 21.0679 38.4555 0.0000 0.0000 0.0000
# 2 21.0679 58.5398 14.9612 0.0000 0.0000 0.0000
# 3 38.4555 14.9612 129.9106 0.0000 0.0000 0.0000
# 4 0.0000 0.0000 0.0000 35.9557 0.0000 0.0000
# 5 0.0000 0.0000 0.0000 0.0000 38.7041 0.0000
# 6 0.0000 0.0000 0.0000 0.0000 0.0000 17.7863
#
#
#
# Elastic Compliance Matrix: (Units=1/GPa)
#
#
# Indices 1 2 3 4 5 6 
#
# 1 0.005079 -0.001487 -0.001332 0.000000 0.000000 0.000000
# 2 -0.001487 0.018036 -0.001637 0.000000 0.000000 0.000000
# 3 -0.001332 -0.001637 0.008280 0.000000 0.000000 0.000000
# 4 0.000000 0.000000 0.000000 0.027812 0.000000 0.000000
# 5 0.000000 0.000000 0.000000 0.000000 0.025837 0.000000
# 6 0.000000 0.000000 0.000000 0.000000 0.000000 0.056223
#
#
# Mechanical properties :
#
#
# Convention : Reuss Voigt Hill
#
# Bulk Modulus (GPa) = 44.47865 61.17290 52.82578
# Shear Modulus (GPa) = 31.71081 40.29606 36.00343
#
# Velocity S-wave (km/s) = 3.40585 3.83931 3.62905
# Velocity P-wave (km/s) = 5.63353 6.48311 6.07319
#
# Compressibility (1/GPa) = 0.02248270
#
# Stress axis : x y z
#
# Youngs Moduli (GPa) = 196.88015 55.44455 120.76616
#
# Poissons Ratio (x) = 0.08247 0.16089
# Poissons Ratio (y) = 0.29286 0.19767
# Poissons Ratio (z) = 0.26229 0.09075
#
# Static dielectric constant tensor:
#      x y z
#    x 2.129370 0.000000 0.000000 
#    y 0.000000 2.188020 0.000000 
#    z 0.000000 0.000000 2.185800 
# 
# From -- ./inp_files/6032.got.cif
#   From: 2010.05.17/outbox.cif.g08.bks.cpg/sg36_4_cif.got.tgz:6032.got - 2010.06.03 17:41:39.
