data_PCOD9350178
_publ_section_title
;
Structure prediction by ZEFSAII (Michael W. Deem and Ramdas Pophale) SiO2 
 PCOD9350178
Probable space group: C M M 2
;
_chemical_formula_sum "Si O2"
_cell_formula_units_Z 24
_cell_length_a 18.000000
_cell_length_b 9.000000
_cell_length_c 15.000000
_cell_angle_alpha 90.000000
_cell_angle_beta 90.000000
_cell_angle_gamma 90.000000
_cell_volume 2430.000000
_symmetry_space_group_name_H-M "C M M 2"
_symmetry_group_IT_number 35
_symmetry_cell_setting 'orthorhombic'
loop_
_space_group_symop_operation_xyz
x,y,z
-x,-y,z
-x,y,z
x,-y,z
1/2+x,1/2+y,z
1/2-x,1/2-y,z
1/2-x,1/2+y,z
1/2+x,1/2-y,z
loop_
_atom_site_type_symbol
_atom_site_label
_atom_site_fract_x
_atom_site_fract_y
_atom_site_fract_z
Si Si1 0.827906 0.675477 0.041510
Si Si2 0.910977 0.666884 0.571696
Si Si3 0.087094 0.826054 0.197781
Si Si4 0.416024 0.177495 0.867299
Si Si5 0.910052 0.666092 0.370883
Si Si6 0.674263 0.328468 0.714427
O O1 0.817042 0.500000 0.045739
O O2 0.750000 0.750000 0.017848
O O3 0.859864 0.737075 0.132948
O O4 0.889804 0.707927 0.967137
O O5 0.887694 0.500000 0.601552
O O6 0.883324 0.689988 0.471111
O O7 0.882926 0.792499 0.636397
O O8 0.000000 0.666331 0.571208
O O9 0.109719 0.787452 0.298556
O O10 0.000000 0.781806 0.186355
O O11 0.092584 0.000000 0.179981
O O12 0.500000 0.228628 0.850827
O O13 0.358906 0.254413 0.802131
O O14 0.413868 0.000000 0.853231
O O15 0.887835 0.500000 0.341274
O O16 0.000000 0.665667 0.376200
O O17 0.686327 0.500000 0.729050
O O18 0.750000 0.250000 0.688811
#
# Coordination Sequence:
#
# PCOD9350178 Si02
#       6
#     8   8   8   8   8   8
#     4  11  23  39  59  83 113 149 187 228 277 332
#     4   9  18  35  59  85 114 148 186 230 279 331
#     4  10  20  34  55  84 116 149 187 233 280 327
#     4  10  22  41  64  88 113 143 181 226 276 331
#     4   8  15  30  54  82 111 146 187 230 277 328
#     4  12  25  39  57  82 114 151 188 229 278 331
#
# _framework density 9.8765429999999999
#
# number of rings (size 3 to 8) (size 9 to 14) (size 15 to 20)
#    0.000    2.000    0.000    5.000    0.000    7.667 
#    0.000    2.500    0.000    4.000    0.000    0.000 
#    0.000    0.000    0.000    0.000    0.000    0.000 
#
# Total GULP energy -133907.419115 kJ/mol
# GULP energy per Si atom -5579.475796 kJ/mol
# Density = 0.985406 g / cm^3
# Si number density = 9.876543 Si / 1000 Ang^3
#
#
#
# Elastic Constant Matrix: (Units=GPa)
#
#
# Indices 1 2 3 4 5 6 
#
# 1 19.2546 9.8099 -2.8786 0.0000 0.0000 0.0000
# 2 9.8099 -31.2995 17.8067 0.0000 0.0000 0.0000
# 3 -2.8786 17.8067 43.5854 0.0000 0.0000 0.0000
# 4 0.0000 0.0000 0.0000 27.6993 0.0000 0.0000
# 5 0.0000 0.0000 0.0000 0.0000 60.6037 0.0000
# 6 0.0000 0.0000 0.0000 0.0000 0.0000 26.5828
#
#
#
# Elastic Compliance Matrix: (Units=1/GPa)
#
#
# Indices 1 2 3 4 5 6 
#
# 1 0.045059 0.012833 -0.002267 0.000000 0.000000 0.000000
# 2 0.012833 -0.022269 0.009946 0.000000 0.000000 0.000000
# 3 -0.002267 0.009946 0.018731 0.000000 0.000000 0.000000
# 4 0.000000 0.000000 0.000000 0.036102 0.000000 0.000000
# 5 0.000000 0.000000 0.000000 0.000000 0.016501 0.000000
# 6 0.000000 0.000000 0.000000 0.000000 0.000000 0.037618
#
#
# Mechanical properties :
#
#
# Convention : Reuss Voigt Hill
#
# Bulk Modulus (GPa) = 12.11494 9.00183 10.55838
# Shear Modulus (GPa) = 42.28959 23.43067 32.86013
#
# Velocity S-wave (km/s) = 4.63202 3.44783 4.08308
# Velocity P-wave (km/s) = 5.89525 4.51853 5.25219
#
# Compressibility (1/GPa) = 0.08254272
#
# Stress axis : x y z
#
# Youngs Moduli (GPa) = 22.19327 -44.90496 53.38884
#
# Poissons Ratio (x) = 0.57625 0.12102
# Poissons Ratio (y) = -0.28480 -0.53098
# Poissons Ratio (z) = 0.05031 0.44661
#
# Static dielectric constant tensor:
#      x y z
#    x 1.662780 0.000000 0.000000 
#    y 0.000000 1.664530 0.000000 
#    z 0.000000 0.000000 1.693890 
# 
# From -- ./inp_files/15112.got.cif
#   From: 2010.05.17/outbox.ucp.g08.bks.cvg/sg35_8_cif.got.tgz:15112.got - 2010.06.11 10:36:28.
