data_PCOD9350724
_publ_section_title
;
Structure prediction by ZEFSAII (Michael W. Deem and Ramdas Pophale) SiO2 
 PCOD9350724
Probable space group: C M C 21
;
_chemical_formula_sum "Si O2"
_cell_formula_units_Z 64
_cell_length_a 8.536718
_cell_length_b 21.162595
_cell_length_c 19.955202
_cell_angle_alpha 90.000000
_cell_angle_beta 90.000000
_cell_angle_gamma 90.000000
_cell_volume 3605.088947
_symmetry_space_group_name_H-M "C M C 21"
_symmetry_group_IT_number 36
_symmetry_cell_setting 'orthorhombic'
loop_
_space_group_symop_operation_xyz
x,y,z
-x,-y,1/2+z
x,-y,1/2+z
-x,y,z
1/2+x,1/2+y,z
1/2-x,1/2-y,1/2+z
1/2+x,1/2-y,1/2+z
1/2-x,1/2+y,z
loop_
_atom_site_type_symbol
_atom_site_label
_atom_site_fract_x
_atom_site_fract_y
_atom_site_fract_z
Si Si1 0.187627 0.363750 0.759860
Si Si2 0.309940 0.862377 0.909825
Si Si3 0.810859 0.562521 0.630474
Si Si4 0.685290 0.494031 0.261746
Si Si5 0.808468 0.687752 0.550309
Si Si6 0.687290 0.315305 0.622970
Si Si7 0.811060 0.509995 0.906277
Si Si8 0.810793 0.562074 0.046952
O O1 0.242585 0.344608 0.834755
O O2 0.237083 0.436992 0.750293
O O3 0.252977 0.323177 0.698801
O O4 0.000000 0.361317 0.758304
O O5 0.500000 0.859401 0.909359
O O6 0.270160 0.936387 0.920318
O O7 0.255422 0.822127 0.973457
O O8 0.743449 0.552830 0.704247
O O9 0.761450 0.626334 0.593145
O O10 0.764252 0.500984 0.587400
O O11 0.000000 0.562824 0.633937
O O12 0.500000 0.501697 0.258154
O O13 0.735835 0.472380 0.335701
O O14 0.756068 0.751898 0.585910
O O15 0.000000 0.688295 0.549190
O O16 0.500000 0.314050 0.624466
O O17 0.742062 0.376467 0.581704
O O18 0.000000 0.512285 0.899764
O O19 0.764174 0.551869 0.969718
O O20 0.000000 0.565659 0.049491
#
# Coordination Sequence:
#
# PCOD9350724 Si02
#       8
#     8   8   8   8   8   8   8   8
#     4  10  19  33  55  77 103 142 186 225 261 321
#     4   8  14  29  54  78  96 125 177 226 260 306
#     4  10  18  33  58  80 102 140 184 222 260 318
#     4  11  21  32  50  81 115 141 172 225 283 325
#     4   9  18  34  55  80 107 140 181 223 271 322
#     4  11  22  34  52  80 116 146 174 221 277 326
#     4   9  17  32  55  81 104 135 182 229 267 318
#     4  10  19  33  57  81 103 137 184 227 261 314
#
# _framework density 17.752683000000001
#
# number of rings (size 3 to 8) (size 9 to 14) (size 15 to 20)
#    0.000    2.250    2.500    2.625    0.000    0.500 
#    0.000    2.500    0.000   10.500    0.000    0.000 
#    0.000    0.000    0.000    0.000    0.000    0.000 
#
# Total GULP energy -178511.636720 kJ/mol
# GULP energy per Si atom -5578.488648 kJ/mol
# Density = 1.771228 g / cm^3
# Si number density = 17.752683 Si / 1000 Ang^3
#
#
#
# Elastic Constant Matrix: (Units=GPa)
#
#
# Indices 1 2 3 4 5 6 
#
# 1 22.3672 23.7096 28.7963 0.0000 0.0000 0.0000
# 2 23.7096 112.6821 86.7882 0.0000 0.0000 0.0000
# 3 28.7963 86.7882 186.0887 0.0000 0.0000 0.0000
# 4 0.0000 0.0000 0.0000 28.1360 0.0000 0.0000
# 5 0.0000 0.0000 0.0000 0.0000 17.2319 0.0000
# 6 0.0000 0.0000 0.0000 0.0000 0.0000 15.4888
#
#
#
# Elastic Compliance Matrix: (Units=1/GPa)
#
#
# Indices 1 2 3 4 5 6 
#
# 1 0.060799 -0.008656 -0.005372 0.000000 0.000000 0.000000
# 2 -0.008656 0.015082 -0.005694 0.000000 0.000000 0.000000
# 3 -0.005372 -0.005694 0.008861 0.000000 0.000000 0.000000
# 4 0.000000 0.000000 0.000000 0.035542 0.000000 0.000000
# 5 0.000000 0.000000 0.000000 0.000000 0.058032 0.000000
# 6 0.000000 0.000000 0.000000 0.000000 0.000000 0.064563
#
#
# Mechanical properties :
#
#
# Convention : Reuss Voigt Hill
#
# Bulk Modulus (GPa) = 22.07588 66.63625 44.35606
# Shear Modulus (GPa) = 16.81123 24.29425 20.55274
#
# Velocity S-wave (km/s) = 3.08062 3.70332 3.40623
# Velocity P-wave (km/s) = 5.01158 7.47686 6.36472
#
# Compressibility (1/GPa) = 0.04529831
#
# Stress axis : x y z
#
# Youngs Moduli (GPa) = 16.44762 66.30607 112.85755
#
# Poissons Ratio (x) = 0.57392 0.60622
# Poissons Ratio (y) = 0.14237 0.64265
# Poissons Ratio (z) = 0.08835 0.37757
#
# Static dielectric constant tensor:
#      x y z
#    x 1.605170 0.000000 0.000000 
#    y 0.000000 1.578170 0.000000 
#    z 0.000000 0.000000 1.625870 
# 
# From -- ./inp_files/15819.got.cif
#   From: 2010.05.17/outbox.cif.g08.bks.cpg/sg36_8_cif.got.tgz:15819.got - 2010.06.03 17:41:39.
