data_PCOD9350411
_publ_section_title
;
Structure prediction by ZEFSAII (Michael W. Deem and Ramdas Pophale) SiO2 
 PCOD9350411
Probable space group: C M M 2
;
_chemical_formula_sum "Si O2"
_cell_formula_units_Z 56
_cell_length_a 19.588882
_cell_length_b 16.679089
_cell_length_c 9.420370
_cell_angle_alpha 90.000000
_cell_angle_beta 90.000000
_cell_angle_gamma 90.000000
_cell_volume 3077.867621
_symmetry_space_group_name_H-M "C M M 2"
_symmetry_group_IT_number 35
_symmetry_cell_setting 'orthorhombic'
loop_
_space_group_symop_operation_xyz
x,y,z
-x,-y,z
-x,y,z
x,-y,z
1/2+x,1/2+y,z
1/2-x,1/2-y,z
1/2-x,1/2+y,z
1/2+x,1/2-y,z
loop_
_atom_site_type_symbol
_atom_site_label
_atom_site_fract_x
_atom_site_fract_y
_atom_site_fract_z
Si Si1 0.920270 0.906703 0.189840
Si Si2 0.422788 0.686591 0.657551
Si Si3 0.194403 0.404411 0.587879
Si Si4 0.579030 0.233791 0.093271
Si Si5 0.423191 0.175785 0.416969
Si Si6 0.676053 0.787704 0.850450
Si Si7 0.335723 0.592594 0.468593
O O1 0.912215 0.830951 0.085895
O O2 0.869898 0.886548 0.319352
O O3 0.000000 0.903297 0.238062
O O4 0.908783 0.000000 0.143375
O O5 0.500000 0.678456 0.708718
O O6 0.422016 0.748566 0.524501
O O7 0.372078 0.722882 0.772186
O O8 0.391047 0.607257 0.590855
O O9 0.197965 0.500000 0.609552
O O10 0.133573 0.383006 0.479641
O O11 0.183394 0.359764 0.737649
O O12 0.264493 0.369574 0.518732
O O13 0.500000 0.216118 0.053904
O O14 0.588278 0.205586 0.256370
O O15 0.634051 0.192302 0.992142
O O16 0.500000 0.141556 0.423874
O O17 0.750000 0.750000 0.880240
O O18 0.320016 0.500000 0.454443
#
# Coordination Sequence:
#
# PCOD9350411 Si02
#       7
#     8   8   8   8   8   8   8
#     4   9  17  31  53  83 119 152 180 221 278 334
#     4  10  18  33  55  81 110 143 183 228 272 326
#     4  10  22  39  58  81 113 146 185 238 289 335
#     4  10  20  36  55  82 114 146 191 236 274 331
#     4   9  19  35  58  82 106 140 187 239 284 328
#     4  11  22  37  55  80 110 153 191 225 277 335
#     4  10  18  30  53  84 114 145 180 222 275 332
#
# _framework density 18.194413999999998
#
# number of rings (size 3 to 8) (size 9 to 14) (size 15 to 20)
#    0.000    2.143    2.857    0.857    0.000    2.857 
#    0.000    2.143    0.000    2.571    0.000    0.000 
#    0.000    0.000    0.000    0.000    0.000    0.000 
#
# Total GULP energy -155960.223991 kJ/mol
# GULP energy per Si atom -5570.008000 kJ/mol
# Density = 1.815300 g / cm^3
# Si number density = 18.194414 Si / 1000 Ang^3
#
#
#
# Elastic Constant Matrix: (Units=GPa)
#
#
# Indices 1 2 3 4 5 6 
#
# 1 124.6277 26.6360 54.0436 0.0000 0.0000 0.0000
# 2 26.6360 39.1504 14.9306 0.0000 0.0000 0.0000
# 3 54.0436 14.9306 76.3380 0.0000 0.0000 0.0000
# 4 0.0000 0.0000 0.0000 18.8428 0.0000 0.0000
# 5 0.0000 0.0000 0.0000 0.0000 34.5749 0.0000
# 6 0.0000 0.0000 0.0000 0.0000 0.0000 22.2407
#
#
#
# Elastic Compliance Matrix: (Units=1/GPa)
#
#
# Indices 1 2 3 4 5 6 
#
# 1 0.012619 -0.005596 -0.007839 0.000000 0.000000 0.000000
# 2 -0.005596 0.030083 -0.001922 0.000000 0.000000 0.000000
# 3 -0.007839 -0.001922 0.019026 0.000000 0.000000 0.000000
# 4 0.000000 0.000000 0.000000 0.053071 0.000000 0.000000
# 5 0.000000 0.000000 0.000000 0.000000 0.028923 0.000000
# 6 0.000000 0.000000 0.000000 0.000000 0.000000 0.044963
#
#
# Mechanical properties :
#
#
# Convention : Reuss Voigt Hill
#
# Bulk Modulus (GPa) = 32.24481 47.92628 40.08555
# Shear Modulus (GPa) = 21.76410 24.76540 23.26475
#
# Velocity S-wave (km/s) = 3.46236 3.69338 3.57974
# Velocity P-wave (km/s) = 5.80902 6.67731 6.25825
#
# Compressibility (1/GPa) = 0.03101274
#
# Stress axis : x y z
#
# Youngs Moduli (GPa) = 79.24314 33.24164 52.56102
#
# Poissons Ratio (x) = 0.18602 0.41205
# Poissons Ratio (y) = 0.44344 0.10103
# Poissons Ratio (z) = 0.62122 0.06389
#
# Static dielectric constant tensor:
#      x y z
#    x 1.650560 0.000000 0.000000 
#    y 0.000000 1.632780 0.000000 
#    z 0.000000 0.000000 1.633170 
# 
# From -- ./inp_files/9288.got.cif
#   From: 2010.05.17/outbox.cif.g08.bks.cpg/sg35_5_cif.got.tgz:9288.got - 2010.06.03 17:29:28.
