data_PCOD9350833
_publ_section_title
;
Structure prediction by ZEFSAII (Michael W. Deem and Ramdas Pophale) SiO2 
 PCOD9350833
Probable space group: C M C 21
;
_chemical_formula_sum "Si O2"
_cell_formula_units_Z 64
_cell_length_a 7.388441
_cell_length_b 29.287024
_cell_length_c 14.706653
_cell_angle_alpha 90.000000
_cell_angle_beta 90.000000
_cell_angle_gamma 90.000000
_cell_volume 3182.305711
_symmetry_space_group_name_H-M "C M C 21"
_symmetry_group_IT_number 36
_symmetry_cell_setting 'orthorhombic'
loop_
_space_group_symop_operation_xyz
x,y,z
-x,-y,1/2+z
x,-y,1/2+z
-x,y,z
1/2+x,1/2+y,z
1/2-x,1/2-y,1/2+z
1/2+x,1/2-y,1/2+z
1/2-x,1/2+y,z
loop_
_atom_site_type_symbol
_atom_site_label
_atom_site_fract_x
_atom_site_fract_y
_atom_site_fract_z
Si Si1 0.221948 0.049982 0.031830
Si Si2 0.779344 0.873040 0.181293
Si Si3 0.217631 0.875624 0.387896
Si Si4 0.208198 0.882485 0.685258
Si Si5 0.712744 0.805088 0.544292
Si Si6 0.779050 0.870658 0.888097
Si Si7 0.720163 0.445599 0.033694
Si Si8 0.779149 0.798354 0.035435
O O1 0.284980 0.077613 0.121141
O O2 0.000000 0.050489 0.032460
O O3 0.280928 0.997716 0.030166
O O4 0.278727 0.080036 0.944879
O O5 0.715768 0.873058 0.284866
O O6 0.724389 0.917537 0.123433
O O7 0.725233 0.828930 0.122172
O O8 0.000000 0.872945 0.182559
O O9 0.262190 0.831821 0.449543
O O10 0.000000 0.878122 0.383948
O O11 0.209497 0.837164 0.623353
O O12 0.286450 0.873745 0.784810
O O13 0.000000 0.895790 0.701205
O O14 0.500000 0.802576 0.563140
O O15 0.783949 0.753641 0.540033
O O16 0.000000 0.869178 0.887382
O O17 0.726412 0.914854 0.947367
O O18 0.721950 0.826234 0.945609
O O19 0.500000 0.446350 0.033976
O O20 0.000000 0.797617 0.034270
#
# Coordination Sequence:
#
# PCOD9350833 Si02
#       8
#     8   8   8   8   8   8   8   8
#     4   8  14  23  36  60  91 114 135 168 206 245
#     4   8  14  25  41  61  87 115 139 169 210 251
#     4   9  17  29  44  64  89 112 137 173 213 248
#     4   9  17  29  44  64  89 112 137 173 213 248
#     4  10  19  30  44  61  83 112 145 178 210 249
#     4   8  14  25  41  61  87 115 139 169 210 251
#     4   8  13  22  38  63  91 114 137 167 207 251
#     4   8  15  27  41  60  85 112 143 175 207 247
#
# _framework density 20.111204000000001
#
# number of rings (size 3 to 8) (size 9 to 14) (size 15 to 20)
#    0.000    3.500    0.000    2.625    0.000    2.000 
#    0.000    5.000    0.000    1.500    0.000   16.625 
#    0.000    0.000    0.000    0.000    0.000    0.000 
#
# Total GULP energy -178433.139134 kJ/mol
# GULP energy per Si atom -5576.035598 kJ/mol
# Density = 2.006543 g / cm^3
# Si number density = 20.111204 Si / 1000 Ang^3
#
#
#
# Elastic Constant Matrix: (Units=GPa)
#
#
# Indices 1 2 3 4 5 6 
#
# 1 66.5848 -5.7955 -3.7311 0.0000 0.0000 0.0000
# 2 -5.7955 196.6421 90.3189 0.0000 0.0000 0.0000
# 3 -3.7311 90.3189 184.0635 0.0000 0.0000 0.0000
# 4 0.0000 0.0000 0.0000 6.1583 0.0000 0.0000
# 5 0.0000 0.0000 0.0000 0.0000 -9.8332 0.0000
# 6 0.0000 0.0000 0.0000 0.0000 0.0000 8.2395
#
#
#
# Elastic Compliance Matrix: (Units=1/GPa)
#
#
# Indices 1 2 3 4 5 6 
#
# 1 0.015059 0.000392 0.000113 0.000000 0.000000 0.000000
# 2 0.000392 0.006575 -0.003218 0.000000 0.000000 0.000000
# 3 0.000113 -0.003218 0.007014 0.000000 0.000000 0.000000
# 4 0.000000 0.000000 0.000000 0.162384 0.000000 0.000000
# 5 0.000000 0.000000 0.000000 0.000000 -0.101697 0.000000
# 6 0.000000 0.000000 0.000000 0.000000 0.000000 0.121366
#
#
# Mechanical properties :
#
#
# Convention : Reuss Voigt Hill
#
# Bulk Modulus (GPa) = 43.06372 67.65276 55.35824
# Shear Modulus (GPa) = 22.33446 25.34614 23.84030
#
# Velocity S-wave (km/s) = 3.33610 3.55392 3.44673
# Velocity P-wave (km/s) = 6.02484 7.11005 6.58982
#
# Compressibility (1/GPa) = 0.02322140
#
# Stress axis : x y z
#
# Youngs Moduli (GPa) = 66.40594 152.08686 142.56233
#
# Poissons Ratio (x) = -0.05961 -0.01610
# Poissons Ratio (y) = -0.02603 0.45883
# Poissons Ratio (z) = -0.00750 0.48949
#
# Static dielectric constant tensor:
#      x y z
#    x 1.785390 0.000000 0.000000 
#    y 0.000000 1.675490 0.000000 
#    z 0.000000 0.000000 1.687290 
# 
# From -- ./inp_files/11213.got.cif
#   From: 2010.05.17/outbox.cif.g08.bks.cpg/sg36_6_cif.got.tgz:11213.got - 2010.06.03 17:41:39.
