data_PCOD9350026
_publ_section_title
;
Structure prediction by ZEFSAII (Michael W. Deem and Ramdas Pophale) SiO2 
 PCOD9350026
Probable space group: C M M 2
;
_chemical_formula_sum "Si O2"
_cell_formula_units_Z 58
_cell_length_a 15.039189
_cell_length_b 27.629866
_cell_length_c 7.818830
_cell_angle_alpha 90.000000
_cell_angle_beta 90.000000
_cell_angle_gamma 90.000000
_cell_volume 3248.964504
_symmetry_space_group_name_H-M "C M M 2"
_symmetry_group_IT_number 35
_symmetry_cell_setting 'orthorhombic'
loop_
_space_group_symop_operation_xyz
x,y,z
-x,-y,z
-x,y,z
x,-y,z
1/2+x,1/2+y,z
1/2-x,1/2-y,z
1/2-x,1/2+y,z
1/2+x,1/2-y,z
loop_
_atom_site_type_symbol
_atom_site_label
_atom_site_fract_x
_atom_site_fract_y
_atom_site_fract_z
Si Si1 0.000000 0.000000 0.596100
Si Si2 0.184031 0.946789 0.624959
Si Si3 0.895591 0.209318 0.841519
Si Si4 0.396906 0.180139 0.826729
Si Si5 0.896825 0.685081 0.412909
Si Si6 0.728917 0.377462 0.937853
Si Si7 0.235544 0.879090 0.315759
Si Si8 0.604609 0.704920 0.429781
O O1 0.920400 0.041492 0.599817
O O2 0.199575 0.914304 0.791178
O O3 0.221703 0.918581 0.462110
O O4 0.226740 0.000000 0.644676
O O5 0.874131 0.265053 0.884468
O O6 0.834399 0.169670 0.928396
O O7 0.883684 0.203922 0.635996
O O8 0.000000 0.201683 0.879045
O O9 0.500000 0.170933 0.870251
O O10 0.389963 0.180386 0.619565
O O11 0.327608 0.142204 0.899819
O O12 0.830795 0.646931 0.331049
O O13 0.871788 0.740660 0.371404
O O14 0.000000 0.678173 0.366336
O O15 0.722920 0.399265 0.126292
O O16 0.164440 0.836460 0.350357
O O17 0.500000 0.697631 0.394709
#
# Coordination Sequence:
#
# PCOD9350026 Si02
#       8
#     2   8   8   8   8   8   8   8
#     4   8  24  48  74  80 110 158 176 240 314 336
#     4  10  24  46  64  83 113 143 186 245 294 349
#     4   9  18  32  54  82 121 162 198 235 277 331
#     4   9  18  35  57  84 119 163 199 233 277 330
#     4   9  18  35  57  84 119 163 199 233 277 330
#     4  12  23  35  60  89 116 153 195 237 288 348
#     4  12  23  35  60  89 116 153 195 237 288 348
#     4   9  18  32  54  82 121 162 198 235 277 331
#
# _framework density 17.851842999999999
#
# number of rings (size 3 to 8) (size 9 to 14) (size 15 to 20)
#    0.414    1.655    2.759    2.483    1.931    6.069 
#    0.000    3.448    0.000    1.655    0.000    1.931 
#    0.000    0.000    0.000    0.000    0.000    0.000 
#
# Total GULP energy -161615.643989 kJ/mol
# GULP energy per Si atom -5572.953241 kJ/mol
# Density = 1.781121 g / cm^3
# Si number density = 17.851843 Si / 1000 Ang^3
#
#
#
# Elastic Constant Matrix: (Units=GPa)
#
#
# Indices 1 2 3 4 5 6 
#
# 1 34.3072 8.6022 -12.9149 0.0000 0.0000 0.0000
# 2 8.6022 38.5872 -14.0146 0.0000 0.0000 0.0000
# 3 -12.9149 -14.0146 17.9996 0.0000 0.0000 0.0000
# 4 0.0000 0.0000 0.0000 -6.6692 0.0000 0.0000
# 5 0.0000 0.0000 0.0000 0.0000 -124.8875 0.0000
# 6 0.0000 0.0000 0.0000 0.0000 0.0000 18.7929
#
#
#
# Elastic Compliance Matrix: (Units=1/GPa)
#
#
# Indices 1 2 3 4 5 6 
#
# 1 0.040057 0.002104 0.030380 0.000000 0.000000 0.000000
# 2 0.002104 0.036244 0.029729 0.000000 0.000000 0.000000
# 3 0.030380 0.029729 0.100502 0.000000 0.000000 0.000000
# 4 0.000000 0.000000 0.000000 -0.149943 0.000000 0.000000
# 5 0.000000 0.000000 0.000000 0.000000 -0.008007 0.000000
# 6 0.000000 0.000000 0.000000 0.000000 0.000000 0.053212
#
#
# Mechanical properties :
#
#
# Convention : Reuss Voigt Hill
#
# Bulk Modulus (GPa) = 3.31973 6.02657 4.67315
# Shear Modulus (GPa) = 104.06143 -15.27134 44.39505
#
# Velocity S-wave (km/s) = 7.64318 -2.92798 4.99225
# Velocity P-wave (km/s) = 8.93055 2.83682 5.98778
#
# Compressibility (1/GPa) = 0.30122964
#
# Stress axis : x y z
#
# Youngs Moduli (GPa) = 24.96422 27.59089 9.95001
#
# Poissons Ratio (x) = -0.05805 -0.30228
# Poissons Ratio (y) = -0.05252 -0.29581
# Poissons Ratio (z) = -0.75841 -0.82026
#
# Static dielectric constant tensor:
#      x y z
#    x 1.610780 0.000000 0.000000 
#    y 0.000000 1.585770 0.000000 
#    z 0.000000 0.000000 1.643580 
# 
# From -- ./inp_files/7950.got.cif
#   From: 2010.05.17/outbox.cif.g08.bks.cpg/sg35_4_cif.got.tgz:7950.got - 2010.06.03 17:29:28.
