data_PCOD9350105
_publ_section_title
;
Structure prediction by ZEFSAII (Michael W. Deem and Ramdas Pophale) SiO2 
 PCOD9350105
Probable space group: C M M 2
;
_chemical_formula_sum "Si O2"
_cell_formula_units_Z 48
_cell_length_a 18.653730
_cell_length_b 7.980000
_cell_length_c 17.865571
_cell_angle_alpha 90.000000
_cell_angle_beta 90.000000
_cell_angle_gamma 90.000000
_cell_volume 2659.411111
_symmetry_space_group_name_H-M "C M M 2"
_symmetry_group_IT_number 35
_symmetry_cell_setting 'orthorhombic'
loop_
_space_group_symop_operation_xyz
x,y,z
-x,-y,z
-x,y,z
x,-y,z
1/2+x,1/2+y,z
1/2-x,1/2-y,z
1/2-x,1/2+y,z
1/2+x,1/2-y,z
loop_
_atom_site_type_symbol
_atom_site_label
_atom_site_fract_x
_atom_site_fract_y
_atom_site_fract_z
Si Si1 0.912516 0.000000 0.987700
Si Si2 0.916073 0.202905 0.550464
Si Si3 0.587351 0.186696 0.715219
Si Si4 0.912562 0.693487 0.091865
Si Si5 0.912379 0.000000 0.815227
Si Si6 0.918908 0.298927 0.258233
Si Si7 0.167711 0.800746 0.404416
O O1 0.889610 0.000000 0.901432
O O2 0.889859 0.168283 0.031598
O O3 0.000000 0.000000 0.988378
O O4 0.890990 0.276506 0.629644
O O5 0.872367 0.264349 0.478660
O O6 0.000000 0.244780 0.540315
O O7 0.911413 0.000000 0.556015
O O8 0.500000 0.190914 0.715026
O O9 0.610984 0.334499 0.770236
O O10 0.609655 0.000000 0.737966
O O11 0.889657 0.500000 0.078226
O O12 0.891625 0.751075 0.175800
O O13 0.000000 0.690339 0.092563
O O14 0.000000 0.000000 0.814719
O O15 0.923309 0.500000 0.254518
O O16 0.870488 0.253534 0.328139
O O17 0.000000 0.232737 0.269086
O O18 0.250000 0.750000 0.404512
O O19 0.162605 0.000000 0.407886
#
# Coordination Sequence:
#
# PCOD9350105 Si02
#       7
#     4   8   8   8   4   8   8
#     4   9  16  24  40  63  93 133 161 194 250 297
#     4   9  17  32  51  69  93 128 172 215 250 296
#     4   9  16  26  43  65  90 126 165 201 243 292
#     4   8  15  27  42  64  93 125 164 205 241 289
#     4   9  16  26  38  61  99 129 157 202 246 293
#     4   9  18  33  52  72  97 131 171 215 254 297
#     4  11  23  35  49  71 102 137 166 212 258 302
#
# _framework density 18.049109999999999
#
# number of rings (size 3 to 8) (size 9 to 14) (size 15 to 20)
#    0.000    2.833    0.833    2.000    1.167    3.000 
#    0.000    5.000    0.000    0.000    0.000    0.000 
#    0.000    1.333    0.667    0.000    0.000    0.000 
#
# Total GULP energy -133762.926773 kJ/mol
# GULP energy per Si atom -5573.455282 kJ/mol
# Density = 1.800803 g / cm^3
# Si number density = 18.049110 Si / 1000 Ang^3
#
#
#
# Elastic Constant Matrix: (Units=GPa)
#
#
# Indices 1 2 3 4 5 6 
#
# 1 28.6476 18.5367 41.8550 0.0000 0.0000 0.0000
# 2 18.5367 97.8690 87.4790 0.0000 0.0000 0.0000
# 3 41.8550 87.4790 192.0826 0.0000 0.0000 0.0000
# 4 0.0000 0.0000 0.0000 6.3008 0.0000 0.0000
# 5 0.0000 0.0000 0.0000 0.0000 -3.7253 0.0000
# 6 0.0000 0.0000 0.0000 0.0000 0.0000 7.9212
#
#
#
# Elastic Compliance Matrix: (Units=1/GPa)
#
#
# Indices 1 2 3 4 5 6 
#
# 1 0.051223 0.000463 -0.011373 0.000000 0.000000 0.000000
# 2 0.000463 0.017237 -0.007951 0.000000 0.000000 0.000000
# 3 -0.011373 -0.007951 0.011305 0.000000 0.000000 0.000000
# 4 0.000000 0.000000 0.000000 0.158710 0.000000 0.000000
# 5 0.000000 0.000000 0.000000 0.000000 -0.268438 0.000000
# 6 0.000000 0.000000 0.000000 0.000000 0.000000 0.126243
#
#
# Mechanical properties :
#
#
# Convention : Reuss Voigt Hill
#
# Bulk Modulus (GPa) = 23.78429 68.26009 46.02219
# Shear Modulus (GPa) = 33.78027 13.48125 23.63076
#
# Velocity S-wave (km/s) = 4.33086 2.73595 3.62228
# Velocity P-wave (km/s) = 6.18180 6.91966 6.56111
#
# Compressibility (1/GPa) = 0.04204456
#
# Stress axis : x y z
#
# Youngs Moduli (GPa) = 19.52260 58.01487 88.45397
#
# Poissons Ratio (x) = -0.02689 1.00595
# Poissons Ratio (y) = -0.00905 0.70331
# Poissons Ratio (z) = 0.22202 0.46128
#
# Static dielectric constant tensor:
#      x y z
#    x 1.576250 0.000000 0.000000 
#    y 0.000000 1.638220 0.000000 
#    z 0.000000 0.000000 1.623610 
# 
# From -- ./inp_files/15242.got.cif
#   From: 2010.05.17/outbox.cif.g08.bks.cpg/sg35_8_cif.got.tgz:15242.got - 2010.06.03 17:29:28.
