data_PCOD9350820
_publ_section_title
;
Structure prediction by ZEFSAII (Michael W. Deem and Ramdas Pophale) SiO2 
 PCOD9350820
Probable space group: C M C 21
;
_chemical_formula_sum "Si O2"
_cell_formula_units_Z 64
_cell_length_a 9.441421
_cell_length_b 15.231699
_cell_length_c 20.714649
_cell_angle_alpha 90.000000
_cell_angle_beta 90.000000
_cell_angle_gamma 90.000000
_cell_volume 2978.950530
_symmetry_space_group_name_H-M "C M C 21"
_symmetry_group_IT_number 36
_symmetry_cell_setting 'orthorhombic'
loop_
_space_group_symop_operation_xyz
x,y,z
-x,-y,1/2+z
x,-y,1/2+z
-x,y,z
1/2+x,1/2+y,z
1/2-x,1/2-y,1/2+z
1/2+x,1/2-y,1/2+z
1/2-x,1/2+y,z
loop_
_atom_site_type_symbol
_atom_site_label
_atom_site_fract_x
_atom_site_fract_y
_atom_site_fract_z
Si Si1 0.661831 0.448714 0.553710
Si Si2 0.835460 0.051832 0.319126
Si Si3 0.336624 0.202751 0.487153
Si Si4 0.838197 0.500354 0.937168
Si Si5 0.835160 0.684120 0.728833
Si Si6 0.664251 0.755713 0.366978
Si Si7 0.661149 0.352712 0.106341
Si Si8 0.833459 0.112818 0.186509
O O1 0.500000 0.420325 0.540935
O O2 0.756118 0.444417 0.490605
O O3 0.655156 0.550400 0.575551
O O4 0.727222 0.401116 0.615887
O O5 0.742911 0.999179 0.369643
O O6 0.834746 0.153680 0.342990
O O7 0.776834 0.055822 0.246255
O O8 0.000000 0.023742 0.319349
O O9 0.500000 0.227196 0.496615
O O10 0.335898 0.101102 0.462319
O O11 0.261259 0.256967 0.430111
O O12 0.252217 0.203188 0.554702
O O13 0.000000 0.526784 0.930263
O O14 0.792103 0.687450 0.804214
O O15 0.736036 0.639499 0.675848
O O16 0.829652 0.786179 0.706616
O O17 0.000000 0.655789 0.724564
O O18 0.500000 0.775266 0.382161
O O19 0.500000 0.319992 0.112853
O O20 0.000000 0.088096 0.181060
#
# Coordination Sequence:
#
# PCOD9350820 Si02
#       8
#     8   8   8   8   8   8   8   8
#     4   9  17  30  47  66  89 118 151 184 217 257
#     4   8  13  24  43  64  84 108 142 184 224 259
#     4   9  16  26  42  63  87 115 148 186 222 259
#     4   9  16  25  39  63  91 115 143 181 223 263
#     4   9  17  30  48  68  91 118 147 182 223 266
#     4   8  14  25  42  64  87 110 140 182 228 266
#     4  10  19  29  44  67  94 121 148 182 222 264
#     4   8  15  29  49  69  87 113 151 187 217 256
#
# _framework density 21.484076999999999
#
# number of rings (size 3 to 8) (size 9 to 14) (size 15 to 20)
#    0.000    3.250    0.000    2.625    0.000    4.000 
#    0.000    3.125    0.000    1.500    0.000    7.000 
#    0.000    0.000    0.000    0.000    0.000    0.000 
#
# Total GULP energy -178576.234507 kJ/mol
# GULP energy per Si atom -5580.507328 kJ/mol
# Density = 2.143518 g / cm^3
# Si number density = 21.484077 Si / 1000 Ang^3
#
#
#
# Elastic Constant Matrix: (Units=GPa)
#
#
# Indices 1 2 3 4 5 6 
#
# 1 92.2781 42.6356 28.1831 0.0000 0.0000 0.0000
# 2 42.6356 19.6625 104.5974 0.0000 0.0000 0.0000
# 3 28.1831 104.5974 13.0479 0.0000 0.0000 0.0000
# 4 0.0000 0.0000 0.0000 30.4841 0.0000 0.0000
# 5 0.0000 0.0000 0.0000 0.0000 19.6283 0.0000
# 6 0.0000 0.0000 0.0000 0.0000 0.0000 -4.9032
#
#
#
# Elastic Compliance Matrix: (Units=1/GPa)
#
#
# Indices 1 2 3 4 5 6 
#
# 1 0.013806 -0.003090 -0.005047 0.000000 0.000000 0.000000
# 2 -0.003090 -0.000529 0.010920 0.000000 0.000000 0.000000
# 3 -0.005047 0.010920 0.000004 0.000000 0.000000 0.000000
# 4 0.000000 0.000000 0.000000 0.032804 0.000000 0.000000
# 5 0.000000 0.000000 0.000000 0.000000 0.050947 0.000000
# 6 0.000000 0.000000 0.000000 0.000000 0.000000 -0.203948
#
#
# Mechanical properties :
#
#
# Convention : Reuss Voigt Hill
#
# Bulk Modulus (GPa) = 53.06093 52.86896 52.96495
# Shear Modulus (GPa) = -47.08112 5.68000 -20.70056
#
# Velocity S-wave (km/s) = -4.68636 1.62775 -3.10745
# Velocity P-wave (km/s) = 2.12867 5.30986 3.43972
#
# Compressibility (1/GPa) = 0.01884626
#
# Stress axis : x y z
#
# Youngs Moduli (GPa) = 72.43235 -1888.66889 229162.07764
#
# Poissons Ratio (x) = -5.83675 1156.48965
# Poissons Ratio (y) = 0.22385 -2502.38075
# Poissons Ratio (z) = 0.36554 20.62369
#
# Static dielectric constant tensor:
#      x y z
#    x 1.726430 0.000000 0.000000 
#    y 0.000000 1.845160 0.000000 
#    z 0.000000 0.000000 1.782200 
# 
# From -- ./inp_files/14025.got.cif
#   From: 2010.05.17/outbox.cif.g08.bks.cpg/sg36_8_cif.got.tgz:14025.got - 2010.06.03 17:41:39.
