data_PCOD9350577
_publ_section_title
;
Structure prediction by ZEFSAII (Michael W. Deem and Ramdas Pophale) SiO2 
 PCOD9350577
Probable space group: C M C 21
;
_chemical_formula_sum "Si O2"
_cell_formula_units_Z 64
_cell_length_a 7.374306
_cell_length_b 23.558279
_cell_length_c 17.184398
_cell_angle_alpha 90.000000
_cell_angle_beta 90.000000
_cell_angle_gamma 90.000000
_cell_volume 2985.376008
_symmetry_space_group_name_H-M "C M C 21"
_symmetry_group_IT_number 36
_symmetry_cell_setting 'orthorhombic'
loop_
_space_group_symop_operation_xyz
x,y,z
-x,-y,1/2+z
x,-y,1/2+z
-x,y,z
1/2+x,1/2+y,z
1/2-x,1/2-y,1/2+z
1/2+x,1/2-y,1/2+z
1/2-x,1/2+y,z
loop_
_atom_site_type_symbol
_atom_site_label
_atom_site_fract_x
_atom_site_fract_y
_atom_site_fract_z
Si Si1 0.713790 0.646239 0.726350
Si Si2 0.702097 0.326216 0.934820
Si Si3 0.280417 0.723358 0.274132
Si Si4 0.783822 0.785943 0.496450
Si Si5 0.717452 0.362135 0.645188
Si Si6 0.277354 0.406927 0.063544
Si Si7 0.278631 0.463169 0.540614
Si Si8 0.778856 0.110375 0.892156
O O1 0.500000 0.634579 0.723999
O O2 0.731545 0.713788 0.743603
O O3 0.784168 0.624414 0.642878
O O4 0.783426 0.611898 0.802661
O O5 0.500000 0.345217 0.911058
O O6 0.784132 0.294882 0.859943
O O7 0.692402 0.274364 0.994988
O O8 0.787498 0.376088 0.984710
O O9 0.500000 0.724437 0.274449
O O10 0.216456 0.671377 0.220095
O O11 0.748412 0.818850 0.575198
O O12 0.725589 0.828582 0.428144
O O13 0.000000 0.777868 0.490688
O O14 0.500000 0.368270 0.654958
O O15 0.782615 0.421873 0.610791
O O16 0.500000 0.403922 0.062076
O O17 0.225574 0.472677 0.057824
O O18 0.500000 0.461172 0.539441
O O19 0.222358 0.436475 0.456629
O O20 0.000000 0.108870 0.891850
#
# Coordination Sequence:
#
# PCOD9350577 Si02
#       8
#     8   8   8   8   8   8   8   8
#     4  10  18  30  48  71  94 117 154 194 227 270
#     4  10  19  29  41  64  99 124 139 177 233 280
#     4  10  19  30  44  68  97 121 148 183 230 281
#     4   9  15  27  47  66  85 114 151 186 219 259
#     4   8  15  27  45  66  87 114 150 189 221 261
#     4   9  18  30  43  65  97 125 148 187 238 275
#     4   8  14  28  45  63  91 120 148 185 231 269
#     4   8  14  25  44  67  88 113 148 189 221 259
#
# _framework density 21.437835
#
# number of rings (size 3 to 8) (size 9 to 14) (size 15 to 20)
#    0.000    3.000    1.250    2.250    0.000    0.000 
#    2.250    0.000    0.000    0.000    0.000   10.500 
#    0.000    0.000    0.000    0.000    0.000    0.000 
#
# Total GULP energy -178312.772274 kJ/mol
# GULP energy per Si atom -5572.274134 kJ/mol
# Density = 2.138904 g / cm^3
# Si number density = 21.437835 Si / 1000 Ang^3
#
#
#
# Elastic Constant Matrix: (Units=GPa)
#
#
# Indices 1 2 3 4 5 6 
#
# 1 52.8007 2.2521 6.3622 0.0000 0.0000 0.0000
# 2 2.2521 158.0914 81.2579 0.0000 0.0000 0.0000
# 3 6.3622 81.2579 108.3333 0.0000 0.0000 0.0000
# 4 0.0000 0.0000 0.0000 25.8781 0.0000 0.0000
# 5 0.0000 0.0000 0.0000 0.0000 -3.9422 0.0000
# 6 0.0000 0.0000 0.0000 0.0000 0.0000 11.6466
#
#
#
# Elastic Compliance Matrix: (Units=1/GPa)
#
#
# Indices 1 2 3 4 5 6 
#
# 1 0.019098 0.000495 -0.001493 0.000000 0.000000 0.000000
# 2 0.000495 0.010307 -0.007760 0.000000 0.000000 0.000000
# 3 -0.001493 -0.007760 0.015139 0.000000 0.000000 0.000000
# 4 0.000000 0.000000 0.000000 0.038643 0.000000 0.000000
# 5 0.000000 0.000000 0.000000 0.000000 -0.253664 0.000000
# 6 0.000000 0.000000 0.000000 0.000000 0.000000 0.085862
#
#
# Mechanical properties :
#
#
# Convention : Reuss Voigt Hill
#
# Bulk Modulus (GPa) = 36.99822 55.44108 46.21965
# Shear Modulus (GPa) = -86.07285 22.00672 -32.03307
#
# Velocity S-wave (km/s) = -6.34327 3.20744 -3.86972
# Velocity P-wave (km/s) = 6.02940 6.29558 1.28075
#
# Compressibility (1/GPa) = 0.02702833
#
# Stress axis : x y z
#
# Youngs Moduli (GPa) = 52.36170 97.02095 66.05400
#
# Poissons Ratio (x) = -0.04807 0.09863
# Poissons Ratio (y) = -0.02594 0.51259
# Poissons Ratio (z) = 0.07819 0.75290
#
# Static dielectric constant tensor:
#      x y z
#    x 1.862060 0.000000 0.000000 
#    y 0.000000 1.740100 0.000000 
#    z 0.000000 0.000000 1.838070 
# 
# From -- ./inp_files/14004.got.cif
#   From: 2010.05.17/outbox.cif.g08.bks.cpg/sg36_8_cif.got.tgz:14004.got - 2010.06.03 17:41:39.
