data_PCOD9350932
_publ_section_title
;
Structure prediction by ZEFSAII (Michael W. Deem and Ramdas Pophale) SiO2 
 PCOD9350932
Probable space group: C M C 21
;
_chemical_formula_sum "Si O2"
_cell_formula_units_Z 64
_cell_length_a 7.280478
_cell_length_b 29.591298
_cell_length_c 13.140606
_cell_angle_alpha 90.000000
_cell_angle_beta 90.000000
_cell_angle_gamma 90.000000
_cell_volume 2830.996310
_symmetry_space_group_name_H-M "C M C 21"
_symmetry_group_IT_number 36
_symmetry_cell_setting 'orthorhombic'
loop_
_space_group_symop_operation_xyz
x,y,z
-x,-y,1/2+z
x,-y,1/2+z
-x,y,z
1/2+x,1/2+y,z
1/2-x,1/2-y,1/2+z
1/2+x,1/2-y,1/2+z
1/2-x,1/2+y,z
loop_
_atom_site_type_symbol
_atom_site_label
_atom_site_fract_x
_atom_site_fract_y
_atom_site_fract_z
Si Si1 0.275527 0.120246 0.439350
Si Si2 0.275918 0.169557 0.840974
Si Si3 0.789105 0.570879 0.135891
Si Si4 0.209713 0.668942 0.240552
Si Si5 0.275294 0.027387 0.336439
Si Si6 0.779232 0.316974 0.113568
Si Si7 0.214654 0.281149 0.546395
Si Si8 0.275857 0.929000 0.408233
O O1 0.500000 0.120325 0.434975
O O2 0.213124 0.155332 0.350777
O O3 0.219771 0.069321 0.409029
O O4 0.219570 0.139346 0.548707
O O5 0.500000 0.172097 0.841186
O O6 0.213769 0.186129 0.730017
O O7 0.221796 0.117123 0.853072
O O8 0.213961 0.197022 0.941565
O O9 0.793407 0.620727 0.183255
O O10 0.710242 0.539447 0.223192
O O11 0.000000 0.555735 0.122015
O O12 0.710062 0.573048 0.024407
O O13 0.293726 0.701502 0.154914
O O14 0.000000 0.684591 0.259721
O O15 0.500000 0.028234 0.336452
O O16 0.218328 0.977311 0.365643
O O17 0.728939 0.272490 0.050281
O O18 0.000000 0.318879 0.117895
O O19 0.000000 0.294882 0.549936
O O20 0.500000 0.928192 0.406808
#
# Coordination Sequence:
#
# PCOD9350932 Si02
#       8
#     8   8   8   8   8   8   8   8
#     4   8  15  27  40  59  89 121 149 182 228 273
#     4   9  18  31  44  64  93 122 151 190 240 281
#     4   8  12  20  32  50  76 107 148 188 215 253
#     4   8  13  24  42  58  75 107 152 191 215 254
#     4   8  14  21  34  57  83 118 158 183 211 271
#     4  10  21  33  46  67  99 127 148 189 246 282
#     4  10  19  32  50  67  86 121 165 195 221 274
#     4   9  14  22  37  56  83 119 151 180 224 276
#
# _framework density 22.606883
#
# number of rings (size 3 to 8) (size 9 to 14) (size 15 to 20)
#    0.000    3.250    1.250    1.500    1.750    1.000 
#    0.000    5.000    0.000    0.000    0.000    0.000 
#    0.000    2.000    0.000    0.375    0.000    0.000 
#
# Total GULP energy -178446.416033 kJ/mol
# GULP energy per Si atom -5576.450501 kJ/mol
# Density = 2.255543 g / cm^3
# Si number density = 22.606883 Si / 1000 Ang^3
#
#
#
# Elastic Constant Matrix: (Units=GPa)
#
#
# Indices 1 2 3 4 5 6 
#
# 1 95.6968 -5.7096 2.8941 0.0000 0.0000 0.0000
# 2 -5.7096 111.6194 64.8554 0.0000 0.0000 0.0000
# 3 2.8941 64.8554 109.3131 0.0000 0.0000 0.0000
# 4 0.0000 0.0000 0.0000 25.2133 0.0000 0.0000
# 5 0.0000 0.0000 0.0000 0.0000 -21.8170 0.0000
# 6 0.0000 0.0000 0.0000 0.0000 0.0000 -10.5005
#
#
#
# Elastic Compliance Matrix: (Units=1/GPa)
#
#
# Indices 1 2 3 4 5 6 
#
# 1 0.010541 0.001070 -0.000914 0.000000 0.000000 0.000000
# 2 0.001070 0.013781 -0.008205 0.000000 0.000000 0.000000
# 3 -0.000914 -0.008205 0.014040 0.000000 0.000000 0.000000
# 4 0.000000 0.000000 0.000000 0.039662 0.000000 0.000000
# 5 0.000000 0.000000 0.000000 0.000000 -0.045836 0.000000
# 6 0.000000 0.000000 0.000000 0.000000 0.000000 -0.095234
#
#
# Mechanical properties :
#
#
# Convention : Reuss Voigt Hill
#
# Bulk Modulus (GPa) = 44.91264 48.96769 46.94017
# Shear Modulus (GPa) = -126.49541 15.55178 -55.47182
#
# Velocity S-wave (km/s) = -7.48838 2.62567 -4.95892
# Velocity P-wave (km/s) = 7.40661 5.55875 3.46108
#
# Compressibility (1/GPa) = 0.02226545
#
# Stress axis : x y z
#
# Youngs Moduli (GPa) = 94.86606 72.56385 71.22504
#
# Poissons Ratio (x) = -0.07767 0.06511
# Poissons Ratio (y) = -0.10154 0.58437
# Poissons Ratio (z) = 0.08672 0.59536
#
# Static dielectric constant tensor:
#      x y z
#    x 2.010180 0.000000 0.000000 
#    y 0.000000 1.791010 0.000000 
#    z 0.000000 0.000000 1.847300 
# 
# From -- ./inp_files/8081.got.cif
#   From: 2010.05.17/outbox.cif.g08.bks.cpg/sg36_5_cif.got.tgz:8081.got - 2010.06.03 17:41:39.
