data_PCOD9350808
_publ_section_title
;
Structure prediction by ZEFSAII (Michael W. Deem and Ramdas Pophale) SiO2 
 PCOD9350808
Probable space group: C M C 21
;
_chemical_formula_sum "Si O2"
_cell_formula_units_Z 44
_cell_length_a 10.846693
_cell_length_b 11.202657
_cell_length_c 12.611335
_cell_angle_alpha 90.000000
_cell_angle_beta 90.000000
_cell_angle_gamma 90.000000
_cell_volume 1532.425780
_symmetry_space_group_name_H-M "C M C 21"
_symmetry_group_IT_number 36
_symmetry_cell_setting 'orthorhombic'
loop_
_space_group_symop_operation_xyz
x,y,z
-x,-y,1/2+z
x,-y,1/2+z
-x,y,z
1/2+x,1/2+y,z
1/2-x,1/2-y,1/2+z
1/2+x,1/2-y,1/2+z
1/2-x,1/2+y,z
loop_
_atom_site_type_symbol
_atom_site_label
_atom_site_fract_x
_atom_site_fract_y
_atom_site_fract_z
Si Si1 0.000000 0.755065 0.362100
Si Si2 0.500000 0.565753 0.693077
Si Si3 0.643530 0.072238 0.758132
Si Si4 0.500000 0.611766 0.042759
Si Si5 0.199189 0.170914 0.536797
Si Si6 0.720598 0.059544 0.001046
Si Si7 0.733847 0.332046 0.791669
O O1 0.000000 0.760179 0.489056
O O2 0.874979 0.700423 0.321284
O O3 0.000000 0.888335 0.310938
O O4 0.500000 0.424665 0.666316
O O5 0.608133 0.626322 0.626528
O O6 0.500000 0.046729 0.730840
O O7 0.742909 0.962251 0.738071
O O8 0.677009 0.213056 0.736752
O O9 0.656933 0.068921 0.887446
O O10 0.370583 0.561481 0.999002
O O11 0.309031 0.071219 0.547711
O O12 0.199287 0.312802 0.554008
O O13 0.171636 0.159051 0.409291
#
# Coordination Sequence:
#
# PCOD9350808 Si02
#       7
#     4   4   8   4   8   8   8
#     4  12  20  42  65  96 133 195 233 284 368 429
#     4  10  24  36  64  96 138 174 240 291 341 440
#     4  10  19  34  55  96 126 165 222 282 338 421
#     4  10  18  40  61  90 129 177 233 277 349 421
#     4   9  18  35  54  91 120 165 214 271 340 399
#     4   9  18  31  59  86 121 168 211 273 335 411
#     4  10  21  36  64  92 131 176 226 286 349 419
#
# _framework density 28.712648000000002
#
# number of rings (size 3 to 8) (size 9 to 14) (size 15 to 20)
#    0.000    2.182    4.545    0.000    5.091    0.000 
#    3.273    3.636    0.000    0.000    4.727    0.000 
#    0.000    0.000    0.000    0.000    0.000    0.000 
#
# Total GULP energy -122678.271660 kJ/mol
# GULP energy per Si atom -5576.285075 kJ/mol
# Density = 2.864730 g / cm^3
# Si number density = 28.712648 Si / 1000 Ang^3
#
#
#
# Elastic Constant Matrix: (Units=GPa)
#
#
# Indices 1 2 3 4 5 6 
#
# 1 116.2884 26.7960 15.6545 0.0000 0.0000 0.0000
# 2 26.7960 274.3346 69.0444 0.0000 0.0000 0.0000
# 3 15.6545 69.0444 81.3516 0.0000 0.0000 0.0000
# 4 0.0000 0.0000 0.0000 82.6402 0.0000 0.0000
# 5 0.0000 0.0000 0.0000 0.0000 33.9891 0.0000
# 6 0.0000 0.0000 0.0000 0.0000 0.0000 33.3504
#
#
#
# Elastic Compliance Matrix: (Units=1/GPa)
#
#
# Indices 1 2 3 4 5 6 
#
# 1 0.008894 -0.000557 -0.001239 0.000000 0.000000 0.000000
# 2 -0.000557 0.004670 -0.003856 0.000000 0.000000 0.000000
# 3 -0.001239 -0.003856 0.015804 0.000000 0.000000 0.000000
# 4 0.000000 0.000000 0.000000 0.012101 0.000000 0.000000
# 5 0.000000 0.000000 0.000000 0.000000 0.029421 0.000000
# 6 0.000000 0.000000 0.000000 0.000000 0.000000 0.029985
#
#
# Mechanical properties :
#
#
# Convention : Reuss Voigt Hill
#
# Bulk Modulus (GPa) = 55.35941 77.21827 66.28884
# Shear Modulus (GPa) = 42.30095 54.02794 48.16444
#
# Velocity S-wave (km/s) = 3.84246 4.34254 4.10013
# Velocity P-wave (km/s) = 6.24567 7.21771 6.74921
#
# Compressibility (1/GPa) = 0.01806378
#
# Stress axis : x y z
#
# Youngs Moduli (GPa) = 112.42999 214.12422 63.27609
#
# Poissons Ratio (x) = 0.11926 0.07839
# Poissons Ratio (y) = 0.06262 0.24402
# Poissons Ratio (z) = 0.13928 0.82577
#
# Static dielectric constant tensor:
#      x y z
#    x 2.400880 0.000000 0.000000 
#    y 0.000000 2.409420 0.000000 
#    z 0.000000 0.000000 2.370060 
# 
# From -- ./inp_files/14217.got.cif
#   From: 2010.05.17/outbox.cif.g08.bks.cpg/sg36_8_cif.got.tgz:14217.got - 2010.06.03 17:41:39.
