data_PCOD9350884
_publ_section_title
;
Structure prediction by ZEFSAII (Michael W. Deem and Ramdas Pophale) SiO2 
 PCOD9350884
Probable space group: C M C 21
;
_chemical_formula_sum "Si O2"
_cell_formula_units_Z 48
_cell_length_a 7.528265
_cell_length_b 20.060793
_cell_length_c 11.951617
_cell_angle_alpha 90.000000
_cell_angle_beta 90.000000
_cell_angle_gamma 90.000000
_cell_volume 1804.968646
_symmetry_space_group_name_H-M "C M C 21"
_symmetry_group_IT_number 36
_symmetry_cell_setting 'orthorhombic'
loop_
_space_group_symop_operation_xyz
x,y,z
-x,-y,1/2+z
x,-y,1/2+z
-x,y,z
1/2+x,1/2+y,z
1/2-x,1/2-y,1/2+z
1/2+x,1/2-y,1/2+z
1/2-x,1/2+y,z
loop_
_atom_site_type_symbol
_atom_site_label
_atom_site_fract_x
_atom_site_fract_y
_atom_site_fract_z
Si Si1 0.796932 0.289168 0.100240
Si Si2 0.697946 0.682903 0.833900
Si Si3 0.215078 0.002445 0.557980
Si Si4 0.215212 0.141543 0.134884
Si Si5 0.700919 0.332376 0.875469
Si Si6 0.282347 0.464841 0.316814
O O1 0.682243 0.316034 0.200004
O O2 0.737281 0.212393 0.080874
O O3 0.000000 0.285959 0.137994
O O4 0.788729 0.337560 0.995146
O O5 0.500000 0.688241 0.885661
O O6 0.796729 0.751881 0.857227
O O7 0.772930 0.609960 0.852838
O O8 0.264835 0.924967 0.574350
O O9 0.267938 0.012775 0.424427
O O10 0.000000 0.011072 0.558275
O O11 0.272832 0.027635 0.684592
O O12 0.283436 0.140472 0.262257
O O13 0.000000 0.140414 0.143299
O O14 0.500000 0.356141 0.885297
O O15 0.500000 0.466743 0.314748
#
# Coordination Sequence:
#
# PCOD9350884 Si02
#       6
#     8   8   8   8   8   8
#     4  10  19  32  50  75 104 137 172 215 267 322
#     4  10  19  32  49  74 105 138 173 214 263 325
#     4   9  16  29  46  70 102 136 171 219 273 318
#     4   8  16  29  46  68  99 131 165 209 263 318
#     4  10  19  31  49  76 103 135 174 216 265 321
#     4   9  18  29  47  73 103 137 177 221 271 320
#
# _framework density 26.593261999999999
#
# number of rings (size 3 to 8) (size 9 to 14) (size 15 to 20)
#    0.000    2.667    0.000    3.500    0.000    4.000 
#    0.000    5.000    0.000    0.000    0.000   30.333 
#    0.000    0.000    0.000    0.000    0.000    0.000 
#
# Total GULP energy -133782.964343 kJ/mol
# GULP energy per Si atom -5574.290181 kJ/mol
# Density = 2.653273 g / cm^3
# Si number density = 26.593262 Si / 1000 Ang^3
#
#
#
# Elastic Constant Matrix: (Units=GPa)
#
#
# Indices 1 2 3 4 5 6 
#
# 1 65.1219 -9.1470 2.1578 0.0000 0.0000 0.0000
# 2 -9.1470 60.4065 -3.8403 0.0000 0.0000 0.0000
# 3 2.1578 -3.8403 163.3476 0.0000 0.0000 0.0000
# 4 0.0000 0.0000 0.0000 29.5977 0.0000 0.0000
# 5 0.0000 0.0000 0.0000 0.0000 17.4716 0.0000
# 6 0.0000 0.0000 0.0000 0.0000 0.0000 3.8712
#
#
#
# Elastic Compliance Matrix: (Units=1/GPa)
#
#
# Indices 1 2 3 4 5 6 
#
# 1 0.015693 0.002367 -0.000152 0.000000 0.000000 0.000000
# 2 0.002367 0.016936 0.000367 0.000000 0.000000 0.000000
# 3 -0.000152 0.000367 0.006133 0.000000 0.000000 0.000000
# 4 0.000000 0.000000 0.000000 0.033786 0.000000 0.000000
# 5 0.000000 0.000000 0.000000 0.000000 0.057236 0.000000
# 6 0.000000 0.000000 0.000000 0.000000 0.000000 0.258320
#
#
# Mechanical properties :
#
#
# Convention : Reuss Voigt Hill
#
# Bulk Modulus (GPa) = 22.76560 29.69076 26.22818
# Shear Modulus (GPa) = 12.57600 30.16845 21.37223
#
# Velocity S-wave (km/s) = 2.17699 3.37180 2.83798
# Velocity P-wave (km/s) = 3.85983 5.13300 4.54126
#
# Compressibility (1/GPa) = 0.04392591
#
# Stress axis : x y z
#
# Youngs Moduli (GPa) = 63.72159 59.04511 163.06446
#
# Poissons Ratio (x) = -0.13974 0.02473
# Poissons Ratio (y) = -0.15081 -0.05983
# Poissons Ratio (z) = 0.00966 -0.02166
#
# Static dielectric constant tensor:
#      x y z
#    x 1.985150 0.000000 0.000000 
#    y 0.000000 2.108190 0.000000 
#    z 0.000000 0.000000 2.195690 
# 
# From -- ./inp_files/6744.got.cif
#   From: 2010.05.17/outbox.cif.g08.bks.cpg/sg36_4_cif.got.tgz:6744.got - 2010.06.03 17:41:39.
