data_PCOD9350285
_publ_section_title
;
Structure prediction by ZEFSAII (Michael W. Deem and Ramdas Pophale) SiO2 
 PCOD9350285
Probable space group: C M M 2
;
_chemical_formula_sum "Si O2"
_cell_formula_units_Z 64
_cell_length_a 18.046049
_cell_length_b 16.870513
_cell_length_c 11.979438
_cell_angle_alpha 90.000000
_cell_angle_beta 90.000000
_cell_angle_gamma 90.000000
_cell_volume 3647.093230
_symmetry_space_group_name_H-M "C M M 2"
_symmetry_group_IT_number 35
_symmetry_cell_setting 'orthorhombic'
loop_
_space_group_symop_operation_xyz
x,y,z
-x,-y,z
-x,y,z
x,-y,z
1/2+x,1/2+y,z
1/2-x,1/2-y,z
1/2-x,1/2+y,z
1/2+x,1/2-y,z
loop_
_atom_site_type_symbol
_atom_site_label
_atom_site_fract_x
_atom_site_fract_y
_atom_site_fract_z
Si Si1 0.581999 0.904661 0.933550
Si Si2 0.684953 0.185971 0.477926
Si Si3 0.269511 0.095649 0.056429
Si Si4 0.587432 0.342111 0.683824
Si Si5 0.289796 0.408795 0.824327
Si Si6 0.587094 0.328443 0.424083
Si Si7 0.149894 0.334414 0.717070
Si Si8 0.719346 0.405226 0.298950
O O1 0.500000 0.876679 0.966767
O O2 0.598789 0.879513 0.806171
O O3 0.582651 0.000000 0.938529
O O4 0.650115 0.876109 0.011351
O O5 0.750000 0.250000 0.510891
O O6 0.618895 0.238976 0.428039
O O7 0.655934 0.141272 0.587547
O O8 0.722663 0.129848 0.387869
O O9 0.242323 0.124979 0.175991
O O10 0.274865 0.000000 0.066458
O O11 0.212541 0.111486 0.955286
O O12 0.500000 0.342527 0.704116
O O13 0.632515 0.400341 0.763199
O O14 0.599086 0.358852 0.551932
O O15 0.620694 0.255283 0.710047
O O16 0.262640 0.500000 0.813886
O O17 0.231712 0.350493 0.765040
O O18 0.500000 0.331860 0.400176
O O19 0.638887 0.375751 0.339083
O O20 0.720925 0.500000 0.300143
#
# Coordination Sequence:
#
# PCOD9350285 Si02
#       8
#     8   8   8   8   8   8   8   8
#     4   9  17  30  50  74 100 131 165 203 247 296
#     4   9  18  32  50  71  98 134 167 197 244 300
#     4   8  17  33  50  70  98 132 167 203 248 296
#     4  10  20  33  50  73 103 136 165 199 248 303
#     4  10  19  32  51  73  99 131 165 204 249 295
#     4   9  19  35  52  71 100 136 166 198 249 305
#     4  10  17  30  50  74 100 126 160 200 244 295
#     4  10  19  33  54  76  97 126 171 217 247 283
#
# _framework density 17.548221000000002
#
# number of rings (size 3 to 8) (size 9 to 14) (size 15 to 20)
#    0.000    2.625    0.000    4.125    0.000    3.500 
#    0.000   10.000    0.000    3.375    0.000    0.000 
#    0.000    0.000    0.000    0.000    0.000    0.000 
#
# Total GULP energy -178246.607343 kJ/mol
# GULP energy per Si atom -5570.206479 kJ/mol
# Density = 1.750828 g / cm^3
# Si number density = 17.548221 Si / 1000 Ang^3
#
#
#
# Elastic Constant Matrix: (Units=GPa)
#
#
# Indices 1 2 3 4 5 6 
#
# 1 122.0074 26.5782 80.0430 0.0000 0.0000 0.0000
# 2 26.5782 22.5861 38.2519 0.0000 0.0000 0.0000
# 3 80.0430 38.2519 119.7971 0.0000 0.0000 0.0000
# 4 0.0000 0.0000 0.0000 36.8762 0.0000 0.0000
# 5 0.0000 0.0000 0.0000 0.0000 21.1782 0.0000
# 6 0.0000 0.0000 0.0000 0.0000 0.0000 21.7972
#
#
#
# Elastic Compliance Matrix: (Units=1/GPa)
#
#
# Indices 1 2 3 4 5 6 
#
# 1 0.014614 -0.001437 -0.009306 0.000000 0.000000 0.000000
# 2 -0.001437 0.096554 -0.029870 0.000000 0.000000 0.000000
# 3 -0.009306 -0.029870 0.024103 0.000000 0.000000 0.000000
# 4 0.000000 0.000000 0.000000 0.027118 0.000000 0.000000
# 5 0.000000 0.000000 0.000000 0.000000 0.047218 0.000000
# 6 0.000000 0.000000 0.000000 0.000000 0.000000 0.045878
#
#
# Mechanical properties :
#
#
# Convention : Reuss Voigt Hill
#
# Bulk Modulus (GPa) = 18.50297 61.57078 40.03687
# Shear Modulus (GPa) = 14.09538 23.93815 19.01677
#
# Velocity S-wave (km/s) = 2.83722 3.69743 3.29551
# Velocity P-wave (km/s) = 4.61520 7.30690 6.11109
#
# Compressibility (1/GPa) = 0.05404538
#
# Stress axis : x y z
#
# Youngs Moduli (GPa) = 68.42588 10.35687 41.48899
#
# Poissons Ratio (x) = 0.01489 0.38609
# Poissons Ratio (y) = 0.09834 1.23928
# Poissons Ratio (z) = 0.63675 0.30936
#
# Static dielectric constant tensor:
#      x y z
#    x 1.609680 0.000000 0.000000 
#    y 0.000000 1.607370 0.000000 
#    z 0.000000 0.000000 1.606890 
# 
# From -- ./inp_files/13211.got.cif
#   From: 2010.05.17/outbox.cif.g08.bks.cpg/sg35_7_cif.got.tgz:13211.got - 2010.06.03 17:29:28.
