data_PCOD9350916
_publ_section_title
;
Structure prediction by ZEFSAII (Michael W. Deem and Ramdas Pophale) SiO2 
 PCOD9350916
Probable space group: C M C 21
;
_chemical_formula_sum "Si O2"
_cell_formula_units_Z 56
_cell_length_a 23.915567
_cell_length_b 19.733215
_cell_length_c 5.404908
_cell_angle_alpha 90.000000
_cell_angle_beta 90.000000
_cell_angle_gamma 90.000000
_cell_volume 2550.743775
_symmetry_space_group_name_H-M "C M C 21"
_symmetry_group_IT_number 36
_symmetry_cell_setting 'orthorhombic'
loop_
_space_group_symop_operation_xyz
x,y,z
-x,-y,1/2+z
x,-y,1/2+z
-x,y,z
1/2+x,1/2+y,z
1/2-x,1/2-y,1/2+z
1/2+x,1/2-y,1/2+z
1/2-x,1/2+y,z
loop_
_atom_site_type_symbol
_atom_site_label
_atom_site_fract_x
_atom_site_fract_y
_atom_site_fract_z
Si Si1 0.435902 0.044213 0.551300
Si Si2 0.372770 0.712755 0.949836
Si Si3 0.350865 0.847762 0.242558
Si Si4 0.061575 0.846092 0.832570
Si Si5 0.067372 0.964658 0.169948
Si Si6 0.439208 0.204549 0.082894
Si Si7 0.758319 0.792418 0.210874
O O1 0.500000 0.071889 0.562782
O O2 0.388002 0.100884 0.581562
O O3 0.430336 0.004522 0.291952
O O4 0.349242 0.773078 0.122324
O O5 0.393719 0.651668 0.117367
O O6 0.424031 0.753081 0.824619
O O7 0.323584 0.693031 0.763965
O O8 0.387233 0.840923 0.494588
O O9 0.283927 0.856168 0.255515
O O10 0.076857 0.888017 0.076192
O O11 0.057008 0.766643 0.890843
O O12 0.000000 0.870248 0.750068
O O13 0.000000 0.970476 0.186092
O O14 0.087757 0.008281 0.932951
O O15 0.500000 0.170254 0.094877
O O16 0.743927 0.739389 0.435083
#
# Coordination Sequence:
#
# PCOD9350916 Si02
#       7
#     8   8   8   8   8   8   8
#     4  10  23  40  60  87 119 156 202 253 302 360
#     4  10  20  33  54  83 117 149 184 237 292 354
#     4  10  21  37  57  83 114 154 197 240 296 358
#     4   9  19  32  48  76 110 144 180 229 287 343
#     4   9  18  31  48  69  95 136 183 219 256 315
#     4  10  19  31  52  83 116 145 179 229 295 358
#     4  10  20  36  57  83 113 144 190 231 274 342
#
# _framework density 21.954381000000001
#
# number of rings (size 3 to 8) (size 9 to 14) (size 15 to 20)
#    0.000    2.286    1.429    0.857    4.000    1.714 
#    0.000    0.000    0.000    1.714    0.000    0.000 
#    0.000    0.000    0.000    0.000    0.000    0.000 
#
# Total GULP energy -156017.111248 kJ/mol
# GULP energy per Si atom -5572.039687 kJ/mol
# Density = 2.190441 g / cm^3
# Si number density = 21.954381 Si / 1000 Ang^3
#
#
#
# Elastic Constant Matrix: (Units=GPa)
#
#
# Indices 1 2 3 4 5 6 
#
# 1 90.8247 25.0715 14.7582 0.0000 0.0000 0.0000
# 2 25.0715 55.0447 21.9001 0.0000 0.0000 0.0000
# 3 14.7582 21.9001 98.1960 0.0000 0.0000 0.0000
# 4 0.0000 0.0000 0.0000 38.5169 0.0000 0.0000
# 5 0.0000 0.0000 0.0000 0.0000 26.8052 0.0000
# 6 0.0000 0.0000 0.0000 0.0000 0.0000 18.5438
#
#
#
# Elastic Compliance Matrix: (Units=1/GPa)
#
#
# Indices 1 2 3 4 5 6 
#
# 1 0.012634 -0.005486 -0.000675 0.000000 0.000000 0.000000
# 2 -0.005486 0.022318 -0.004153 0.000000 0.000000 0.000000
# 3 -0.000675 -0.004153 0.011211 0.000000 0.000000 0.000000
# 4 0.000000 0.000000 0.000000 0.025963 0.000000 0.000000
# 5 0.000000 0.000000 0.000000 0.000000 0.037306 0.000000
# 6 0.000000 0.000000 0.000000 0.000000 0.000000 0.053926
#
#
# Mechanical properties :
#
#
# Convention : Reuss Voigt Hill
#
# Bulk Modulus (GPa) = 39.16147 40.83611 39.99879
# Shear Modulus (GPa) = 25.97411 28.92888 27.45150
#
# Velocity S-wave (km/s) = 3.44335 3.63393 3.53992
# Velocity P-wave (km/s) = 5.80390 6.02063 5.91326
#
# Compressibility (1/GPa) = 0.02553531
#
# Stress axis : x y z
#
# Youngs Moduli (GPa) = 79.14963 44.80678 89.19472
#
# Poissons Ratio (x) = 0.24581 0.06024
# Poissons Ratio (y) = 0.43421 0.37042
# Poissons Ratio (z) = 0.05345 0.18608
#
# Static dielectric constant tensor:
#      x y z
#    x 1.952790 0.000000 0.000000 
#    y 0.000000 1.856360 0.000000 
#    z 0.000000 0.000000 1.865860 
# 
# From -- ./inp_files/1602.got.cif
#   From: 2010.05.17/outbox.cif.g08.bks.cpg/sg36_1_cif.got.tgz:1602.got - 2010.06.03 17:41:39.
