data_PCOD9350357
_publ_section_title
;
Structure prediction by ZEFSAII (Michael W. Deem and Ramdas Pophale) SiO2 
 PCOD9350357
Probable space group: C M M 2
;
_chemical_formula_sum "Si O2"
_cell_formula_units_Z 56
_cell_length_a 7.848592
_cell_length_b 22.763960
_cell_length_c 15.155678
_cell_angle_alpha 90.000000
_cell_angle_beta 90.000000
_cell_angle_gamma 90.000000
_cell_volume 2707.789730
_symmetry_space_group_name_H-M "C M M 2"
_symmetry_group_IT_number 35
_symmetry_cell_setting 'orthorhombic'
loop_
_space_group_symop_operation_xyz
x,y,z
-x,-y,z
-x,y,z
x,-y,z
1/2+x,1/2+y,z
1/2-x,1/2-y,z
1/2-x,1/2+y,z
1/2+x,1/2-y,z
loop_
_atom_site_type_symbol
_atom_site_label
_atom_site_fract_x
_atom_site_fract_y
_atom_site_fract_z
Si Si1 0.708763 0.127320 0.219380
Si Si2 0.207589 0.500000 0.192822
Si Si3 0.707861 0.000000 0.987332
Si Si4 0.795288 0.615039 0.880078
Si Si5 0.203840 0.065119 0.702009
Si Si6 0.205405 0.933377 0.500560
Si Si7 0.201885 0.684501 0.393359
Si Si8 0.795670 0.684251 0.040815
O O1 0.500000 0.128538 0.219012
O O2 0.762437 0.060416 0.237885
O O3 0.770123 0.171782 0.294354
O O4 0.765922 0.143860 0.121071
O O5 0.260454 0.500000 0.089642
O O6 0.000000 0.500000 0.192705
O O7 0.500000 0.000000 0.989233
O O8 0.762798 0.943081 0.932908
O O9 0.744851 0.610855 0.778568
O O10 0.000000 0.615042 0.880274
O O11 0.732483 0.666907 0.943587
O O12 0.264472 0.075548 0.602327
O O13 0.000000 0.062309 0.696933
O O14 0.267713 0.000000 0.729536
O O15 0.253271 0.874667 0.447442
O O16 0.000000 0.935750 0.499952
O O17 0.264020 0.000000 0.472897
O O18 0.250000 0.750000 0.425433
O O19 0.000000 0.685394 0.388503
O O20 0.750000 0.750000 0.063066
O O21 0.000000 0.677889 0.039277
#
# Coordination Sequence:
#
# PCOD9350357 Si02
#       8
#     8   4   4   8   8   8   8   8
#     4   9  18  31  51  79 110 142 178 222 271 326
#     4   9  14  26  48  76 109 140 174 221 271 316
#     4   9  14  24  45  74 103 132 166 211 259 298
#     4  10  18  29  50  78 105 136 177 218 256 304
#     4   9  18  33  54  80 109 140 171 209 270 336
#     4   9  20  40  62  84 114 149 183 229 291 348
#     4  11  23  38  59  86 113 147 192 237 283 337
#     4  10  20  34  50  72 103 144 186 220 261 313
#
# _framework density 20.681073000000001
#
# number of rings (size 3 to 8) (size 9 to 14) (size 15 to 20)
#    0.000    2.429    2.143    1.714    1.000    1.429 
#    0.000    2.857    0.000    1.714    0.000    0.000 
#    0.000    0.000    0.000    0.000    0.000    0.000 
#
# Total GULP energy -156068.186032 kJ/mol
# GULP energy per Si atom -5573.863787 kJ/mol
# Density = 2.063400 g / cm^3
# Si number density = 20.681073 Si / 1000 Ang^3
#
#
#
# Elastic Constant Matrix: (Units=GPa)
#
#
# Indices 1 2 3 4 5 6 
#
# 1 25.3044 9.1285 9.3373 0.0000 0.0000 0.0000
# 2 9.1285 131.9217 50.9974 0.0000 0.0000 0.0000
# 3 9.3373 50.9974 92.5779 0.0000 0.0000 0.0000
# 4 0.0000 0.0000 0.0000 26.3849 0.0000 0.0000
# 5 0.0000 0.0000 0.0000 0.0000 46.2355 0.0000
# 6 0.0000 0.0000 0.0000 0.0000 0.0000 20.5210
#
#
#
# Elastic Compliance Matrix: (Units=1/GPa)
#
#
# Indices 1 2 3 4 5 6 
#
# 1 0.041306 -0.001585 -0.003293 0.000000 0.000000 0.000000
# 2 -0.001585 0.009692 -0.005179 0.000000 0.000000 0.000000
# 3 -0.003293 -0.005179 0.013987 0.000000 0.000000 0.000000
# 4 0.000000 0.000000 0.000000 0.037900 0.000000 0.000000
# 5 0.000000 0.000000 0.000000 0.000000 0.021628 0.000000
# 6 0.000000 0.000000 0.000000 0.000000 0.000000 0.048730
#
#
# Mechanical properties :
#
#
# Convention : Reuss Voigt Hill
#
# Bulk Modulus (GPa) = 22.28648 43.19228 32.73938
# Shear Modulus (GPa) = 24.00212 30.65100 27.32656
#
# Velocity S-wave (km/s) = 3.41043 3.85396 3.63896
# Velocity P-wave (km/s) = 5.12910 6.38234 5.78973
#
# Compressibility (1/GPa) = 0.04487026
#
# Stress axis : x y z
#
# Youngs Moduli (GPa) = 24.20971 103.17743 71.49620
#
# Poissons Ratio (x) = 0.16357 0.23542
# Poissons Ratio (y) = 0.03838 0.37028
# Poissons Ratio (z) = 0.07972 0.53436
#
# Static dielectric constant tensor:
#      x y z
#    x 1.703760 0.000000 0.000000 
#    y 0.000000 1.750960 0.000000 
#    z 0.000000 0.000000 1.754510 
# 
# From -- ./inp_files/15770.got.cif
#   From: 2010.05.17/outbox.cif.g08.bks.cpg/sg35_8_cif.got.tgz:15770.got - 2010.06.03 17:29:28.
