data_PCOD9350797
_publ_section_title
;
Structure prediction by ZEFSAII (Michael W. Deem and Ramdas Pophale) SiO2 
 PCOD9350797
Probable space group: C M C 21
;
_chemical_formula_sum "Si O2"
_cell_formula_units_Z 64
_cell_length_a 23.040274
_cell_length_b 14.919647
_cell_length_c 8.116884
_cell_angle_alpha 90.000000
_cell_angle_beta 90.000000
_cell_angle_gamma 90.000000
_cell_volume 2790.201236
_symmetry_space_group_name_H-M "C M C 21"
_symmetry_group_IT_number 36
_symmetry_cell_setting 'orthorhombic'
loop_
_space_group_symop_operation_xyz
x,y,z
-x,-y,1/2+z
x,-y,1/2+z
-x,y,z
1/2+x,1/2+y,z
1/2-x,1/2-y,1/2+z
1/2+x,1/2-y,1/2+z
1/2-x,1/2+y,z
loop_
_atom_site_type_symbol
_atom_site_label
_atom_site_fract_x
_atom_site_fract_y
_atom_site_fract_z
Si Si1 0.743188 0.259713 0.558620
Si Si2 0.270922 0.389925 0.862560
Si Si3 0.647814 0.959584 0.800425
Si Si4 0.564191 0.730980 0.328293
Si Si5 0.389805 0.449458 0.709062
Si Si6 0.846098 0.365060 0.450669
Si Si7 0.568547 0.618453 0.862616
Si Si8 0.609888 0.791237 0.978450
O O1 0.743016 0.308734 0.734430
O O2 0.775705 0.164089 0.534298
O O3 0.779902 0.331314 0.451201
O O4 0.676630 0.237808 0.515212
O O5 0.214255 0.450940 0.863925
O O6 0.325955 0.439572 0.787036
O O7 0.644561 0.918753 0.619281
O O8 0.610597 0.892394 0.913864
O O9 0.635820 0.064527 0.810633
O O10 0.500000 0.751143 0.388416
O O11 0.573399 0.624631 0.310021
O O12 0.613616 0.778513 0.433953
O O13 0.573758 0.770227 0.143176
O O14 0.395402 0.416748 0.521600
O O15 0.414510 0.548773 0.722372
O O16 0.500000 0.612535 0.896833
O O17 0.586191 0.721547 0.842439
#
# Coordination Sequence:
#
# PCOD9350797 Si02
#       8
#     8   8   8   8   8   8   8   8
#     4  10  18  37  60  90 125 158 204 255 310 376
#     4  10  20  36  60  94 122 164 198 254 317 376
#     4  10  24  37  63  90 131 159 202 260 319 376
#     4  11  22  42  68  89 123 170 213 257 310 370
#     4  11  22  40  60  93 125 165 211 253 312 371
#     4  11  22  40  60  93 126 163 206 257 316 371
#     4  11  23  40  62  88 127 169 212 257 304 367
#     4  10  20  40  63  91 121 166 211 259 316 365
#
# _framework density 22.937414
#
# number of rings (size 3 to 8) (size 9 to 14) (size 15 to 20)
#    0.000    1.500    3.750    3.000    1.750    2.000 
#    2.250    5.625    0.000    0.000    0.000    0.000 
#    0.000    0.000    0.000    0.000    0.000    0.000 
#
# Total GULP energy -178796.364938 kJ/mol
# GULP energy per Si atom -5587.386404 kJ/mol
# Density = 2.288521 g / cm^3
# Si number density = 22.937414 Si / 1000 Ang^3
#
#
#
# Elastic Constant Matrix: (Units=GPa)
#
#
# Indices 1 2 3 4 5 6 
#
# 1 63.8195 -4.4011 -6.2990 0.0000 0.0000 0.0000
# 2 -4.4011 50.1200 6.5623 0.0000 0.0000 0.0000
# 3 -6.2990 6.5623 30.8710 0.0000 0.0000 0.0000
# 4 0.0000 0.0000 0.0000 33.5238 0.0000 0.0000
# 5 0.0000 0.0000 0.0000 0.0000 17.9817 0.0000
# 6 0.0000 0.0000 0.0000 0.0000 0.0000 18.2759
#
#
#
# Elastic Compliance Matrix: (Units=1/GPa)
#
#
# Indices 1 2 3 4 5 6 
#
# 1 0.016041 0.001008 0.003059 0.000000 0.000000 0.000000
# 2 0.001008 0.020587 -0.004170 0.000000 0.000000 0.000000
# 3 0.003059 -0.004170 0.033903 0.000000 0.000000 0.000000
# 4 0.000000 0.000000 0.000000 0.029830 0.000000 0.000000
# 5 0.000000 0.000000 0.000000 0.000000 0.055612 0.000000
# 6 0.000000 0.000000 0.000000 0.000000 0.000000 0.054717
#
#
# Mechanical properties :
#
#
# Convention : Reuss Voigt Hill
#
# Bulk Modulus (GPa) = 14.22003 15.17054 14.69528
# Shear Modulus (GPa) = 21.33671 23.88616 22.61144
#
# Velocity S-wave (km/s) = 3.05325 3.23052 3.14313
# Velocity P-wave (km/s) = 4.31772 4.53246 4.42640
#
# Compressibility (1/GPa) = 0.07032334
#
# Stress axis : x y z
#
# Youngs Moduli (GPa) = 62.34181 48.57509 29.49555
#
# Poissons Ratio (x) = -0.04897 -0.09022
# Poissons Ratio (y) = -0.06285 0.12301
# Poissons Ratio (z) = -0.19068 0.20258
#
# Static dielectric constant tensor:
#      x y z
#    x 1.816100 0.000000 0.000000 
#    y 0.000000 1.857480 0.000000 
#    z 0.000000 0.000000 1.946970 
# 
# From -- ./inp_files/5661.got.cif
#   From: 2010.05.17/outbox.cif.g08.bks.cpg/sg36_3_cif.got.tgz:5661.got - 2010.06.03 17:41:39.
