data_PCOD9350125
_publ_section_title
;
Structure prediction by ZEFSAII (Michael W. Deem and Ramdas Pophale) SiO2 
 PCOD9350125
Probable space group: C M M 2
;
_chemical_formula_sum "Si O2"
_cell_formula_units_Z 32
_cell_length_a 15.361118
_cell_length_b 9.949372
_cell_length_c 10.578212
_cell_angle_alpha 90.000000
_cell_angle_beta 90.000000
_cell_angle_gamma 90.000000
_cell_volume 1616.704924
_symmetry_space_group_name_H-M "C M M 2"
_symmetry_group_IT_number 35
_symmetry_cell_setting 'orthorhombic'
loop_
_space_group_symop_operation_xyz
x,y,z
-x,-y,z
-x,y,z
x,-y,z
1/2+x,1/2+y,z
1/2-x,1/2-y,z
1/2-x,1/2+y,z
1/2+x,1/2-y,z
loop_
_atom_site_type_symbol
_atom_site_label
_atom_site_fract_x
_atom_site_fract_y
_atom_site_fract_z
Si Si1 0.500000 0.222868 0.032411
Si Si2 0.165552 0.663490 0.209068
Si Si3 0.500000 0.500000 0.885595
Si Si4 0.500000 0.000000 0.823059
Si Si5 0.865188 0.000000 0.657259
Si Si6 0.397263 0.238564 0.486079
Si Si7 0.668749 0.000000 0.648389
O O1 0.585319 0.188322 0.114393
O O2 0.500000 0.372388 0.977515
O O3 0.500000 0.129187 0.910526
O O4 0.180011 0.500000 0.220657
O O5 0.250000 0.750000 0.168010
O O6 0.136683 0.728797 0.343150
O O7 0.420816 0.500000 0.785187
O O8 0.587983 0.000000 0.742817
O O9 0.885363 0.874362 0.565543
O O10 0.765285 0.000000 0.700895
O O11 0.500000 0.204076 0.485783
O O12 0.343077 0.128557 0.560991
#
# Coordination Sequence:
#
# PCOD9350125 Si02
#       7
#     4   8   2   2   4   8   4
#     4  12  28  48  75  95 145 195 248 292 341 419
#     4  12  27  48  75 109 142 182 238 298 362 430
#     4  12  28  48  70 104 146 190 254 292 344 408
#     4  12  24  44  72 102 128 196 246 284 346 422
#     4  12  26  47  69 108 145 183 227 296 354 421
#     4  12  23  44  73 105 144 181 224 291 364 428
#     4  12  24  41  75 102 137 183 235 286 360 415
#
# _framework density 19.793346
#
# number of rings (size 3 to 8) (size 9 to 14) (size 15 to 20)
#    0.000    0.000    6.250    3.750    3.500    2.000 
#    0.000    0.000    0.000    0.000    0.000    0.000 
#    0.000    0.000    0.000    0.000    0.000    0.000 
#
# Total GULP energy -89455.573015 kJ/mol
# GULP energy per Si atom -5590.973313 kJ/mol
# Density = 1.974830 g / cm^3
# Si number density = 19.793346 Si / 1000 Ang^3
#
#
#
# Elastic Constant Matrix: (Units=GPa)
#
#
# Indices 1 2 3 4 5 6 
#
# 1 160.6785 -13.7943 22.9057 0.0000 0.0000 0.0000
# 2 -13.7943 102.3326 2.6650 0.0000 0.0000 0.0000
# 3 22.9057 2.6650 82.7938 0.0000 0.0000 0.0000
# 4 0.0000 0.0000 0.0000 37.8160 0.0000 0.0000
# 5 0.0000 0.0000 0.0000 0.0000 -11.2785 0.0000
# 6 0.0000 0.0000 0.0000 0.0000 0.0000 31.4322
#
#
#
# Elastic Compliance Matrix: (Units=1/GPa)
#
#
# Indices 1 2 3 4 5 6 
#
# 1 0.006567 0.000933 -0.001847 0.000000 0.000000 0.000000
# 2 0.000933 0.009913 -0.000577 0.000000 0.000000 0.000000
# 3 -0.001847 -0.000577 0.012608 0.000000 0.000000 0.000000
# 4 0.000000 0.000000 0.000000 0.026444 0.000000 0.000000
# 5 0.000000 0.000000 0.000000 0.000000 -0.088664 0.000000
# 6 0.000000 0.000000 0.000000 0.000000 0.000000 0.031815
#
#
# Mechanical properties :
#
#
# Convention : Reuss Voigt Hill
#
# Bulk Modulus (GPa) = 38.30541 41.03974 39.67257
# Shear Modulus (GPa) = 482.37308 33.86251 258.11779
#
# Velocity S-wave (km/s) = 15.62798 4.14067 11.43195
# Velocity P-wave (km/s) = 18.57524 6.60601 13.94057
#
# Compressibility (1/GPa) = 0.02610597
#
# Stress axis : x y z
#
# Youngs Moduli (GPa) = 152.27612 100.87865 79.31636
#
# Poissons Ratio (x) = -0.09415 0.14649
# Poissons Ratio (y) = -0.14212 0.04579
# Poissons Ratio (z) = 0.28123 0.05824
#
# Static dielectric constant tensor:
#      x y z
#    x 1.725630 0.000000 0.000000 
#    y 0.000000 1.644380 0.000000 
#    z 0.000000 0.000000 1.655380 
# 
# From -- ./inp_files/10938.got.cif
#   From: 2010.05.17/outbox.cif.g08.bks.cpg/sg35_6_cif.got.tgz:10938.got - 2010.06.03 17:29:28.
