data_PCOD9350976
_publ_section_title
;
Structure prediction by ZEFSAII (Michael W. Deem and Ramdas Pophale) SiO2 
 PCOD9350976
Probable space group: C M C 21
;
_chemical_formula_sum "Si O2"
_cell_formula_units_Z 48
_cell_length_a 8.690743
_cell_length_b 18.990468
_cell_length_c 16.850710
_cell_angle_alpha 90.000000
_cell_angle_beta 90.000000
_cell_angle_gamma 90.000000
_cell_volume 2781.062694
_symmetry_space_group_name_H-M "C M C 21"
_symmetry_group_IT_number 36
_symmetry_cell_setting 'orthorhombic'
loop_
_space_group_symop_operation_xyz
x,y,z
-x,-y,1/2+z
x,-y,1/2+z
-x,y,z
1/2+x,1/2+y,z
1/2-x,1/2-y,1/2+z
1/2+x,1/2-y,1/2+z
1/2-x,1/2+y,z
loop_
_atom_site_type_symbol
_atom_site_label
_atom_site_fract_x
_atom_site_fract_y
_atom_site_fract_z
Si Si1 0.814259 0.085409 0.482900
Si Si2 0.313012 0.324514 0.662738
Si Si3 0.823851 0.036904 0.728271
Si Si4 0.317341 0.907503 0.812633
Si Si5 0.184467 0.662102 0.636891
Si Si6 0.324123 0.449188 0.562630
O O1 0.756590 0.108982 0.397452
O O2 0.752269 0.133898 0.553902
O O3 0.000000 0.084603 0.486248
O O4 0.756223 0.005152 0.500903
O O5 0.500000 0.330901 0.665533
O O6 0.247132 0.356633 0.743803
O O7 0.273419 0.243265 0.650978
O O8 0.256517 0.374584 0.590116
O O9 0.748810 0.111048 0.705679
O O10 0.000000 0.045137 0.754885
O O11 0.732395 0.986657 0.787636
O O12 0.827206 0.993659 0.644944
O O13 0.500000 0.902114 0.816100
O O14 0.000000 0.656184 0.634527
O O15 0.500000 0.435716 0.537113
#
# Coordination Sequence:
#
# PCOD9350976 Si02
#       6
#     8   8   8   8   8   8
#     4  10  19  33  53  74 101 138 176 213 260 313
#     4   9  18  34  54  76 105 137 169 208 259 315
#     4   9  17  32  52  72  98 133 170 205 250 307
#     4  11  21  33  52  77 103 132 175 224 262 301
#     4  10  19  32  53  80 107 135 171 214 255 303
#     4   7  13  28  50  71  90 123 167 202 238 295
#
# _framework density 17.259589999999999
#
# number of rings (size 3 to 8) (size 9 to 14) (size 15 to 20)
#    0.000    2.667    0.000    5.000    0.000    1.333 
#    0.000    2.500    0.000    6.000    0.000    0.000 
#    0.000    0.000    0.000    0.000    0.000    0.000 
#
# Total GULP energy -133686.049526 kJ/mol
# GULP energy per Si atom -5570.252064 kJ/mol
# Density = 1.722031 g / cm^3
# Si number density = 17.259590 Si / 1000 Ang^3
#
#
#
# Elastic Constant Matrix: (Units=GPa)
#
#
# Indices 1 2 3 4 5 6 
#
# 1 60.9945 43.7058 23.2989 0.0000 0.0000 0.0000
# 2 43.7058 151.0461 43.7251 0.0000 0.0000 0.0000
# 3 23.2989 43.7251 72.7884 0.0000 0.0000 0.0000
# 4 0.0000 0.0000 0.0000 16.2751 0.0000 0.0000
# 5 0.0000 0.0000 0.0000 0.0000 20.4208 0.0000
# 6 0.0000 0.0000 0.0000 0.0000 0.0000 23.8648
#
#
#
# Elastic Compliance Matrix: (Units=1/GPa)
#
#
# Indices 1 2 3 4 5 6 
#
# 1 0.021523 -0.005124 -0.003811 0.000000 0.000000 0.000000
# 2 -0.005124 0.009234 -0.003907 0.000000 0.000000 0.000000
# 3 -0.003811 -0.003907 0.017305 0.000000 0.000000 0.000000
# 4 0.000000 0.000000 0.000000 0.061444 0.000000 0.000000
# 5 0.000000 0.000000 0.000000 0.000000 0.048970 0.000000
# 6 0.000000 0.000000 0.000000 0.000000 0.000000 0.041903
#
#
# Mechanical properties :
#
#
# Convention : Reuss Voigt Hill
#
# Bulk Modulus (GPa) = 44.68742 56.25429 50.47085
# Shear Modulus (GPa) = 21.41129 23.71874 22.56501
#
# Velocity S-wave (km/s) = 3.52596 3.71109 3.61971
# Velocity P-wave (km/s) = 6.52105 7.14330 6.83925
#
# Compressibility (1/GPa) = 0.02237766
#
# Stress axis : x y z
#
# Youngs Moduli (GPa) = 46.46284 108.29255 57.78622
#
# Poissons Ratio (x) = 0.55494 0.22021
# Poissons Ratio (y) = 0.23810 0.22576
# Poissons Ratio (z) = 0.17706 0.42308
#
# Static dielectric constant tensor:
#      x y z
#    x 1.583660 0.000000 0.000000 
#    y 0.000000 1.605240 0.000000 
#    z 0.000000 0.000000 1.577970 
# 
# From -- ./inp_files/10473.got.cif
#   From: 2010.05.17/outbox.cif.g08.bks.cpg/sg36_6_cif.got.tgz:10473.got - 2010.06.03 17:41:39.
