data_PCOD9350708
_publ_section_title
;
Structure prediction by ZEFSAII (Michael W. Deem and Ramdas Pophale) SiO2 
 PCOD9350708
Probable space group: C M C 21
;
_chemical_formula_sum "Si O2"
_cell_formula_units_Z 64
_cell_length_a 8.171791
_cell_length_b 21.164562
_cell_length_c 20.100034
_cell_angle_alpha 90.000000
_cell_angle_beta 90.000000
_cell_angle_gamma 90.000000
_cell_volume 3476.348664
_symmetry_space_group_name_H-M "C M C 21"
_symmetry_group_IT_number 36
_symmetry_cell_setting 'orthorhombic'
loop_
_space_group_symop_operation_xyz
x,y,z
-x,-y,1/2+z
x,-y,1/2+z
-x,y,z
1/2+x,1/2+y,z
1/2-x,1/2-y,1/2+z
1/2+x,1/2-y,1/2+z
1/2-x,1/2+y,z
loop_
_atom_site_type_symbol
_atom_site_label
_atom_site_fract_x
_atom_site_fract_y
_atom_site_fract_z
Si Si1 0.800460 0.685615 0.194430
Si Si2 0.194812 0.886599 0.058658
Si Si3 0.302820 0.758804 0.558322
Si Si4 0.805613 0.564552 0.697863
Si Si5 0.197125 0.758343 0.412705
Si Si6 0.198015 0.189129 0.775229
Si Si7 0.697028 0.112239 0.412440
Si Si8 0.299318 0.939331 0.772663
O O1 0.745770 0.697601 0.118900
O O2 0.752490 0.747510 0.236050
O O3 0.746813 0.621630 0.229900
O O4 0.000000 0.684103 0.194816
O O5 0.256570 0.813884 0.067406
O O6 0.245523 0.927072 0.122310
O O7 0.000000 0.883523 0.057544
O O8 0.252215 0.909222 0.986074
O O9 0.500000 0.756990 0.560924
O O10 0.251171 0.780214 0.485279
O O11 0.760849 0.627320 0.738669
O O12 0.741861 0.503162 0.737158
O O13 0.000000 0.559038 0.694891
O O14 0.252774 0.801080 0.351271
O O15 0.253754 0.685345 0.404196
O O16 0.000000 0.756756 0.410726
O O17 0.000000 0.186630 0.773617
O O18 0.500000 0.113461 0.410598
O O19 0.753164 0.071566 0.349139
O O20 0.500000 0.940055 0.773135
#
# Coordination Sequence:
#
# PCOD9350708 Si02
#       8
#     8   8   8   8   8   8   8   8
#     4   9  15  30  54  76  97 130 174 212 256 307
#     4  10  19  33  52  76 105 138 173 211 259 316
#     4   9  17  29  50  76 102 131 167 212 258 304
#     4  11  22  34  51  79 109 139 175 217 258 303
#     4   9  17  29  51  78 102 130 167 212 260 306
#     4  10  18  33  55  76 101 136 172 210 261 314
#     4   9  16  31  55  79 100 128 171 221 261 303
#     4   9  18  33  54  78 104 134 175 219 257 303
#
# _framework density 18.410122000000001
#
# number of rings (size 3 to 8) (size 9 to 14) (size 15 to 20)
#    0.000    2.500    2.500    0.750    0.000    1.000 
#    0.000    2.500    0.000    9.750    0.000    0.000 
#    0.000    0.000    0.000    0.000    0.000    0.000 
#
# Total GULP energy -178437.451363 kJ/mol
# GULP energy per Si atom -5576.170355 kJ/mol
# Density = 1.836822 g / cm^3
# Si number density = 18.410122 Si / 1000 Ang^3
#
#
#
# Elastic Constant Matrix: (Units=GPa)
#
#
# Indices 1 2 3 4 5 6 
#
# 1 7.4429 6.2461 15.5542 0.0000 0.0000 0.0000
# 2 6.2461 104.4901 83.5407 0.0000 0.0000 0.0000
# 3 15.5542 83.5407 206.3531 0.0000 0.0000 0.0000
# 4 0.0000 0.0000 0.0000 27.9781 0.0000 0.0000
# 5 0.0000 0.0000 0.0000 0.0000 26.7735 0.0000
# 6 0.0000 0.0000 0.0000 0.0000 0.0000 13.4789
#
#
#
# Elastic Compliance Matrix: (Units=1/GPa)
#
#
# Indices 1 2 3 4 5 6 
#
# 1 0.159479 0.000115 -0.012067 0.000000 0.000000 0.000000
# 2 0.000115 0.014151 -0.005737 0.000000 0.000000 0.000000
# 3 -0.012067 -0.005737 0.008078 0.000000 0.000000 0.000000
# 4 0.000000 0.000000 0.000000 0.035742 0.000000 0.000000
# 5 0.000000 0.000000 0.000000 0.000000 0.037350 0.000000
# 6 0.000000 0.000000 0.000000 0.000000 0.000000 0.074190
#
#
# Mechanical properties :
#
#
# Convention : Reuss Voigt Hill
#
# Bulk Modulus (GPa) = 6.83397 58.77423 32.80410
# Shear Modulus (GPa) = 12.10224 27.84244 19.97234
#
# Velocity S-wave (km/s) = 2.56670 3.89311 3.29729
# Velocity P-wave (km/s) = 3.53611 7.22514 5.68800
#
# Compressibility (1/GPa) = 0.14632792
#
# Stress axis : x y z
#
# Youngs Moduli (GPa) = 6.27042 70.66879 123.78664
#
# Poissons Ratio (x) = -0.00812 1.49379
# Poissons Ratio (y) = -0.00072 0.71021
# Poissons Ratio (z) = 0.07567 0.40546
#
# Static dielectric constant tensor:
#      x y z
#    x 1.655560 0.000000 0.000000 
#    y 0.000000 1.616010 0.000000 
#    z 0.000000 0.000000 1.649350 
# 
# From -- ./inp_files/13925.got.cif
#   From: 2010.05.17/outbox.cif.g08.bks.cpg/sg36_7_cif.got.tgz:13925.got - 2010.06.03 17:41:39.
