data_PCOD9350631
_publ_section_title
;
Structure prediction by ZEFSAII (Michael W. Deem and Ramdas Pophale) SiO2 
 PCOD9350631
Probable space group: C M C 21
;
_chemical_formula_sum "Si O2"
_cell_formula_units_Z 32
_cell_length_a 28.016709
_cell_length_b 4.619192
_cell_length_c 8.665299
_cell_angle_alpha 90.000000
_cell_angle_beta 90.000000
_cell_angle_gamma 90.000000
_cell_volume 1121.415841
_symmetry_space_group_name_H-M "C M C 21"
_symmetry_group_IT_number 36
_symmetry_cell_setting 'orthorhombic'
loop_
_space_group_symop_operation_xyz
x,y,z
-x,-y,1/2+z
x,-y,1/2+z
-x,y,z
1/2+x,1/2+y,z
1/2-x,1/2-y,1/2+z
1/2+x,1/2-y,1/2+z
1/2-x,1/2+y,z
loop_
_atom_site_type_symbol
_atom_site_label
_atom_site_fract_x
_atom_site_fract_y
_atom_site_fract_z
Si Si1 0.342818 0.088847 0.841890
Si Si2 0.089776 0.290053 0.596362
Si Si3 0.000000 0.906682 0.153419
Si Si4 0.216901 0.814645 0.562736
Si Si5 0.000000 0.459919 0.420566
O O1 0.381984 0.944374 0.730735
O O2 0.307675 0.254463 0.726483
O O3 0.371470 0.281500 0.966682
O O4 0.315070 0.834934 0.932338
O O5 0.050386 0.495006 0.508032
O O6 0.056200 0.035362 0.667552
O O7 0.000000 0.604354 0.257148
O O8 0.000000 0.891780 0.956436
O O9 0.232290 0.146130 0.553858
#
# Coordination Sequence:
#
# PCOD9350631 Si02
#       5
#     8   8   4   8   4
#     4  10  18  31  54  78 114 148 196 231 282 346
#     4   8  14  25  42  78 114 156 182 237 274 336
#     4   8  12  20  40  68 120 144 190 220 284 328
#     4  11  24  41  60  83 114 151 188 241 292 335
#     4   8  12  20  40  68 120 144 190 220 284 328
#
# _framework density 28.535354999999999
#
# number of rings (size 3 to 8) (size 9 to 14) (size 15 to 20)
#    1.500    1.000    2.500    1.500    0.000    0.000 
#    0.000    0.000    0.000    0.000    0.000    0.000 
#    0.000  560.000    0.000    0.000    0.000   70.000 
#
# Total GULP energy -89165.441349 kJ/mol
# GULP energy per Si atom -5572.840084 kJ/mol
# Density = 2.847041 g / cm^3
# Si number density = 28.535355 Si / 1000 Ang^3
#
#
#
# Elastic Constant Matrix: (Units=GPa)
#
#
# Indices 1 2 3 4 5 6 
#
# 1 183.2420 28.9144 59.9627 0.0000 0.0000 0.0000
# 2 28.9144 78.5770 26.0631 0.0000 0.0000 0.0000
# 3 59.9627 26.0631 146.8409 0.0000 0.0000 0.0000
# 4 0.0000 0.0000 0.0000 22.3786 0.0000 0.0000
# 5 0.0000 0.0000 0.0000 0.0000 81.9000 0.0000
# 6 0.0000 0.0000 0.0000 0.0000 0.0000 13.7755
#
#
#
# Elastic Compliance Matrix: (Units=1/GPa)
#
#
# Indices 1 2 3 4 5 6 
#
# 1 0.006483 -0.001602 -0.002363 0.000000 0.000000 0.000000
# 2 -0.001602 0.013918 -0.001816 0.000000 0.000000 0.000000
# 3 -0.002363 -0.001816 0.008097 0.000000 0.000000 0.000000
# 4 0.000000 0.000000 0.000000 0.044685 0.000000 0.000000
# 5 0.000000 0.000000 0.000000 0.000000 0.012210 0.000000
# 6 0.000000 0.000000 0.000000 0.000000 0.000000 0.072592
#
#
# Mechanical properties :
#
#
# Convention : Reuss Voigt Hill
#
# Bulk Modulus (GPa) = 59.04416 70.94891 64.99654
# Shear Modulus (GPa) = 28.53962 43.19214 35.86588
#
# Velocity S-wave (km/s) = 3.16594 3.89477 3.54911
# Velocity P-wave (km/s) = 5.83959 6.71886 6.29460
#
# Compressibility (1/GPa) = 0.01693648
#
# Stress axis : x y z
#
# Youngs Moduli (GPa) = 154.24170 71.84812 123.49546
#
# Poissons Ratio (x) = 0.11509 0.29184
# Poissons Ratio (y) = 0.24708 0.22430
# Poissons Ratio (z) = 0.36450 0.13049
#
# Static dielectric constant tensor:
#      x y z
#    x 2.193170 0.000000 0.000000 
#    y 0.000000 2.588310 0.000000 
#    z 0.000000 0.000000 2.223130 
# 
# From -- ./inp_files/5898.got.cif
#   From: 2010.05.17/outbox.cif.g08.bks.cpg/sg36_3_cif.got.tgz:5898.got - 2010.06.03 17:41:39.
