data_PCOD9350264
_publ_section_title
;
Structure prediction by ZEFSAII (Michael W. Deem and Ramdas Pophale) SiO2 
 PCOD9350264
Probable space group: C M M 2
;
_chemical_formula_sum "Si O2"
_cell_formula_units_Z 40
_cell_length_a 8.721648
_cell_length_b 17.961950
_cell_length_c 13.549431
_cell_angle_alpha 90.000000
_cell_angle_beta 90.000000
_cell_angle_gamma 90.000000
_cell_volume 2122.624123
_symmetry_space_group_name_H-M "C M M 2"
_symmetry_group_IT_number 35
_symmetry_cell_setting 'orthorhombic'
loop_
_space_group_symop_operation_xyz
x,y,z
-x,-y,z
-x,y,z
x,-y,z
1/2+x,1/2+y,z
1/2-x,1/2-y,z
1/2-x,1/2+y,z
1/2+x,1/2-y,z
loop_
_atom_site_type_symbol
_atom_site_label
_atom_site_fract_x
_atom_site_fract_y
_atom_site_fract_z
Si Si1 0.182154 0.166813 0.930040
Si Si2 0.822036 0.411186 0.741642
Si Si3 0.317009 0.165485 0.132575
Si Si4 0.816556 0.834005 0.332587
Si Si5 0.183786 0.166318 0.551296
O O1 0.250000 0.250000 0.918584
O O2 0.229046 0.121561 0.833573
O O3 0.000000 0.171511 0.941076
O O4 0.254342 0.132787 0.030206
O O5 0.813878 0.500000 0.742417
O O6 0.755395 0.380340 0.639511
O O7 0.000000 0.388154 0.751289
O O8 0.500000 0.168163 0.132181
O O9 0.250000 0.250000 0.132366
O O10 0.256723 0.130439 0.234785
O O11 0.750000 0.750000 0.336621
O O12 0.781631 0.865401 0.441433
O O13 0.000000 0.830739 0.320569
O O14 0.250000 0.250000 0.557024
O O15 0.000000 0.169633 0.561098
#
# Coordination Sequence:
#
# PCOD9350264 Si02
#       5
#     8   8   8   8   8
#     4  11  21  35  56  80 108 139 175 217 260 310
#     4  11  24  40  56  75 103 138 176 219 267 317
#     4  10  17  27  46  74 107 138 170 210 257 307
#     4   9  16  27  45  73 106 137 169 208 255 305
#     4  10  20  34  55  81 109 140 176 217 259 308
#
# _framework density 18.8446
#
# number of rings (size 3 to 8) (size 9 to 14) (size 15 to 20)
#    0.000    1.800    0.000    8.400    0.000    4.000 
#    0.000    0.000    0.000    1.200    0.000    5.600 
#    0.000    0.000    0.000    0.000    0.000    0.000 
#
# Total GULP energy -111616.175296 kJ/mol
# GULP energy per Si atom -5580.808765 kJ/mol
# Density = 1.880171 g / cm^3
# Si number density = 18.844600 Si / 1000 Ang^3
#
#
#
# Elastic Constant Matrix: (Units=GPa)
#
#
# Indices 1 2 3 4 5 6 
#
# 1 155.8071 20.3695 79.8749 0.0000 0.0000 0.0000
# 2 20.3695 18.2555 29.9406 0.0000 0.0000 0.0000
# 3 79.8749 29.9406 192.5604 0.0000 0.0000 0.0000
# 4 0.0000 0.0000 0.0000 -10.8528 0.0000 0.0000
# 5 0.0000 0.0000 0.0000 0.0000 38.7435 0.0000
# 6 0.0000 0.0000 0.0000 0.0000 0.0000 16.6336
#
#
#
# Elastic Compliance Matrix: (Units=1/GPa)
#
#
# Indices 1 2 3 4 5 6 
#
# 1 0.008473 -0.004953 -0.002744 0.000000 0.000000 0.000000
# 2 -0.004953 0.076424 -0.009829 0.000000 0.000000 0.000000
# 3 -0.002744 -0.009829 0.007860 0.000000 0.000000 0.000000
# 4 0.000000 0.000000 0.000000 -0.092142 0.000000 0.000000
# 5 0.000000 0.000000 0.000000 0.000000 0.025811 0.000000
# 6 0.000000 0.000000 0.000000 0.000000 0.000000 0.060119
#
#
# Mechanical properties :
#
#
# Convention : Reuss Voigt Hill
#
# Bulk Modulus (GPa) = 17.32949 69.66588 43.49768
# Shear Modulus (GPa) = 35.50366 24.66740 30.08553
#
# Velocity S-wave (km/s) = 4.34524 3.62192 3.99997
# Velocity P-wave (km/s) = 5.86437 7.38512 6.66824
#
# Compressibility (1/GPa) = 0.05770511
#
# Stress axis : x y z
#
# Youngs Moduli (GPa) = 118.02746 13.08491 127.23023
#
# Poissons Ratio (x) = 0.06481 0.34917
# Poissons Ratio (y) = 0.58455 1.25048
# Poissons Ratio (z) = 0.32391 0.12861
#
# Static dielectric constant tensor:
#      x y z
#    x 1.633090 0.000000 0.000000 
#    y 0.000000 1.617040 0.000000 
#    z 0.000000 0.000000 1.715810 
# 
# From -- ./inp_files/14706.got.cif
#   From: 2010.05.17/outbox.cif.g08.bks.cpg/sg35_8_cif.got.tgz:14706.got - 2010.06.03 17:29:28.
