data_PCOD9350110
_publ_section_title
;
Structure prediction by ZEFSAII (Michael W. Deem and Ramdas Pophale) SiO2 
 PCOD9350110
Probable space group: C M M 2
;
_chemical_formula_sum "Si O2"
_cell_formula_units_Z 56
_cell_length_a 20.624879
_cell_length_b 13.628684
_cell_length_c 10.040027
_cell_angle_alpha 90.000000
_cell_angle_beta 90.000000
_cell_angle_gamma 90.000000
_cell_volume 2822.150772
_symmetry_space_group_name_H-M "C M M 2"
_symmetry_group_IT_number 35
_symmetry_cell_setting 'orthorhombic'
loop_
_space_group_symop_operation_xyz
x,y,z
-x,-y,z
-x,y,z
x,-y,z
1/2+x,1/2+y,z
1/2-x,1/2-y,z
1/2-x,1/2+y,z
1/2+x,1/2-y,z
loop_
_atom_site_type_symbol
_atom_site_label
_atom_site_fract_x
_atom_site_fract_y
_atom_site_fract_z
Si Si1 0.425193 0.615852 0.487960
Si Si2 0.323118 0.771655 0.573865
Si Si3 0.576496 0.615546 0.167886
Si Si4 0.678090 0.777449 0.081222
Si Si5 0.366025 0.883733 0.323716
Si Si6 0.000000 0.381575 0.877339
Si Si7 0.640007 0.115974 0.821740
Si Si8 0.500000 0.881530 0.184588
O O1 0.500000 0.645722 0.516553
O O2 0.419616 0.500000 0.517690
O O3 0.370678 0.678380 0.562886
O O4 0.415069 0.626785 0.328054
O O5 0.250000 0.750000 0.529409
O O6 0.354830 0.849671 0.472887
O O7 0.319909 0.819461 0.719336
O O8 0.500000 0.636299 0.139648
O O9 0.587569 0.500000 0.136790
O O10 0.627742 0.686738 0.095124
O O11 0.750000 0.750000 0.038048
O O12 0.682609 0.829016 0.224779
O O13 0.652711 0.856093 0.974538
O O14 0.436197 0.852925 0.265468
O O15 0.360077 0.000000 0.312219
O O16 0.064931 0.354785 0.801332
O O17 0.000000 0.500000 0.885998
O O18 0.000000 0.347395 0.031379
O O19 0.648905 0.000000 0.801143
O O20 0.500000 0.000000 0.179823
#
# Coordination Sequence:
#
# PCOD9350110 Si02
#       8
#     8   8   8   8   8   4   8   4
#     4   9  20  40  65  91 123 167 215 264 318 376
#     4  12  26  43  62  96 128 173 222 268 329 387
#     4   9  20  39  64  93 125 165 214 267 317 372
#     4  12  24  39  62  97 126 169 218 268 329 388
#     4  11  23  38  63  97 134 166 208 268 330 396
#     4   9  18  37  63  93 120 163 211 250 320 395
#     4  11  25  44  65  90 131 174 212 261 327 397
#     4   9  18  35  61  97 126 159 205 254 320 391
#
# _framework density 19.843021
#
# number of rings (size 3 to 8) (size 9 to 14) (size 15 to 20)
#    0.000    1.571    2.857    2.571    4.000    2.286 
#    0.000    2.857    0.000    1.714    0.000    0.000 
#    0.000    0.000    0.000    0.000    0.000    0.000 
#
# Total GULP energy -156362.723448 kJ/mol
# GULP energy per Si atom -5584.382980 kJ/mol
# Density = 1.979786 g / cm^3
# Si number density = 19.843021 Si / 1000 Ang^3
#
#
#
# Elastic Constant Matrix: (Units=GPa)
#
#
# Indices 1 2 3 4 5 6 
#
# 1 99.0048 42.6408 3.0641 0.0000 0.0000 0.0000
# 2 42.6408 107.0746 18.7063 0.0000 0.0000 0.0000
# 3 3.0641 18.7063 48.3792 0.0000 0.0000 0.0000
# 4 0.0000 0.0000 0.0000 34.3096 0.0000 0.0000
# 5 0.0000 0.0000 0.0000 0.0000 16.8586 0.0000
# 6 0.0000 0.0000 0.0000 0.0000 0.0000 14.6454
#
#
#
# Elastic Compliance Matrix: (Units=1/GPa)
#
#
# Indices 1 2 3 4 5 6 
#
# 1 0.012255 -0.005089 0.001191 0.000000 0.000000 0.000000
# 2 -0.005089 0.012129 -0.004367 0.000000 0.000000 0.000000
# 3 0.001191 -0.004367 0.022283 0.000000 0.000000 0.000000
# 4 0.000000 0.000000 0.000000 0.029146 0.000000 0.000000
# 5 0.000000 0.000000 0.000000 0.000000 0.059317 0.000000
# 6 0.000000 0.000000 0.000000 0.000000 0.000000 0.068281
#
#
# Mechanical properties :
#
#
# Convention : Reuss Voigt Hill
#
# Bulk Modulus (GPa) = 33.18071 42.58681 37.88376
# Shear Modulus (GPa) = 21.74039 25.83256 23.78647
#
# Velocity S-wave (km/s) = 3.31360 3.61202 3.46603
# Velocity P-wave (km/s) = 5.60338 6.23731 5.92883
#
# Compressibility (1/GPa) = 0.03013800
#
# Stress axis : x y z
#
# Youngs Moduli (GPa) = 81.59745 82.44874 44.87668
#
# Poissons Ratio (x) = 0.41955 -0.05346
# Poissons Ratio (y) = 0.41522 0.19600
# Poissons Ratio (z) = -0.09721 0.36009
#
# Static dielectric constant tensor:
#      x y z
#    x 1.745550 0.000000 0.000000 
#    y 0.000000 1.708760 0.000000 
#    z 0.000000 0.000000 1.648130 
# 
# From -- ./inp_files/9332.got.cif
#   From: 2010.05.17/outbox.cif.g08.bks.cpg/sg35_5_cif.got.tgz:9332.got - 2010.06.03 17:29:28.
