data_PCOD9350109
_publ_section_title
;
Structure prediction by ZEFSAII (Michael W. Deem and Ramdas Pophale) SiO2 
 PCOD9350109
Probable space group: C M M 2
;
_chemical_formula_sum "Si O2"
_cell_formula_units_Z 40
_cell_length_a 17.973752
_cell_length_b 7.825288
_cell_length_c 14.832989
_cell_angle_alpha 90.000000
_cell_angle_beta 90.000000
_cell_angle_gamma 90.000000
_cell_volume 2086.256726
_symmetry_space_group_name_H-M "C M M 2"
_symmetry_group_IT_number 35
_symmetry_cell_setting 'orthorhombic'
loop_
_space_group_symop_operation_xyz
x,y,z
-x,-y,z
-x,y,z
x,-y,z
1/2+x,1/2+y,z
1/2-x,1/2-y,z
1/2-x,1/2+y,z
1/2+x,1/2-y,z
loop_
_atom_site_type_symbol
_atom_site_label
_atom_site_fract_x
_atom_site_fract_y
_atom_site_fract_z
Si Si1 0.090313 0.500000 0.539060
Si Si2 0.585513 0.799943 0.045141
Si Si3 0.410660 0.000000 0.331310
Si Si4 0.410296 0.699489 0.672247
Si Si5 0.164203 0.805748 0.222632
Si Si6 0.836626 0.203624 0.861509
O O1 0.114387 0.500000 0.435565
O O2 0.112985 0.669419 0.594129
O O3 0.000000 0.500000 0.537965
O O4 0.500000 0.740814 0.043634
O O5 0.632259 0.704611 0.121280
O O6 0.586180 0.000000 0.070101
O O7 0.621553 0.781244 0.947118
O O8 0.380259 0.168441 0.281831
O O9 0.500000 0.000000 0.327147
O O10 0.500000 0.708588 0.681622
O O11 0.391335 0.500000 0.654238
O O12 0.373319 0.754087 0.766504
O O13 0.250000 0.750000 0.221405
O O14 0.157091 0.000000 0.255925
O O15 0.750000 0.250000 0.863039
O O16 0.844527 0.000000 0.868725
#
# Coordination Sequence:
#
# PCOD9350109 Si02
#       6
#     4   8   4   8   8   8
#     4   9  20  38  65  91 121 157 199 261 318 366
#     4  11  23  39  61  92 126 164 212 260 308 375
#     4  11  24  44  67 101 132 161 219 275 321 390
#     4   9  19  37  61  88 118 158 207 255 307 369
#     4  12  24  43  69  93 132 173 213 262 327 384
#     4  11  23  37  56  84 125 164 208 252 307 371
#
# _framework density 19.173096000000001
#
# number of rings (size 3 to 8) (size 9 to 14) (size 15 to 20)
#    0.000    1.400    2.000    3.000    2.800    4.400 
#    0.000    3.000    0.000    0.000    0.000    0.000 
#    0.000    0.000    0.000    0.000    0.000    0.000 
#
# Total GULP energy -111787.519011 kJ/mol
# GULP energy per Si atom -5589.375951 kJ/mol
# Density = 1.912946 g / cm^3
# Si number density = 19.173096 Si / 1000 Ang^3
#
#
#
# Elastic Constant Matrix: (Units=GPa)
#
#
# Indices 1 2 3 4 5 6 
#
# 1 95.9273 41.3766 50.1821 0.0000 0.0000 0.0000
# 2 41.3766 122.8607 67.6321 0.0000 0.0000 0.0000
# 3 50.1821 67.6321 145.3831 0.0000 0.0000 0.0000
# 4 0.0000 0.0000 0.0000 -38.0042 0.0000 0.0000
# 5 0.0000 0.0000 0.0000 0.0000 -15.8655 0.0000
# 6 0.0000 0.0000 0.0000 0.0000 0.0000 19.5536
#
#
#
# Elastic Compliance Matrix: (Units=1/GPa)
#
#
# Indices 1 2 3 4 5 6 
#
# 1 0.013325 -0.002629 -0.003376 0.000000 0.000000 0.000000
# 2 -0.002629 0.011460 -0.004424 0.000000 0.000000 0.000000
# 3 -0.003376 -0.004424 0.010102 0.000000 0.000000 0.000000
# 4 0.000000 0.000000 0.000000 -0.026313 0.000000 0.000000
# 5 0.000000 0.000000 0.000000 0.000000 -0.063030 0.000000
# 6 0.000000 0.000000 0.000000 0.000000 0.000000 0.051142
#
#
# Mechanical properties :
#
#
# Convention : Reuss Voigt Hill
#
# Bulk Modulus (GPa) = 71.28390 75.83919 73.56154
# Shear Modulus (GPa) = 225.03314 6.80214 115.91764
#
# Velocity S-wave (km/s) = 10.84546 1.88559 7.78394
# Velocity P-wave (km/s) = 13.93169 6.66194 10.91955
#
# Compressibility (1/GPa) = 0.01402841
#
# Stress axis : x y z
#
# Youngs Moduli (GPa) = 75.04840 87.26181 98.99316
#
# Poissons Ratio (x) = 0.22940 0.33424
# Poissons Ratio (y) = 0.19729 0.43791
# Poissons Ratio (z) = 0.25339 0.38602
#
# Static dielectric constant tensor:
#      x y z
#    x 1.632280 0.000000 0.000000 
#    y 0.000000 1.679030 0.000000 
#    z 0.000000 0.000000 1.640600 
# 
# From -- ./inp_files/16628.got.cif
#   From: 2010.05.17/outbox.cif.g08.bks.cpg/sg35_9_cif.got.tgz:16628.got - 2010.06.03 17:29:28.
