data_PCOD9350926
_publ_section_title
;
Structure prediction by ZEFSAII (Michael W. Deem and Ramdas Pophale) SiO2 
 PCOD9350926
Probable space group: C M C 21
;
_chemical_formula_sum "Si O2"
_cell_formula_units_Z 64
_cell_length_a 7.783520
_cell_length_b 15.121819
_cell_length_c 23.125931
_cell_angle_alpha 90.000000
_cell_angle_beta 90.000000
_cell_angle_gamma 90.000000
_cell_volume 2721.944757
_symmetry_space_group_name_H-M "C M C 21"
_symmetry_group_IT_number 36
_symmetry_cell_setting 'orthorhombic'
loop_
_space_group_symop_operation_xyz
x,y,z
-x,-y,1/2+z
x,-y,1/2+z
-x,y,z
1/2+x,1/2+y,z
1/2-x,1/2-y,1/2+z
1/2+x,1/2-y,1/2+z
1/2-x,1/2+y,z
loop_
_atom_site_type_symbol
_atom_site_label
_atom_site_fract_x
_atom_site_fract_y
_atom_site_fract_z
Si Si1 0.702758 0.847947 0.520210
Si Si2 0.295963 0.749436 0.842985
Si Si3 0.696132 0.944441 0.309295
Si Si4 0.703334 0.116464 0.690090
Si Si5 0.699910 0.454669 0.632383
Si Si6 0.706239 0.173241 0.466864
Si Si7 0.708540 0.311100 0.720362
Si Si8 0.289095 0.012330 0.930642
O O1 0.500000 0.861396 0.523529
O O2 0.779592 0.898680 0.574381
O O3 0.736805 0.744178 0.514034
O O4 0.766587 0.898304 0.462458
O O5 0.500000 0.731150 0.846184
O O6 0.198494 0.658143 0.830030
O O7 0.240104 0.791322 0.903448
O O8 0.264284 0.810414 0.786980
O O9 0.500000 0.976448 0.302891
O O10 0.777894 0.936458 0.245938
O O11 0.774064 0.993775 0.364588
O O12 0.500000 0.124146 0.700567
O O13 0.767334 0.217143 0.692274
O O14 0.725613 0.053386 0.635292
O O15 0.500000 0.466719 0.643216
O O16 0.776146 0.392216 0.682732
O O17 0.500000 0.172543 0.468163
O O18 0.764038 0.071850 0.468635
O O19 0.500000 0.313439 0.718505
O O20 0.500000 0.012998 0.927316
#
# Coordination Sequence:
#
# PCOD9350926 Si02
#       8
#     8   8   8   8   8   8   8   8
#     4  11  23  41  62  83 113 154 200 242 282 342
#     4  10  19  31  56  89 121 148 184 241 292 331
#     4   9  17  34  59  83 118 158 192 229 281 351
#     4   9  19  36  60  86 113 149 194 234 276 340
#     4  11  24  41  61  84 116 154 194 242 293 341
#     4  10  21  37  58  86 117 152 191 237 292 341
#     4   9  21  40  59  81 115 159 193 226 284 354
#     4   9  19  36  59  84 113 154 194 229 282 350
#
# _framework density 23.512599999999999
#
# number of rings (size 3 to 8) (size 9 to 14) (size 15 to 20)
#    0.000    2.250    1.250    1.875    1.750    4.500 
#    0.000    6.875    0.000    0.000    0.000    0.000 
#    0.000    0.000    0.000    0.000    0.000    0.000 
#
# Total GULP energy -178711.619204 kJ/mol
# GULP energy per Si atom -5584.738100 kJ/mol
# Density = 2.345908 g / cm^3
# Si number density = 23.512600 Si / 1000 Ang^3
#
#
#
# Elastic Constant Matrix: (Units=GPa)
#
#
# Indices 1 2 3 4 5 6 
#
# 1 38.4150 3.6699 -3.2966 0.0000 0.0000 0.0000
# 2 3.6699 74.6633 -5.3842 0.0000 0.0000 0.0000
# 3 -3.2966 -5.3842 11.3768 0.0000 0.0000 0.0000
# 4 0.0000 0.0000 0.0000 28.7665 0.0000 0.0000
# 5 0.0000 0.0000 0.0000 0.0000 20.8157 0.0000
# 6 0.0000 0.0000 0.0000 0.0000 0.0000 16.3302
#
#
#
# Elastic Compliance Matrix: (Units=1/GPa)
#
#
# Indices 1 2 3 4 5 6 
#
# 1 0.026739 -0.000782 0.007378 0.000000 0.000000 0.000000
# 2 -0.000782 0.013890 0.006347 0.000000 0.000000 0.000000
# 3 0.007378 0.006347 0.093040 0.000000 0.000000 0.000000
# 4 0.000000 0.000000 0.000000 0.034763 0.000000 0.000000
# 5 0.000000 0.000000 0.000000 0.000000 0.048041 0.000000
# 6 0.000000 0.000000 0.000000 0.000000 0.000000 0.061236
#
#
# Mechanical properties :
#
#
# Convention : Reuss Voigt Hill
#
# Bulk Modulus (GPa) = 6.26748 12.71479 9.49114
# Shear Modulus (GPa) = 16.39301 21.81353 19.10327
#
# Velocity S-wave (km/s) = 2.64332 3.04918 2.85348
# Velocity P-wave (km/s) = 3.46231 4.22091 3.86029
#
# Compressibility (1/GPa) = 0.15955368
#
# Stress axis : x y z
#
# Youngs Moduli (GPa) = 37.39798 71.99631 10.74809
#
# Poissons Ratio (x) = 0.05632 -0.07930
# Poissons Ratio (y) = 0.02925 -0.06822
# Poissons Ratio (z) = -0.27592 -0.45694
#
# Static dielectric constant tensor:
#      x y z
#    x 1.889500 0.000000 0.000000 
#    y 0.000000 1.902880 0.000000 
#    z 0.000000 0.000000 1.923650 
# 
# From -- ./inp_files/16556.got.cif
#   From: 2010.05.17/outbox.cif.g08.bks.cpg/sg36_9_cif.got.tgz:16556.got - 2010.06.03 17:41:39.
