data_PCOD9350615
_publ_section_title
;
Structure prediction by ZEFSAII (Michael W. Deem and Ramdas Pophale) SiO2 
 PCOD9350615
Probable space group: C M C 21
;
_chemical_formula_sum "Si O2"
_cell_formula_units_Z 56
_cell_length_a 16.775663
_cell_length_b 17.416088
_cell_length_c 7.796366
_cell_angle_alpha 90.000000
_cell_angle_beta 90.000000
_cell_angle_gamma 90.000000
_cell_volume 2277.836367
_symmetry_space_group_name_H-M "C M C 21"
_symmetry_group_IT_number 36
_symmetry_cell_setting 'orthorhombic'
loop_
_space_group_symop_operation_xyz
x,y,z
-x,-y,1/2+z
x,-y,1/2+z
-x,y,z
1/2+x,1/2+y,z
1/2-x,1/2-y,1/2+z
1/2+x,1/2-y,1/2+z
1/2-x,1/2+y,z
loop_
_atom_site_type_symbol
_atom_site_label
_atom_site_fract_x
_atom_site_fract_y
_atom_site_fract_z
Si Si1 0.376353 0.545398 0.340780
Si Si2 0.590686 0.916903 0.470753
Si Si3 0.785606 0.447345 0.010621
Si Si4 0.664745 0.765192 0.591805
Si Si5 0.586980 0.847546 0.086249
Si Si6 0.841664 0.804174 0.708263
Si Si7 0.633364 0.607473 0.694219
O O1 0.280798 0.540076 0.368587
O O2 0.379996 0.611111 0.197224
O O3 0.401072 0.458144 0.315985
O O4 0.407438 0.583344 0.514231
O O5 0.500000 0.944022 0.502271
O O6 0.607437 0.837284 0.567653
O O7 0.596578 0.894539 0.267379
O O8 0.657609 0.978691 0.524497
O O9 0.844973 0.379042 0.964465
O O10 0.727635 0.413453 0.160187
O O11 0.753571 0.795204 0.630263
O O12 0.667593 0.720629 0.408293
O O13 0.633664 0.698384 0.720394
O O14 0.500000 0.861938 0.017198
O O15 0.601730 0.759625 0.128204
#
# Coordination Sequence:
#
# PCOD9350615 Si02
#       7
#     8   8   8   8   8   8   8
#     4   9  19  29  50  75 102 129 170 223 268 306
#     4  10  21  33  51  78 111 150 177 214 277 337
#     4  10  18  31  50  73 110 134 179 215 263 322
#     4  10  20  32  54  74 107 136 184 223 263 326
#     4  10  19  32  51  74 108 147 181 220 273 337
#     4  10  18  34  50  78 102 137 179 229 271 318
#     4   9  18  31  48  78  99 131 174 220 264 310
#
# _framework density 24.584734000000001
#
# number of rings (size 3 to 8) (size 9 to 14) (size 15 to 20)
#    0.857    1.429    1.429    2.143    2.000    0.000 
#    0.000    0.000    0.000    6.000    0.000    0.000 
#    0.000    0.000    0.000    0.000    0.000    0.143 
#
# Total GULP energy -156204.790547 kJ/mol
# GULP energy per Si atom -5578.742520 kJ/mol
# Density = 2.452878 g / cm^3
# Si number density = 24.584734 Si / 1000 Ang^3
#
#
#
# Elastic Constant Matrix: (Units=GPa)
#
#
# Indices 1 2 3 4 5 6 
#
# 1 99.0913 18.6811 -0.4868 0.0000 0.0000 0.0000
# 2 18.6811 121.2626 13.0673 0.0000 0.0000 0.0000
# 3 -0.4868 13.0673 34.0566 0.0000 0.0000 0.0000
# 4 0.0000 0.0000 0.0000 31.7749 0.0000 0.0000
# 5 0.0000 0.0000 0.0000 0.0000 -5.1585 0.0000
# 6 0.0000 0.0000 0.0000 0.0000 0.0000 98.9866
#
#
#
# Elastic Compliance Matrix: (Units=1/GPa)
#
#
# Indices 1 2 3 4 5 6 
#
# 1 0.010414 -0.001690 0.000797 0.000000 0.000000 0.000000
# 2 -0.001690 0.008877 -0.003430 0.000000 0.000000 0.000000
# 3 0.000797 -0.003430 0.030690 0.000000 0.000000 0.000000
# 4 0.000000 0.000000 0.000000 0.031471 0.000000 0.000000
# 5 0.000000 0.000000 0.000000 0.000000 -0.193855 0.000000
# 6 0.000000 0.000000 0.000000 0.000000 0.000000 0.010102
#
#
# Mechanical properties :
#
#
# Convention : Reuss Voigt Hill
#
# Bulk Modulus (GPa) = 24.19235 35.21485 29.70360
# Shear Modulus (GPa) = -62.59729 39.99720 -11.30005
#
# Velocity S-wave (km/s) = -5.05145 4.03788 -2.14624
# Velocity P-wave (km/s) = 4.91539 6.00785 2.44266
#
# Compressibility (1/GPa) = 0.04133539
#
# Stress axis : x y z
#
# Youngs Moduli (GPa) = 96.02193 112.65587 32.58351
#
# Poissons Ratio (x) = 0.19042 -0.02598
# Poissons Ratio (y) = 0.16231 0.11176
# Poissons Ratio (z) = -0.07657 0.38642
#
# Static dielectric constant tensor:
#      x y z
#    x 1.902090 0.000000 0.000000 
#    y 0.000000 2.005680 0.000000 
#    z 0.000000 0.000000 2.048110 
# 
# From -- ./inp_files/5289.got.cif
#   From: 2010.05.17/outbox.cif.g08.bks.cpg/sg36_3_cif.got.tgz:5289.got - 2010.06.03 17:41:39.
