data_PCOD9350448
_publ_section_title
;
Structure prediction by ZEFSAII (Michael W. Deem and Ramdas Pophale) SiO2 
 PCOD9350448
Probable space group: C M M 2
;
_chemical_formula_sum "Si O2"
_cell_formula_units_Z 40
_cell_length_a 17.103891
_cell_length_b 15.238950
_cell_length_c 9.001470
_cell_angle_alpha 90.000000
_cell_angle_beta 90.000000
_cell_angle_gamma 90.000000
_cell_volume 2346.191206
_symmetry_space_group_name_H-M "C M M 2"
_symmetry_group_IT_number 35
_symmetry_cell_setting 'orthorhombic'
loop_
_space_group_symop_operation_xyz
x,y,z
-x,-y,z
-x,y,z
x,-y,z
1/2+x,1/2+y,z
1/2-x,1/2-y,z
1/2-x,1/2+y,z
1/2+x,1/2-y,z
loop_
_atom_site_type_symbol
_atom_site_label
_atom_site_fract_x
_atom_site_fract_y
_atom_site_fract_z
Si Si1 0.738723 0.000000 0.336141
Si Si2 0.088967 0.500000 0.754121
Si Si3 0.410117 0.500000 0.440978
Si Si4 0.090634 0.814402 0.610747
Si Si5 0.726951 0.000000 0.996148
Si Si6 0.209363 0.164099 0.842099
Si Si7 0.825781 0.359944 0.564881
O O1 0.833591 0.000000 0.336900
O O2 0.707087 0.084264 0.427883
O O3 0.708495 0.000000 0.168956
O O4 0.150147 0.500000 0.890714
O O5 0.108145 0.583435 0.649748
O O6 0.000000 0.500000 0.804009
O O7 0.500000 0.500000 0.380488
O O8 0.402158 0.589025 0.538355
O O9 0.123361 0.819048 0.779206
O O10 0.141082 0.736904 0.533603
O O11 0.000000 0.790311 0.606106
O O12 0.777848 0.083978 0.950110
O O13 0.250000 0.250000 0.907838
O O14 0.257871 0.145336 0.689612
#
# Coordination Sequence:
#
# PCOD9350448 Si02
#       7
#     4   4   4   8   4   8   8
#     4  11  20  36  53  81 109 148 186 225 274 347
#     4   9  17  33  55  78 106 139 175 228 280 323
#     4  10  20  32  50  78 110 141 175 223 281 318
#     4  10  18  31  55  84 106 134 179 238 279 312
#     4  10  21  35  52  77 113 146 186 218 273 342
#     4   9  17  33  52  76 102 137 179 226 265 326
#     4   9  18  32  56  79 103 136 184 224 275 322
#
# _framework density 17.048909999999999
#
# number of rings (size 3 to 8) (size 9 to 14) (size 15 to 20)
#    0.000    2.400    2.000    1.800    0.000    0.000 
#    3.600    4.000    0.000    0.000    0.000    0.000 
#    0.000    0.000    0.000    0.000    0.000    0.000 
#
# Total GULP energy -111393.762330 kJ/mol
# GULP energy per Si atom -5569.688116 kJ/mol
# Density = 1.701011 g / cm^3
# Si number density = 17.048910 Si / 1000 Ang^3
#
#
#
# Elastic Constant Matrix: (Units=GPa)
#
#
# Indices 1 2 3 4 5 6 
#
# 1 78.7907 17.4613 16.4301 0.0000 0.0000 0.0000
# 2 17.4613 126.1823 38.2739 0.0000 0.0000 0.0000
# 3 16.4301 38.2739 63.6593 0.0000 0.0000 0.0000
# 4 0.0000 0.0000 0.0000 -2.6959 0.0000 0.0000
# 5 0.0000 0.0000 0.0000 0.0000 12.6993 0.0000
# 6 0.0000 0.0000 0.0000 0.0000 0.0000 23.1992
#
#
#
# Elastic Compliance Matrix: (Units=1/GPa)
#
#
# Indices 1 2 3 4 5 6 
#
# 1 0.013515 -0.000993 -0.002891 0.000000 0.000000 0.000000
# 2 -0.000993 0.009766 -0.005615 0.000000 0.000000 0.000000
# 3 -0.002891 -0.005615 0.019831 0.000000 0.000000 0.000000
# 4 0.000000 0.000000 0.000000 -0.370927 0.000000 0.000000
# 5 0.000000 0.000000 0.000000 0.000000 0.078745 0.000000
# 6 0.000000 0.000000 0.000000 0.000000 0.000000 0.043105
#
#
# Mechanical properties :
#
#
# Convention : Reuss Voigt Hill
#
# Bulk Modulus (GPa) = 41.47198 45.88476 43.67837
# Shear Modulus (GPa) = -27.94383 19.73831 -4.10276
#
# Velocity S-wave (km/s) = -4.05290 3.40626 -1.55296
# Velocity P-wave (km/s) = 1.57379 6.51476 4.73914
#
# Compressibility (1/GPa) = 0.02411266
#
# Stress axis : x y z
#
# Youngs Moduli (GPa) = 73.99289 102.39955 50.42698
#
# Poissons Ratio (x) = 0.10172 0.14578
# Poissons Ratio (y) = 0.07350 0.28315
# Poissons Ratio (z) = 0.21390 0.57498
#
# Static dielectric constant tensor:
#      x y z
#    x 1.610730 0.000000 0.000000 
#    y 0.000000 1.617960 0.000000 
#    z 0.000000 0.000000 1.535040 
# 
# From -- ./inp_files/9171.got.cif
#   From: 2010.05.17/outbox.cif.g08.bks.cpg/sg35_5_cif.got.tgz:9171.got - 2010.06.03 17:29:28.
