data_PCOD9350043
_publ_section_title
;
Structure prediction by ZEFSAII (Michael W. Deem and Ramdas Pophale) SiO2 
 PCOD9350043
Probable space group: C M M 2
;
_chemical_formula_sum "Si O2"
_cell_formula_units_Z 40
_cell_length_a 16.551778
_cell_length_b 18.036402
_cell_length_c 5.826419
_cell_angle_alpha 90.000000
_cell_angle_beta 90.000000
_cell_angle_gamma 90.000000
_cell_volume 1739.387210
_symmetry_space_group_name_H-M "C M M 2"
_symmetry_group_IT_number 35
_symmetry_cell_setting 'orthorhombic'
loop_
_space_group_symop_operation_xyz
x,y,z
-x,-y,z
-x,y,z
x,-y,z
1/2+x,1/2+y,z
1/2-x,1/2-y,z
1/2-x,1/2+y,z
1/2+x,1/2-y,z
loop_
_atom_site_type_symbol
_atom_site_label
_atom_site_fract_x
_atom_site_fract_y
_atom_site_fract_z
Si Si1 0.906819 0.210355 0.995600
Si Si2 0.791123 0.818386 0.615823
Si Si3 0.634843 0.088305 0.721493
Si Si4 0.872585 0.360323 0.218152
Si Si5 0.184181 0.087430 0.232198
O O1 0.846979 0.227112 0.788004
O O2 0.000000 0.211288 0.935212
O O3 0.890671 0.273215 0.186235
O O4 0.874722 0.129115 0.060365
O O5 0.750000 0.750000 0.479522
O O6 0.721339 0.869786 0.722935
O O7 0.842658 0.876447 0.472462
O O8 0.598165 0.112660 0.471483
O O9 0.645699 0.000000 0.710278
O O10 0.596054 0.106806 0.971631
O O11 0.777671 0.384898 0.217315
O O12 0.182507 0.000000 0.219725
#
# Coordination Sequence:
#
# PCOD9350043 Si02
#       5
#     8   8   8   8   8
#     4  12  26  42  63  94 139 186 223 269 336 419
#     4  11  20  39  65  97 128 171 227 282 334 394
#     4  11  21  38  71 103 129 163 218 293 345 383
#     4  11  22  42  67 102 133 173 230 282 331 398
#     4  11  23  41  69 100 130 170 226 291 346 396
#
# _framework density 22.996606
#
# number of rings (size 3 to 8) (size 9 to 14) (size 15 to 20)
#    0.000    0.800    4.000    6.600    0.000    2.000 
#    0.000    0.000    0.000    6.600    0.000    0.000 
#    0.000    0.000    0.000    0.000    0.000    0.000 
#
# Total GULP energy -111480.069336 kJ/mol
# GULP energy per Si atom -5574.003467 kJ/mol
# Density = 2.294427 g / cm^3
# Si number density = 22.996606 Si / 1000 Ang^3
#
#
#
# Elastic Constant Matrix: (Units=GPa)
#
#
# Indices 1 2 3 4 5 6 
#
# 1 78.3818 41.1080 21.8928 0.0000 0.0000 0.0000
# 2 41.1080 183.7149 30.2523 0.0000 0.0000 0.0000
# 3 21.8928 30.2523 145.3183 0.0000 0.0000 0.0000
# 4 0.0000 0.0000 0.0000 38.0990 0.0000 0.0000
# 5 0.0000 0.0000 0.0000 0.0000 -19.9286 0.0000
# 6 0.0000 0.0000 0.0000 0.0000 0.0000 4.3236
#
#
#
# Elastic Compliance Matrix: (Units=1/GPa)
#
#
# Indices 1 2 3 4 5 6 
#
# 1 0.014803 -0.003050 -0.001595 0.000000 0.000000 0.000000
# 2 -0.003050 0.006265 -0.000845 0.000000 0.000000 0.000000
# 3 -0.001595 -0.000845 0.007298 0.000000 0.000000 0.000000
# 4 0.000000 0.000000 0.000000 0.026247 0.000000 0.000000
# 5 0.000000 0.000000 0.000000 0.000000 -0.050179 0.000000
# 6 0.000000 0.000000 0.000000 0.000000 0.000000 0.231291
#
#
# Mechanical properties :
#
#
# Convention : Reuss Voigt Hill
#
# Bulk Modulus (GPa) = 57.51724 65.99126 61.75425
# Shear Modulus (GPa) = 19.80206 25.44292 22.62249
#
# Velocity S-wave (km/s) = 2.93761 3.32983 3.13985
# Velocity P-wave (km/s) = 6.04744 6.59864 6.32905
#
# Compressibility (1/GPa) = 0.01738609
#
# Stress axis : x y z
#
# Youngs Moduli (GPa) = 67.55368 159.62439 137.03060
#
# Poissons Ratio (x) = 0.48680 0.21860
# Poissons Ratio (y) = 0.20601 0.11576
# Poissons Ratio (z) = 0.10777 0.13484
#
# Static dielectric constant tensor:
#      x y z
#    x 1.866420 0.000000 0.000000 
#    y 0.000000 1.816010 0.000000 
#    z 0.000000 0.000000 2.092650 
# 
# From -- ./inp_files/2343.got.cif
#   From: 2010.05.17/outbox.cif.g08.bks.cpg/sg35_2_cif.got.tgz:2343.got - 2010.06.03 17:29:28.
