data_PCOD9350694
_publ_section_title
;
Structure prediction by ZEFSAII (Michael W. Deem and Ramdas Pophale) SiO2 
 PCOD9350694
Probable space group: C M C 21
;
_chemical_formula_sum "Si O2"
_cell_formula_units_Z 48
_cell_length_a 7.459897
_cell_length_b 20.726614
_cell_length_c 14.579111
_cell_angle_alpha 90.000000
_cell_angle_beta 90.000000
_cell_angle_gamma 90.000000
_cell_volume 2254.198898
_symmetry_space_group_name_H-M "C M C 21"
_symmetry_group_IT_number 36
_symmetry_cell_setting 'orthorhombic'
loop_
_space_group_symop_operation_xyz
x,y,z
-x,-y,1/2+z
x,-y,1/2+z
-x,y,z
1/2+x,1/2+y,z
1/2-x,1/2-y,1/2+z
1/2+x,1/2-y,1/2+z
1/2-x,1/2+y,z
loop_
_atom_site_type_symbol
_atom_site_label
_atom_site_fract_x
_atom_site_fract_y
_atom_site_fract_z
Si Si1 0.716652 0.556416 0.503590
Si Si2 0.791695 0.865429 0.685862
Si Si3 0.219258 0.196333 0.998350
Si Si4 0.280519 0.486624 0.199246
Si Si5 0.293829 0.818673 0.885905
Si Si6 0.782112 0.068951 0.891848
O O1 0.500000 0.559469 0.500006
O O2 0.772144 0.552673 0.609045
O O3 0.783781 0.615734 0.444096
O O4 0.771873 0.488973 0.458516
O O5 0.719429 0.822624 0.601364
O O6 0.784097 0.831726 0.785015
O O7 0.000000 0.875472 0.662283
O O8 0.718141 0.938663 0.694100
O O9 0.000000 0.200428 0.001626
O O10 0.282853 0.262021 0.950188
O O11 0.272587 0.137073 0.932874
O O12 0.500000 0.488476 0.201777
O O13 0.221024 0.450777 0.290928
O O14 0.500000 0.802127 0.867806
O O15 0.000000 0.069883 0.890791
#
# Coordination Sequence:
#
# PCOD9350694 Si02
#       6
#     8   8   8   8   8   8
#     4  10  18  32  57  83 103 134 184 231 262 303
#     4  10  18  35  60  80 100 139 190 230 264 310
#     4   9  19  34  53  77 110 145 176 219 272 321
#     4   9  16  27  54  88 104 123 176 237 269 293
#     4  11  23  36  51  80 119 149 169 209 279 341
#     4   9  15  28  53  82 104 128 179 236 266 292
#
# _framework density 21.293596999999998
#
# number of rings (size 3 to 8) (size 9 to 14) (size 15 to 20)
#    0.000    2.333    3.333    0.500    0.000    1.333 
#    0.000    4.167    0.000    2.000    0.000    0.000 
#    0.000    0.000    0.000    0.000    0.000    0.000 
#
# Total GULP energy -133969.331135 kJ/mol
# GULP energy per Si atom -5582.055464 kJ/mol
# Density = 2.124513 g / cm^3
# Si number density = 21.293597 Si / 1000 Ang^3
#
#
#
# Elastic Constant Matrix: (Units=GPa)
#
#
# Indices 1 2 3 4 5 6 
#
# 1 55.4510 -8.4876 -7.3198 0.0000 0.0000 0.0000
# 2 -8.4876 88.3559 12.9275 0.0000 0.0000 0.0000
# 3 -7.3198 12.9275 123.9700 0.0000 0.0000 0.0000
# 4 0.0000 0.0000 0.0000 30.7913 0.0000 0.0000
# 5 0.0000 0.0000 0.0000 0.0000 4.0393 0.0000
# 6 0.0000 0.0000 0.0000 0.0000 0.0000 6.4089
#
#
#
# Elastic Compliance Matrix: (Units=1/GPa)
#
#
# Indices 1 2 3 4 5 6 
#
# 1 0.018405 0.001634 0.000916 0.000000 0.000000 0.000000
# 2 0.001634 0.011638 -0.001117 0.000000 0.000000 0.000000
# 3 0.000916 -0.001117 0.008237 0.000000 0.000000 0.000000
# 4 0.000000 0.000000 0.000000 0.032477 0.000000 0.000000
# 5 0.000000 0.000000 0.000000 0.000000 0.247566 0.000000
# 6 0.000000 0.000000 0.000000 0.000000 0.000000 0.156032
#
#
# Mechanical properties :
#
#
# Convention : Reuss Voigt Hill
#
# Bulk Modulus (GPa) = 24.30337 29.11302 26.70819
# Shear Modulus (GPa) = 10.30494 26.29171 18.29832
#
# Velocity S-wave (km/s) = 2.20226 3.51768 2.93462
# Velocity P-wave (km/s) = 4.23141 5.49551 4.90436
#
# Compressibility (1/GPa) = 0.04114656
#
# Stress axis : x y z
#
# Youngs Moduli (GPa) = 54.33310 85.92342 121.40236
#
# Poissons Ratio (x) = -0.14039 -0.11125
# Poissons Ratio (y) = -0.08878 0.13563
# Poissons Ratio (z) = -0.04979 0.09599
#
# Static dielectric constant tensor:
#      x y z
#    x 1.825670 0.000000 0.000000 
#    y 0.000000 1.723720 0.000000 
#    z 0.000000 0.000000 1.748880 
# 
# From -- ./inp_files/10350.got.cif
#   From: 2010.05.17/outbox.cif.g08.bks.cpg/sg36_6_cif.got.tgz:10350.got - 2010.06.03 17:41:39.
