data_PCOD9350107
_publ_section_title
;
Structure prediction by ZEFSAII (Michael W. Deem and Ramdas Pophale) SiO2 
 PCOD9350107
Probable space group: C M M 2
;
_chemical_formula_sum "Si O2"
_cell_formula_units_Z 48
_cell_length_a 9.708667
_cell_length_b 14.995135
_cell_length_c 15.693019
_cell_angle_alpha 90.000000
_cell_angle_beta 90.000000
_cell_angle_gamma 90.000000
_cell_volume 2284.633212
_symmetry_space_group_name_H-M "C M M 2"
_symmetry_group_IT_number 35
_symmetry_cell_setting 'orthorhombic'
loop_
_space_group_symop_operation_xyz
x,y,z
-x,-y,z
-x,y,z
x,-y,z
1/2+x,1/2+y,z
1/2-x,1/2-y,z
1/2-x,1/2+y,z
1/2+x,1/2-y,z
loop_
_atom_site_type_symbol
_atom_site_label
_atom_site_fract_x
_atom_site_fract_y
_atom_site_fract_z
Si Si1 0.343797 0.106983 0.041150
Si Si2 0.658030 0.108910 0.848570
Si Si3 0.337674 0.335979 0.198957
Si Si4 0.155930 0.609266 0.531247
Si Si5 0.842504 0.890886 0.691326
Si Si6 0.848787 0.103333 0.384380
O O1 0.500000 0.138332 0.062297
O O2 0.233645 0.131251 0.112479
O O3 0.349501 0.000000 0.038142
O O4 0.309534 0.137836 0.945288
O O5 0.500000 0.134732 0.828729
O O6 0.765362 0.138317 0.777384
O O7 0.659950 0.000000 0.848339
O O8 0.500000 0.321053 0.185843
O O9 0.250000 0.250000 0.222875
O O10 0.322894 0.395400 0.283416
O O11 0.149008 0.500000 0.532291
O O12 0.252669 0.635688 0.609804
O O13 0.227771 0.639470 0.443499
O O14 0.000000 0.641637 0.539899
O O15 0.000000 0.860382 0.686771
O O16 0.844809 0.000000 0.691912
O O17 0.000000 0.145326 0.399148
O O18 0.859689 0.000000 0.409967
#
# Coordination Sequence:
#
# PCOD9350107 Si02
#       6
#     8   8   8   8   8   8
#     4   9  18  33  53  76 102 132 166 206 251 298
#     4   8  14  25  41  63  93 127 160 195 237 284
#     4  11  23  37  53  73  99 131 167 208 253 301
#     4   9  16  25  40  64  93 125 159 195 237 285
#     4   9  15  22  35  59  93 129 160 193 234 279
#     4   9  18  33  51  71  96 126 161 202 247 293
#
# _framework density 21.009936
#
# number of rings (size 3 to 8) (size 9 to 14) (size 15 to 20)
#    0.000    2.833    0.000    3.000    0.000    7.000 
#    0.000    3.333    0.000    0.000    0.000    1.167 
#    0.000    2.667    0.000    0.000    0.000    0.000 
#
# Total GULP energy -133876.162284 kJ/mol
# GULP energy per Si atom -5578.173428 kJ/mol
# Density = 2.096212 g / cm^3
# Si number density = 21.009936 Si / 1000 Ang^3
#
#
#
# Elastic Constant Matrix: (Units=GPa)
#
#
# Indices 1 2 3 4 5 6 
#
# 1 208.4923 11.6530 130.1562 0.0000 0.0000 0.0000
# 2 11.6530 26.2610 -0.6765 0.0000 0.0000 0.0000
# 3 130.1562 -0.6765 146.5530 0.0000 0.0000 0.0000
# 4 0.0000 0.0000 0.0000 -27.2669 0.0000 0.0000
# 5 0.0000 0.0000 0.0000 0.0000 45.4779 0.0000
# 6 0.0000 0.0000 0.0000 0.0000 0.0000 8.2625
#
#
#
# Elastic Compliance Matrix: (Units=1/GPa)
#
#
# Indices 1 2 3 4 5 6 
#
# 1 0.011471 -0.005353 -0.010212 0.000000 0.000000 0.000000
# 2 -0.005353 0.040582 0.004941 0.000000 0.000000 0.000000
# 3 -0.010212 0.004941 0.015916 0.000000 0.000000 0.000000
# 4 0.000000 0.000000 0.000000 -0.036675 0.000000 0.000000
# 5 0.000000 0.000000 0.000000 0.000000 0.021989 0.000000
# 6 0.000000 0.000000 0.000000 0.000000 0.000000 0.121028
#
#
# Mechanical properties :
#
#
# Convention : Reuss Voigt Hill
#
# Bulk Modulus (GPa) = 21.40355 73.73018 47.56687
# Shear Modulus (GPa) = 23.68194 21.30628 22.49411
#
# Velocity S-wave (km/s) = 3.36099 3.18796 3.27562
# Velocity P-wave (km/s) = 5.02704 6.97997 6.08240
#
# Compressibility (1/GPa) = 0.04672122
#
# Stress axis : x y z
#
# Youngs Moduli (GPa) = 87.17985 24.64148 62.83132
#
# Poissons Ratio (x) = 0.13191 0.64163
# Poissons Ratio (y) = 0.46667 -0.31048
# Poissons Ratio (z) = 0.89027 -0.12176
#
# Static dielectric constant tensor:
#      x y z
#    x 1.729040 0.000000 0.000000 
#    y 0.000000 1.804260 0.000000 
#    z 0.000000 0.000000 1.756680 
# 
# From -- ./inp_files/15113.got.cif
#   From: 2010.05.17/outbox.cif.g08.bks.cpg/sg35_8_cif.got.tgz:15113.got - 2010.06.03 17:29:28.
