data_PCOD9350373
_publ_section_title
;
Structure prediction by ZEFSAII (Michael W. Deem and Ramdas Pophale) SiO2 
 PCOD9350373
Probable space group: C M M 2
;
_chemical_formula_sum "Si O2"
_cell_formula_units_Z 56
_cell_length_a 8.717711
_cell_length_b 18.846212
_cell_length_c 19.184407
_cell_angle_alpha 90.000000
_cell_angle_beta 90.000000
_cell_angle_gamma 90.000000
_cell_volume 3151.918065
_symmetry_space_group_name_H-M "C M M 2"
_symmetry_group_IT_number 35
_symmetry_cell_setting 'orthorhombic'
loop_
_space_group_symop_operation_xyz
x,y,z
-x,-y,z
-x,y,z
x,-y,z
1/2+x,1/2+y,z
1/2-x,1/2-y,z
1/2-x,1/2+y,z
1/2+x,1/2-y,z
loop_
_atom_site_type_symbol
_atom_site_label
_atom_site_fract_x
_atom_site_fract_y
_atom_site_fract_z
Si Si1 0.315111 0.829584 0.836120
Si Si2 0.679583 0.086333 0.260739
Si Si3 0.184404 0.418109 0.972034
Si Si4 0.684926 0.829534 0.548360
Si Si5 0.681024 0.415346 0.116541
Si Si6 0.812976 0.581796 0.412907
Si Si7 0.683713 0.669488 0.692139
O O1 0.500000 0.827048 0.830904
O O2 0.250000 0.750000 0.843125
O O3 0.269788 0.873926 0.904235
O O4 0.247252 0.861549 0.764439
O O5 0.500000 0.103456 0.254886
O O6 0.761065 0.112712 0.190894
O O7 0.738573 0.109710 0.336875
O O8 0.691530 0.000000 0.262781
O O9 0.237315 0.500000 0.965489
O O10 0.000000 0.418680 0.974631
O O11 0.243763 0.387741 0.045506
O O12 0.500000 0.827368 0.553262
O O13 0.750000 0.750000 0.542073
O O14 0.731434 0.872813 0.479727
O O15 0.752340 0.861820 0.619993
O O16 0.500000 0.407125 0.112043
O O17 0.717609 0.500000 0.117440
O O18 0.764070 0.500000 0.420910
O O19 0.000000 0.581537 0.410206
O O20 0.500000 0.671156 0.692003
O O21 0.750000 0.750000 0.692183
#
# Coordination Sequence:
#
# PCOD9350373 Si02
#       7
#     8   8   8   8   8   8   8
#     4  10  19  32  51  72  93 118 151 190 229 270
#     4   8  13  24  43  64  86 114 151 191 226 264
#     4   9  18  32  49  69  93 122 155 188 223 267
#     4  10  18  30  49  70  93 119 151 190 228 270
#     4   9  16  25  40  65  94 121 150 186 228 269
#     4   8  15  28  47  70  92 118 154 192 227 265
#     4  10  18  30  48  68  91 119 154 190 223 266
#
# _framework density 17.766957999999999
#
# number of rings (size 3 to 8) (size 9 to 14) (size 15 to 20)
#    0.000    2.857    0.000    5.143    0.000    2.857 
#    0.000    2.143    0.000    8.571    0.000    2.000 
#    0.000    0.000    0.000    0.000    0.000    0.000 
#
# Total GULP energy -155927.360059 kJ/mol
# GULP energy per Si atom -5568.834288 kJ/mol
# Density = 1.772652 g / cm^3
# Si number density = 17.766958 Si / 1000 Ang^3
#
#
#
# Elastic Constant Matrix: (Units=GPa)
#
#
# Indices 1 2 3 4 5 6 
#
# 1 31.8961 6.5661 52.7759 0.0000 0.0000 0.0000
# 2 6.5661 23.4468 49.0364 0.0000 0.0000 0.0000
# 3 52.7759 49.0364 232.3181 0.0000 0.0000 0.0000
# 4 0.0000 0.0000 0.0000 49.8251 0.0000 0.0000
# 5 0.0000 0.0000 0.0000 0.0000 23.9030 0.0000
# 6 0.0000 0.0000 0.0000 0.0000 0.0000 12.4632
#
#
#
# Elastic Compliance Matrix: (Units=1/GPa)
#
#
# Indices 1 2 3 4 5 6 
#
# 1 0.054616 0.019073 -0.016433 0.000000 0.000000 0.000000
# 2 0.019073 0.083017 -0.021855 0.000000 0.000000 0.000000
# 3 -0.016433 -0.021855 0.012651 0.000000 0.000000 0.000000
# 4 0.000000 0.000000 0.000000 0.020070 0.000000 0.000000
# 5 0.000000 0.000000 0.000000 0.000000 0.041836 0.000000
# 6 0.000000 0.000000 0.000000 0.000000 0.000000 0.080236
#
#
# Mechanical properties :
#
#
# Convention : Reuss Voigt Hill
#
# Bulk Modulus (GPa) = 8.94041 56.04642 32.49341
# Shear Modulus (GPa) = 13.58178 29.19045 21.38612
#
# Velocity S-wave (km/s) = 2.76785 4.05775 3.47320
# Velocity P-wave (km/s) = 3.90610 7.31898 5.86622
#
# Compressibility (1/GPa) = 0.11185171
#
# Stress axis : x y z
#
# Youngs Moduli (GPa) = 18.30981 12.04574 79.04748
#
# Poissons Ratio (x) = -0.22974 1.29897
# Poissons Ratio (y) = -0.34922 1.72762
# Poissons Ratio (z) = 0.30088 0.26327
#
# Static dielectric constant tensor:
#      x y z
#    x 1.602110 0.000000 0.000000 
#    y 0.000000 1.599630 0.000000 
#    z 0.000000 0.000000 1.663200 
# 
# From -- ./inp_files/18215.got.cif
#   From: 2010.05.17/outbox.cif.g08.bks.cpg/sg35_10_cif.got.tgz:18215.got - 2010.06.03 17:29:28.
