data_PCOD9350282
_publ_section_title
;
Structure prediction by ZEFSAII (Michael W. Deem and Ramdas Pophale) SiO2 
 PCOD9350282
Probable space group: C M M 2
;
_chemical_formula_sum "Si O2"
_cell_formula_units_Z 64
_cell_length_a 20.180507
_cell_length_b 19.975525
_cell_length_c 9.562859
_cell_angle_alpha 90.000000
_cell_angle_beta 90.000000
_cell_angle_gamma 90.000000
_cell_volume 3854.943592
_symmetry_space_group_name_H-M "C M M 2"
_symmetry_group_IT_number 35
_symmetry_cell_setting 'orthorhombic'
loop_
_space_group_symop_operation_xyz
x,y,z
-x,-y,z
-x,y,z
x,-y,z
1/2+x,1/2+y,z
1/2-x,1/2-y,z
1/2-x,1/2+y,z
1/2+x,1/2-y,z
loop_
_atom_site_type_symbol
_atom_site_label
_atom_site_fract_x
_atom_site_fract_y
_atom_site_fract_z
Si Si1 0.792499 0.815625 0.732120
Si Si2 0.752484 0.924801 0.508846
Si Si3 0.907524 0.071288 0.446320
Si Si4 0.424594 0.288233 0.567408
Si Si5 0.573005 0.383770 0.132406
Si Si6 0.141741 0.765883 0.269368
Si Si7 0.227214 0.641982 0.238204
Si Si8 0.297411 0.423619 0.978967
O O1 0.750000 0.750000 0.765021
O O2 0.756067 0.861909 0.614413
O O3 0.864540 0.788580 0.679529
O O4 0.796801 0.867379 0.859756
O O5 0.828258 0.929337 0.456236
O O6 0.711870 0.904171 0.371498
O O7 0.734963 0.000000 0.561510
O O8 0.931187 0.133100 0.535077
O O9 0.926499 0.083024 0.286064
O O10 0.930390 0.000000 0.497926
O O11 0.500000 0.262904 0.597086
O O12 0.393934 0.260155 0.420548
O O13 0.500000 0.387861 0.071264
O O14 0.594399 0.307079 0.165100
O O15 0.629148 0.419189 0.043584
O O16 0.168753 0.695230 0.215960
O O17 0.207309 0.813478 0.278811
O O18 0.248038 0.599431 0.103256
O O19 0.283963 0.500000 0.933140
#
# Coordination Sequence:
#
# PCOD9350282 Si02
#       8
#     8   8   8   8   8   8   8   8
#     4  11  23  37  53  71 104 147 182 218 270 328
#     4  10  17  30  50  74 100 131 173 222 268 315
#     4   9  15  25  43  68  97 135 173 201 240 298
#     4  10  19  32  49  74 105 135 175 229 268 310
#     4  10  19  30  46  69 104 144 177 208 251 309
#     4   9  16  28  50  76 102 132 178 223 262 311
#     4  10  17  29  54  75 101 134 179 222 272 312
#     4  11  23  36  50  76 109 142 181 228 268 318
#
# _framework density 16.602058
#
# number of rings (size 3 to 8) (size 9 to 14) (size 15 to 20)
#    0.000    2.000    5.000    3.375    3.500    2.750 
#    0.000    0.000    0.000    0.000    0.000    0.000 
#    0.000   31.000    0.000    0.000    0.000    0.000 
#
# Total GULP energy -178143.378926 kJ/mol
# GULP energy per Si atom -5566.980591 kJ/mol
# Density = 1.656427 g / cm^3
# Si number density = 16.602058 Si / 1000 Ang^3
#
#
#
# Elastic Constant Matrix: (Units=GPa)
#
#
# Indices 1 2 3 4 5 6 
#
# 1 54.2045 35.3992 16.1769 0.0000 0.0000 0.0000
# 2 35.3992 85.6277 15.5012 0.0000 0.0000 0.0000
# 3 16.1769 15.5012 49.5936 0.0000 0.0000 0.0000
# 4 0.0000 0.0000 0.0000 2.6872 0.0000 0.0000
# 5 0.0000 0.0000 0.0000 0.0000 9.0970 0.0000
# 6 0.0000 0.0000 0.0000 0.0000 0.0000 6.6622
#
#
#
# Elastic Compliance Matrix: (Units=1/GPa)
#
#
# Indices 1 2 3 4 5 6 
#
# 1 0.026645 -0.010008 -0.005563 0.000000 0.000000 0.000000
# 2 -0.010008 0.016138 -0.001780 0.000000 0.000000 0.000000
# 3 -0.005563 -0.001780 0.022535 0.000000 0.000000 0.000000
# 4 0.000000 0.000000 0.000000 0.372135 0.000000 0.000000
# 5 0.000000 0.000000 0.000000 0.000000 0.109926 0.000000
# 6 0.000000 0.000000 0.000000 0.000000 0.000000 0.150100
#
#
# Mechanical properties :
#
#
# Convention : Reuss Voigt Hill
#
# Bulk Modulus (GPa) = 32.66266 35.95339 34.30803
# Shear Modulus (GPa) = 6.73503 11.84584 9.29044
#
# Velocity S-wave (km/s) = 2.01632 2.67407 2.36814
# Velocity P-wave (km/s) = 5.01371 5.58902 5.30917
#
# Compressibility (1/GPa) = 0.03061600
#
# Stress axis : x y z
#
# Youngs Moduli (GPa) = 37.53063 61.96524 44.37582
#
# Poissons Ratio (x) = 0.62016 0.24687
# Poissons Ratio (y) = 0.37561 0.07897
# Poissons Ratio (z) = 0.20879 0.11028
#
# Static dielectric constant tensor:
#      x y z
#    x 1.532860 0.000000 0.000000 
#    y 0.000000 1.582330 0.000000 
#    z 0.000000 0.000000 1.591040 
# 
# From -- ./inp_files/9519.got.cif
#   From: 2010.05.17/outbox.cif.g08.bks.cpg/sg35_5_cif.got.tgz:9519.got - 2010.06.03 17:29:28.
