data_PCOD9350065
_publ_section_title
;
Structure prediction by ZEFSAII (Michael W. Deem and Ramdas Pophale) SiO2 
 PCOD9350065
Probable space group: C M M 2
;
_chemical_formula_sum "Si O2"
_cell_formula_units_Z 56
_cell_length_a 21.879288
_cell_length_b 14.657121
_cell_length_c 9.602064
_cell_angle_alpha 90.000000
_cell_angle_beta 90.000000
_cell_angle_gamma 90.000000
_cell_volume 3079.260666
_symmetry_space_group_name_H-M "C M M 2"
_symmetry_group_IT_number 35
_symmetry_cell_setting 'orthorhombic'
loop_
_space_group_symop_operation_xyz
x,y,z
-x,-y,z
-x,y,z
x,-y,z
1/2+x,1/2+y,z
1/2-x,1/2-y,z
1/2-x,1/2+y,z
1/2+x,1/2-y,z
loop_
_atom_site_type_symbol
_atom_site_label
_atom_site_fract_x
_atom_site_fract_y
_atom_site_fract_z
Si Si1 0.250000 0.394894 0.323170
Si Si2 0.426387 0.250000 0.659484
Si Si3 0.883823 0.895004 0.880914
Si Si4 0.250000 0.640371 0.992041
Si Si5 0.429843 0.250000 0.099991
Si Si6 0.383822 0.104996 0.880914
Si Si7 0.148081 0.250000 0.378542
O O1 0.250000 0.500000 0.365414
O O2 0.250000 0.390038 0.153695
O O3 0.191742 0.338597 0.377705
O O4 0.308258 0.338597 0.377705
O O5 0.500000 0.250000 0.660698
O O6 0.401504 0.337935 0.744035
O O7 0.401504 0.162065 0.744035
O O8 0.398121 0.250000 0.506427
O O9 0.903030 0.000000 0.874225
O O10 0.811451 0.890530 0.914570
O O11 0.915243 0.838184 0.005570
O O12 0.250000 0.750000 0.994260
O O13 0.188549 0.609470 0.914569
O O14 0.500000 0.249999 0.141243
O O15 0.387028 0.250000 0.232919
O O16 0.415242 0.161816 0.005570
O O17 0.403030 0.000000 0.874225
#
# Coordination Sequence:
#
# PCOD9350065 Si02
#       7
#     8   8   8   8   8   8   8
#     4  11  21  38  64  95 124 152 191 256 319 362
#     4  11  26  44  60  83 127 173 207 247 294 356
#     4  11  22  39  65  92 121 159 202 253 309 361
#     4  12  18  37  66  98 127 150 192 257 321 363
#     4  11  22  37  60  90 120 159 212 256 294 349
#     4  11  22  39  65  92 121 159 202 253 309 361
#     4  11  23  41  62  89 124 161 203 247 302 368
#
# _framework density 18.186183
#
# number of rings (size 3 to 8) (size 9 to 14) (size 15 to 20)
#    0.000    0.857    7.143    3.429    0.000    5.714 
#    0.000    0.000    0.000    5.143    0.000    0.000 
#    0.000    0.000    0.000    0.000    0.000    0.000 
#
# Total GULP energy -156484.937578 kJ/mol
# GULP energy per Si atom -5588.747771 kJ/mol
# Density = 1.814479 g / cm^3
# Si number density = 18.186183 Si / 1000 Ang^3
#
#
#
# Elastic Constant Matrix: (Units=GPa)
#
#
# Indices 1 2 3 4 5 6 
#
# 1 83.3734 21.3701 -2.1570 0.0000 0.0000 0.0000
# 2 21.3701 183.5265 30.0954 0.0000 0.0000 0.0000
# 3 -2.1570 30.0954 73.9909 0.0000 0.0000 0.0000
# 4 0.0000 0.0000 0.0000 4.9574 0.0000 0.0000
# 5 0.0000 0.0000 0.0000 0.0000 4.3732 0.0000
# 6 0.0000 0.0000 0.0000 0.0000 0.0000 -18.2327
#
#
#
# Elastic Compliance Matrix: (Units=1/GPa)
#
#
# Indices 1 2 3 4 5 6 
#
# 1 0.012435 -0.001615 0.001019 0.000000 0.000000 0.000000
# 2 -0.001615 0.006048 -0.002507 0.000000 0.000000 0.000000
# 3 0.001019 -0.002507 0.014565 0.000000 0.000000 0.000000
# 4 0.000000 0.000000 0.000000 0.201720 0.000000 0.000000
# 5 0.000000 0.000000 0.000000 0.000000 0.228667 0.000000
# 6 0.000000 0.000000 0.000000 0.000000 0.000000 -0.054847
#
#
# Mechanical properties :
#
#
# Convention : Reuss Voigt Hill
#
# Bulk Modulus (GPa) = 37.25541 48.83422 43.04481
# Shear Modulus (GPa) = 11.79967 17.65838 14.72903
#
# Velocity S-wave (km/s) = 2.54997 3.11943 2.84897
# Velocity P-wave (km/s) = 5.40369 6.31547 5.87729
#
# Compressibility (1/GPa) = 0.02684174
#
# Stress axis : x y z
#
# Youngs Moduli (GPa) = 80.42093 165.34430 68.65946
#
# Poissons Ratio (x) = 0.26704 -0.06999
# Poissons Ratio (y) = 0.12989 0.17213
# Poissons Ratio (z) = -0.08198 0.41453
#
# Static dielectric constant tensor:
#      x y z
#    x 1.625770 0.000000 0.000000 
#    y 0.000000 1.616990 0.000000 
#    z 0.000000 0.000000 1.594420 
# 
# From -- ./inp_files/9277.got.cif
#   From: 2010.05.17/outbox.cif.g08.bks.cpg/sg35_5_cif.got.tgz:9277.got - 2010.06.03 17:29:28.
