data_PCOD9350481
_publ_section_title
;
Structure prediction by ZEFSAII (Michael W. Deem and Ramdas Pophale) SiO2 
 PCOD9350481
Probable space group: C M C 21
;
_chemical_formula_sum "Si O2"
_cell_formula_units_Z 64
_cell_length_a 8.593445
_cell_length_b 13.974573
_cell_length_c 22.044643
_cell_angle_alpha 90.000000
_cell_angle_beta 90.000000
_cell_angle_gamma 90.000000
_cell_volume 2647.335104
_symmetry_space_group_name_H-M "C M C 21"
_symmetry_group_IT_number 36
_symmetry_cell_setting 'orthorhombic'
loop_
_space_group_symop_operation_xyz
x,y,z
-x,-y,1/2+z
x,-y,1/2+z
-x,y,z
1/2+x,1/2+y,z
1/2-x,1/2-y,1/2+z
1/2+x,1/2-y,1/2+z
1/2-x,1/2+y,z
loop_
_atom_site_type_symbol
_atom_site_label
_atom_site_fract_x
_atom_site_fract_y
_atom_site_fract_z
Si Si1 0.820282 0.258386 0.023080
Si Si2 0.811443 0.849220 0.764009
Si Si3 0.676133 0.698731 0.400128
Si Si4 0.818882 0.967927 0.486187
Si Si5 0.175104 0.580529 0.865468
Si Si6 0.684434 0.789041 0.646759
Si Si7 0.817218 0.444899 0.234273
Si Si8 0.312618 0.501519 0.614205
O O1 0.724261 0.268636 0.085240
O O2 0.000000 0.277385 0.036539
O O3 0.766274 0.314463 0.962902
O O4 0.807517 0.145399 0.003682
O O5 0.766086 0.832179 0.833834
O O6 0.768604 0.771656 0.711943
O O7 0.714331 0.942435 0.746031
O O8 0.000000 0.863044 0.761733
O O9 0.500000 0.663181 0.406946
O O10 0.666202 0.813199 0.391452
O O11 0.752370 0.980533 0.418750
O O12 0.753205 0.020809 0.545911
O O13 0.000000 0.989692 0.483275
O O14 0.247946 0.592563 0.798681
O O15 0.000000 0.543785 0.856016
O O16 0.500000 0.787836 0.656003
O O17 0.746036 0.895870 0.629330
O O18 0.736504 0.430327 0.169458
O O19 0.000000 0.422219 0.228712
O O20 0.500000 0.496097 0.613633
#
# Coordination Sequence:
#
# PCOD9350481 Si02
#       8
#     8   8   8   8   8   8   8   8
#     4   9  16  27  44  67  93 118 149 190 232 272
#     4  10  19  31  48  69  94 123 155 191 230 272
#     4   9  18  32  49  69  93 122 155 190 229 272
#     4   8  15  26  42  65  89 114 147 186 226 266
#     4   9  18  31  47  68  93 120 151 186 224 270
#     4  10  17  26  43  66  92 120 153 191 228 269
#     4  10  19  30  46  69  95 122 152 186 227 274
#     4   9  16  27  43  65  91 117 150 190 230 269
#
# _framework density 24.175253999999999
#
# number of rings (size 3 to 8) (size 9 to 14) (size 15 to 20)
#    0.000    2.750    0.000    4.875    0.000    5.500 
#    0.000    0.000    0.000    1.500    0.000    5.250 
#    0.000    0.000    0.000    0.000    0.000    0.000 
#
# Total GULP energy -178557.339113 kJ/mol
# GULP energy per Si atom -5579.916847 kJ/mol
# Density = 2.412023 g / cm^3
# Si number density = 24.175254 Si / 1000 Ang^3
#
#
#
# Elastic Constant Matrix: (Units=GPa)
#
#
# Indices 1 2 3 4 5 6 
#
# 1 70.0483 -8.5134 61.0994 0.0000 0.0000 0.0000
# 2 -8.5134 47.4442 36.4475 0.0000 0.0000 0.0000
# 3 61.0994 36.4475 252.6338 0.0000 0.0000 0.0000
# 4 0.0000 0.0000 0.0000 56.5620 0.0000 0.0000
# 5 0.0000 0.0000 0.0000 0.0000 44.9101 0.0000
# 6 0.0000 0.0000 0.0000 0.0000 0.0000 4.4661
#
#
#
# Elastic Compliance Matrix: (Units=1/GPa)
#
#
# Indices 1 2 3 4 5 6 
#
# 1 0.020767 0.008530 -0.006253 0.000000 0.000000 0.000000
# 2 0.008530 0.027208 -0.005988 0.000000 0.000000 0.000000
# 3 -0.006253 -0.005988 0.006335 0.000000 0.000000 0.000000
# 4 0.000000 0.000000 0.000000 0.017680 0.000000 0.000000
# 5 0.000000 0.000000 0.000000 0.000000 0.022267 0.000000
# 6 0.000000 0.000000 0.000000 0.000000 0.000000 0.223911
#
#
# Mechanical properties :
#
#
# Convention : Reuss Voigt Hill
#
# Bulk Modulus (GPa) = 21.32779 60.91035 41.11907
# Shear Modulus (GPa) = 14.65336 39.92715 27.29026
#
# Velocity S-wave (km/s) = 2.46464 4.06836 3.36348
# Velocity P-wave (km/s) = 4.11590 6.87886 5.66831
#
# Compressibility (1/GPa) = 0.04688718
#
# Stress axis : x y z
#
# Youngs Moduli (GPa) = 48.15374 36.75331 157.86442
#
# Poissons Ratio (x) = -0.31351 0.98714
# Poissons Ratio (y) = -0.41076 0.94535
# Poissons Ratio (z) = 0.30111 0.22009
#
# Static dielectric constant tensor:
#      x y z
#    x 1.817390 0.000000 0.000000 
#    y 0.000000 2.092610 0.000000 
#    z 0.000000 0.000000 2.023770 
# 
# From -- ./inp_files/15813.got.cif
#   From: 2010.05.17/outbox.cif.g08.bks.cpg/sg36_8_cif.got.tgz:15813.got - 2010.06.03 17:41:39.
