data_PCOD9350568
_publ_section_title
;
Structure prediction by ZEFSAII (Michael W. Deem and Ramdas Pophale) SiO2 
 PCOD9350568
Probable space group: C M C 21
;
_chemical_formula_sum "Si O2"
_cell_formula_units_Z 56
_cell_length_a 26.257111
_cell_length_b 5.515489
_cell_length_c 14.232334
_cell_angle_alpha 90.000000
_cell_angle_beta 90.000000
_cell_angle_gamma 90.000000
_cell_volume 2061.138094
_symmetry_space_group_name_H-M "C M C 21"
_symmetry_group_IT_number 36
_symmetry_cell_setting 'orthorhombic'
loop_
_space_group_symop_operation_xyz
x,y,z
-x,-y,1/2+z
x,-y,1/2+z
-x,y,z
1/2+x,1/2+y,z
1/2-x,1/2-y,1/2+z
1/2+x,1/2-y,1/2+z
1/2-x,1/2+y,z
loop_
_atom_site_type_symbol
_atom_site_label
_atom_site_fract_x
_atom_site_fract_y
_atom_site_fract_z
Si Si1 0.297175 0.447146 0.065920
Si Si2 0.058976 0.105826 0.975369
Si Si3 0.811875 0.550247 0.498922
Si Si4 0.409417 0.896764 0.447498
Si Si5 0.103727 0.893658 0.266652
Si Si6 0.558876 0.892113 0.235967
Si Si7 0.222554 0.996790 0.280741
O O1 0.249023 0.431970 0.994984
O O2 0.327467 0.682326 0.032245
O O3 0.275766 0.507364 0.167513
O O4 0.319602 0.178518 0.068429
O O5 0.071998 0.376688 0.008829
O O6 0.072130 0.123373 0.863745
O O7 0.000000 0.064884 0.991608
O O8 0.086184 0.855927 0.000696
O O9 0.851016 0.465183 0.419411
O O10 0.440310 0.877125 0.351043
O O11 0.091349 0.636780 0.217419
O O12 0.162394 0.946433 0.296707
O O13 0.084234 0.132115 0.210552
O O14 0.500000 0.911248 0.205850
O O15 0.254290 0.757164 0.310435
#
# Coordination Sequence:
#
# PCOD9350568 Si02
#       7
#     8   8   8   8   8   8   8
#     4  10  19  35  52  73 102 133 184 224 258 300
#     4  10  19  35  55  81 110 140 175 217 263 327
#     4  10  18  32  53  76  99 136 176 223 256 307
#     4  10  18  29  54  79 107 132 179 210 264 317
#     4  10  20  32  56  82 110 141 186 219 268 322
#     4  10  19  36  57  84 112 142 179 220 268 332
#     4  12  21  37  57  79 107 146 193 221 268 321
#
# _framework density 27.169457999999999
#
# number of rings (size 3 to 8) (size 9 to 14) (size 15 to 20)
#    0.000    1.714    2.857    6.000    0.000    0.000 
#    0.000    0.000   75.429    0.000    0.000   34.000 
#    0.000    0.000    0.000    0.000    0.000    0.000 
#
# Total GULP energy -156410.478070 kJ/mol
# GULP energy per Si atom -5586.088503 kJ/mol
# Density = 2.710762 g / cm^3
# Si number density = 27.169458 Si / 1000 Ang^3
#
#
#
# Elastic Constant Matrix: (Units=GPa)
#
#
# Indices 1 2 3 4 5 6 
#
# 1 121.5581 68.1649 4.9332 0.0000 0.0000 0.0000
# 2 68.1649 319.9986 16.2480 0.0000 0.0000 0.0000
# 3 4.9332 16.2480 62.0922 0.0000 0.0000 0.0000
# 4 0.0000 0.0000 0.0000 22.4604 0.0000 0.0000
# 5 0.0000 0.0000 0.0000 0.0000 28.7233 0.0000
# 6 0.0000 0.0000 0.0000 0.0000 0.0000 43.3861
#
#
#
# Elastic Compliance Matrix: (Units=1/GPa)
#
#
# Indices 1 2 3 4 5 6 
#
# 1 0.009346 -0.001979 -0.000225 0.000000 0.000000 0.000000
# 2 -0.001979 0.003586 -0.000781 0.000000 0.000000 0.000000
# 3 -0.000225 -0.000781 0.016327 0.000000 0.000000 0.000000
# 4 0.000000 0.000000 0.000000 0.044523 0.000000 0.000000
# 5 0.000000 0.000000 0.000000 0.000000 0.034815 0.000000
# 6 0.000000 0.000000 0.000000 0.000000 0.000000 0.023049
#
#
# Mechanical properties :
#
#
# Convention : Reuss Voigt Hill
#
# Bulk Modulus (GPa) = 42.93867 75.81568 59.37717
# Shear Modulus (GPa) = 34.39284 46.53414 40.46349
#
# Velocity S-wave (km/s) = 3.56176 4.14301 3.86333
# Velocity P-wave (km/s) = 5.72304 7.13102 6.46547
#
# Compressibility (1/GPa) = 0.02328903
#
# Stress axis : x y z
#
# Youngs Moduli (GPa) = 107.00252 278.83780 61.24692
#
# Poissons Ratio (x) = 0.55192 0.01375
# Poissons Ratio (y) = 0.21180 0.04785
# Poissons Ratio (z) = 0.02403 0.21783
#
# Static dielectric constant tensor:
#      x y z
#    x 2.201050 0.000000 0.000000 
#    y 0.000000 2.176050 0.000000 
#    z 0.000000 0.000000 2.111780 
# 
# From -- ./inp_files/16326.got.cif
#   From: 2010.05.17/outbox.cif.g08.bks.cpg/sg36_9_cif.got.tgz:16326.got - 2010.06.03 17:41:39.
