data_PCOD9350509
_publ_section_title
;
Structure prediction by ZEFSAII (Michael W. Deem and Ramdas Pophale) SiO2 
 PCOD9350509
Probable space group: C M C 21
;
_chemical_formula_sum "Si O2"
_cell_formula_units_Z 52
_cell_length_a 15.016053
_cell_length_b 18.416187
_cell_length_c 7.503935
_cell_angle_alpha 90.000000
_cell_angle_beta 90.000000
_cell_angle_gamma 90.000000
_cell_volume 2075.126479
_symmetry_space_group_name_H-M "C M C 21"
_symmetry_group_IT_number 36
_symmetry_cell_setting 'orthorhombic'
loop_
_space_group_symop_operation_xyz
x,y,z
-x,-y,1/2+z
x,-y,1/2+z
-x,y,z
1/2+x,1/2+y,z
1/2-x,1/2-y,1/2+z
1/2+x,1/2-y,1/2+z
1/2-x,1/2+y,z
loop_
_atom_site_type_symbol
_atom_site_label
_atom_site_fract_x
_atom_site_fract_y
_atom_site_fract_z
Si Si1 0.347449 0.745724 0.877360
Si Si2 0.138364 0.226764 0.301616
Si Si3 0.836269 0.071274 0.266698
Si Si4 0.500000 0.161114 0.942931
Si Si5 0.874734 0.441540 0.250121
Si Si6 0.133176 0.597143 0.359760
Si Si7 0.329357 0.414869 0.344471
O O1 0.241295 0.757522 0.852750
O O2 0.388249 0.820831 0.798624
O O3 0.367423 0.665189 0.801016
O O4 0.369738 0.743632 0.088850
O O5 0.112847 0.142666 0.328331
O O6 0.076873 0.276930 0.416628
O O7 0.739800 0.081896 0.359339
O O8 0.875613 0.991173 0.294174
O O9 0.819946 0.082460 0.057393
O O10 0.576666 0.098674 0.908199
O O11 0.897404 0.526317 0.255927
O O12 0.769569 0.425364 0.267031
O O13 0.900926 0.409047 0.060593
#
# Coordination Sequence:
#
# PCOD9350509 Si02
#       7
#     8   8   8   4   8   8   8
#     4  10  18  36  59  85 110 151 203 241 269 343
#     4  10  21  36  61  84 115 154 197 239 285 342
#     4   9  19  31  58  86 112 143 195 246 279 327
#     4  12  22  38  56  88 124 162 178 238 304 354
#     4  11  21  34  55  81 123 153 187 227 290 352
#     4  10  19  34  52  81 113 154 194 227 273 337
#     4  10  17  32  55  87 112 143 193 244 286 326
#
# _framework density 25.058712
#
# number of rings (size 3 to 8) (size 9 to 14) (size 15 to 20)
#    0.000    1.846    3.077    3.692    0.000    1.846 
#    0.000    0.000    0.000    7.385    0.000    0.000 
#    0.000    0.000    0.000    0.000    0.000    0.077 
#
# Total GULP energy -144776.602271 kJ/mol
# GULP energy per Si atom -5568.330857 kJ/mol
# Density = 2.500168 g / cm^3
# Si number density = 25.058712 Si / 1000 Ang^3
#
#
#
# Elastic Constant Matrix: (Units=GPa)
#
#
# Indices 1 2 3 4 5 6 
#
# 1 25.5276 15.7201 -2.9472 0.0000 0.0000 0.0000
# 2 15.7201 318.5813 39.4778 0.0000 0.0000 0.0000
# 3 -2.9472 39.4778 72.2823 0.0000 0.0000 0.0000
# 4 0.0000 0.0000 0.0000 33.2291 0.0000 0.0000
# 5 0.0000 0.0000 0.0000 0.0000 -32.3173 0.0000
# 6 0.0000 0.0000 0.0000 0.0000 0.0000 -168.7164
#
#
#
# Elastic Compliance Matrix: (Units=1/GPa)
#
#
# Indices 1 2 3 4 5 6 
#
# 1 0.040990 -0.002392 0.002977 0.000000 0.000000 0.000000
# 2 -0.002392 0.003506 -0.002013 0.000000 0.000000 0.000000
# 3 0.002977 -0.002013 0.015055 0.000000 0.000000 0.000000
# 4 0.000000 0.000000 0.000000 0.030094 0.000000 0.000000
# 5 0.000000 0.000000 0.000000 0.000000 -0.030943 0.000000
# 6 0.000000 0.000000 0.000000 0.000000 0.000000 -0.005927
#
#
# Mechanical properties :
#
#
# Convention : Reuss Voigt Hill
#
# Bulk Modulus (GPa) = 17.63727 57.87694 37.75711
# Shear Modulus (GPa) = 67.08911 -9.28489 28.90211
#
# Velocity S-wave (km/s) = 5.17985 -1.92699 3.39982
# Velocity P-wave (km/s) = 6.54432 4.26563 5.52376
#
# Compressibility (1/GPa) = 0.05669811
#
# Stress axis : x y z
#
# Youngs Moduli (GPa) = 24.39632 285.19985 66.42215
#
# Poissons Ratio (x) = 0.68207 -0.19777
# Poissons Ratio (y) = 0.05835 0.13368
# Poissons Ratio (z) = -0.07264 0.57397
#
# Static dielectric constant tensor:
#      x y z
#    x 1.913880 0.000000 0.000000 
#    y 0.000000 2.026360 0.000000 
#    z 0.000000 0.000000 2.008030 
# 
# From -- ./inp_files/4791.got.cif
#   From: 2010.05.17/outbox.cif.g08.bks.cpg/sg36_3_cif.got.tgz:4791.got - 2010.06.03 17:41:39.
