data_PCOD9350573
_publ_section_title
;
Structure prediction by ZEFSAII (Michael W. Deem and Ramdas Pophale) SiO2 
 PCOD9350573
Probable space group: C M C 21
;
_chemical_formula_sum "Si O2"
_cell_formula_units_Z 64
_cell_length_a 13.429306
_cell_length_b 27.564510
_cell_length_c 11.063007
_cell_angle_alpha 90.000000
_cell_angle_beta 90.000000
_cell_angle_gamma 90.000000
_cell_volume 4095.218077
_symmetry_space_group_name_H-M "C M C 21"
_symmetry_group_IT_number 36
_symmetry_cell_setting 'orthorhombic'
loop_
_space_group_symop_operation_xyz
x,y,z
-x,-y,1/2+z
x,-y,1/2+z
-x,y,z
1/2+x,1/2+y,z
1/2-x,1/2-y,1/2+z
1/2+x,1/2-y,1/2+z
1/2-x,1/2+y,z
loop_
_atom_site_type_symbol
_atom_site_label
_atom_site_fract_x
_atom_site_fract_y
_atom_site_fract_z
Si Si1 0.117755 0.566787 0.432020
Si Si2 0.115899 0.785996 0.158315
Si Si3 0.382884 0.138938 0.816140
Si Si4 0.700057 0.158013 0.561815
Si Si5 0.881843 0.751548 0.434752
Si Si6 0.887058 0.608837 0.164527
Si Si7 0.616716 0.042645 0.929212
Si Si8 0.790692 0.306636 0.542120
O O1 0.182145 0.604991 0.507377
O O2 0.120566 0.584300 0.293710
O O3 0.156876 0.511673 0.436524
O O4 0.000000 0.568829 0.471694
O O5 0.190250 0.827196 0.108436
O O6 0.136580 0.769533 0.297222
O O7 0.141733 0.738875 0.078642
O O8 0.000000 0.799047 0.149772
O O9 0.500000 0.138904 0.844690
O O10 0.365277 0.159344 0.683721
O O11 0.346373 0.083021 0.833610
O O12 0.327876 0.170715 0.916369
O O13 0.660952 0.198142 0.466103
O O14 0.820583 0.787167 0.523121
O O15 0.000000 0.751573 0.454350
O O16 0.809287 0.651586 0.140373
O O17 0.000000 0.629321 0.153179
O O18 0.875813 0.569293 0.058405
O O19 0.500000 0.035220 0.900108
#
# Coordination Sequence:
#
# PCOD9350573 Si02
#       8
#     8   8   8   8   8   8   8   8
#     4  10  19  30  47  71 101 134 160 193 239 290
#     4  10  20  35  52  68  94 130 167 203 241 291
#     4  10  18  30  46  72 103 127 155 199 244 286
#     4  11  21  31  49  75  98 128 165 204 242 289
#     4  10  20  34  49  70  98 128 163 204 244 287
#     4   9  17  30  47  68  96 131 163 192 233 289
#     4   8  17  29  45  69 100 132 159 190 237 294
#     4  10  18  31  50  69  92 128 165 195 235 292
#
# _framework density 15.627983
#
# number of rings (size 3 to 8) (size 9 to 14) (size 15 to 20)
#    0.000    2.250    1.250    3.750    1.750    2.000 
#    0.000    0.000    0.000    0.000    0.000    4.375 
#    0.000    0.000    0.000    0.000    0.000    0.000 
#
# Total GULP energy -178261.787934 kJ/mol
# GULP energy per Si atom -5570.680873 kJ/mol
# Density = 1.559241 g / cm^3
# Si number density = 15.627983 Si / 1000 Ang^3
#
#
#
# Elastic Constant Matrix: (Units=GPa)
#
#
# Indices 1 2 3 4 5 6 
#
# 1 67.6160 33.2571 17.7575 0.0000 0.0000 0.0000
# 2 33.2571 80.4199 10.1204 0.0000 0.0000 0.0000
# 3 17.7575 10.1204 39.9441 0.0000 0.0000 0.0000
# 4 0.0000 0.0000 0.0000 12.7010 0.0000 0.0000
# 5 0.0000 0.0000 0.0000 0.0000 22.0186 0.0000
# 6 0.0000 0.0000 0.0000 0.0000 0.0000 21.0674
#
#
#
# Elastic Compliance Matrix: (Units=1/GPa)
#
#
# Indices 1 2 3 4 5 6 
#
# 1 0.020367 -0.007523 -0.007148 0.000000 0.000000 0.000000
# 2 -0.007523 0.015623 -0.000614 0.000000 0.000000 0.000000
# 3 -0.007148 -0.000614 0.028368 0.000000 0.000000 0.000000
# 4 0.000000 0.000000 0.000000 0.078734 0.000000 0.000000
# 5 0.000000 0.000000 0.000000 0.000000 0.045416 0.000000
# 6 0.000000 0.000000 0.000000 0.000000 0.000000 0.047467
#
#
# Mechanical properties :
#
#
# Convention : Reuss Voigt Hill
#
# Bulk Modulus (GPa) = 29.59629 34.47222 32.03425
# Shear Modulus (GPa) = 17.99804 19.61373 18.80588
#
# Velocity S-wave (km/s) = 3.39729 3.54650 3.47269
# Velocity P-wave (km/s) = 5.86241 6.23507 6.05161
#
# Compressibility (1/GPa) = 0.03378802
#
# Stress axis : x y z
#
# Youngs Moduli (GPa) = 49.09928 64.00781 35.25060
#
# Poissons Ratio (x) = 0.48153 0.25198
# Poissons Ratio (y) = 0.36938 0.02164
# Poissons Ratio (z) = 0.35097 0.03929
#
# Static dielectric constant tensor:
#      x y z
#    x 1.506500 0.000000 0.000000 
#    y 0.000000 1.540400 0.000000 
#    z 0.000000 0.000000 1.540520 
# 
# From -- ./inp_files/8064.got.cif
#   From: 2010.05.17/outbox.cif.g08.bks.cpg/sg36_5_cif.got.tgz:8064.got - 2010.06.03 17:41:39.
