data_PCOD9350202
_publ_section_title
;
Structure prediction by ZEFSAII (Michael W. Deem and Ramdas Pophale) SiO2 
 PCOD9350202
Probable space group: C M M 2
;
_chemical_formula_sum "Si O2"
_cell_formula_units_Z 24
_cell_length_a 15.000000
_cell_length_b 9.000000
_cell_length_c 18.000000
_cell_angle_alpha 90.000000
_cell_angle_beta 90.000000
_cell_angle_gamma 90.000000
_cell_volume 2430.000000
_symmetry_space_group_name_H-M "C M M 2"
_symmetry_group_IT_number 35
_symmetry_cell_setting 'orthorhombic'
loop_
_space_group_symop_operation_xyz
x,y,z
-x,-y,z
-x,y,z
x,-y,z
1/2+x,1/2+y,z
1/2-x,1/2-y,z
1/2-x,1/2+y,z
1/2+x,1/2-y,z
loop_
_atom_site_type_symbol
_atom_site_label
_atom_site_fract_x
_atom_site_fract_y
_atom_site_fract_z
Si Si1 0.659706 0.821641 0.347880
Si Si2 0.604777 0.332037 0.803014
Si Si3 0.657428 0.679610 0.969106
Si Si4 0.000000 0.320207 0.239100
Si Si5 0.346786 0.822469 0.651051
Si Si6 0.000000 0.680298 0.065687
Si Si7 0.603464 0.331731 0.499188
O O1 0.750000 0.750000 0.319786
O O2 0.583889 0.775971 0.289495
O O3 0.645039 0.758053 0.430924
O O4 0.662941 0.000000 0.351862
O O5 0.500000 0.342558 0.817361
O O6 0.638670 0.500000 0.785667
O O7 0.644989 0.281326 0.881404
O O8 0.616765 0.230008 0.731007
O O9 0.654553 0.500000 0.973623
O O10 0.750000 0.750000 0.993314
O O11 0.583057 0.752320 0.020866
O O12 0.000000 0.500000 0.236754
O O13 0.000000 0.273295 0.152880
O O14 0.250000 0.750000 0.648486
O O15 0.391616 0.751806 0.578025
O O16 0.347172 0.000000 0.646203
O O17 0.000000 0.500000 0.062014
O O18 0.500000 0.344217 0.480112
O O19 0.641258 0.500000 0.505671
#
# Coordination Sequence:
#
# PCOD9350202 Si02
#       7
#     8   8   8   4   8   4   8
#     4  11  22  41  66  94 128 166 209 258 313 374
#     4  10  21  40  63  88 123 163 207 261 316 371
#     4  11  23  42  66  97 131 172 216 264 322 382
#     4   9  22  43  67  94 129 166 205 257 318 379
#     4  12  25  39  57  85 121 163 212 260 311 368
#     4  11  23  43  69  98 131 168 211 263 322 387
#     4  11  23  40  62  89 122 162 209 258 312 370
#
# _framework density 9.8765429999999999
#
# number of rings (size 3 to 8) (size 9 to 14) (size 15 to 20)
#    0.000    1.167    1.667    4.750    0.000    6.667 
#    0.000    5.000    0.000    0.000    0.000    0.000 
#    0.000    0.000    0.000    0.000    0.000    0.000 
#
# Total GULP energy -134011.061686 kJ/mol
# GULP energy per Si atom -5583.794237 kJ/mol
# Density = 0.985406 g / cm^3
# Si number density = 9.876543 Si / 1000 Ang^3
#
#
#
# Elastic Constant Matrix: (Units=GPa)
#
#
# Indices 1 2 3 4 5 6 
#
# 1 146.4097 45.7113 69.1936 0.0000 0.0000 0.0000
# 2 45.7113 118.9747 70.8003 0.0000 0.0000 0.0000
# 3 69.1936 70.8003 159.9878 0.0000 0.0000 0.0000
# 4 0.0000 0.0000 0.0000 33.5377 0.0000 0.0000
# 5 0.0000 0.0000 0.0000 0.0000 -286.5905 0.0000
# 6 0.0000 0.0000 0.0000 0.0000 0.0000 26.5135
#
#
#
# Elastic Compliance Matrix: (Units=1/GPa)
#
#
# Indices 1 2 3 4 5 6 
#
# 1 0.008781 -0.001512 -0.003129 0.000000 0.000000 0.000000
# 2 -0.001512 0.011670 -0.004511 0.000000 0.000000 0.000000
# 3 -0.003129 -0.004511 0.009600 0.000000 0.000000 0.000000
# 4 0.000000 0.000000 0.000000 0.029817 0.000000 0.000000
# 5 0.000000 0.000000 0.000000 0.000000 -0.003489 0.000000
# 6 0.000000 0.000000 0.000000 0.000000 0.000000 0.037717
#
#
# Mechanical properties :
#
#
# Convention : Reuss Voigt Hill
#
# Bulk Modulus (GPa) = 85.11696 88.53139 86.82417
# Shear Modulus (GPa) = 42.98727 -29.33007 6.82860
#
# Velocity S-wave (km/s) = 4.67007 -3.85754 1.86131
# Velocity P-wave (km/s) = 8.50079 5.00755 6.97635
#
# Compressibility (1/GPa) = 0.01174854
#
# Stress axis : x y z
#
# Youngs Moduli (GPa) = 113.88561 85.68808 104.17048
#
# Poissons Ratio (x) = 0.12955 0.32590
# Poissons Ratio (y) = 0.17218 0.46987
# Poissons Ratio (z) = 0.35630 0.38651
#
# Static dielectric constant tensor:
#      x y z
#    x 2.048670 0.000000 0.000000 
#    y 0.000000 1.694650 0.000000 
#    z 0.000000 0.000000 1.728300 
# 
# From -- ./inp_files/17941.got.cif
#   From: 2010.05.17/outbox.ucp.g08.bks.cvg/sg35_9_cif.got.tgz:17941.got - 2010.06.11 10:36:28.
