data_PCOD9350845
_publ_section_title
;
Structure prediction by ZEFSAII (Michael W. Deem and Ramdas Pophale) SiO2 
 PCOD9350845
Probable space group: C M C 21
;
_chemical_formula_sum "Si O2"
_cell_formula_units_Z 64
_cell_length_a 7.566295
_cell_length_b 21.031859
_cell_length_c 20.035494
_cell_angle_alpha 90.000000
_cell_angle_beta 90.000000
_cell_angle_gamma 90.000000
_cell_volume 3188.313267
_symmetry_space_group_name_H-M "C M C 21"
_symmetry_group_IT_number 36
_symmetry_cell_setting 'orthorhombic'
loop_
_space_group_symop_operation_xyz
x,y,z
-x,-y,1/2+z
x,-y,1/2+z
-x,y,z
1/2+x,1/2+y,z
1/2-x,1/2-y,1/2+z
1/2+x,1/2-y,1/2+z
1/2-x,1/2+y,z
loop_
_atom_site_type_symbol
_atom_site_label
_atom_site_fract_x
_atom_site_fract_y
_atom_site_fract_z
Si Si1 0.292015 0.748736 0.840550
Si Si2 0.788643 0.242580 0.191958
Si Si3 0.203778 0.601739 0.834777
Si Si4 0.205984 0.297612 0.549886
Si Si5 0.216999 0.426730 0.479531
Si Si6 0.296755 0.177196 0.466881
Si Si7 0.783673 0.610383 0.688806
Si Si8 0.283318 0.943185 0.048623
O O1 0.500000 0.738496 0.853460
O O2 0.270146 0.775977 0.766193
O O3 0.207576 0.678623 0.841737
O O4 0.219227 0.793868 0.898790
O O5 0.724489 0.201822 0.129575
O O6 0.729316 0.315837 0.181083
O O7 0.000000 0.242222 0.191072
O O8 0.280177 0.587727 0.761571
O O9 0.000000 0.580923 0.832650
O O10 0.280093 0.573859 0.902891
O O11 0.273799 0.361686 0.515471
O O12 0.294942 0.234682 0.520113
O O13 0.000000 0.291535 0.532655
O O14 0.271310 0.489230 0.519428
O O15 0.000000 0.425847 0.478766
O O16 0.500000 0.160884 0.450937
O O17 0.220519 0.114731 0.501662
O O18 0.727694 0.570869 0.624488
O O19 0.000000 0.610492 0.690585
O O20 0.500000 0.941600 0.049045
#
# Coordination Sequence:
#
# PCOD9350845 Si02
#       8
#     8   8   8   8   8   8   8   8
#     4  10  19  30  48  78 106 131 166 216 265 306
#     4  10  19  33  52  75 101 135 173 214 260 311
#     4   9  16  29  47  72  99 132 172 209 255 313
#     4  11  20  31  50  78 107 132 166 214 260 305
#     4   9  18  30  47  73 106 136 170 216 260 300
#     4  10  19  32  52  76 103 135 172 211 257 307
#     4   8  14  25  47  71  93 122 168 212 246 295
#     4   9  16  30  49  73 101 133 173 218 255 295
#
# _framework density 20.073309999999999
#
# number of rings (size 3 to 8) (size 9 to 14) (size 15 to 20)
#    0.000    2.500    2.500    1.875    0.000    0.500 
#    0.000    1.250    0.000    8.250    0.000    3.500 
#    0.000    0.000    0.000    0.000    0.000    0.000 
#
# Total GULP energy -178523.841207 kJ/mol
# GULP energy per Si atom -5578.870038 kJ/mol
# Density = 2.002762 g / cm^3
# Si number density = 20.073310 Si / 1000 Ang^3
#
#
#
# Elastic Constant Matrix: (Units=GPa)
#
#
# Indices 1 2 3 4 5 6 
#
# 1 49.9074 -4.9102 -7.7414 0.0000 0.0000 0.0000
# 2 -4.9102 70.3793 44.7005 0.0000 0.0000 0.0000
# 3 -7.7414 44.7005 171.5783 0.0000 0.0000 0.0000
# 4 0.0000 0.0000 0.0000 31.4187 0.0000 0.0000
# 5 0.0000 0.0000 0.0000 0.0000 12.2243 0.0000
# 6 0.0000 0.0000 0.0000 0.0000 0.0000 7.1996
#
#
#
# Elastic Compliance Matrix: (Units=1/GPa)
#
#
# Indices 1 2 3 4 5 6 
#
# 1 0.020237 0.000997 0.000653 0.000000 0.000000 0.000000
# 2 0.000997 0.017075 -0.004404 0.000000 0.000000 0.000000
# 3 0.000653 -0.004404 0.007005 0.000000 0.000000 0.000000
# 4 0.000000 0.000000 0.000000 0.031828 0.000000 0.000000
# 5 0.000000 0.000000 0.000000 0.000000 0.081804 0.000000
# 6 0.000000 0.000000 0.000000 0.000000 0.000000 0.138896
#
#
# Mechanical properties :
#
#
# Convention : Reuss Voigt Hill
#
# Bulk Modulus (GPa) = 25.76655 39.55143 32.65899
# Shear Modulus (GPa) = 15.85850 27.48960 21.67405
#
# Velocity S-wave (km/s) = 2.81379 3.70464 3.28951
# Velocity P-wave (km/s) = 4.83949 6.16809 5.54374
#
# Compressibility (1/GPa) = 0.03881000
#
# Stress axis : x y z
#
# Youngs Moduli (GPa) = 49.41562 58.56479 142.75619
#
# Poissons Ratio (x) = -0.05838 -0.09327
# Poissons Ratio (y) = -0.04926 0.62863
# Poissons Ratio (z) = -0.03228 0.25789
#
# Static dielectric constant tensor:
#      x y z
#    x 1.801610 0.000000 0.000000 
#    y 0.000000 1.662140 0.000000 
#    z 0.000000 0.000000 1.732130 
# 
# From -- ./inp_files/15725.got.cif
#   From: 2010.05.17/outbox.cif.g08.bks.cpg/sg36_8_cif.got.tgz:15725.got - 2010.06.03 17:41:39.
