data_PCOD9350879
_publ_section_title
;
Structure prediction by ZEFSAII (Michael W. Deem and Ramdas Pophale) SiO2 
 PCOD9350879
Probable space group: C M C 21
;
_chemical_formula_sum "Si O2"
_cell_formula_units_Z 64
_cell_length_a 7.561166
_cell_length_b 14.530449
_cell_length_c 29.174724
_cell_angle_alpha 90.000000
_cell_angle_beta 90.000000
_cell_angle_gamma 90.000000
_cell_volume 3205.343397
_symmetry_space_group_name_H-M "C M C 21"
_symmetry_group_IT_number 36
_symmetry_cell_setting 'orthorhombic'
loop_
_space_group_symop_operation_xyz
x,y,z
-x,-y,1/2+z
x,-y,1/2+z
-x,y,z
1/2+x,1/2+y,z
1/2-x,1/2-y,1/2+z
1/2+x,1/2-y,1/2+z
1/2-x,1/2+y,z
loop_
_atom_site_type_symbol
_atom_site_label
_atom_site_fract_x
_atom_site_fract_y
_atom_site_fract_z
Si Si1 0.291109 0.618157 0.733860
Si Si2 0.286591 0.973190 0.658624
Si Si3 0.291109 0.381842 0.979345
Si Si4 0.703985 0.030511 0.308391
Si Si5 0.796015 0.469490 0.404815
Si Si6 0.286591 0.026809 0.054581
Si Si7 0.716978 0.828091 0.478699
Si Si8 0.216978 0.328091 0.734506
O O1 0.500000 0.620095 0.743346
O O2 0.262874 0.565512 0.685963
O O3 0.207469 0.554695 0.773144
O O4 0.225725 0.722683 0.733194
O O5 0.500000 0.969627 0.657383
O O6 0.221314 0.970276 0.606603
O O7 0.227212 0.887922 0.690399
O O8 0.500000 0.379905 0.969859
O O9 0.207469 0.445304 0.940061
O O10 0.225725 0.277317 0.980011
O O11 0.262875 0.434488 0.027243
O O12 0.500000 0.055716 0.318137
O O13 0.785890 0.000000 0.356603
O O14 0.778928 0.116210 0.279525
O O15 0.721072 0.383791 0.433680
O O16 0.000000 0.444285 0.395068
O O17 0.500000 0.030373 0.055822
O O18 0.227212 0.112078 0.022806
O O19 0.500000 0.829333 0.478559
O O20 0.000000 0.329332 0.734646
#
# Coordination Sequence:
#
# PCOD9350879 Si02
#       8
#     8   8   8   8   8   8   8   8
#     4  10  19  31  49  73 100 125 153 196 242 282
#     4   9  18  34  53  70  93 128 165 196 230 281
#     4  10  19  31  49  73 100 125 153 196 242 282
#     4   9  18  34  53  70  93 128 165 196 230 281
#     4   9  18  34  53  70  93 128 165 196 230 281
#     4   9  18  34  53  70  93 128 165 196 230 281
#     4   8  16  31  49  70  96 126 157 189 236 291
#     4   8  16  31  49  70  96 126 157 189 236 291
#
# _framework density 19.966660000000001
#
# number of rings (size 3 to 8) (size 9 to 14) (size 15 to 20)
#    0.000    3.000    0.000    2.250    0.000    3.000 
#    0.000   12.500    0.000    0.000    0.000    0.000 
#    0.000    0.000    0.000    0.000    0.000    0.000 
#
# Total GULP energy -178446.607180 kJ/mol
# GULP energy per Si atom -5576.456474 kJ/mol
# Density = 1.992121 g / cm^3
# Si number density = 19.966660 Si / 1000 Ang^3
#
#
#
# Elastic Constant Matrix: (Units=GPa)
#
#
# Indices 1 2 3 4 5 6 
#
# 1 47.5915 -14.7294 -13.2475 0.0000 0.0000 0.0000
# 2 -14.7294 130.0153 15.5719 0.0000 0.0000 0.0000
# 3 -13.2475 15.5719 92.7195 0.0000 0.0000 0.0000
# 4 0.0000 0.0000 0.0000 5.3426 0.0000 0.0000
# 5 0.0000 0.0000 0.0000 0.0000 7.5484 0.0000
# 6 0.0000 0.0000 0.0000 0.0000 0.0000 10.6715
#
#
#
# Elastic Compliance Matrix: (Units=1/GPa)
#
#
# Indices 1 2 3 4 5 6 
#
# 1 0.022486 0.002207 0.002842 0.000000 0.000000 0.000000
# 2 0.002207 0.008066 -0.001039 0.000000 0.000000 0.000000
# 3 0.002842 -0.001039 0.011366 0.000000 0.000000 0.000000
# 4 0.000000 0.000000 0.000000 0.187176 0.000000 0.000000
# 5 0.000000 0.000000 0.000000 0.000000 0.132479 0.000000
# 6 0.000000 0.000000 0.000000 0.000000 0.000000 0.093708
#
#
# Mechanical properties :
#
#
# Convention : Reuss Voigt Hill
#
# Bulk Modulus (GPa) = 20.02487 27.27959 23.65223
# Shear Modulus (GPa) = 10.77802 23.56125 17.16963
#
# Velocity S-wave (km/s) = 2.32588 3.43888 2.93561
# Velocity P-wave (km/s) = 4.15498 5.42772 4.83343
#
# Compressibility (1/GPa) = 0.04993790
#
# Stress axis : x y z
#
# Youngs Moduli (GPa) = 44.47140 123.97849 87.98300
#
# Poissons Ratio (x) = -0.27363 -0.25006
# Poissons Ratio (y) = -0.09815 0.09144
# Poissons Ratio (z) = -0.12639 0.12885
#
# Static dielectric constant tensor:
#      x y z
#    x 1.770410 0.000000 0.000000 
#    y 0.000000 1.676740 0.000000 
#    z 0.000000 0.000000 1.694220 
# 
# From -- ./inp_files/17355.got.cif
#   From: 2010.05.17/outbox.cif.g08.bks.cpg/sg36_9_cif.got.tgz:17355.got - 2010.06.03 17:41:39.
