data_PCOD9350578
_publ_section_title
;
Structure prediction by ZEFSAII (Michael W. Deem and Ramdas Pophale) SiO2 
 PCOD9350578
Probable space group: C M C 21
;
_chemical_formula_sum "Si O2"
_cell_formula_units_Z 60
_cell_length_a 14.568103
_cell_length_b 33.132276
_cell_length_c 5.317239
_cell_angle_alpha 90.000000
_cell_angle_beta 90.000000
_cell_angle_gamma 90.000000
_cell_volume 2566.495194
_symmetry_space_group_name_H-M "C M C 21"
_symmetry_group_IT_number 36
_symmetry_cell_setting 'orthorhombic'
loop_
_space_group_symop_operation_xyz
x,y,z
-x,-y,1/2+z
x,-y,1/2+z
-x,y,z
1/2+x,1/2+y,z
1/2-x,1/2-y,1/2+z
1/2+x,1/2-y,1/2+z
1/2-x,1/2+y,z
loop_
_atom_site_type_symbol
_atom_site_label
_atom_site_fract_x
_atom_site_fract_y
_atom_site_fract_z
Si Si1 0.147296 0.677883 0.867230
Si Si2 0.139014 0.477582 0.019127
Si Si3 0.312826 0.248284 0.537137
Si Si4 0.362440 0.523976 0.510270
Si Si5 0.134719 0.385345 0.002058
Si Si6 0.357725 0.618422 0.474172
Si Si7 0.138561 0.833137 0.473918
Si Si8 0.000000 0.670529 0.199141
O O1 0.144082 0.705954 0.618870
O O2 0.109298 0.635299 0.767505
O O3 0.250152 0.670594 0.955947
O O4 0.080390 0.697629 0.064373
O O5 0.109538 0.503499 0.781246
O O6 0.250899 0.477090 0.015898
O O7 0.110117 0.431713 0.993855
O O8 0.249321 0.243803 0.289886
O O9 0.382486 0.285558 0.498959
O O10 0.392087 0.501548 0.765893
O O11 0.387031 0.571464 0.492341
O O12 0.245457 0.381492 0.975240
O O13 0.080075 0.360222 0.799401
O O14 0.388450 0.644141 0.717655
O O15 0.386491 0.640587 0.217092
#
# Coordination Sequence:
#
# PCOD9350578 Si02
#       8
#     8   8   8   8   8   8   8   4
#     4  10  22  34  52  72  96 123 155 201 255 307
#     4   9  19  32  50  63  80 110 150 199 249 296
#     4  10  20  34  54  74  97 120 152 197 251 304
#     4   9  16  26  41  65  88 115 148 189 235 281
#     4  10  21  34  49  65  89 115 158 198 250 303
#     4  10  18  30  49  68  91 118 154 196 241 287
#     4  10  18  32  49  72  90 118 152 195 244 292
#     4  12  22  36  50  68  94 124 160 194 252 302
#
# _framework density 23.378185999999999
#
# number of rings (size 3 to 8) (size 9 to 14) (size 15 to 20)
#    0.000    2.133    1.333    3.600    3.733    3.200 
#    0.000    0.667    0.000    0.000    0.000    0.000 
#    0.000    0.000    0.000    0.000    0.000    0.000 
#
# Total GULP energy -167100.856972 kJ/mol
# GULP energy per Si atom -5570.028566 kJ/mol
# Density = 2.332498 g / cm^3
# Si number density = 23.378186 Si / 1000 Ang^3
#
#
#
# Elastic Constant Matrix: (Units=GPa)
#
#
# Indices 1 2 3 4 5 6 
#
# 1 86.6566 9.4079 11.0594 0.0000 0.0000 0.0000
# 2 9.4079 -20.2585 -117.4913 0.0000 0.0000 0.0000
# 3 11.0594 -117.4913 -27.0350 0.0000 0.0000 0.0000
# 4 0.0000 0.0000 0.0000 45.1296 0.0000 0.0000
# 5 0.0000 0.0000 0.0000 0.0000 -1.6430 0.0000
# 6 0.0000 0.0000 0.0000 0.0000 0.0000 -25.6792
#
#
#
# Elastic Compliance Matrix: (Units=1/GPa)
#
#
# Indices 1 2 3 4 5 6 
#
# 1 0.011346 0.000894 0.000754 0.000000 0.000000 0.000000
# 2 0.000894 0.002110 -0.008803 0.000000 0.000000 0.000000
# 3 0.000754 -0.008803 0.001578 0.000000 0.000000 0.000000
# 4 0.000000 0.000000 0.000000 0.022158 0.000000 0.000000
# 5 0.000000 0.000000 0.000000 0.000000 -0.608652 0.000000
# 6 0.000000 0.000000 0.000000 0.000000 0.000000 -0.038942
#
#
# Mechanical properties :
#
#
# Convention : Reuss Voigt Hill
#
# Bulk Modulus (GPa) = 1378.67955 -17.18722 680.74616
# Shear Modulus (GPa) = -8.39138 12.65396 2.13129
#
# Velocity S-wave (km/s) = -1.89663 2.32905 0.95584
# Velocity P-wave (km/s) = 24.21184 0.36763 17.11838
#
# Compressibility (1/GPa) = 0.00072533
#
# Stress axis : x y z
#
# Youngs Moduli (GPa) = 88.13347 473.95853 633.57913
#
# Poissons Ratio (x) = -0.42394 -0.47792
# Poissons Ratio (y) = -0.07883 5.57768
# Poissons Ratio (z) = -0.06648 4.17247
#
# Static dielectric constant tensor:
#      x y z
#    x 1.951320 0.000000 0.000000 
#    y 0.000000 1.872240 0.000000 
#    z 0.000000 0.000000 1.945720 
# 
# From -- ./inp_files/1515.got.cif
#   From: 2010.05.17/outbox.cif.g08.bks.cpg/sg36_1_cif.got.tgz:1515.got - 2010.06.03 17:41:39.
