data_PCOD9350523
_publ_section_title
;
Structure prediction by ZEFSAII (Michael W. Deem and Ramdas Pophale) SiO2 
 PCOD9350523
Probable space group: C M C 21
;
_chemical_formula_sum "Si O2"
_cell_formula_units_Z 64
_cell_length_a 19.616841
_cell_length_b 16.614969
_cell_length_c 9.033879
_cell_angle_alpha 90.000000
_cell_angle_beta 90.000000
_cell_angle_gamma 90.000000
_cell_volume 2944.441137
_symmetry_space_group_name_H-M "C M C 21"
_symmetry_group_IT_number 36
_symmetry_cell_setting 'orthorhombic'
loop_
_space_group_symop_operation_xyz
x,y,z
-x,-y,1/2+z
x,-y,1/2+z
-x,y,z
1/2+x,1/2+y,z
1/2-x,1/2-y,1/2+z
1/2+x,1/2-y,1/2+z
1/2-x,1/2+y,z
loop_
_atom_site_type_symbol
_atom_site_label
_atom_site_fract_x
_atom_site_fract_y
_atom_site_fract_z
Si Si1 0.830938 0.992572 0.046320
Si Si2 0.300516 0.397090 0.787984
Si Si3 0.919704 0.913566 0.304084
Si Si4 0.284774 0.203268 0.791211
Si Si5 0.322658 0.757971 0.595982
Si Si6 0.076249 0.281174 0.822102
Si Si7 0.426520 0.327593 0.873564
Si Si8 0.075072 0.322884 0.163693
O O1 0.784351 0.047229 0.152092
O O2 0.882580 0.942703 0.152530
O O3 0.875563 0.050948 0.940412
O O4 0.782419 0.937654 0.942802
O O5 0.287569 0.302335 0.771523
O O6 0.383385 0.399463 0.807226
O O7 0.918849 0.816103 0.320517
O O8 0.000000 0.937157 0.307538
O O9 0.279277 0.197045 0.968294
O O10 0.221030 0.191415 0.684509
O O11 0.351564 0.155299 0.735801
O O12 0.363213 0.810557 0.715858
O O13 0.382653 0.717110 0.498647
O O14 0.000000 0.302671 0.769186
O O15 0.083987 0.312577 0.988754
O O16 0.500000 0.350180 0.930871
O O17 0.432581 0.264356 0.740287
O O18 0.000000 0.363003 0.191409
#
# Coordination Sequence:
#
# PCOD9350523 Si02
#       8
#     8   8   8   8   8   8   8   8
#     4  10  19  28  38  54  78 110 148 185 225 260
#     4   9  19  31  43  59  83 114 148 189 229 265
#     4  10  18  26  36  53  77 106 143 181 215 251
#     4  10  19  31  45  62  84 112 150 194 233 270
#     4  10  19  29  44  62  82 111 147 186 228 276
#     4  10  18  28  43  62  84 112 145 181 221 270
#     4   9  17  30  45  62  88 120 149 184 231 276
#     4   8  15  27  42  58  78 107 141 176 218 262
#
# _framework density 21.735876000000001
#
# number of rings (size 3 to 8) (size 9 to 14) (size 15 to 20)
#    0.000    2.750    0.000    4.500    0.000    5.500 
#    0.000    0.000    0.000    0.000    0.000    0.000 
#    0.000    0.000    0.000    4.500    0.000   37.000 
#
# Total GULP energy -178172.808114 kJ/mol
# GULP energy per Si atom -5567.900254 kJ/mol
# Density = 2.168640 g / cm^3
# Si number density = 21.735876 Si / 1000 Ang^3
#
#
#
# Elastic Constant Matrix: (Units=GPa)
#
#
# Indices 1 2 3 4 5 6 
#
# 1 79.3626 -17.2172 35.7819 0.0000 0.0000 0.0000
# 2 -17.2172 28.4215 -2.2759 0.0000 0.0000 0.0000
# 3 35.7819 -2.2759 125.1048 0.0000 0.0000 0.0000
# 4 0.0000 0.0000 0.0000 18.9611 0.0000 0.0000
# 5 0.0000 0.0000 0.0000 0.0000 28.4876 0.0000
# 6 0.0000 0.0000 0.0000 0.0000 0.0000 12.8169
#
#
#
# Elastic Compliance Matrix: (Units=1/GPa)
#
#
# Indices 1 2 3 4 5 6 
#
# 1 0.016819 0.009817 -0.004632 0.000000 0.000000 0.000000
# 2 0.009817 0.040967 -0.002063 0.000000 0.000000 0.000000
# 3 -0.004632 -0.002063 0.009281 0.000000 0.000000 0.000000
# 4 0.000000 0.000000 0.000000 0.052740 0.000000 0.000000
# 5 0.000000 0.000000 0.000000 0.000000 0.035103 0.000000
# 6 0.000000 0.000000 0.000000 0.000000 0.000000 0.078022
#
#
# Mechanical properties :
#
#
# Convention : Reuss Voigt Hill
#
# Bulk Modulus (GPa) = 13.64036 29.49627 21.56832
# Shear Modulus (GPa) = 19.91067 26.49312 23.20189
#
# Velocity S-wave (km/s) = 3.02988 3.49501 3.27073
# Velocity P-wave (km/s) = 4.30457 5.46686 4.92016
#
# Compressibility (1/GPa) = 0.07331185
#
# Stress axis : x y z
#
# Youngs Moduli (GPa) = 59.45816 24.41006 107.75242
#
# Poissons Ratio (x) = -0.23965 0.49908
# Poissons Ratio (y) = -0.58373 0.22226
# Poissons Ratio (z) = 0.27540 0.05035
#
# Static dielectric constant tensor:
#      x y z
#    x 2.001120 0.000000 0.000000 
#    y 0.000000 1.806720 0.000000 
#    z 0.000000 0.000000 1.906860 
# 
# From -- ./inp_files/5389.got.cif
#   From: 2010.05.17/outbox.cif.g08.bks.cpg/sg36_3_cif.got.tgz:5389.got - 2010.06.03 17:41:39.
