data_PCOD9350032
_publ_section_title
;
Structure prediction by ZEFSAII (Michael W. Deem and Ramdas Pophale) SiO2 
 PCOD9350032
Probable space group: C M M 2
;
_chemical_formula_sum "Si O2"
_cell_formula_units_Z 16
_cell_length_a 17.019290
_cell_length_b 7.723898
_cell_length_c 5.130683
_cell_angle_alpha 90.000000
_cell_angle_beta 90.000000
_cell_angle_gamma 90.000000
_cell_volume 674.455268
_symmetry_space_group_name_H-M "C M M 2"
_symmetry_group_IT_number 35
_symmetry_cell_setting 'orthorhombic'
loop_
_space_group_symop_operation_xyz
x,y,z
-x,-y,z
-x,y,z
x,-y,z
1/2+x,1/2+y,z
1/2-x,1/2-y,z
1/2-x,1/2+y,z
1/2+x,1/2-y,z
loop_
_atom_site_type_symbol
_atom_site_label
_atom_site_fract_x
_atom_site_fract_y
_atom_site_fract_z
Si Si1 0.194955 0.000000 0.676991
Si Si2 0.590031 0.195975 0.503055
Si Si3 0.306519 0.000000 0.170102
O O1 0.139634 0.832536 0.663692
O O2 0.246556 0.000000 0.414104
O O3 0.254811 0.000000 0.915417
O O4 0.500000 0.249505 0.465926
O O5 0.636039 0.162550 0.230128
O O6 0.589191 0.000000 0.618726
#
# Coordination Sequence:
#
# PCOD9350032 Si02
#       3
#     4   8   4
#     4  12  23  46  73 106 145 196 245 312 373 442
#     4   9  22  47  73 107 149 197 251 307 376 453
#     4  10  25  44  69 108 145 190 249 310 367 448
#
# _framework density 23.722852
#
# number of rings (size 3 to 8) (size 9 to 14) (size 15 to 20)
#    1.500    0.500    0.000    2.250    0.000    8.000 
#    4.500   15.000    0.000    0.000    0.000    0.000 
#    0.000    0.000    0.000    0.000    0.000    0.000 
#
# Total GULP energy -44708.932541 kJ/mol
# GULP energy per Si atom -5588.616568 kJ/mol
# Density = 2.366886 g / cm^3
# Si number density = 23.722852 Si / 1000 Ang^3
#
#
#
# Elastic Constant Matrix: (Units=GPa)
#
#
# Indices 1 2 3 4 5 6 
#
# 1 253.4811 66.2139 101.5982 0.0000 0.0000 0.0000
# 2 66.2139 87.4406 44.1081 0.0000 0.0000 0.0000
# 3 101.5982 44.1081 153.6426 0.0000 0.0000 0.0000
# 4 0.0000 0.0000 0.0000 19.6619 0.0000 0.0000
# 5 0.0000 0.0000 0.0000 0.0000 34.9579 0.0000
# 6 0.0000 0.0000 0.0000 0.0000 0.0000 -47.1493
#
#
#
# Elastic Compliance Matrix: (Units=1/GPa)
#
#
# Indices 1 2 3 4 5 6 
#
# 1 0.005954 -0.002950 -0.003091 0.000000 0.000000 0.000000
# 2 -0.002950 0.014834 -0.002308 0.000000 0.000000 0.000000
# 3 -0.003091 -0.002308 0.009215 0.000000 0.000000 0.000000
# 4 0.000000 0.000000 0.000000 0.050860 0.000000 0.000000
# 5 0.000000 0.000000 0.000000 0.000000 0.028606 0.000000
# 6 0.000000 0.000000 0.000000 0.000000 0.000000 -0.021209
#
#
# Mechanical properties :
#
#
# Convention : Reuss Voigt Hill
#
# Bulk Modulus (GPa) = 75.15027 102.04495 88.59761
# Shear Modulus (GPa) = 45.70693 20.33703 33.02198
#
# Velocity S-wave (km/s) = 4.39419 2.93110 3.73499
# Velocity P-wave (km/s) = 7.58237 7.38675 7.48520
#
# Compressibility (1/GPa) = 0.01330667
#
# Stress axis : x y z
#
# Youngs Moduli (GPa) = 167.94399 67.41087 108.52043
#
# Poissons Ratio (x) = 0.19886 0.33539
# Poissons Ratio (y) = 0.49542 0.25047
# Poissons Ratio (z) = 0.51904 0.15558
#
# Static dielectric constant tensor:
#      x y z
#    x 1.888580 0.000000 0.000000 
#    y 0.000000 1.975010 0.000000 
#    z 0.000000 0.000000 1.923890 
# 
# From -- ./inp_files/268.got.cif
#   From: 2010.05.17/outbox.cif.g08.bks.cpg/sg35_1_cif.got.tgz:268.got - 2010.06.03 17:29:28.
