data_PCOD9350942
_publ_section_title
;
Structure prediction by ZEFSAII (Michael W. Deem and Ramdas Pophale) SiO2 
 PCOD9350942
Probable space group: C M C 21
;
_chemical_formula_sum "Si O2"
_cell_formula_units_Z 64
_cell_length_a 7.529486
_cell_length_b 18.911587
_cell_length_c 21.836455
_cell_angle_alpha 90.000000
_cell_angle_beta 90.000000
_cell_angle_gamma 90.000000
_cell_volume 3109.391737
_symmetry_space_group_name_H-M "C M C 21"
_symmetry_group_IT_number 36
_symmetry_cell_setting 'orthorhombic'
loop_
_space_group_symop_operation_xyz
x,y,z
-x,-y,1/2+z
x,-y,1/2+z
-x,y,z
1/2+x,1/2+y,z
1/2-x,1/2-y,1/2+z
1/2+x,1/2-y,1/2+z
1/2-x,1/2+y,z
loop_
_atom_site_type_symbol
_atom_site_label
_atom_site_fract_x
_atom_site_fract_y
_atom_site_fract_z
Si Si1 0.291413 0.657738 0.373530
Si Si2 0.707544 0.582636 0.757903
Si Si3 0.211101 0.329172 0.138875
Si Si4 0.283570 0.676076 0.870351
Si Si5 0.781594 0.077303 0.253682
Si Si6 0.701613 0.341963 0.503255
Si Si7 0.717946 0.333844 0.635570
Si Si8 0.711519 0.321287 0.004983
O O1 0.500000 0.640712 0.374495
O O2 0.271150 0.742079 0.364566
O O3 0.218437 0.616264 0.315346
O O4 0.224219 0.642203 0.442398
O O5 0.500000 0.574154 0.772803
O O6 0.720529 0.623298 0.693842
O O7 0.780874 0.630689 0.812870
O O8 0.779849 0.503591 0.753215
O O9 0.276020 0.247795 0.143555
O O10 0.255768 0.356098 0.070625
O O11 0.000000 0.327118 0.144595
O O12 0.500000 0.676453 0.872151
O O13 0.219801 0.645439 0.935964
O O14 0.726581 0.119604 0.193052
O O15 0.000000 0.078719 0.252826
O O16 0.500000 0.369364 0.501829
O O17 0.780255 0.362221 0.569144
O O18 0.699824 0.256096 0.507198
O O19 0.500000 0.333172 0.633295
O O20 0.500000 0.309522 0.999097
#
# Coordination Sequence:
#
# PCOD9350942 Si02
#       8
#     8   8   8   8   8   8   8   8
#     4   9  17  30  50  73  95 123 159 195 230 274
#     4  10  20  32  46  67  96 127 158 196 237 274
#     4  10  19  32  51  71  92 121 157 196 238 287
#     4   9  17  29  46  69  96 123 152 191 237 279
#     4   9  17  30  46  67  96 125 156 194 231 268
#     4   8  14  26  44  68  95 122 155 190 228 277
#     4   8  14  26  47  70  88 115 156 195 228 268
#     4   9  16  27  46  73  98 118 149 195 241 279
#
# _framework density 20.582802000000001
#
# number of rings (size 3 to 8) (size 9 to 14) (size 15 to 20)
#    0.000    3.000    0.000    2.250    0.000    2.000 
#    0.000    1.875    0.000    9.750    0.000    5.250 
#    0.000    0.000    0.000    0.000    0.000    0.000 
#
# Total GULP energy -178345.911385 kJ/mol
# GULP energy per Si atom -5573.309731 kJ/mol
# Density = 2.053595 g / cm^3
# Si number density = 20.582802 Si / 1000 Ang^3
#
#
#
# Elastic Constant Matrix: (Units=GPa)
#
#
# Indices 1 2 3 4 5 6 
#
# 1 49.4518 -10.5703 -16.3738 0.0000 0.0000 0.0000
# 2 -10.5703 77.2247 84.4294 0.0000 0.0000 0.0000
# 3 -16.3738 84.4294 224.5348 0.0000 0.0000 0.0000
# 4 0.0000 0.0000 0.0000 -6.7475 0.0000 0.0000
# 5 0.0000 0.0000 0.0000 0.0000 3.4352 0.0000
# 6 0.0000 0.0000 0.0000 0.0000 0.0000 12.3377
#
#
#
# Elastic Compliance Matrix: (Units=1/GPa)
#
#
# Indices 1 2 3 4 5 6 
#
# 1 0.020908 0.002029 0.000762 0.000000 0.000000 0.000000
# 2 0.002029 0.022186 -0.008194 0.000000 0.000000 0.000000
# 3 0.000762 -0.008194 0.007590 0.000000 0.000000 0.000000
# 4 0.000000 0.000000 0.000000 -0.148203 0.000000 0.000000
# 5 0.000000 0.000000 0.000000 0.000000 0.291103 0.000000
# 6 0.000000 0.000000 0.000000 0.000000 0.000000 0.081053
#
#
# Mechanical properties :
#
#
# Convention : Reuss Voigt Hill
#
# Bulk Modulus (GPa) = 25.07739 51.79800 38.43769
# Shear Modulus (GPa) = 16.73722 21.38681 19.06202
#
# Velocity S-wave (km/s) = 2.85470 3.22695 3.04651
# Velocity P-wave (km/s) = 4.80373 6.25336 5.57586
#
# Compressibility (1/GPa) = 0.03987656
#
# Stress axis : x y z
#
# Youngs Moduli (GPa) = 47.82946 45.07399 131.74501
#
# Poissons Ratio (x) = -0.09145 -0.10035
# Poissons Ratio (y) = -0.09705 1.07956
# Poissons Ratio (z) = -0.03643 0.36935
#
# Static dielectric constant tensor:
#      x y z
#    x 1.778490 0.000000 0.000000 
#    y 0.000000 1.676660 0.000000 
#    z 0.000000 0.000000 1.778900 
# 
# From -- ./inp_files/16047.got.cif
#   From: 2010.05.17/outbox.cif.g08.bks.cpg/sg36_9_cif.got.tgz:16047.got - 2010.06.03 17:41:39.
