data_PCOD9350398
_publ_section_title
;
Structure prediction by ZEFSAII (Michael W. Deem and Ramdas Pophale) SiO2 
 PCOD9350398
Probable space group: C M M 2
;
_chemical_formula_sum "Si O2"
_cell_formula_units_Z 52
_cell_length_a 7.691303
_cell_length_b 28.083431
_cell_length_c 14.926748
_cell_angle_alpha 90.000000
_cell_angle_beta 90.000000
_cell_angle_gamma 90.000000
_cell_volume 3224.150358
_symmetry_space_group_name_H-M "C M M 2"
_symmetry_group_IT_number 35
_symmetry_cell_setting 'orthorhombic'
loop_
_space_group_symop_operation_xyz
x,y,z
-x,-y,z
-x,y,z
x,-y,z
1/2+x,1/2+y,z
1/2-x,1/2-y,z
1/2-x,1/2+y,z
1/2+x,1/2-y,z
loop_
_atom_site_type_symbol
_atom_site_label
_atom_site_fract_x
_atom_site_fract_y
_atom_site_fract_z
Si Si1 0.793519 0.698630 0.745990
Si Si2 0.500000 0.442365 0.326641
Si Si3 0.693771 0.057799 0.192818
Si Si4 0.291452 0.803483 0.537358
Si Si5 0.208780 0.055353 0.994470
Si Si6 0.203189 0.403728 0.804507
Si Si7 0.000000 0.878668 0.501791
Si Si8 0.500000 0.444573 0.679483
O O1 0.750000 0.750000 0.785666
O O2 0.735268 0.697127 0.642520
O O3 0.734574 0.650942 0.794373
O O4 0.000000 0.696380 0.743288
O O5 0.500000 0.500000 0.338186
O O6 0.665415 0.428369 0.266083
O O7 0.500000 0.415703 0.420424
O O8 0.500000 0.071971 0.218606
O O9 0.702158 0.000000 0.188566
O O10 0.733637 0.074171 0.091556
O O11 0.500000 0.812077 0.531154
O O12 0.250000 0.750000 0.503177
O O13 0.169650 0.844405 0.496744
O O14 0.280840 0.081118 0.907383
O O15 0.000000 0.056874 0.991346
O O16 0.263015 0.000000 0.988666
O O17 0.331069 0.434090 0.741422
O O18 0.000000 0.407901 0.776861
O O19 0.000000 0.908801 0.594721
O O20 0.500000 0.500000 0.651988
#
# Coordination Sequence:
#
# PCOD9350398 Si02
#       8
#     8   4   8   8   8   8   4   4
#     4   9  19  31  51  75 102 136 177 226 270 305
#     4  10  21  37  54  77 111 142 183 226 269 330
#     4   9  17  32  54  76 101 136 176 226 276 315
#     4  10  19  34  56  81 105 135 176 230 279 315
#     4  10  18  30  51  78 106 138 178 221 266 317
#     4  11  22  35  50  77 110 147 185 222 262 318
#     4  12  23  36  56  80 110 144 181 230 278 320
#     4  12  25  37  50  71 109 158 193 212 259 320
#
# _framework density 16.128278999999999
#
# number of rings (size 3 to 8) (size 9 to 14) (size 15 to 20)
#    0.000    1.846    3.846    1.154    2.154    2.462 
#    0.000    0.000    0.000    2.769    0.000    1.077 
#    0.000    0.000    0.000    0.000    0.000    0.000 
#
# Total GULP energy -144930.942877 kJ/mol
# GULP energy per Si atom -5574.267034 kJ/mol
# Density = 1.609157 g / cm^3
# Si number density = 16.128279 Si / 1000 Ang^3
#
#
#
# Elastic Constant Matrix: (Units=GPa)
#
#
# Indices 1 2 3 4 5 6 
#
# 1 104.0056 34.6366 42.7136 0.0000 0.0000 0.0000
# 2 34.6366 85.3121 34.8775 0.0000 0.0000 0.0000
# 3 42.7136 34.8775 91.6576 0.0000 0.0000 0.0000
# 4 0.0000 0.0000 0.0000 7.6055 0.0000 0.0000
# 5 0.0000 0.0000 0.0000 0.0000 11.5068 0.0000
# 6 0.0000 0.0000 0.0000 0.0000 0.0000 17.8548
#
#
#
# Elastic Compliance Matrix: (Units=1/GPa)
#
#
# Indices 1 2 3 4 5 6 
#
# 1 0.012593 -0.003213 -0.004646 0.000000 0.000000 0.000000
# 2 -0.003213 0.014701 -0.004097 0.000000 0.000000 0.000000
# 3 -0.004646 -0.004097 0.014634 0.000000 0.000000 0.000000
# 4 0.000000 0.000000 0.000000 0.131483 0.000000 0.000000
# 5 0.000000 0.000000 0.000000 0.000000 0.086905 0.000000
# 6 0.000000 0.000000 0.000000 0.000000 0.000000 0.056007
#
#
# Mechanical properties :
#
#
# Convention : Reuss Voigt Hill
#
# Bulk Modulus (GPa) = 55.50438 56.15897 55.83168
# Shear Modulus (GPa) = 14.44083 18.64326 16.54204
#
# Velocity S-wave (km/s) = 2.99552 3.40359 3.20606
# Velocity P-wave (km/s) = 6.81566 7.09519 6.95683
#
# Compressibility (1/GPa) = 0.01801660
#
# Stress axis : x y z
#
# Youngs Moduli (GPa) = 79.40952 68.02218 68.33424
#
# Poissons Ratio (x) = 0.21859 0.31746
# Poissons Ratio (y) = 0.25518 0.27993
# Poissons Ratio (z) = 0.36891 0.27866
#
# Static dielectric constant tensor:
#      x y z
#    x 1.574810 0.000000 0.000000 
#    y 0.000000 1.554520 0.000000 
#    z 0.000000 0.000000 1.519470 
# 
# From -- ./inp_files/15990.got.cif
#   From: 2010.05.17/outbox.cif.g08.bks.cpg/sg35_8_cif.got.tgz:15990.got - 2010.06.03 17:29:28.
