data_PCOD9350994
_publ_section_title
;
Structure prediction by ZEFSAII (Michael W. Deem and Ramdas Pophale) SiO2 
 PCOD9350994
Probable space group: C M C 21
;
_chemical_formula_sum "Si O2"
_cell_formula_units_Z 64
_cell_length_a 8.689768
_cell_length_b 21.171775
_cell_length_c 19.792374
_cell_angle_alpha 90.000000
_cell_angle_beta 90.000000
_cell_angle_gamma 90.000000
_cell_volume 3641.357681
_symmetry_space_group_name_H-M "C M C 21"
_symmetry_group_IT_number 36
_symmetry_cell_setting 'orthorhombic'
loop_
_space_group_symop_operation_xyz
x,y,z
-x,-y,1/2+z
x,-y,1/2+z
-x,y,z
1/2+x,1/2+y,z
1/2-x,1/2-y,1/2+z
1/2+x,1/2-y,1/2+z
1/2-x,1/2+y,z
loop_
_atom_site_type_symbol
_atom_site_label
_atom_site_fract_x
_atom_site_fract_y
_atom_site_fract_z
Si Si1 0.814335 0.564376 0.724800
Si Si2 0.687364 0.810277 0.144691
Si Si3 0.184134 0.634877 0.352721
Si Si4 0.684522 0.682407 0.217340
Si Si5 0.316383 0.505868 0.854383
Si Si6 0.316039 0.061035 0.140957
Si Si7 0.183678 0.008053 0.008831
Si Si8 0.813948 0.367208 0.005817
O O1 0.764772 0.628428 0.687803
O O2 0.744281 0.553828 0.798456
O O3 0.770450 0.503201 0.680313
O O4 0.000000 0.565004 0.729429
O O5 0.500000 0.809496 0.145079
O O6 0.739107 0.745615 0.179222
O O7 0.734002 0.821624 0.066888
O O8 0.255645 0.676975 0.293890
O O9 0.239813 0.562654 0.342311
O O10 0.228989 0.652632 0.429631
O O11 0.000000 0.636378 0.347349
O O12 0.500000 0.681989 0.218097
O O13 0.743444 0.621034 0.177526
O O14 0.500000 0.498553 0.848862
O O15 0.279507 0.525328 0.931257
O O16 0.500000 0.065869 0.143645
O O17 0.260107 0.052390 0.064434
O O18 0.000000 0.008725 0.017064
O O19 0.245322 0.936692 0.018461
O O20 0.000000 0.373078 0.007575
#
# Coordination Sequence:
#
# PCOD9350994 Si02
#       8
#     8   8   8   8   8   8   8   8
#     4  10  19  34  57  80 106 140 181 224 267 322
#     4   9  19  37  57  79 106 143 183 221 272 326
#     4  10  19  32  54  80 107 141 181 225 270 323
#     4  11  22  36  56  79 111 147 180 223 272 326
#     4  10  20  33  52  81 114 143 178 225 275 323
#     4  11  21  35  57  81 108 141 181 226 267 320
#     4  10  20  33  52  82 114 142 177 225 278 324
#     4   9  17  34  57  78 104 141 185 225 267 324
#
# _framework density 17.575862999999998
#
# number of rings (size 3 to 8) (size 9 to 14) (size 15 to 20)
#    0.000    2.000    2.500    1.875    0.000    2.500 
#    0.000    3.750    0.000    4.500    0.000    0.000 
#    0.000    0.000    0.000    0.000    0.000    0.000 
#
# Total GULP energy -178589.772387 kJ/mol
# GULP energy per Si atom -5580.930387 kJ/mol
# Density = 1.753586 g / cm^3
# Si number density = 17.575863 Si / 1000 Ang^3
#
#
#
# Elastic Constant Matrix: (Units=GPa)
#
#
# Indices 1 2 3 4 5 6 
#
# 1 29.1537 29.7211 38.4114 0.0000 0.0000 0.0000
# 2 29.7211 109.4868 79.4054 0.0000 0.0000 0.0000
# 3 38.4114 79.4054 162.8092 0.0000 0.0000 0.0000
# 4 0.0000 0.0000 0.0000 28.8308 0.0000 0.0000
# 5 0.0000 0.0000 0.0000 0.0000 30.1287 0.0000
# 6 0.0000 0.0000 0.0000 0.0000 0.0000 19.3208
#
#
#
# Elastic Compliance Matrix: (Units=1/GPa)
#
#
# Indices 1 2 3 4 5 6 
#
# 1 0.054391 -0.008445 -0.008713 0.000000 0.000000 0.000000
# 2 -0.008445 0.015444 -0.005540 0.000000 0.000000 0.000000
# 3 -0.008713 -0.005540 0.010900 0.000000 0.000000 0.000000
# 4 0.000000 0.000000 0.000000 0.034685 0.000000 0.000000
# 5 0.000000 0.000000 0.000000 0.000000 0.033191 0.000000
# 6 0.000000 0.000000 0.000000 0.000000 0.000000 0.051758
#
#
# Mechanical properties :
#
#
# Convention : Reuss Voigt Hill
#
# Bulk Modulus (GPa) = 28.29865 66.28062 47.28963
# Shear Modulus (GPa) = 19.41409 25.91683 22.66546
#
# Velocity S-wave (km/s) = 3.32714 3.84418 3.59497
# Velocity P-wave (km/s) = 5.55838 7.58265 6.64802
#
# Compressibility (1/GPa) = 0.03533738
#
# Stress axis : x y z
#
# Youngs Moduli (GPa) = 18.38538 64.75082 91.74531
#
# Poissons Ratio (x) = 0.54685 0.79941
# Poissons Ratio (y) = 0.15527 0.50824
# Poissons Ratio (z) = 0.16020 0.35870
#
# Static dielectric constant tensor:
#      x y z
#    x 1.593120 0.000000 0.000000 
#    y 0.000000 1.566060 0.000000 
#    z 0.000000 0.000000 1.621720 
# 
# From -- ./inp_files/13917.got.cif
#   From: 2010.05.17/outbox.cif.g08.bks.cpg/sg36_7_cif.got.tgz:13917.got - 2010.06.03 17:41:39.
