data_PCOD9350566
_publ_section_title
;
Structure prediction by ZEFSAII (Michael W. Deem and Ramdas Pophale) SiO2 
 PCOD9350566
Probable space group: C M C 21
;
_chemical_formula_sum "Si O2"
_cell_formula_units_Z 64
_cell_length_a 7.644879
_cell_length_b 14.594648
_cell_length_c 25.637971
_cell_angle_alpha 90.000000
_cell_angle_beta 90.000000
_cell_angle_gamma 90.000000
_cell_volume 2860.539129
_symmetry_space_group_name_H-M "C M C 21"
_symmetry_group_IT_number 36
_symmetry_cell_setting 'orthorhombic'
loop_
_space_group_symop_operation_xyz
x,y,z
-x,-y,1/2+z
x,-y,1/2+z
-x,y,z
1/2+x,1/2+y,z
1/2-x,1/2-y,1/2+z
1/2+x,1/2-y,1/2+z
1/2-x,1/2+y,z
loop_
_atom_site_type_symbol
_atom_site_label
_atom_site_fract_x
_atom_site_fract_y
_atom_site_fract_z
Si Si1 0.787753 0.666527 0.820240
Si Si2 0.289309 0.685299 0.081641
Si Si3 0.701237 0.174200 0.194586
Si Si4 0.205633 0.989517 0.392833
Si Si5 0.792468 0.965247 0.507107
Si Si6 0.210731 0.876431 0.803546
Si Si7 0.712568 0.106415 0.597949
Si Si8 0.198698 0.619680 0.710626
O O1 0.725744 0.612795 0.870711
O O2 0.733297 0.772296 0.817052
O O3 0.720822 0.613803 0.768153
O O4 0.000000 0.664872 0.818726
O O5 0.500000 0.686232 0.079561
O O6 0.238790 0.638968 0.136695
O O7 0.229513 0.790140 0.084550
O O8 0.221549 0.628188 0.032624
O O9 0.500000 0.201584 0.196978
O O10 0.736621 0.108282 0.243340
O O11 0.807594 0.268934 0.202130
O O12 0.000000 0.012889 0.396078
O O13 0.280934 0.994329 0.451036
O O14 0.280367 0.055314 0.347679
O O15 0.768617 0.039959 0.552117
O O16 0.000000 0.951554 0.499113
O O17 0.000000 0.878869 0.804082
O O18 0.500000 0.105903 0.600541
O O19 0.777884 0.083995 0.656581
O O20 0.000000 0.584653 0.713747
#
# Coordination Sequence:
#
# PCOD9350566 Si02
#       8
#     8   8   8   8   8   8   8   8
#     4   9  18  34  56  79 105 139 173 209 259 316
#     4   9  19  37  56  75 107 145 171 204 266 324
#     4  10  18  29  52  85 110 130 170 219 255 303
#     4  10  22  38  54  75 104 139 181 223 260 305
#     4  10  22  38  54  75 104 139 181 223 260 305
#     4   9  19  37  56  75 107 145 171 204 266 324
#     4   9  18  34  56  79 105 139 173 209 259 316
#     4   8  16  33  54  77 110 144 168 201 263 327
#
# _framework density 22.373405000000002
#
# number of rings (size 3 to 8) (size 9 to 14) (size 15 to 20)
#    0.000    2.750    0.000    2.625    0.000    7.500 
#    0.000    2.500    0.000    0.000    0.000    0.000 
#    0.000    0.000    0.000    0.000    0.000    0.000 
#
# Total GULP energy -178610.633294 kJ/mol
# GULP energy per Si atom -5581.582290 kJ/mol
# Density = 2.232248 g / cm^3
# Si number density = 22.373405 Si / 1000 Ang^3
#
#
#
# Elastic Constant Matrix: (Units=GPa)
#
#
# Indices 1 2 3 4 5 6 
#
# 1 52.2390 -5.8184 -2.0284 0.0000 0.0000 0.0000
# 2 -5.8184 39.1861 13.7356 0.0000 0.0000 0.0000
# 3 -2.0284 13.7356 132.4621 0.0000 0.0000 0.0000
# 4 0.0000 0.0000 0.0000 27.8671 0.0000 0.0000
# 5 0.0000 0.0000 0.0000 0.0000 -2.5878 0.0000
# 6 0.0000 0.0000 0.0000 0.0000 0.0000 8.1955
#
#
#
# Elastic Compliance Matrix: (Units=1/GPa)
#
#
# Indices 1 2 3 4 5 6 
#
# 1 0.019465 0.002891 -0.000002 0.000000 0.000000 0.000000
# 2 0.002891 0.026911 -0.002746 0.000000 0.000000 0.000000
# 3 -0.000002 -0.002746 0.007834 0.000000 0.000000 0.000000
# 4 0.000000 0.000000 0.000000 0.035885 0.000000 0.000000
# 5 0.000000 0.000000 0.000000 0.000000 -0.386428 0.000000
# 6 0.000000 0.000000 0.000000 0.000000 0.000000 0.122018
#
#
# Mechanical properties :
#
#
# Convention : Reuss Voigt Hill
#
# Bulk Modulus (GPa) = 18.35017 26.18498 22.26758
# Shear Modulus (GPa) = -31.96185 21.22818 -5.36684
#
# Velocity S-wave (km/s) = -3.78374 3.08362 -1.55047
# Velocity P-wave (km/s) = 3.29686 4.94038 2.60173
#
# Compressibility (1/GPa) = 0.05449540
#
# Stress axis : x y z
#
# Youngs Moduli (GPa) = 51.37505 37.15938 127.64747
#
# Poissons Ratio (x) = -0.10742 0.00022
# Poissons Ratio (y) = -0.14851 0.35055
# Poissons Ratio (z) = 0.00009 0.10205
#
# Static dielectric constant tensor:
#      x y z
#    x 1.815830 0.000000 0.000000 
#    y 0.000000 1.837300 0.000000 
#    z 0.000000 0.000000 1.849190 
# 
# From -- ./inp_files/16586.got.cif
#   From: 2010.05.17/outbox.cif.g08.bks.cpg/sg36_9_cif.got.tgz:16586.got - 2010.06.03 17:41:39.
