data_PCOD9350475
_publ_section_title
;
Structure prediction by ZEFSAII (Michael W. Deem and Ramdas Pophale) SiO2 
 PCOD9350475
Probable space group: C M C 21
;
_chemical_formula_sum "Si O2"
_cell_formula_units_Z 44
_cell_length_a 12.263730
_cell_length_b 14.674874
_cell_length_c 13.198187
_cell_angle_alpha 90.000000
_cell_angle_beta 90.000000
_cell_angle_gamma 90.000000
_cell_volume 2375.260458
_symmetry_space_group_name_H-M "C M C 21"
_symmetry_group_IT_number 36
_symmetry_cell_setting 'orthorhombic'
loop_
_space_group_symop_operation_xyz
x,y,z
-x,-y,1/2+z
x,-y,1/2+z
-x,y,z
1/2+x,1/2+y,z
1/2-x,1/2-y,1/2+z
1/2+x,1/2-y,1/2+z
1/2-x,1/2+y,z
loop_
_atom_site_type_symbol
_atom_site_label
_atom_site_fract_x
_atom_site_fract_y
_atom_site_fract_z
Si Si1 0.267935 0.364065 0.103510
Si Si2 0.869357 0.505715 0.986909
Si Si3 0.235712 0.846599 0.620641
Si Si4 0.769030 0.994474 0.788740
Si Si5 0.500000 0.562662 0.822409
Si Si6 0.500000 0.584568 0.583961
Si Si7 0.000000 0.128003 0.031504
O O1 0.268505 0.257976 0.128139
O O2 0.262664 0.424914 0.205423
O O3 0.384202 0.379153 0.048373
O O4 0.173726 0.410590 0.035921
O O5 0.822859 0.505760 0.873020
O O6 0.000000 0.513455 0.992685
O O7 0.809047 0.589170 0.046580
O O8 0.112592 0.839570 0.578627
O O9 0.237895 0.900767 0.726511
O O10 0.889632 0.005132 0.835573
O O11 0.500000 0.597155 0.706644
O O12 0.500000 0.637744 0.910265
O O13 0.500000 0.478647 0.559300
#
# Coordination Sequence:
#
# PCOD9350475 Si02
#       7
#     8   8   8   8   4   4   4
#     4  10  23  40  63  92 121 155 206 250 298 360
#     4  11  24  42  61  87 127 167 198 245 310 362
#     4  11  23  39  65  91 121 157 204 253 300 353
#     4  10  20  41  62  87 124 159 202 243 307 355
#     4  10  16  34  66  86 109 151 199 251 287 353
#     4  10  18  40  62  87 114 159 197 243 304 353
#     4  12  18  38  66  87 113 158 198 254 301 342
#
# _framework density 18.524284000000002
#
# number of rings (size 3 to 8) (size 9 to 14) (size 15 to 20)
#    0.000    1.455    7.273    0.000    2.545    4.364 
#    0.000    0.000    4.000    0.000    0.000    0.000 
#    0.000    0.000    0.000    0.000    0.000    0.000 
#
# Total GULP energy -122614.259753 kJ/mol
# GULP energy per Si atom -5573.375443 kJ/mol
# Density = 1.848212 g / cm^3
# Si number density = 18.524284 Si / 1000 Ang^3
#
#
#
# Elastic Constant Matrix: (Units=GPa)
#
#
# Indices 1 2 3 4 5 6 
#
# 1 138.6756 6.2604 24.4713 0.0000 0.0000 0.0000
# 2 6.2604 99.6886 5.2020 0.0000 0.0000 0.0000
# 3 24.4713 5.2020 60.7913 0.0000 0.0000 0.0000
# 4 0.0000 0.0000 0.0000 -2.7861 0.0000 0.0000
# 5 0.0000 0.0000 0.0000 0.0000 24.4991 0.0000
# 6 0.0000 0.0000 0.0000 0.0000 0.0000 9.6622
#
#
#
# Elastic Compliance Matrix: (Units=1/GPa)
#
#
# Indices 1 2 3 4 5 6 
#
# 1 0.007773 -0.000326 -0.003101 0.000000 0.000000 0.000000
# 2 -0.000326 0.010090 -0.000732 0.000000 0.000000 0.000000
# 3 -0.003101 -0.000732 0.017761 0.000000 0.000000 0.000000
# 4 0.000000 0.000000 0.000000 -0.358931 0.000000 0.000000
# 5 0.000000 0.000000 0.000000 0.000000 0.040818 0.000000
# 6 0.000000 0.000000 0.000000 0.000000 0.000000 0.103496
#
#
# Mechanical properties :
#
#
# Convention : Reuss Voigt Hill
#
# Bulk Modulus (GPa) = 36.62365 41.22477 38.92421
# Shear Modulus (GPa) = -30.94569 23.82319 -3.56125
#
# Velocity S-wave (km/s) = -4.09167 3.59005 -1.38804
# Velocity P-wave (km/s) = 1.58391 6.28390 4.29992
#
# Compressibility (1/GPa) = 0.02730476
#
# Stress axis : x y z
#
# Youngs Moduli (GPa) = 128.64990 99.10872 56.30409
#
# Poissons Ratio (x) = 0.03234 0.17460
# Poissons Ratio (y) = 0.04198 0.04122
# Poissons Ratio (z) = 0.39895 0.07255
#
# Static dielectric constant tensor:
#      x y z
#    x 1.586720 0.000000 0.000000 
#    y 0.000000 1.609530 0.000000 
#    z 0.000000 0.000000 1.677100 
# 
# From -- ./inp_files/11503.got.cif
#   From: 2010.05.17/outbox.cif.g08.bks.cpg/sg36_6_cif.got.tgz:11503.got - 2010.06.03 17:41:39.
