data_PCOD9350853
_publ_section_title
;
Structure prediction by ZEFSAII (Michael W. Deem and Ramdas Pophale) SiO2 
 PCOD9350853
Probable space group: C M C 21
;
_chemical_formula_sum "Si O2"
_cell_formula_units_Z 60
_cell_length_a 25.498402
_cell_length_b 27.320636
_cell_length_c 5.242543
_cell_angle_alpha 90.000000
_cell_angle_beta 90.000000
_cell_angle_gamma 90.000000
_cell_volume 3652.126149
_symmetry_space_group_name_H-M "C M C 21"
_symmetry_group_IT_number 36
_symmetry_cell_setting 'orthorhombic'
loop_
_space_group_symop_operation_xyz
x,y,z
-x,-y,1/2+z
x,-y,1/2+z
-x,y,z
1/2+x,1/2+y,z
1/2-x,1/2-y,1/2+z
1/2+x,1/2-y,1/2+z
1/2-x,1/2+y,z
loop_
_atom_site_type_symbol
_atom_site_label
_atom_site_fract_x
_atom_site_fract_y
_atom_site_fract_z
Si Si1 0.189395 0.381986 0.822670
Si Si2 0.804970 0.483032 0.973382
Si Si3 0.184685 0.225588 0.619303
Si Si4 0.727960 0.687373 0.117131
Si Si5 0.391361 0.937012 0.457509
Si Si6 0.000000 0.530303 0.189223
Si Si7 0.561110 0.847366 0.271279
Si Si8 0.607610 0.802531 0.795489
O O1 0.194189 0.425340 0.026844
O O2 0.242657 0.361843 0.702539
O O3 0.151797 0.407484 0.615711
O O4 0.157483 0.333900 0.901797
O O5 0.777529 0.489579 0.702398
O O6 0.860379 0.512010 0.902202
O O7 0.227217 0.270084 0.610887
O O8 0.187092 0.202963 0.337519
O O9 0.131003 0.250321 0.715873
O O10 0.203965 0.188049 0.835640
O O11 0.444899 0.944340 0.618795
O O12 0.410974 0.900556 0.234516
O O13 0.000000 0.514396 0.483384
O O14 0.500000 0.856566 0.305027
O O15 0.584313 0.825103 0.533958
O O16 0.569043 0.811236 0.031927
#
# Coordination Sequence:
#
# PCOD9350853 Si02
#       8
#     8   8   8   8   8   4   8   8
#     4   9  19  32  48  64  83 111 140 181 235 278
#     4  10  19  31  44  58  79 107 145 182 221 265
#     4   9  17  30  45  68  85 104 127 162 222 281
#     4   9  17  28  46  66  87 101 129 168 216 286
#     4  10  21  36  46  63  84 116 152 199 233 278
#     4  12  24  36  48  60  78 112 156 206 248 276
#     4  11  21  34  47  66  86 116 153 190 228 269
#     4  10  20  32  50  63  87 111 136 177 228 281
#
# _framework density 16.428787
#
# number of rings (size 3 to 8) (size 9 to 14) (size 15 to 20)
#    0.000    2.133    0.667    3.600    0.000   10.667 
#    0.000    0.000    0.000    0.000    0.000    0.000 
#    0.000    0.000    0.000    0.000    0.000    0.000 
#
# Total GULP energy -167011.873723 kJ/mol
# GULP energy per Si atom -5567.062457 kJ/mol
# Density = 1.639139 g / cm^3
# Si number density = 16.428787 Si / 1000 Ang^3
#
#
#
# Elastic Constant Matrix: (Units=GPa)
#
#
# Indices 1 2 3 4 5 6 
#
# 1 12.5743 13.7428 -3.4550 0.0000 0.0000 0.0000
# 2 13.7428 30.3125 -10.7900 0.0000 0.0000 0.0000
# 3 -3.4550 -10.7900 58.0057 0.0000 0.0000 0.0000
# 4 0.0000 0.0000 0.0000 16.8675 0.0000 0.0000
# 5 0.0000 0.0000 0.0000 0.0000 13.9936 0.0000
# 6 0.0000 0.0000 0.0000 0.0000 0.0000 19.8565
#
#
#
# Elastic Compliance Matrix: (Units=1/GPa)
#
#
# Indices 1 2 3 4 5 6 
#
# 1 0.158587 -0.073396 -0.004207 0.000000 0.000000 0.000000
# 2 -0.073396 0.069297 0.008519 0.000000 0.000000 0.000000
# 3 -0.004207 0.008519 0.018574 0.000000 0.000000 0.000000
# 4 0.000000 0.000000 0.000000 0.059286 0.000000 0.000000
# 5 0.000000 0.000000 0.000000 0.000000 0.071461 0.000000
# 6 0.000000 0.000000 0.000000 0.000000 0.000000 0.050361
#
#
# Mechanical properties :
#
#
# Convention : Reuss Voigt Hill
#
# Bulk Modulus (GPa) = 9.23445 11.09868 10.16656
# Shear Modulus (GPa) = 8.30798 16.90316 12.60557
#
# Velocity S-wave (km/s) = 2.25121 3.21109 2.77300
# Velocity P-wave (km/s) = 3.51999 4.52972 4.05640
#
# Compressibility (1/GPa) = 0.10829017
#
# Stress axis : x y z
#
# Youngs Moduli (GPa) = 6.30569 14.43056 53.83952
#
# Poissons Ratio (x) = 1.05914 0.22649
# Poissons Ratio (y) = 0.46281 -0.45864
# Poissons Ratio (z) = 0.02653 -0.12293
#
# Static dielectric constant tensor:
#      x y z
#    x 1.562340 0.000000 0.000000 
#    y 0.000000 1.617970 0.000000 
#    z 0.000000 0.000000 1.664680 
# 
# From -- ./inp_files/1512.got.cif
#   From: 2010.05.17/outbox.cif.g08.bks.cpg/sg36_1_cif.got.tgz:1512.got - 2010.06.03 17:41:39.
