data_PCOD9350007
_publ_section_title
;
Structure prediction by ZEFSAII (Michael W. Deem and Ramdas Pophale) SiO2 
 PCOD9350007
Probable space group: C M M 2
;
_chemical_formula_sum "Si O2"
_cell_formula_units_Z 56
_cell_length_a 14.647484
_cell_length_b 20.413490
_cell_length_c 7.434486
_cell_angle_alpha 90.000000
_cell_angle_beta 90.000000
_cell_angle_gamma 90.000000
_cell_volume 2222.957915
_symmetry_space_group_name_H-M "C M M 2"
_symmetry_group_IT_number 35
_symmetry_cell_setting 'orthorhombic'
loop_
_space_group_symop_operation_xyz
x,y,z
-x,-y,z
-x,y,z
x,-y,z
1/2+x,1/2+y,z
1/2-x,1/2-y,z
1/2-x,1/2+y,z
1/2+x,1/2-y,z
loop_
_atom_site_type_symbol
_atom_site_label
_atom_site_fract_x
_atom_site_fract_y
_atom_site_fract_z
Si Si1 0.901031 0.109352 0.310150
Si Si2 0.647767 0.572641 0.908060
Si Si3 0.106897 0.743193 0.222928
Si Si4 0.890308 0.211062 0.822013
Si Si5 0.861477 0.430407 0.002524
Si Si6 0.102063 0.342429 0.691048
Si Si7 0.195160 0.387748 0.367294
O O1 0.897010 0.188220 0.329705
O O2 0.799789 0.088540 0.369076
O O3 0.000000 0.087203 0.384777
O O4 0.901353 0.089697 0.097570
O O5 0.620671 0.500000 0.844538
O O6 0.634046 0.636171 0.783966
O O7 0.754197 0.571502 0.956582
O O8 0.173757 0.687473 0.300346
O O9 0.000000 0.720338 0.214311
O O10 0.137384 0.767781 0.024387
O O11 0.856395 0.269924 0.698110
O O12 0.000000 0.214739 0.818577
O O13 0.898895 0.500000 0.941987
O O14 0.901550 0.370537 0.892054
O O15 0.863247 0.425048 0.216709
O O16 0.157575 0.390911 0.566823
O O17 0.000000 0.338016 0.617114
#
# Coordination Sequence:
#
# PCOD9350007 Si02
#       7
#     8   8   8   8   8   8   8
#     4   9  19  34  57  93 132 171 219 276 334 399
#     4   9  18  35  63  96 129 174 227 274 330 404
#     4   9  16  32  58  88 125 164 208 261 324 395
#     4   9  18  34  59  94 133 170 212 272 334 397
#     4  10  23  43  65  93 131 175 225 281 337 402
#     4  11  24  41  63  98 137 174 225 283 342 404
#     4  11  21  38  66  94 126 175 225 271 337 402
#
# _framework density 25.191661
#
# number of rings (size 3 to 8) (size 9 to 14) (size 15 to 20)
#    0.000    2.286    1.429    2.143    0.000    3.143 
#    5.143    0.000    0.000    3.429    0.000    0.000 
#    0.000    0.000    0.000    0.000    0.000    0.000 
#
# Total GULP energy -156431.189028 kJ/mol
# GULP energy per Si atom -5586.828180 kJ/mol
# Density = 2.513432 g / cm^3
# Si number density = 25.191661 Si / 1000 Ang^3
#
#
#
# Elastic Constant Matrix: (Units=GPa)
#
#
# Indices 1 2 3 4 5 6 
#
# 1 125.9503 7.7277 16.9826 0.0000 0.0000 0.0000
# 2 7.7277 141.2151 18.4158 0.0000 0.0000 0.0000
# 3 16.9826 18.4158 76.4190 0.0000 0.0000 0.0000
# 4 0.0000 0.0000 0.0000 15.2606 0.0000 0.0000
# 5 0.0000 0.0000 0.0000 0.0000 18.7553 0.0000
# 6 0.0000 0.0000 0.0000 0.0000 0.0000 27.6187
#
#
#
# Elastic Compliance Matrix: (Units=1/GPa)
#
#
# Indices 1 2 3 4 5 6 
#
# 1 0.008191 -0.000218 -0.001768 0.000000 0.000000 0.000000
# 2 -0.000218 0.007317 -0.001715 0.000000 0.000000 0.000000
# 3 -0.001768 -0.001715 0.013892 0.000000 0.000000 0.000000
# 4 0.000000 0.000000 0.000000 0.065528 0.000000 0.000000
# 5 0.000000 0.000000 0.000000 0.000000 0.053318 0.000000
# 6 0.000000 0.000000 0.000000 0.000000 0.000000 0.036207
#
#
# Mechanical properties :
#
#
# Convention : Reuss Voigt Hill
#
# Bulk Modulus (GPa) = 45.45616 47.75961 46.60788
# Shear Modulus (GPa) = 25.10188 32.35747 28.72968
#
# Velocity S-wave (km/s) = 3.16006 3.58781 3.38071
# Velocity P-wave (km/s) = 5.60339 6.01356 5.81209
#
# Compressibility (1/GPa) = 0.02199922
#
# Stress axis : x y z
#
# Youngs Moduli (GPa) = 122.07969 136.66903 71.98444
#
# Poissons Ratio (x) = 0.02975 0.12726
# Poissons Ratio (y) = 0.02658 0.12345
# Poissons Ratio (z) = 0.21583 0.23437
#
# Static dielectric constant tensor:
#      x y z
#    x 1.987580 0.000000 0.000000 
#    y 0.000000 1.985780 0.000000 
#    z 0.000000 0.000000 1.988690 
# 
# From -- ./inp_files/7649.got.cif
#   From: 2010.05.17/outbox.cif.g08.bks.cpg/sg35_4_cif.got.tgz:7649.got - 2010.06.03 17:29:28.
