data_PCOD9350281
_publ_section_title
;
Structure prediction by ZEFSAII (Michael W. Deem and Ramdas Pophale) SiO2 
 PCOD9350281
Probable space group: C M M 2
;
_chemical_formula_sum "Si O2"
_cell_formula_units_Z 64
_cell_length_a 21.082128
_cell_length_b 19.445351
_cell_length_c 7.637119
_cell_angle_alpha 90.000000
_cell_angle_beta 90.000000
_cell_angle_gamma 90.000000
_cell_volume 3130.832190
_symmetry_space_group_name_H-M "C M M 2"
_symmetry_group_IT_number 35
_symmetry_cell_setting 'orthorhombic'
loop_
_space_group_symop_operation_xyz
x,y,z
-x,-y,z
-x,y,z
x,-y,z
1/2+x,1/2+y,z
1/2-x,1/2-y,z
1/2-x,1/2+y,z
1/2+x,1/2-y,z
loop_
_atom_site_type_symbol
_atom_site_label
_atom_site_fract_x
_atom_site_fract_y
_atom_site_fract_z
Si Si1 0.208403 0.818146 0.591960
Si Si2 0.570679 0.279084 0.591251
Si Si3 0.571522 0.662263 0.198691
Si Si4 0.689655 0.418773 0.256917
Si Si5 0.697890 0.074084 0.644434
Si Si6 0.326818 0.922649 0.225232
Si Si7 0.568180 0.867745 0.703987
Si Si8 0.928376 0.314007 0.095089
O O1 0.250000 0.750000 0.548099
O O2 0.139018 0.800989 0.669848
O O3 0.195554 0.866319 0.421836
O O4 0.255973 0.865316 0.703289
O O5 0.500000 0.290579 0.673669
O O6 0.568325 0.317598 0.405088
O O7 0.576756 0.196280 0.570734
O O8 0.500000 0.643147 0.143777
O O9 0.624775 0.605265 0.166885
O O10 0.590419 0.734799 0.113998
O O11 0.686393 0.500000 0.306477
O O12 0.755730 0.410388 0.152277
O O13 0.685306 0.077848 0.434687
O O14 0.627432 0.082944 0.714414
O O15 0.725348 0.000000 0.687094
O O16 0.377674 0.865829 0.176223
O O17 0.347783 0.000000 0.176485
O O18 0.500000 0.900957 0.669211
O O19 0.566812 0.831152 0.891346
O O20 0.000000 0.321568 0.170666
#
# Coordination Sequence:
#
# PCOD9350281 Si02
#       8
#     8   8   8   8   8   8   8   8
#     4  10  17  29  52  78 104 136 173 208 256 304
#     4   9  17  31  52  76 102 131 170 214 252 295
#     4   9  18  32  53  78 102 134 171 212 255 304
#     4   9  19  32  50  79 109 134 165 211 262 306
#     4  10  20  34  52  75 104 137 173 213 255 307
#     4   9  19  34  51  71 100 136 171 208 254 307
#     4  10  20  34  50  72 104 137 170 214 259 303
#     4  10  21  34  50  74 104 135 174 215 257 305
#
# _framework density 20.441849000000001
#
# number of rings (size 3 to 8) (size 9 to 14) (size 15 to 20)
#    0.000    2.500    1.250    1.875    5.250    2.750 
#    0.000    5.000    0.000    1.125    0.000    3.500 
#    0.000   19.000    0.000    0.000    0.000    0.000 
#
# Total GULP energy -178188.175229 kJ/mol
# GULP energy per Si atom -5568.380476 kJ/mol
# Density = 2.039532 g / cm^3
# Si number density = 20.441849 Si / 1000 Ang^3
#
#
#
# Elastic Constant Matrix: (Units=GPa)
#
#
# Indices 1 2 3 4 5 6 
#
# 1 148.8698 81.5521 17.7091 0.0000 0.0000 0.0000
# 2 81.5521 121.2258 11.3099 0.0000 0.0000 0.0000
# 3 17.7091 11.3099 12.6111 0.0000 0.0000 0.0000
# 4 0.0000 0.0000 0.0000 -3.4965 0.0000 0.0000
# 5 0.0000 0.0000 0.0000 0.0000 0.6751 0.0000
# 6 0.0000 0.0000 0.0000 0.0000 0.0000 26.6254
#
#
#
# Elastic Compliance Matrix: (Units=1/GPa)
#
#
# Indices 1 2 3 4 5 6 
#
# 1 0.011740 -0.006940 -0.010261 0.000000 0.000000 0.000000
# 2 -0.006940 0.013105 -0.002007 0.000000 0.000000 0.000000
# 3 -0.010261 -0.002007 0.095505 0.000000 0.000000 0.000000
# 4 0.000000 0.000000 0.000000 -0.286001 0.000000 0.000000
# 5 0.000000 0.000000 0.000000 0.000000 1.481154 0.000000
# 6 0.000000 0.000000 0.000000 0.000000 0.000000 0.037558
#
#
# Mechanical properties :
#
#
# Convention : Reuss Voigt Hill
#
# Bulk Modulus (GPa) = 12.20519 55.98321 34.09420
# Shear Modulus (GPa) = 3.52413 16.23653 9.88033
#
# Velocity S-wave (km/s) = 1.31443 2.82135 2.20088
# Velocity P-wave (km/s) = 2.87876 6.16923 4.81387
#
# Compressibility (1/GPa) = 0.08193239
#
# Stress axis : x y z
#
# Youngs Moduli (GPa) = 85.17884 76.30453 10.47066
#
# Poissons Ratio (x) = 0.52959 0.10744
# Poissons Ratio (y) = 0.59118 0.02101
# Poissons Ratio (z) = 0.87406 0.15315
#
# Static dielectric constant tensor:
#      x y z
#    x 1.823810 0.000000 0.000000 
#    y 0.000000 1.722070 0.000000 
#    z 0.000000 0.000000 1.779140 
# 
# From -- ./inp_files/9414.got.cif
#   From: 2010.05.17/outbox.cif.g08.bks.cpg/sg35_5_cif.got.tgz:9414.got - 2010.06.03 17:29:28.
