data_PCOD9350705
_publ_section_title
;
Structure prediction by ZEFSAII (Michael W. Deem and Ramdas Pophale) SiO2 
 PCOD9350705
Probable space group: C M C 21
;
_chemical_formula_sum "Si O2"
_cell_formula_units_Z 56
_cell_length_a 25.069561
_cell_length_b 5.516729
_cell_length_c 15.202973
_cell_angle_alpha 90.000000
_cell_angle_beta 90.000000
_cell_angle_gamma 90.000000
_cell_volume 2102.601179
_symmetry_space_group_name_H-M "C M C 21"
_symmetry_group_IT_number 36
_symmetry_cell_setting 'orthorhombic'
loop_
_space_group_symop_operation_xyz
x,y,z
-x,-y,1/2+z
x,-y,1/2+z
-x,y,z
1/2+x,1/2+y,z
1/2-x,1/2-y,1/2+z
1/2+x,1/2-y,1/2+z
1/2-x,1/2+y,z
loop_
_atom_site_type_symbol
_atom_site_label
_atom_site_fract_x
_atom_site_fract_y
_atom_site_fract_z
Si Si1 0.889026 0.150654 0.903190
Si Si2 0.437599 0.845300 0.396171
Si Si3 0.233203 0.036803 0.956833
Si Si4 0.560508 0.152750 0.108872
Si Si5 0.309584 0.499417 0.705140
Si Si6 0.196953 0.496634 0.276178
Si Si7 0.601955 0.652212 0.103329
O O1 0.901602 0.423018 0.867887
O O2 0.827304 0.082727 0.924616
O O3 0.919103 0.919074 0.862648
O O4 0.913862 0.172360 0.002023
O O5 0.500000 0.889656 0.376359
O O6 0.431581 0.827347 0.502933
O O7 0.257117 0.276970 0.001772
O O8 0.271920 0.005077 0.869562
O O9 0.500000 0.083384 0.126419
O O10 0.571045 0.423316 0.144018
O O11 0.594688 0.922420 0.139805
O O12 0.246414 0.510880 0.706867
O O13 0.327053 0.267286 0.762910
O O14 0.337517 0.441293 0.613744
O O15 0.328979 0.748270 0.749849
#
# Coordination Sequence:
#
# PCOD9350705 Si02
#       7
#     8   8   8   8   8   8   8
#     4  10  21  33  51  84 112 141 174 211 274 322
#     4   9  17  33  54  77 110 143 175 213 256 321
#     4  12  21  38  55  74 109 139 186 226 255 314
#     4   9  17  30  50  74 107 142 167 202 250 315
#     4  10  18  33  52  73  98 130 167 226 244 293
#     4  10  19  35  53  71  94 125 189 216 243 289
#     4  10  19  32  49  79 111 132 170 208 262 318
#
# _framework density 26.633673999999999
#
# number of rings (size 3 to 8) (size 9 to 14) (size 15 to 20)
#    0.000    2.000    2.857    2.571    0.000    3.429 
#    5.143    0.000    0.000    0.000    0.000    6.000 
#    0.000    0.000    0.000    0.000    0.000    0.000 
#
# Total GULP energy -156352.037013 kJ/mol
# GULP energy per Si atom -5584.001322 kJ/mol
# Density = 2.657306 g / cm^3
# Si number density = 26.633674 Si / 1000 Ang^3
#
#
#
# Elastic Constant Matrix: (Units=GPa)
#
#
# Indices 1 2 3 4 5 6 
#
# 1 51.1367 44.5610 -5.0668 0.0000 0.0000 0.0000
# 2 44.5610 287.6265 24.3327 0.0000 0.0000 0.0000
# 3 -5.0668 24.3327 51.2437 0.0000 0.0000 0.0000
# 4 0.0000 0.0000 0.0000 30.0006 0.0000 0.0000
# 5 0.0000 0.0000 0.0000 0.0000 17.9825 0.0000
# 6 0.0000 0.0000 0.0000 0.0000 0.0000 43.2827
#
#
#
# Elastic Compliance Matrix: (Units=1/GPa)
#
#
# Indices 1 2 3 4 5 6 
#
# 1 0.023449 -0.003989 0.004213 0.000000 0.000000 0.000000
# 2 -0.003989 0.004301 -0.002437 0.000000 0.000000 0.000000
# 3 0.004213 -0.002437 0.021088 0.000000 0.000000 0.000000
# 4 0.000000 0.000000 0.000000 0.033333 0.000000 0.000000
# 5 0.000000 0.000000 0.000000 0.000000 0.055610 0.000000
# 6 0.000000 0.000000 0.000000 0.000000 0.000000 0.023104
#
#
# Mechanical properties :
#
#
# Convention : Reuss Voigt Hill
#
# Bulk Modulus (GPa) = 22.51646 57.51788 40.01717
# Shear Modulus (GPa) = 27.76009 39.99850 33.87929
#
# Velocity S-wave (km/s) = 3.23196 3.87951 3.57045
# Velocity P-wave (km/s) = 4.73285 6.45835 5.66172
#
# Compressibility (1/GPa) = 0.04441196
#
# Stress axis : x y z
#
# Youngs Moduli (GPa) = 42.64545 232.50823 47.41992
#
# Poissons Ratio (x) = 0.92755 -0.19977
# Poissons Ratio (y) = 0.17013 0.11555
# Poissons Ratio (z) = -0.17966 0.56656
#
# Static dielectric constant tensor:
#      x y z
#    x 2.135180 0.000000 0.000000 
#    y 0.000000 2.154430 0.000000 
#    z 0.000000 0.000000 2.172710 
# 
# From -- ./inp_files/16322.got.cif
#   From: 2010.05.17/outbox.cif.g08.bks.cpg/sg36_9_cif.got.tgz:16322.got - 2010.06.03 17:41:39.
