data_PCOD9350080
_publ_section_title
;
Structure prediction by ZEFSAII (Michael W. Deem and Ramdas Pophale) SiO2 
 PCOD9350080
Probable space group: C M M 2
;
_chemical_formula_sum "Si O2"
_cell_formula_units_Z 48
_cell_length_a 15.740248
_cell_length_b 8.645807
_cell_length_c 17.731564
_cell_angle_alpha 90.000000
_cell_angle_beta 90.000000
_cell_angle_gamma 90.000000
_cell_volume 2413.037945
_symmetry_space_group_name_H-M "C M M 2"
_symmetry_group_IT_number 35
_symmetry_cell_setting 'orthorhombic'
loop_
_space_group_symop_operation_xyz
x,y,z
-x,-y,z
-x,y,z
x,-y,z
1/2+x,1/2+y,z
1/2-x,1/2-y,z
1/2-x,1/2+y,z
1/2+x,1/2-y,z
loop_
_atom_site_type_symbol
_atom_site_label
_atom_site_fract_x
_atom_site_fract_y
_atom_site_fract_z
Si Si1 0.653414 0.815490 0.139000
Si Si2 0.899061 0.675028 0.450492
Si Si3 0.500000 0.315044 0.863711
Si Si4 0.655707 0.317342 0.297087
Si Si5 0.000000 0.185346 0.040985
Si Si6 0.160834 0.314506 0.774638
Si Si7 0.401213 0.188464 0.612699
O O1 0.750000 0.750000 0.129455
O O2 0.620516 0.763070 0.221862
O O3 0.585010 0.752443 0.079648
O O4 0.658015 0.000000 0.135768
O O5 0.865419 0.500000 0.437301
O O6 0.885996 0.774967 0.376372
O O7 0.866629 0.739200 0.530837
O O8 0.000000 0.662036 0.462288
O O9 0.500000 0.500000 0.855470
O O10 0.417332 0.246436 0.823305
O O11 0.500000 0.277683 0.952316
O O12 0.656358 0.500000 0.285013
O O13 0.750000 0.250000 0.303625
O O14 0.000000 0.000000 0.050385
O O15 0.160810 0.500000 0.775718
O O16 0.250000 0.250000 0.803000
O O17 0.147297 0.262168 0.687632
O O18 0.500000 0.235738 0.621710
O O19 0.400321 0.000000 0.609890
#
# Coordination Sequence:
#
# PCOD9350080 Si02
#       7
#     8   8   4   8   4   8   8
#     4  11  23  42  67  95 127 163 206 253 307 366
#     4   9  18  33  55  82 116 156 202 249 300 356
#     4  11  25  45  67  94 127 160 201 253 308 367
#     4  11  22  37  56  80 117 158 202 251 302 354
#     4  11  25  45  69  96 125 160 201 249 308 373
#     4  11  22  39  65  94 127 165 208 253 308 369
#     4   8  15  32  57  83 115 159 204 254 308 358
#
# _framework density 19.891939000000001
#
# number of rings (size 3 to 8) (size 9 to 14) (size 15 to 20)
#    0.000    1.833    0.833    6.000    1.167    3.000 
#    0.000    3.333    0.000    0.000    0.000    0.000 
#    0.000    0.000    0.000    0.000    0.000    0.000 
#
# Total GULP energy -134008.494358 kJ/mol
# GULP energy per Si atom -5583.687265 kJ/mol
# Density = 1.984666 g / cm^3
# Si number density = 19.891939 Si / 1000 Ang^3
#
#
#
# Elastic Constant Matrix: (Units=GPa)
#
#
# Indices 1 2 3 4 5 6 
#
# 1 108.4615 39.9276 73.8029 0.0000 0.0000 0.0000
# 2 39.9276 99.5737 67.4912 0.0000 0.0000 0.0000
# 3 73.8029 67.4912 161.0464 0.0000 0.0000 0.0000
# 4 0.0000 0.0000 0.0000 4.0773 0.0000 0.0000
# 5 0.0000 0.0000 0.0000 0.0000 -37.1260 0.0000
# 6 0.0000 0.0000 0.0000 0.0000 0.0000 26.7313
#
#
#
# Elastic Compliance Matrix: (Units=1/GPa)
#
#
# Indices 1 2 3 4 5 6 
#
# 1 0.013605 -0.001717 -0.005515 0.000000 0.000000 0.000000
# 2 -0.001717 0.014244 -0.005182 0.000000 0.000000 0.000000
# 3 -0.005515 -0.005182 0.010909 0.000000 0.000000 0.000000
# 4 0.000000 0.000000 0.000000 0.245262 0.000000 0.000000
# 5 0.000000 0.000000 0.000000 0.000000 -0.026935 0.000000
# 6 0.000000 0.000000 0.000000 0.000000 0.000000 0.037409
#
#
# Mechanical properties :
#
#
# Convention : Reuss Voigt Hill
#
# Bulk Modulus (GPa) = 71.79744 81.28056 76.53900
# Shear Modulus (GPa) = 15.43375 11.26052 13.34713
#
# Velocity S-wave (km/s) = 2.78848 2.38183 2.59314
# Velocity P-wave (km/s) = 6.82199 6.96519 6.89397
#
# Compressibility (1/GPa) = 0.01392807
#
# Stress axis : x y z
#
# Youngs Moduli (GPa) = 73.50396 70.20472 91.67076
#
# Poissons Ratio (x) = 0.12056 0.50556
# Poissons Ratio (y) = 0.12622 0.47508
# Poissons Ratio (z) = 0.40537 0.36383
#
# Static dielectric constant tensor:
#      x y z
#    x 1.691080 0.000000 0.000000 
#    y 0.000000 1.716320 0.000000 
#    z 0.000000 0.000000 1.736070 
# 
# From -- ./inp_files/18771.got.cif
#   From: 2010.05.17/outbox.cif.g08.bks.cpg/sg35_10_cif.got.tgz:18771.got - 2010.06.03 17:29:28.
