data_PCOD9350925
_publ_section_title
;
Structure prediction by ZEFSAII (Michael W. Deem and Ramdas Pophale) SiO2 
 PCOD9350925
Probable space group: C M C 21
;
_chemical_formula_sum "Si O2"
_cell_formula_units_Z 64
_cell_length_a 8.904883
_cell_length_b 20.423040
_cell_length_c 20.163340
_cell_angle_alpha 90.000000
_cell_angle_beta 90.000000
_cell_angle_gamma 90.000000
_cell_volume 3667.001428
_symmetry_space_group_name_H-M "C M C 21"
_symmetry_group_IT_number 36
_symmetry_cell_setting 'orthorhombic'
loop_
_space_group_symop_operation_xyz
x,y,z
-x,-y,1/2+z
x,-y,1/2+z
-x,y,z
1/2+x,1/2+y,z
1/2-x,1/2-y,1/2+z
1/2+x,1/2-y,1/2+z
1/2-x,1/2+y,z
loop_
_atom_site_type_symbol
_atom_site_label
_atom_site_fract_x
_atom_site_fract_y
_atom_site_fract_z
Si Si1 0.180206 0.077704 0.045290
Si Si2 0.820425 0.984364 0.288385
Si Si3 0.178457 0.188255 0.942966
Si Si4 0.179959 0.967800 0.937092
Si Si5 0.821322 0.347662 0.303153
Si Si6 0.179496 0.201653 0.267616
Si Si7 0.321981 0.833602 0.908917
Si Si8 0.678720 0.911099 0.687915
O O1 0.264856 0.073167 0.114317
O O2 0.000000 0.075807 0.056612
O O3 0.215779 0.145247 0.006816
O O4 0.218777 0.019309 0.994377
O O5 0.762072 0.911160 0.275736
O O6 0.000000 0.987619 0.281786
O O7 0.781614 0.003124 0.364522
O O8 0.745041 0.035802 0.239072
O O9 0.267734 0.163097 0.878893
O O10 0.204682 0.265885 0.948301
O O11 0.000000 0.178226 0.929469
O O12 0.259917 0.898153 0.943667
O O13 0.000000 0.958677 0.938171
O O14 0.786031 0.279091 0.266592
O O15 0.000000 0.357516 0.301212
O O16 0.239743 0.174927 0.338196
O O17 0.256351 0.158945 0.211047
O O18 0.000000 0.193271 0.265292
O O19 0.500000 0.839556 0.897282
O O20 0.500000 0.910952 0.691704
#
# Coordination Sequence:
#
# PCOD9350925 Si02
#       8
#     8   8   8   8   8   8   8   8
#     4  10  21  40  60  79 110 155 196 233 286 352
#     4  11  21  37  60  85 116 154 192 235 289 347
#     4   9  18  35  56  81 112 149 190 228 281 343
#     4  10  20  35  58  84 113 151 193 233 283 348
#     4  10  20  33  56  88 117 144 186 240 286 329
#     4  10  20  36  56  81 114 152 188 230 285 343
#     4  10  19  31  55  87 116 144 183 240 286 326
#     4  12  25  39  57  85 116 151 196 243 288 344
#
# _framework density 17.452953000000001
#
# number of rings (size 3 to 8) (size 9 to 14) (size 15 to 20)
#    0.000    1.750    2.500    2.625    0.000    3.500 
#    0.000    1.250    0.000    4.500    0.000    0.000 
#    0.000    0.000    0.000    0.000    0.000    0.000 
#
# Total GULP energy -178694.219943 kJ/mol
# GULP energy per Si atom -5584.194373 kJ/mol
# Density = 1.741323 g / cm^3
# Si number density = 17.452953 Si / 1000 Ang^3
#
#
#
# Elastic Constant Matrix: (Units=GPa)
#
#
# Indices 1 2 3 4 5 6 
#
# 1 66.7626 59.8119 46.8012 0.0000 0.0000 0.0000
# 2 59.8119 119.7353 47.2351 0.0000 0.0000 0.0000
# 3 46.8012 47.2351 82.9093 0.0000 0.0000 0.0000
# 4 0.0000 0.0000 0.0000 23.8640 0.0000 0.0000
# 5 0.0000 0.0000 0.0000 0.0000 25.0009 0.0000
# 6 0.0000 0.0000 0.0000 0.0000 0.0000 33.1495
#
#
#
# Elastic Compliance Matrix: (Units=1/GPa)
#
#
# Indices 1 2 3 4 5 6 
#
# 1 0.035080 -0.012527 -0.012665 0.000000 0.000000 0.000000
# 2 -0.012527 0.015247 -0.001615 0.000000 0.000000 0.000000
# 3 -0.012665 -0.001615 0.020131 0.000000 0.000000 0.000000
# 4 0.000000 0.000000 0.000000 0.041904 0.000000 0.000000
# 5 0.000000 0.000000 0.000000 0.000000 0.039999 0.000000
# 6 0.000000 0.000000 0.000000 0.000000 0.000000 0.030166
#
#
# Mechanical properties :
#
#
# Convention : Reuss Voigt Hill
#
# Bulk Modulus (GPa) = 59.37269 64.12261 61.74765
# Shear Modulus (GPa) = 20.68214 24.10681 22.39448
#
# Velocity S-wave (km/s) = 3.44615 3.72054 3.58597
# Velocity P-wave (km/s) = 7.06592 7.43482 7.25272
#
# Compressibility (1/GPa) = 0.01684276
#
# Stress axis : x y z
#
# Youngs Moduli (GPa) = 28.50648 65.58841 49.67559
#
# Poissons Ratio (x) = 0.82164 0.62914
# Poissons Ratio (y) = 0.35711 0.08022
# Poissons Ratio (z) = 0.36103 0.10591
#
# Static dielectric constant tensor:
#      x y z
#    x 1.581080 0.000000 0.000000 
#    y 0.000000 1.606700 0.000000 
#    z 0.000000 0.000000 1.560670 
# 
# From -- ./inp_files/13929.got.cif
#   From: 2010.05.17/outbox.cif.g08.bks.cpg/sg36_7_cif.got.tgz:13929.got - 2010.06.03 17:41:39.
