data_PCOD9350749
_publ_section_title
;
Structure prediction by ZEFSAII (Michael W. Deem and Ramdas Pophale) SiO2 
 PCOD9350749
Probable space group: C M C 21
;
_chemical_formula_sum "Si O2"
_cell_formula_units_Z 48
_cell_length_a 26.699648
_cell_length_b 7.083017
_cell_length_c 9.406113
_cell_angle_alpha 90.000000
_cell_angle_beta 90.000000
_cell_angle_gamma 90.000000
_cell_volume 1778.828225
_symmetry_space_group_name_H-M "C M C 21"
_symmetry_group_IT_number 36
_symmetry_cell_setting 'orthorhombic'
loop_
_space_group_symop_operation_xyz
x,y,z
-x,-y,1/2+z
x,-y,1/2+z
-x,y,z
1/2+x,1/2+y,z
1/2-x,1/2-y,1/2+z
1/2+x,1/2-y,1/2+z
1/2-x,1/2+y,z
loop_
_atom_site_type_symbol
_atom_site_label
_atom_site_fract_x
_atom_site_fract_y
_atom_site_fract_z
Si Si1 0.696812 0.497797 0.876610
Si Si2 0.199502 0.627177 0.753349
Si Si3 0.659629 0.861609 0.526648
Si Si4 0.402393 0.675502 0.938304
Si Si5 0.944543 0.895641 0.727261
Si Si6 0.445820 0.175502 0.174260
O O1 0.749675 0.593040 0.843263
O O2 0.655632 0.659360 0.895293
O O3 0.692381 0.352059 0.742371
O O4 0.684954 0.346869 0.004917
O O5 0.194976 0.498522 0.617507
O O6 0.156440 0.571741 0.864606
O O7 0.605267 0.870659 0.595014
O O8 0.418960 0.467185 0.872329
O O9 0.434562 0.821378 0.844298
O O10 0.413418 0.708089 0.104236
O O11 0.000000 0.816460 0.753723
O O12 0.950634 0.099359 0.653176
O O13 0.500000 0.089644 0.139501
#
# Coordination Sequence:
#
# PCOD9350749 Si02
#       6
#     8   8   8   8   8   8
#     4  10  23  38  64  94 124 167 206 263 311 377
#     4  10  25  40  66  90 129 169 214 257 321 376
#     4  10  23  44  62  94 121 172 207 269 310 379
#     4  10  18  34  57  90 123 157 203 256 310 357
#     4   9  16  29  52  86 121 155 198 249 302 356
#     4   9  19  35  63  90 124 164 206 254 310 371
#
# _framework density 26.984055999999999
#
# number of rings (size 3 to 8) (size 9 to 14) (size 15 to 20)
#    2.000    0.333    1.667    1.000    4.667    1.333 
#    3.000    0.833    0.000    0.000    0.000    0.000 
#    0.000    0.000    0.000    0.000    0.000    0.000 
#
# Total GULP energy -133763.796091 kJ/mol
# GULP energy per Si atom -5573.491504 kJ/mol
# Density = 2.692264 g / cm^3
# Si number density = 26.984056 Si / 1000 Ang^3
#
#
#
# Elastic Constant Matrix: (Units=GPa)
#
#
# Indices 1 2 3 4 5 6 
#
# 1 127.9677 15.4674 21.5828 0.0000 0.0000 0.0000
# 2 15.4674 95.3710 6.5284 0.0000 0.0000 0.0000
# 3 21.5828 6.5284 114.7875 0.0000 0.0000 0.0000
# 4 0.0000 0.0000 0.0000 23.5124 0.0000 0.0000
# 5 0.0000 0.0000 0.0000 0.0000 22.5276 0.0000
# 6 0.0000 0.0000 0.0000 0.0000 0.0000 3.5464
#
#
#
# Elastic Compliance Matrix: (Units=1/GPa)
#
#
# Indices 1 2 3 4 5 6 
#
# 1 0.008212 -0.001231 -0.001474 0.000000 0.000000 0.000000
# 2 -0.001231 0.010711 -0.000378 0.000000 0.000000 0.000000
# 3 -0.001474 -0.000378 0.009010 0.000000 0.000000 0.000000
# 4 0.000000 0.000000 0.000000 0.042531 0.000000 0.000000
# 5 0.000000 0.000000 0.000000 0.000000 0.044390 0.000000
# 6 0.000000 0.000000 0.000000 0.000000 0.000000 0.281979
#
#
# Mechanical properties :
#
#
# Convention : Reuss Voigt Hill
#
# Bulk Modulus (GPa) = 45.93946 47.25372 46.59659
# Shear Modulus (GPa) = 12.18757 29.55377 20.87067
#
# Velocity S-wave (km/s) = 2.12753 3.31302 2.78410
# Velocity P-wave (km/s) = 4.80591 5.67314 5.25744
#
# Compressibility (1/GPa) = 0.02176778
#
# Stress axis : x y z
#
# Youngs Moduli (GPa) = 121.77518 93.36324 110.98308
#
# Poissons Ratio (x) = 0.11492 0.16359
# Poissons Ratio (y) = 0.14989 0.04192
# Poissons Ratio (z) = 0.17950 0.03527
#
# Static dielectric constant tensor:
#      x y z
#    x 2.166180 0.000000 0.000000 
#    y 0.000000 2.151040 0.000000 
#    z 0.000000 0.000000 2.126010 
# 
# From -- ./inp_files/9426.got.cif
#   From: 2010.05.17/outbox.cif.g08.bks.cpg/sg36_5_cif.got.tgz:9426.got - 2010.06.03 17:41:39.
