data_PCOD9350611
_publ_section_title
;
Structure prediction by ZEFSAII (Michael W. Deem and Ramdas Pophale) SiO2 
 PCOD9350611
Probable space group: C M C 21
;
_chemical_formula_sum "Si O2"
_cell_formula_units_Z 44
_cell_length_a 17.877453
_cell_length_b 9.165780
_cell_length_c 14.928641
_cell_angle_alpha 90.000000
_cell_angle_beta 90.000000
_cell_angle_gamma 90.000000
_cell_volume 2446.219074
_symmetry_space_group_name_H-M "C M C 21"
_symmetry_group_IT_number 36
_symmetry_cell_setting 'orthorhombic'
loop_
_space_group_symop_operation_xyz
x,y,z
-x,-y,1/2+z
x,-y,1/2+z
-x,y,z
1/2+x,1/2+y,z
1/2-x,1/2-y,1/2+z
1/2+x,1/2-y,1/2+z
1/2-x,1/2+y,z
loop_
_atom_site_type_symbol
_atom_site_label
_atom_site_fract_x
_atom_site_fract_y
_atom_site_fract_z
Si Si1 0.000000 0.678153 0.183340
Si Si2 0.651851 0.234430 0.669122
Si Si3 0.500000 0.909241 0.476707
Si Si4 0.138853 0.235755 0.801507
Si Si5 0.748954 0.015210 0.250507
Si Si6 0.000000 0.346787 0.266644
Si Si7 0.419056 0.803040 0.989293
O O1 0.923547 0.750915 0.222527
O O2 0.000000 0.514290 0.227760
O O3 0.000000 0.670709 0.074002
O O4 0.699979 0.371938 0.697515
O O5 0.574675 0.224870 0.725319
O O6 0.638830 0.237636 0.563893
O O7 0.697005 0.087987 0.691108
O O8 0.500000 0.841847 0.376113
O O9 0.570144 0.022189 0.479410
O O10 0.191498 0.380264 0.803613
O O11 0.094694 0.235254 0.893776
O O12 0.193825 0.097344 0.796854
O O13 0.500000 0.753498 0.024348
#
# Coordination Sequence:
#
# PCOD9350611 Si02
#       7
#     4   8   4   8   8   4   8
#     4  12  18  37  64  83 119 155 209 235 286 359
#     4  11  21  40  61  89 120 161 197 249 296 358
#     4  10  18  30  60  96 104 158 200 248 278 352
#     4  11  21  40  61  89 120 161 197 249 296 358
#     4  10  24  38  58  88 128 158 190 250 314 340
#     4  12  18  37  64  83 119 155 209 235 286 359
#     4  10  18  34  63  90 110 156 210 240 285 351
#
# _framework density 17.986941999999999
#
# number of rings (size 3 to 8) (size 9 to 14) (size 15 to 20)
#    0.545    0.727    7.273    0.000    0.000    2.182 
#    0.000    9.091    0.000    0.000    0.000    0.000 
#    0.000    0.000    0.000    0.000    0.000    0.000 
#
# Total GULP energy -122467.947463 kJ/mol
# GULP energy per Si atom -5566.724885 kJ/mol
# Density = 1.794600 g / cm^3
# Si number density = 17.986942 Si / 1000 Ang^3
#
#
#
# Elastic Constant Matrix: (Units=GPa)
#
#
# Indices 1 2 3 4 5 6 
#
# 1 88.7438 23.0622 18.0920 0.0000 0.0000 0.0000
# 2 23.0622 53.5683 2.3110 0.0000 0.0000 0.0000
# 3 18.0920 2.3110 103.1483 0.0000 0.0000 0.0000
# 4 0.0000 0.0000 0.0000 2.9703 0.0000 0.0000
# 5 0.0000 0.0000 0.0000 0.0000 -838.2265 0.0000
# 6 0.0000 0.0000 0.0000 0.0000 0.0000 -107.5999
#
#
#
# Elastic Compliance Matrix: (Units=1/GPa)
#
#
# Indices 1 2 3 4 5 6 
#
# 1 0.013162 -0.005572 -0.002184 0.000000 0.000000 0.000000
# 2 -0.005572 0.021045 0.000506 0.000000 0.000000 0.000000
# 3 -0.002184 0.000506 0.010066 0.000000 0.000000 0.000000
# 4 0.000000 0.000000 0.000000 0.336670 0.000000 0.000000
# 5 0.000000 0.000000 0.000000 0.000000 -0.001193 0.000000
# 6 0.000000 0.000000 0.000000 0.000000 0.000000 -0.009294
#
#
# Mechanical properties :
#
#
# Convention : Reuss Voigt Hill
#
# Bulk Modulus (GPa) = 33.58751 36.93232 35.25992
# Shear Modulus (GPa) = 12.66206 -175.10486 -81.22140
#
# Velocity S-wave (km/s) = 2.65610 -9.87737 -6.72709
# Velocity P-wave (km/s) = 5.30286 10.46450 6.37909
#
# Compressibility (1/GPa) = 0.02977297
#
# Stress axis : x y z
#
# Youngs Moduli (GPa) = 75.97853 47.51764 99.33983
#
# Poissons Ratio (x) = 0.26477 0.21693
# Poissons Ratio (y) = 0.42336 -0.05025
# Poissons Ratio (z) = 0.16591 -0.02404
#
# Static dielectric constant tensor:
#      x y z
#    x 1.985630 0.000000 0.000000 
#    y 0.000000 1.626930 0.000000 
#    z 0.000000 0.000000 1.592260 
# 
# From -- ./inp_files/12470.got.cif
#   From: 2010.05.17/outbox.cif.g08.bks.cpg/sg36_7_cif.got.tgz:12470.got - 2010.06.03 17:41:39.
