data_PCOD9350122
_publ_section_title
;
Structure prediction by ZEFSAII (Michael W. Deem and Ramdas Pophale) SiO2 
 PCOD9350122
Probable space group: C M M 2
;
_chemical_formula_sum "Si O2"
_cell_formula_units_Z 40
_cell_length_a 15.666293
_cell_length_b 10.482518
_cell_length_c 13.128806
_cell_angle_alpha 90.000000
_cell_angle_beta 90.000000
_cell_angle_gamma 90.000000
_cell_volume 2156.041383
_symmetry_space_group_name_H-M "C M M 2"
_symmetry_group_IT_number 35
_symmetry_cell_setting 'orthorhombic'
loop_
_space_group_symop_operation_xyz
x,y,z
-x,-y,z
-x,y,z
x,-y,z
1/2+x,1/2+y,z
1/2-x,1/2-y,z
1/2-x,1/2+y,z
1/2+x,1/2-y,z
loop_
_atom_site_type_symbol
_atom_site_label
_atom_site_fract_x
_atom_site_fract_y
_atom_site_fract_z
Si Si1 0.756016 0.000000 0.668900
Si Si2 0.899720 0.345945 0.949143
Si Si3 0.250000 0.750000 0.807327
Si Si4 0.094756 0.000000 0.503150
Si Si5 0.349574 0.246943 0.394380
Si Si6 0.602663 0.852858 0.183811
Si Si7 0.904004 0.500000 0.519219
O O1 0.761427 0.874067 0.737394
O O2 0.832565 0.000000 0.588203
O O3 0.667112 0.000000 0.606750
O O4 0.890929 0.500000 0.937596
O O5 0.833315 0.275704 0.876514
O O6 0.000000 0.315992 0.930419
O O7 0.879355 0.315347 0.067428
O O8 0.107505 0.125215 0.434793
O O9 0.000000 0.000000 0.548071
O O10 0.250000 0.250000 0.422385
O O11 0.358785 0.230996 0.273334
O O12 0.390458 0.124135 0.448847
O O13 0.500000 0.850873 0.194957
O O14 0.630752 0.000000 0.197939
O O15 0.000000 0.500000 0.560828
#
# Coordination Sequence:
#
# PCOD9350122 Si02
#       7
#     4   8   4   4   8   8   4
#     4  12  26  44  62  94 124 156 218 268 314 364
#     4   9  20  41  66  94 126 164 210 254 307 374
#     4  12  24  42  68  92 126 156 210 272 316 364
#     4  12  26  44  61  87 132 169 197 254 325 368
#     4  12  22  39  63  96 131 163 207 251 306 376
#     4   9  18  35  63  95 125 164 211 249 293 370
#     4  12  24  44  69  89 118 167 223 258 297 372
#
# _framework density 18.552520000000001
#
# number of rings (size 3 to 8) (size 9 to 14) (size 15 to 20)
#    0.000    1.200    4.000    4.200    1.400    1.600 
#    0.000    1.000    0.000    2.400    0.000    0.000 
#    0.000    0.000    0.000    0.000    0.000    0.000 
#
# Total GULP energy -111772.111062 kJ/mol
# GULP energy per Si atom -5588.605553 kJ/mol
# Density = 1.851029 g / cm^3
# Si number density = 18.552520 Si / 1000 Ang^3
#
#
#
# Elastic Constant Matrix: (Units=GPa)
#
#
# Indices 1 2 3 4 5 6 
#
# 1 137.9696 47.2506 73.9965 0.0000 0.0000 0.0000
# 2 47.2506 133.9580 74.2981 0.0000 0.0000 0.0000
# 3 73.9965 74.2981 130.0677 0.0000 0.0000 0.0000
# 4 0.0000 0.0000 0.0000 17.5213 0.0000 0.0000
# 5 0.0000 0.0000 0.0000 0.0000 -99.5659 0.0000
# 6 0.0000 0.0000 0.0000 0.0000 0.0000 93.5080
#
#
#
# Elastic Compliance Matrix: (Units=1/GPa)
#
#
# Indices 1 2 3 4 5 6 
#
# 1 0.010460 -0.000569 -0.005626 0.000000 0.000000 0.000000
# 2 -0.000569 0.010958 -0.005936 0.000000 0.000000 0.000000
# 3 -0.005626 -0.005936 0.014279 0.000000 0.000000 0.000000
# 4 0.000000 0.000000 0.000000 0.057073 0.000000 0.000000
# 5 0.000000 0.000000 0.000000 0.000000 -0.010044 0.000000
# 6 0.000000 0.000000 0.000000 0.000000 0.000000 0.010694
#
#
# Mechanical properties :
#
#
# Convention : Reuss Voigt Hill
#
# Bulk Modulus (GPa) = 87.44087 88.12063 87.78075
# Shear Modulus (GPa) = 41.15420 16.05605 28.60512
#
# Velocity S-wave (km/s) = 4.71494 2.94502 3.93089
# Velocity P-wave (km/s) = 8.76783 7.69190 8.24742
#
# Compressibility (1/GPa) = 0.01143630
#
# Stress axis : x y z
#
# Youngs Moduli (GPa) = 95.60129 91.25812 70.03171
#
# Poissons Ratio (x) = 0.05196 0.39397
# Poissons Ratio (y) = 0.05444 0.41567
# Poissons Ratio (z) = 0.53781 0.54166
#
# Static dielectric constant tensor:
#      x y z
#    x 1.635320 0.000000 0.000000 
#    y 0.000000 1.614230 0.000000 
#    z 0.000000 0.000000 1.630470 
# 
# From -- ./inp_files/14870.got.cif
#   From: 2010.05.17/outbox.cif.g08.bks.cpg/sg35_8_cif.got.tgz:14870.got - 2010.06.03 17:29:28.
