data_PCOD9350078
_publ_section_title
;
Structure prediction by ZEFSAII (Michael W. Deem and Ramdas Pophale) SiO2 
 PCOD9350078
Probable space group: C M M 2
;
_chemical_formula_sum "Si O2"
_cell_formula_units_Z 40
_cell_length_a 8.757821
_cell_length_b 31.177947
_cell_length_c 7.410442
_cell_angle_alpha 90.000000
_cell_angle_beta 90.000000
_cell_angle_gamma 90.000000
_cell_volume 2023.427702
_symmetry_space_group_name_H-M "C M M 2"
_symmetry_group_IT_number 35
_symmetry_cell_setting 'orthorhombic'
loop_
_space_group_symop_operation_xyz
x,y,z
-x,-y,z
-x,y,z
x,-y,z
1/2+x,1/2+y,z
1/2-x,1/2-y,z
1/2-x,1/2+y,z
1/2+x,1/2-y,z
loop_
_atom_site_type_symbol
_atom_site_label
_atom_site_fract_x
_atom_site_fract_y
_atom_site_fract_z
Si Si1 0.821818 0.952765 0.556830
Si Si2 0.818851 0.636953 0.559949
Si Si3 0.321251 0.545942 0.995685
Si Si4 0.185269 0.138525 0.960520
Si Si5 0.182706 0.202585 0.274563
O O1 0.731729 0.910818 0.498530
O O2 0.816457 0.953490 0.776254
O O3 0.000000 0.948078 0.506825
O O4 0.769069 0.000000 0.495695
O O5 0.756410 0.642686 0.763216
O O6 0.745466 0.672892 0.434203
O O7 0.000000 0.640255 0.558006
O O8 0.500000 0.544975 0.048257
O O9 0.252694 0.500000 0.053156
O O10 0.261085 0.592868 0.045943
O O11 0.000000 0.136041 0.942939
O O12 0.223756 0.177783 0.089871
O O13 0.250000 0.250000 0.280674
O O14 0.000000 0.204486 0.286326
#
# Coordination Sequence:
#
# PCOD9350078 Si02
#       5
#     8   8   8   8   8
#     4   8  14  28  52  80 112 152 195 234 273 325
#     4  11  22  36  58  87 121 156 188 230 284 344
#     4   7  10  21  46  78 107 136 174 219 266 318
#     4   9  19  37  60  84 112 148 190 236 282 333
#     4  11  24  42  62  83 110 145 190 244 295 345
#
# _framework density 19.768436000000001
#
# number of rings (size 3 to 8) (size 9 to 14) (size 15 to 20)
#    0.000    2.800    0.000    4.800    0.000    2.800 
#    0.000    3.000    0.000    3.600    0.000    2.800 
#    0.000    0.000    0.000    0.000    0.000    0.000 
#
# Total GULP energy -111559.130900 kJ/mol
# GULP energy per Si atom -5577.956545 kJ/mol
# Density = 1.972344 g / cm^3
# Si number density = 19.768436 Si / 1000 Ang^3
#
#
#
# Elastic Constant Matrix: (Units=GPa)
#
#
# Indices 1 2 3 4 5 6 
#
# 1 51.6618 66.1376 36.6435 0.0000 0.0000 0.0000
# 2 66.1376 227.2913 73.2258 0.0000 0.0000 0.0000
# 3 36.6435 73.2258 91.9792 0.0000 0.0000 0.0000
# 4 0.0000 0.0000 0.0000 37.7231 0.0000 0.0000
# 5 0.0000 0.0000 0.0000 0.0000 9.1628 0.0000
# 6 0.0000 0.0000 0.0000 0.0000 0.0000 30.5700
#
#
#
# Elastic Compliance Matrix: (Units=1/GPa)
#
#
# Indices 1 2 3 4 5 6 
#
# 1 0.034509 -0.007548 -0.007739 0.000000 0.000000 0.000000
# 2 -0.007548 0.007568 -0.003018 0.000000 0.000000 0.000000
# 3 -0.007739 -0.003018 0.016358 0.000000 0.000000 0.000000
# 4 0.000000 0.000000 0.000000 0.026509 0.000000 0.000000
# 5 0.000000 0.000000 0.000000 0.000000 0.109137 0.000000
# 6 0.000000 0.000000 0.000000 0.000000 0.000000 0.032712
#
#
# Mechanical properties :
#
#
# Convention : Reuss Voigt Hill
#
# Bulk Modulus (GPa) = 45.81911 80.32733 63.07322
# Shear Modulus (GPa) = 18.47208 28.48623 23.47916
#
# Velocity S-wave (km/s) = 3.06015 3.80016 3.45005
# Velocity P-wave (km/s) = 5.97614 7.74450 6.91707
#
# Compressibility (1/GPa) = 0.02182495
#
# Stress axis : x y z
#
# Youngs Moduli (GPa) = 28.97789 132.12813 61.13295
#
# Poissons Ratio (x) = 0.99735 0.47309
# Poissons Ratio (y) = 0.21874 0.18451
# Poissons Ratio (z) = 0.22425 0.39878
#
# Static dielectric constant tensor:
#      x y z
#    x 1.678010 0.000000 0.000000 
#    y 0.000000 1.717250 0.000000 
#    z 0.000000 0.000000 1.718380 
# 
# From -- ./inp_files/4976.got.cif
#   From: 2010.05.17/outbox.cif.g08.bks.cpg/sg35_3_cif.got.tgz:4976.got - 2010.06.03 17:29:28.
