data_PCOD9350044
_publ_section_title
;
Structure prediction by ZEFSAII (Michael W. Deem and Ramdas Pophale) SiO2 
 PCOD9350044
Probable space group: C M M 2
;
_chemical_formula_sum "Si O2"
_cell_formula_units_Z 48
_cell_length_a 15.123602
_cell_length_b 14.263343
_cell_length_c 10.485953
_cell_angle_alpha 90.000000
_cell_angle_beta 90.000000
_cell_angle_gamma 90.000000
_cell_volume 2261.957666
_symmetry_space_group_name_H-M "C M M 2"
_symmetry_group_IT_number 35
_symmetry_cell_setting 'orthorhombic'
loop_
_space_group_symop_operation_xyz
x,y,z
-x,-y,z
-x,y,z
x,-y,z
1/2+x,1/2+y,z
1/2-x,1/2-y,z
1/2-x,1/2+y,z
1/2+x,1/2-y,z
loop_
_atom_site_type_symbol
_atom_site_label
_atom_site_fract_x
_atom_site_fract_y
_atom_site_fract_z
Si Si1 0.708025 0.114852 0.044020
Si Si2 0.361215 0.894160 0.306861
Si Si3 0.105260 0.611216 0.790132
Si Si4 0.599481 0.770265 0.545276
Si Si5 0.403388 0.614302 0.124069
Si Si6 0.340513 0.395944 0.400079
O O1 0.646415 0.145116 0.163497
O O2 0.810327 0.145946 0.061271
O O3 0.708681 0.000000 0.052367
O O4 0.663311 0.140076 0.911221
O O5 0.402775 0.832582 0.417103
O O6 0.258651 0.900090 0.348003
O O7 0.397243 0.000000 0.304785
O O8 0.118306 0.500000 0.767918
O O9 0.130095 0.667882 0.663615
O O10 0.000000 0.624298 0.814649
O O11 0.500000 0.738450 0.573687
O O12 0.654887 0.679195 0.510840
O O13 0.500000 0.646855 0.076189
O O14 0.402578 0.500000 0.113801
O O15 0.396154 0.633861 0.275642
O O16 0.368335 0.500000 0.439752
#
# Coordination Sequence:
#
# PCOD9350044 Si02
#       6
#     8   8   8   8   8   8
#     4   8  15  29  50  77 109 148 188 225 276 337
#     4   9  18  33  54  81 111 142 183 233 279 332
#     4   9  18  32  49  75 116 159 192 226 276 336
#     4  11  21  31  50  82 116 150 188 232 282 334
#     4   8  13  24  47  80 112 139 175 227 282 334
#     4   9  18  33  53  78 111 149 187 231 283 335
#
# _framework density 21.220555999999998
#
# number of rings (size 3 to 8) (size 9 to 14) (size 15 to 20)
#    0.000    3.000    0.000    3.500    0.000    2.667 
#    0.000    1.667    0.000    8.000    0.000   19.833 
#    0.000   49.333    0.000    0.333    0.000    0.667 
#
# Total GULP energy -133942.297599 kJ/mol
# GULP energy per Si atom -5580.929067 kJ/mol
# Density = 2.117226 g / cm^3
# Si number density = 21.220556 Si / 1000 Ang^3
#
#
#
# Elastic Constant Matrix: (Units=GPa)
#
#
# Indices 1 2 3 4 5 6 
#
# 1 81.0372 23.2734 60.1961 0.0000 0.0000 0.0000
# 2 23.2734 76.0438 66.3651 0.0000 0.0000 0.0000
# 3 60.1961 66.3651 154.9988 0.0000 0.0000 0.0000
# 4 0.0000 0.0000 0.0000 23.0043 0.0000 0.0000
# 5 0.0000 0.0000 0.0000 0.0000 29.3524 0.0000
# 6 0.0000 0.0000 0.0000 0.0000 0.0000 -11.1053
#
#
#
# Elastic Compliance Matrix: (Units=1/GPa)
#
#
# Indices 1 2 3 4 5 6 
#
# 1 0.017383 0.000913 -0.007142 0.000000 0.000000 0.000000
# 2 0.000913 0.021044 -0.009365 0.000000 0.000000 0.000000
# 3 -0.007142 -0.009365 0.013235 0.000000 0.000000 0.000000
# 4 0.000000 0.000000 0.000000 0.043470 0.000000 0.000000
# 5 0.000000 0.000000 0.000000 0.000000 0.034069 0.000000
# 6 0.000000 0.000000 0.000000 0.000000 0.000000 -0.090047
#
#
# Mechanical properties :
#
#
# Convention : Reuss Voigt Hill
#
# Bulk Modulus (GPa) = 48.84221 67.97211 58.40716
# Shear Modulus (GPa) = 64.79625 19.06663 41.93144
#
# Velocity S-wave (km/s) = 5.53181 3.00075 4.45002
# Velocity P-wave (km/s) = 7.99173 6.64129 7.34760
#
# Compressibility (1/GPa) = 0.02047410
#
# Stress axis : x y z
#
# Youngs Moduli (GPa) = 57.52783 47.52019 75.55830
#
# Poissons Ratio (x) = -0.04337 0.53961
# Poissons Ratio (y) = -0.05250 0.70757
# Poissons Ratio (z) = 0.41084 0.44501
#
# Static dielectric constant tensor:
#      x y z
#    x 1.800040 0.000000 0.000000 
#    y 0.000000 1.791680 0.000000 
#    z 0.000000 0.000000 1.732530 
# 
# From -- ./inp_files/12873.got.cif
#   From: 2010.05.17/outbox.cif.g08.bks.cpg/sg35_7_cif.got.tgz:12873.got - 2010.06.03 17:29:28.
