data_PCOD9350966
_publ_section_title
;
Structure prediction by ZEFSAII (Michael W. Deem and Ramdas Pophale) SiO2 
 PCOD9350966
Probable space group: C M C 21
;
_chemical_formula_sum "Si O2"
_cell_formula_units_Z 64
_cell_length_a 7.859584
_cell_length_b 20.716428
_cell_length_c 19.965360
_cell_angle_alpha 90.000000
_cell_angle_beta 90.000000
_cell_angle_gamma 90.000000
_cell_volume 3250.809949
_symmetry_space_group_name_H-M "C M C 21"
_symmetry_group_IT_number 36
_symmetry_cell_setting 'orthorhombic'
loop_
_space_group_symop_operation_xyz
x,y,z
-x,-y,1/2+z
x,-y,1/2+z
-x,y,z
1/2+x,1/2+y,z
1/2-x,1/2-y,1/2+z
1/2+x,1/2-y,1/2+z
1/2-x,1/2+y,z
loop_
_atom_site_type_symbol
_atom_site_label
_atom_site_fract_x
_atom_site_fract_y
_atom_site_fract_z
Si Si1 0.297651 0.871815 0.134680
Si Si2 0.803594 0.552920 0.989487
Si Si3 0.293699 0.367927 0.283167
Si Si4 0.798873 0.184509 0.920930
Si Si5 0.698536 0.520476 0.133383
Si Si6 0.197654 0.302783 0.004665
Si Si7 0.707843 0.482341 0.782189
Si Si8 0.300880 0.422411 0.918765
O O1 0.500000 0.881129 0.124602
O O2 0.266228 0.847334 0.209761
O O3 0.215222 0.942662 0.129135
O O4 0.230157 0.825370 0.076195
O O5 0.721902 0.616867 0.959029
O O6 0.716946 0.488655 0.960425
O O7 0.000000 0.550974 0.969382
O O8 0.789346 0.550755 0.069699
O O9 0.500000 0.367757 0.283077
O O10 0.230727 0.326095 0.345777
O O11 0.240478 0.442953 0.293112
O O12 0.724190 0.242243 0.965429
O O13 0.000000 0.197914 0.912921
O O14 0.500000 0.537593 0.128938
O O15 0.763084 0.537883 0.207748
O O16 0.207642 0.365074 0.956814
O O17 0.000000 0.286437 0.017843
O O18 0.500000 0.482286 0.782279
O O19 0.763319 0.438608 0.844095
O O20 0.500000 0.405283 0.915323
#
# Coordination Sequence:
#
# PCOD9350966 Si02
#       8
#     8   8   8   8   8   8   8   8
#     4  10  19  32  52  82 115 143 181 233 285 332
#     4  12  23  35  54  85 116 141 182 237 285 330
#     4   9  17  33  56  79 104 142 193 231 271 339
#     4  10  21  40  60  78 109 154 194 229 280 340
#     4  10  19  34  56  81 110 149 189 229 279 335
#     4  10  22  38  56  82 115 149 187 233 280 332
#     4   8  16  31  53  82 107 134 184 232 270 325
#     4  11  20  35  59  83 110 146 184 226 278 337
#
# _framework density 19.687401999999999
#
# number of rings (size 3 to 8) (size 9 to 14) (size 15 to 20)
#    0.000    2.000    2.500    3.000    0.000    1.500 
#    0.000    3.125    0.000    4.500    0.000    0.000 
#    0.000    0.000    0.000    0.000    0.000    0.000 
#
# Total GULP energy -178598.071846 kJ/mol
# GULP energy per Si atom -5581.189745 kJ/mol
# Density = 1.964259 g / cm^3
# Si number density = 19.687402 Si / 1000 Ang^3
#
#
#
# Elastic Constant Matrix: (Units=GPa)
#
#
# Indices 1 2 3 4 5 6 
#
# 1 23.6748 -19.7982 -14.5135 0.0000 0.0000 0.0000
# 2 -19.7982 61.4048 35.5871 0.0000 0.0000 0.0000
# 3 -14.5135 35.5871 154.2592 0.0000 0.0000 0.0000
# 4 0.0000 0.0000 0.0000 24.4708 0.0000 0.0000
# 5 0.0000 0.0000 0.0000 0.0000 15.8496 0.0000
# 6 0.0000 0.0000 0.0000 0.0000 0.0000 12.2099
#
#
#
# Elastic Compliance Matrix: (Units=1/GPa)
#
#
# Indices 1 2 3 4 5 6 
#
# 1 0.058064 0.017956 0.001321 0.000000 0.000000 0.000000
# 2 0.017956 0.024351 -0.003928 0.000000 0.000000 0.000000
# 3 0.001321 -0.003928 0.007513 0.000000 0.000000 0.000000
# 4 0.000000 0.000000 0.000000 0.040865 0.000000 0.000000
# 5 0.000000 0.000000 0.000000 0.000000 0.063093 0.000000
# 6 0.000000 0.000000 0.000000 0.000000 0.000000 0.081901
#
#
# Mechanical properties :
#
#
# Convention : Reuss Voigt Hill
#
# Bulk Modulus (GPa) = 8.29017 26.87662 17.58339
# Shear Modulus (GPa) = 17.52539 26.37693 21.95116
#
# Velocity S-wave (km/s) = 2.98683 3.66428 3.34276
# Velocity P-wave (km/s) = 4.01434 5.61996 4.88359
#
# Compressibility (1/GPa) = 0.12062480
#
# Stress axis : x y z
#
# Youngs Moduli (GPa) = 17.22230 41.06539 133.10049
#
# Poissons Ratio (x) = -0.73736 -0.17578
# Poissons Ratio (y) = -0.30924 0.52287
# Poissons Ratio (z) = -0.02274 0.16132
#
# Static dielectric constant tensor:
#      x y z
#    x 1.728780 0.000000 0.000000 
#    y 0.000000 1.660960 0.000000 
#    z 0.000000 0.000000 1.725850 
# 
# From -- ./inp_files/15699.got.cif
#   From: 2010.05.17/outbox.cif.g08.bks.cpg/sg36_8_cif.got.tgz:15699.got - 2010.06.03 17:41:39.
