data_PCOD9350104
_publ_section_title
;
Structure prediction by ZEFSAII (Michael W. Deem and Ramdas Pophale) SiO2 
 PCOD9350104
Probable space group: C M M 2
;
_chemical_formula_sum "Si O2"
_cell_formula_units_Z 40
_cell_length_a 9.823637
_cell_length_b 15.545375
_cell_length_c 13.238804
_cell_angle_alpha 90.000000
_cell_angle_beta 90.000000
_cell_angle_gamma 90.000000
_cell_volume 2021.725839
_symmetry_space_group_name_H-M "C M M 2"
_symmetry_group_IT_number 35
_symmetry_cell_setting 'orthorhombic'
loop_
_space_group_symop_operation_xyz
x,y,z
-x,-y,z
-x,y,z
x,-y,z
1/2+x,1/2+y,z
1/2-x,1/2-y,z
1/2-x,1/2+y,z
1/2+x,1/2-y,z
loop_
_atom_site_type_symbol
_atom_site_label
_atom_site_fract_x
_atom_site_fract_y
_atom_site_fract_z
Si Si1 0.000000 0.404011 0.773980
Si Si2 0.500000 0.595974 0.739922
Si Si3 0.665367 0.159827 0.396053
Si Si4 0.500000 0.258212 0.914892
Si Si5 0.264237 0.853532 0.623179
Si Si6 0.837064 0.098067 0.212518
Si Si7 0.750000 0.750000 0.065991
O O1 0.126562 0.387489 0.701604
O O2 0.000000 0.500000 0.815308
O O3 0.000000 0.331896 0.857793
O O4 0.500000 0.500000 0.783994
O O5 0.500000 0.666803 0.829701
O O6 0.374428 0.608648 0.664797
O O7 0.500000 0.168639 0.379844
O O8 0.750000 0.250000 0.390763
O O9 0.691186 0.125631 0.509342
O O10 0.745426 0.103768 0.313561
O O11 0.374152 0.259046 0.989752
O O12 0.250000 0.750000 0.629128
O O13 0.767362 0.167199 0.138320
O O14 0.000000 0.118810 0.228401
O O15 0.832333 0.000000 0.173819
#
# Coordination Sequence:
#
# PCOD9350104 Si02
#       7
#     4   4   8   4   8   8   4
#     4  12  24  44  69 101 138 175 223 280 341 404
#     4  12  26  44  71 103 138 183 235 280 339 412
#     4  11  24  41  72 107 142 188 229 273 341 418
#     4  12  26  46  72  98 134 176 232 294 350 400
#     4  11  22  43  69 100 144 185 221 274 334 407
#     4  11  26  48  73 104 140 179 230 286 350 421
#     4  12  26  48  74  96 134 178 228 296 356 400
#
# _framework density 19.785077000000001
#
# number of rings (size 3 to 8) (size 9 to 14) (size 15 to 20)
#    0.000    0.600    5.000    2.400    7.000    3.600 
#    0.000    0.000    0.000    0.000    0.000    0.000 
#    0.000    0.000    0.000    0.000    0.000    0.000 
#
# Total GULP energy -111653.096544 kJ/mol
# GULP energy per Si atom -5582.654827 kJ/mol
# Density = 1.974005 g / cm^3
# Si number density = 19.785077 Si / 1000 Ang^3
#
#
#
# Elastic Constant Matrix: (Units=GPa)
#
#
# Indices 1 2 3 4 5 6 
#
# 1 127.8062 6.2765 10.6922 0.0000 0.0000 0.0000
# 2 6.2765 130.9298 44.6314 0.0000 0.0000 0.0000
# 3 10.6922 44.6314 82.0672 0.0000 0.0000 0.0000
# 4 0.0000 0.0000 0.0000 4.7400 0.0000 0.0000
# 5 0.0000 0.0000 0.0000 0.0000 187.3348 0.0000
# 6 0.0000 0.0000 0.0000 0.0000 0.0000 29.3379
#
#
#
# Elastic Compliance Matrix: (Units=1/GPa)
#
#
# Indices 1 2 3 4 5 6 
#
# 1 0.007911 -0.000034 -0.001012 0.000000 0.000000 0.000000
# 2 -0.000034 0.009376 -0.005095 0.000000 0.000000 0.000000
# 3 -0.001012 -0.005095 0.015088 0.000000 0.000000 0.000000
# 4 0.000000 0.000000 0.000000 0.210970 0.000000 0.000000
# 5 0.000000 0.000000 0.000000 0.000000 0.005338 0.000000
# 6 0.000000 0.000000 0.000000 0.000000 0.000000 0.034086
#
#
# Mechanical properties :
#
#
# Convention : Reuss Voigt Hill
#
# Bulk Modulus (GPa) = 49.76955 51.55593 50.66274
# Shear Modulus (GPa) = 16.57015 62.89608 39.73312
#
# Velocity S-wave (km/s) = 2.89711 5.64435 4.48620
# Velocity P-wave (km/s) = 6.03330 8.28208 7.24546
#
# Compressibility (1/GPa) = 0.02009261
#
# Stress axis : x y z
#
# Youngs Moduli (GPa) = 126.41117 106.65575 66.27955
#
# Poissons Ratio (x) = 0.00365 0.06708
# Poissons Ratio (y) = 0.00433 0.33767
# Poissons Ratio (z) = 0.12793 0.54336
#
# Static dielectric constant tensor:
#      x y z
#    x 1.339660 0.000000 0.000000 
#    y 0.000000 1.723200 0.000000 
#    z 0.000000 0.000000 1.671130 
# 
# From -- ./inp_files/14869.got.cif
#   From: 2010.05.17/outbox.cif.g08.bks.cpg/sg35_8_cif.got.tgz:14869.got - 2010.06.03 17:29:28.
