data_PCOD9350092
_publ_section_title
;
Structure prediction by ZEFSAII (Michael W. Deem and Ramdas Pophale) SiO2 
 PCOD9350092
Probable space group: C M M 2
;
_chemical_formula_sum "Si O2"
_cell_formula_units_Z 40
_cell_length_a 8.529236
_cell_length_b 15.957509
_cell_length_c 14.924165
_cell_angle_alpha 90.000000
_cell_angle_beta 90.000000
_cell_angle_gamma 90.000000
_cell_volume 2031.258854
_symmetry_space_group_name_H-M "C M M 2"
_symmetry_group_IT_number 35
_symmetry_cell_setting 'orthorhombic'
loop_
_space_group_symop_operation_xyz
x,y,z
-x,-y,z
-x,y,z
x,-y,z
1/2+x,1/2+y,z
1/2-x,1/2-y,z
1/2-x,1/2+y,z
1/2+x,1/2-y,z
loop_
_atom_site_type_symbol
_atom_site_label
_atom_site_fract_x
_atom_site_fract_y
_atom_site_fract_z
Si Si1 0.691568 0.000000 0.158070
Si Si2 0.188371 0.500000 0.365529
Si Si3 0.809276 0.902118 0.662508
Si Si4 0.313736 0.160654 0.046517
Si Si5 0.313022 0.600649 0.859989
Si Si6 0.811856 0.839090 0.471738
O O1 0.746048 0.082787 0.105615
O O2 0.500000 0.000000 0.155342
O O3 0.737869 0.000000 0.261589
O O4 0.251340 0.417387 0.414788
O O5 0.000000 0.500000 0.369401
O O6 0.756778 0.872540 0.760839
O O7 0.756812 0.852789 0.574853
O O8 0.000000 0.900547 0.664277
O O9 0.764681 0.000000 0.652047
O O10 0.500000 0.161853 0.052992
O O11 0.250000 0.250000 0.076708
O O12 0.267146 0.144356 0.943546
O O13 0.500000 0.614794 0.865855
O O14 0.287792 0.500000 0.865851
O O15 0.750000 0.750000 0.438432
O O16 0.000000 0.839642 0.470941
#
# Coordination Sequence:
#
# PCOD9350092 Si02
#       6
#     4   4   8   8   8   8
#     4   9  22  43  64  83 114 150 187 243 302 351
#     4  11  23  43  66  89 116 150 195 249 306 359
#     4   8  15  31  56  83 117 157 194 235 284 338
#     4  11  22  39  60  86 118 153 192 238 290 345
#     4   9  17  32  57  87 118 155 195 235 282 338
#     4  11  22  39  62  90 123 159 198 242 293 351
#
# _framework density 19.692221
#
# number of rings (size 3 to 8) (size 9 to 14) (size 15 to 20)
#    0.000    2.200    2.000    2.700    0.000    1.600 
#    0.000   10.000    0.000    0.000    0.000    0.000 
#    0.000    0.000    0.000    0.000    0.000    0.000 
#
# Total GULP energy -111675.954384 kJ/mol
# GULP energy per Si atom -5583.797719 kJ/mol
# Density = 1.964740 g / cm^3
# Si number density = 19.692221 Si / 1000 Ang^3
#
#
#
# Elastic Constant Matrix: (Units=GPa)
#
#
# Indices 1 2 3 4 5 6 
#
# 1 32.2434 36.6927 25.4509 0.0000 0.0000 0.0000
# 2 36.6927 159.2514 87.9042 0.0000 0.0000 0.0000
# 3 25.4509 87.9042 139.9593 0.0000 0.0000 0.0000
# 4 0.0000 0.0000 0.0000 -4.6092 0.0000 0.0000
# 5 0.0000 0.0000 0.0000 0.0000 22.9999 0.0000
# 6 0.0000 0.0000 0.0000 0.0000 0.0000 26.1374
#
#
#
# Elastic Compliance Matrix: (Units=1/GPa)
#
#
# Indices 1 2 3 4 5 6 
#
# 1 0.042565 -0.008472 -0.002419 0.000000 0.000000 0.000000
# 2 -0.008472 0.011298 -0.005555 0.000000 0.000000 0.000000
# 3 -0.002419 -0.005555 0.011074 0.000000 0.000000 0.000000
# 4 0.000000 0.000000 0.000000 -0.216960 0.000000 0.000000
# 5 0.000000 0.000000 0.000000 0.000000 0.043479 0.000000
# 6 0.000000 0.000000 0.000000 0.000000 0.000000 0.038259
#
#
# Mechanical properties :
#
#
# Convention : Reuss Voigt Hill
#
# Bulk Modulus (GPa) = 31.20742 70.17219 50.68980
# Shear Modulus (GPa) = -187.18349 20.99936 -83.09206
#
# Velocity S-wave (km/s) = -9.76017 3.26909 -6.50284
# Velocity P-wave (km/s) = 10.54194 7.06831 5.53044
#
# Compressibility (1/GPa) = 0.03204367
#
# Stress axis : x y z
#
# Youngs Moduli (GPa) = 23.49371 88.51343 90.30219
#
# Poissons Ratio (x) = 0.74987 0.21847
# Poissons Ratio (y) = 0.19903 0.50165
# Poissons Ratio (z) = 0.05684 0.49171
#
# Static dielectric constant tensor:
#      x y z
#    x 1.669020 0.000000 0.000000 
#    y 0.000000 1.685110 0.000000 
#    z 0.000000 0.000000 1.691470 
# 
# From -- ./inp_files/14788.got.cif
#   From: 2010.05.17/outbox.cif.g08.bks.cpg/sg35_8_cif.got.tgz:14788.got - 2010.06.03 17:29:28.
