data_PCOD9350675
_publ_section_title
;
Structure prediction by ZEFSAII (Michael W. Deem and Ramdas Pophale) SiO2 
 PCOD9350675
Probable space group: C M C 21
;
_chemical_formula_sum "Si O2"
_cell_formula_units_Z 64
_cell_length_a 8.480066
_cell_length_b 21.141356
_cell_length_c 19.958816
_cell_angle_alpha 90.000000
_cell_angle_beta 90.000000
_cell_angle_gamma 90.000000
_cell_volume 3578.218413
_symmetry_space_group_name_H-M "C M C 21"
_symmetry_group_IT_number 36
_symmetry_cell_setting 'orthorhombic'
loop_
_space_group_symop_operation_xyz
x,y,z
-x,-y,1/2+z
x,-y,1/2+z
-x,y,z
1/2+x,1/2+y,z
1/2-x,1/2-y,1/2+z
1/2+x,1/2-y,1/2+z
1/2-x,1/2+y,z
loop_
_atom_site_type_symbol
_atom_site_label
_atom_site_fract_x
_atom_site_fract_y
_atom_site_fract_z
Si Si1 0.188598 0.563285 0.833360
Si Si2 0.690588 0.888375 0.615255
Si Si3 0.307297 0.937262 0.756842
Si Si4 0.808560 0.241223 0.618436
Si Si5 0.808769 0.814313 0.255855
Si Si6 0.810183 0.312251 0.835688
Si Si7 0.812818 0.884304 0.468713
Si Si8 0.688842 0.741276 0.468905
O O1 0.244352 0.500547 0.794531
O O2 0.238879 0.624489 0.790873
O O3 0.255392 0.571903 0.908073
O O4 0.000000 0.561011 0.837992
O O5 0.500000 0.890149 0.610772
O O6 0.741273 0.929468 0.679238
O O7 0.735267 0.814877 0.629190
O O8 0.757702 0.905597 0.542562
O O9 0.500000 0.937039 0.756387
O O10 0.255592 0.875208 0.797933
O O11 0.756589 0.197296 0.679333
O O12 0.756878 0.223092 0.543809
O O13 0.000000 0.240260 0.619338
O O14 0.762056 0.750970 0.295926
O O15 0.000000 0.818681 0.258055
O O16 0.752475 0.303697 0.911164
O O17 0.000000 0.313440 0.835311
O O18 0.744233 0.813574 0.457324
O O19 0.000000 0.879752 0.467021
O O20 0.500000 0.741187 0.467626
#
# Coordination Sequence:
#
# PCOD9350675 Si02
#       8
#     8   8   8   8   8   8   8   8
#     4  11  22  36  54  80 112 146 185 223 264 318
#     4   9  16  33  58  80 101 132 178 226 270 320
#     4   9  19  36  58  81 107 144 184 221 266 323
#     4   8  15  29  52  78 103 135 172 213 265 323
#     4  10  18  32  55  79 105 137 176 220 271 322
#     4  10  18  32  56  81 106 138 177 218 269 320
#     4  11  21  34  52  78 109 143 181 221 269 321
#     4  10  19  32  53  81 109 139 179 224 270 319
#
# _framework density 17.885995000000001
#
# number of rings (size 3 to 8) (size 9 to 14) (size 15 to 20)
#    0.000    2.250    2.500    2.625    0.000    0.000 
#    0.000    7.500    0.000    4.500    0.000    0.000 
#    0.000    0.000    0.000    0.000    0.000    0.000 
#
# Total GULP energy -178501.597682 kJ/mol
# GULP energy per Si atom -5578.174928 kJ/mol
# Density = 1.784529 g / cm^3
# Si number density = 17.885995 Si / 1000 Ang^3
#
#
#
# Elastic Constant Matrix: (Units=GPa)
#
#
# Indices 1 2 3 4 5 6 
#
# 1 10.0219 18.0974 17.0873 0.0000 0.0000 0.0000
# 2 18.0974 105.9441 78.8565 0.0000 0.0000 0.0000
# 3 17.0873 78.8565 176.9275 0.0000 0.0000 0.0000
# 4 0.0000 0.0000 0.0000 29.2613 0.0000 0.0000
# 5 0.0000 0.0000 0.0000 0.0000 26.1036 0.0000
# 6 0.0000 0.0000 0.0000 0.0000 0.0000 15.5646
#
#
#
# Elastic Compliance Matrix: (Units=1/GPa)
#
#
# Indices 1 2 3 4 5 6 
#
# 1 0.146630 -0.021709 -0.004486 0.000000 0.000000 0.000000
# 2 -0.021709 0.017339 -0.005631 0.000000 0.000000 0.000000
# 3 -0.004486 -0.005631 0.008595 0.000000 0.000000 0.000000
# 4 0.000000 0.000000 0.000000 0.034175 0.000000 0.000000
# 5 0.000000 0.000000 0.000000 0.000000 0.038309 0.000000
# 6 0.000000 0.000000 0.000000 0.000000 0.000000 0.064248
#
#
# Mechanical properties :
#
#
# Convention : Reuss Voigt Hill
#
# Bulk Modulus (GPa) = 9.18165 57.88621 33.53393
# Shear Modulus (GPa) = 12.21743 26.10940 19.16342
#
# Velocity S-wave (km/s) = 2.61640 3.82484 3.27681
# Velocity P-wave (km/s) = 3.77783 7.20695 5.75378
#
# Compressibility (1/GPa) = 0.10891289
#
# Stress axis : x y z
#
# Youngs Moduli (GPa) = 6.81987 57.67450 116.34528
#
# Poissons Ratio (x) = 1.25203 0.52189
# Poissons Ratio (y) = 0.14805 0.65517
# Poissons Ratio (z) = 0.03059 0.32478
#
# Static dielectric constant tensor:
#      x y z
#    x 1.617520 0.000000 0.000000 
#    y 0.000000 1.584900 0.000000 
#    z 0.000000 0.000000 1.634260 
# 
# From -- ./inp_files/15656.got.cif
#   From: 2010.05.17/outbox.cif.g08.bks.cpg/sg36_8_cif.got.tgz:15656.got - 2010.06.03 17:41:39.
