data_PCOD9350454
_publ_section_title
;
Structure prediction by ZEFSAII (Michael W. Deem and Ramdas Pophale) SiO2 
 PCOD9350454
Probable space group: C M M 2
;
_chemical_formula_sum "Si O2"
_cell_formula_units_Z 30
_cell_length_a 23.990842
_cell_length_b 8.169221
_cell_length_c 7.784104
_cell_angle_alpha 90.000000
_cell_angle_beta 90.000000
_cell_angle_gamma 90.000000
_cell_volume 1525.579223
_symmetry_space_group_name_H-M "C M M 2"
_symmetry_group_IT_number 35
_symmetry_cell_setting 'orthorhombic'
loop_
_space_group_symop_operation_xyz
x,y,z
-x,-y,z
-x,y,z
x,-y,z
1/2+x,1/2+y,z
1/2-x,1/2-y,z
1/2-x,1/2+y,z
1/2+x,1/2-y,z
loop_
_atom_site_type_symbol
_atom_site_label
_atom_site_fract_x
_atom_site_fract_y
_atom_site_fract_z
Si Si1 0.433347 0.500000 0.529531
Si Si2 0.500000 0.500000 0.118507
Si Si3 0.596379 0.180503 0.745345
Si Si4 0.813609 0.691340 0.019885
Si Si5 0.618393 0.500000 0.151271
Si Si6 0.500000 0.828323 0.033352
O O1 0.500000 0.500000 0.519167
O O2 0.415170 0.664696 0.627375
O O3 0.407330 0.500000 0.340532
O O4 0.562156 0.500000 0.031773
O O5 0.500000 0.687042 0.174602
O O6 0.552215 0.179159 0.903539
O O7 0.590948 0.000000 0.661743
O O8 0.656762 0.193334 0.833857
O O9 0.817883 0.500000 0.080603
O O10 0.750000 0.750000 0.013482
O O11 0.846748 0.834387 0.121631
O O12 0.500000 0.000000 0.125089
#
# Coordination Sequence:
#
# PCOD9350454 Si02
#       6
#     4   2   8   8   4   4
#     4  12  24  39  61  92 136 177 205 249 320 393
#     4  12  20  34  60  90 130 166 212 262 318 380
#     4  10  21  37  61  93 121 158 211 266 317 368
#     4  11  23  42  70  93 122 165 221 276 316 365
#     4  12  25  40  60  97 133 171 215 255 318 386
#     4  10  18  31  57  91 121 153 206 274 314 356
#
# _framework density 19.664662
#
# number of rings (size 3 to 8) (size 9 to 14) (size 15 to 20)
#    0.000    1.067    6.000    1.600    0.000    1.067 
#    0.000    1.333    0.000    0.000    0.000    0.000 
#    0.000    0.000    0.000    0.000    0.000    0.000 
#
# Total GULP energy -83506.844121 kJ/mol
# GULP energy per Si atom -5567.122941 kJ/mol
# Density = 1.961990 g / cm^3
# Si number density = 19.664662 Si / 1000 Ang^3
#
#
#
# Elastic Constant Matrix: (Units=GPa)
#
#
# Indices 1 2 3 4 5 6 
#
# 1 146.4426 63.6087 17.4147 0.0000 0.0000 0.0000
# 2 63.6087 277.4537 72.1650 0.0000 0.0000 0.0000
# 3 17.4147 72.1650 50.6673 0.0000 0.0000 0.0000
# 4 0.0000 0.0000 0.0000 19.1933 0.0000 0.0000
# 5 0.0000 0.0000 0.0000 0.0000 11.8400 0.0000
# 6 0.0000 0.0000 0.0000 0.0000 0.0000 28.2959
#
#
#
# Elastic Compliance Matrix: (Units=1/GPa)
#
#
# Indices 1 2 3 4 5 6 
#
# 1 0.007585 -0.001685 -0.000207 0.000000 0.000000 0.000000
# 2 -0.001685 0.006099 -0.008108 0.000000 0.000000 0.000000
# 3 -0.000207 -0.008108 0.031356 0.000000 0.000000 0.000000
# 4 0.000000 0.000000 0.000000 0.052102 0.000000 0.000000
# 5 0.000000 0.000000 0.000000 0.000000 0.084459 0.000000
# 6 0.000000 0.000000 0.000000 0.000000 0.000000 0.035341
#
#
# Mechanical properties :
#
#
# Convention : Reuss Voigt Hill
#
# Bulk Modulus (GPa) = 39.93580 86.77116 63.35348
# Shear Modulus (GPa) = 20.38405 33.29086 26.83745
#
# Velocity S-wave (km/s) = 3.22309 4.11898 3.69827
# Velocity P-wave (km/s) = 5.84838 8.17573 7.10796
#
# Compressibility (1/GPa) = 0.02504019
#
# Stress axis : x y z
#
# Youngs Moduli (GPa) = 131.83600 163.94887 31.89167
#
# Poissons Ratio (x) = 0.27628 0.00660
# Poissons Ratio (y) = 0.22216 0.25858
# Poissons Ratio (z) = 0.02728 1.32933
#
# Static dielectric constant tensor:
#      x y z
#    x 1.751190 0.000000 0.000000 
#    y 0.000000 1.744020 0.000000 
#    z 0.000000 0.000000 1.715020 
# 
# From -- ./inp_files/8973.got.cif
#   From: 2010.05.17/outbox.cif.g08.bks.cpg/sg35_5_cif.got.tgz:8973.got - 2010.06.03 17:29:28.
