data_PCOD9350656
_publ_section_title
;
Structure prediction by ZEFSAII (Michael W. Deem and Ramdas Pophale) SiO2 
 PCOD9350656
Probable space group: C M C 21
;
_chemical_formula_sum "Si O2"
_cell_formula_units_Z 64
_cell_length_a 7.474304
_cell_length_b 27.749751
_cell_length_c 13.434295
_cell_angle_alpha 90.000000
_cell_angle_beta 90.000000
_cell_angle_gamma 90.000000
_cell_volume 2786.408132
_symmetry_space_group_name_H-M "C M C 21"
_symmetry_group_IT_number 36
_symmetry_cell_setting 'orthorhombic'
loop_
_space_group_symop_operation_xyz
x,y,z
-x,-y,1/2+z
x,-y,1/2+z
-x,y,z
1/2+x,1/2+y,z
1/2-x,1/2-y,1/2+z
1/2+x,1/2-y,1/2+z
1/2-x,1/2+y,z
loop_
_atom_site_type_symbol
_atom_site_label
_atom_site_fract_x
_atom_site_fract_y
_atom_site_fract_z
Si Si1 0.718882 0.557127 0.111850
Si Si2 0.220000 0.910016 0.832358
Si Si3 0.287880 0.302853 0.875810
Si Si4 0.283726 0.374627 0.427715
Si Si5 0.712695 0.725015 0.012745
Si Si6 0.718963 0.765674 0.209348
Si Si7 0.708750 0.545641 0.538027
Si Si8 0.209470 0.625334 0.700902
O O1 0.500000 0.558279 0.114549
O O2 0.775867 0.572752 0.222782
O O3 0.781868 0.503309 0.085623
O O4 0.772335 0.591975 0.020491
O O5 0.281495 0.855313 0.852697
O O6 0.000000 0.910337 0.833115
O O7 0.280783 0.940167 0.929075
O O8 0.500000 0.305462 0.858829
O O9 0.257001 0.279901 0.982627
O O10 0.215816 0.259136 0.809587
O O11 0.500000 0.374364 0.427698
O O12 0.214821 0.320343 0.451341
O O13 0.231039 0.390549 0.316456
O O14 0.500000 0.720132 0.009975
O O15 0.769298 0.726105 0.126963
O O16 0.500000 0.768513 0.210732
O O17 0.784371 0.820137 0.196915
O O18 0.500000 0.535698 0.520460
O O19 0.717931 0.588906 0.618036
O O20 0.000000 0.628038 0.679324
#
# Coordination Sequence:
#
# PCOD9350656 Si02
#       8
#     8   8   8   8   8   8   8   8
#     4   9  19  35  59  86 112 143 184 236 289 331
#     4   9  18  33  55  85 113 142 185 234 280 333
#     4  10  18  32  52  74 106 144 181 213 259 323
#     4  10  20  35  58  87 114 145 189 236 277 327
#     4  10  19  32  52  79 110 142 182 225 265 316
#     4   9  18  32  51  74 106 149 182 211 264 325
#     4  10  21  36  59  86 110 141 186 238 285 331
#     4  11  22  37  56  81 117 154 187 225 279 342
#
# _framework density 22.968639
#
# number of rings (size 3 to 8) (size 9 to 14) (size 15 to 20)
#    0.000    2.250    1.250    1.875    1.750    3.000 
#    0.000    1.875    0.000    3.750    0.000    0.000 
#    0.000    0.000    0.000    0.000    0.000    0.000 
#
# Total GULP energy -178554.253823 kJ/mol
# GULP energy per Si atom -5579.820432 kJ/mol
# Density = 2.291636 g / cm^3
# Si number density = 22.968639 Si / 1000 Ang^3
#
#
#
# Elastic Constant Matrix: (Units=GPa)
#
#
# Indices 1 2 3 4 5 6 
#
# 1 61.5794 3.8884 -8.6652 0.0000 0.0000 0.0000
# 2 3.8884 299.6690 119.8695 0.0000 0.0000 0.0000
# 3 -8.6652 119.8695 162.0716 0.0000 0.0000 0.0000
# 4 0.0000 0.0000 0.0000 53.8270 0.0000 0.0000
# 5 0.0000 0.0000 0.0000 0.0000 0.4243 0.0000
# 6 0.0000 0.0000 0.0000 0.0000 0.0000 18.2199
#
#
#
# Elastic Compliance Matrix: (Units=1/GPa)
#
#
# Indices 1 2 3 4 5 6 
#
# 1 0.016498 -0.000805 0.001478 0.000000 0.000000 0.000000
# 2 -0.000805 0.004778 -0.003577 0.000000 0.000000 0.000000
# 3 0.001478 -0.003577 0.008895 0.000000 0.000000 0.000000
# 4 0.000000 0.000000 0.000000 0.018578 0.000000 0.000000
# 5 0.000000 0.000000 0.000000 0.000000 2.356689 0.000000
# 6 0.000000 0.000000 0.000000 0.000000 0.000000 0.054885
#
#
# Mechanical properties :
#
#
# Convention : Reuss Voigt Hill
#
# Bulk Modulus (GPa) = 41.04811 83.72282 62.38546
# Shear Modulus (GPa) = 2.02081 41.70938 21.86510
#
# Velocity S-wave (km/s) = 0.93900 4.26599 3.08872
# Velocity P-wave (km/s) = 4.36873 7.79711 6.31984
#
# Compressibility (1/GPa) = 0.02436166
#
# Stress axis : x y z
#
# Youngs Moduli (GPa) = 60.61358 209.27755 112.42530
#
# Poissons Ratio (x) = 0.16849 -0.16611
# Poissons Ratio (y) = 0.04880 0.40216
# Poissons Ratio (z) = -0.08956 0.74862
#
# Static dielectric constant tensor:
#      x y z
#    x 1.873880 0.000000 0.000000 
#    y 0.000000 1.703220 0.000000 
#    z 0.000000 0.000000 1.821360 
# 
# From -- ./inp_files/7057.got.cif
#   From: 2010.05.17/outbox.cif.g08.bks.cpg/sg36_4_cif.got.tgz:7057.got - 2010.06.03 17:41:39.
