data_PCOD9350837
_publ_section_title
;
Structure prediction by ZEFSAII (Michael W. Deem and Ramdas Pophale) SiO2 
 PCOD9350837
Probable space group: C M C 21
;
_chemical_formula_sum "Si O2"
_cell_formula_units_Z 64
_cell_length_a 9.384413
_cell_length_b 23.194092
_cell_length_c 18.133039
_cell_angle_alpha 90.000000
_cell_angle_beta 90.000000
_cell_angle_gamma 90.000000
_cell_volume 3946.890552
_symmetry_space_group_name_H-M "C M C 21"
_symmetry_group_IT_number 36
_symmetry_cell_setting 'orthorhombic'
loop_
_space_group_symop_operation_xyz
x,y,z
-x,-y,1/2+z
x,-y,1/2+z
-x,y,z
1/2+x,1/2+y,z
1/2-x,1/2-y,1/2+z
1/2+x,1/2-y,1/2+z
1/2-x,1/2+y,z
loop_
_atom_site_type_symbol
_atom_site_label
_atom_site_fract_x
_atom_site_fract_y
_atom_site_fract_z
Si Si1 0.169513 0.870790 0.094190
Si Si2 0.170662 0.319099 0.787857
Si Si3 0.835686 0.921457 0.715188
Si Si4 0.663822 0.022953 0.653728
Si Si5 0.668856 0.686743 0.748957
Si Si6 0.329874 0.637693 0.430973
Si Si7 0.162145 0.583914 0.815471
Si Si8 0.338684 0.484726 0.875230
O O1 0.257343 0.929403 0.104850
O O2 0.202385 0.830416 0.164249
O O3 0.000000 0.884005 0.096563
O O4 0.198463 0.843306 0.014503
O O5 0.248106 0.363621 0.732568
O O6 0.198821 0.253246 0.765341
O O7 0.238057 0.331699 0.868209
O O8 0.000000 0.329076 0.788400
O O9 0.839582 0.955397 0.793767
O O10 0.000000 0.910791 0.694105
O O11 0.753106 0.964148 0.660302
O O12 0.500000 0.013283 0.632071
O O13 0.662148 0.051280 0.735986
O O14 0.500000 0.676968 0.759163
O O15 0.752868 0.642674 0.801250
O O16 0.500000 0.643836 0.414762
O O17 0.298224 0.569008 0.426530
O O18 0.237337 0.539568 0.871008
O O19 0.000000 0.595275 0.836524
O O20 0.500000 0.502828 0.892179
#
# Coordination Sequence:
#
# PCOD9350837 Si02
#       8
#     8   8   8   8   8   8   8   8
#     4   9  17  31  49  68  92 122 157 194 236 290
#     4  10  19  30  46  69  95 123 158 199 240 280
#     4   9  16  27  44  65  89 118 150 184 224 270
#     4   9  16  26  42  67  94 116 142 181 230 276
#     4   9  18  31  47  67  92 124 159 196 237 278
#     4   9  18  31  48  69  92 122 156 192 238 290
#     4   9  16  25  41  65  89 113 143 180 220 264
#     4   8  14  25  41  62  87 112 139 174 221 272
#
# _framework density 16.215297
#
# number of rings (size 3 to 8) (size 9 to 14) (size 15 to 20)
#    0.000    3.000    0.000    2.250    0.000    7.500 
#    0.000    0.000    0.000    1.500    0.000    3.500 
#    0.000    0.000    0.000    0.000    0.000    0.000 
#
# Total GULP energy -178179.355738 kJ/mol
# GULP energy per Si atom -5568.104867 kJ/mol
# Density = 1.617839 g / cm^3
# Si number density = 16.215297 Si / 1000 Ang^3
#
#
#
# Elastic Constant Matrix: (Units=GPa)
#
#
# Indices 1 2 3 4 5 6 
#
# 1 96.1286 81.3546 36.6514 0.0000 0.0000 0.0000
# 2 81.3546 119.1301 34.2536 0.0000 0.0000 0.0000
# 3 36.6514 34.2536 47.4946 0.0000 0.0000 0.0000
# 4 0.0000 0.0000 0.0000 12.0045 0.0000 0.0000
# 5 0.0000 0.0000 0.0000 0.0000 13.8301 0.0000
# 6 0.0000 0.0000 0.0000 0.0000 0.0000 27.3250
#
#
#
# Elastic Compliance Matrix: (Units=1/GPa)
#
#
# Indices 1 2 3 4 5 6 
#
# 1 0.027854 -0.016201 -0.009811 0.000000 0.000000 0.000000
# 2 -0.016201 0.020013 -0.001932 0.000000 0.000000 0.000000
# 3 -0.009811 -0.001932 0.030019 0.000000 0.000000 0.000000
# 4 0.000000 0.000000 0.000000 0.083302 0.000000 0.000000
# 5 0.000000 0.000000 0.000000 0.000000 0.072306 0.000000
# 6 0.000000 0.000000 0.000000 0.000000 0.000000 0.036596
#
#
# Mechanical properties :
#
#
# Convention : Reuss Voigt Hill
#
# Bulk Modulus (GPa) = 45.45444 63.03025 54.24234
# Shear Modulus (GPa) = 15.00097 17.99817 16.49957
#
# Velocity S-wave (km/s) = 3.04487 3.33521 3.19334
# Velocity P-wave (km/s) = 6.36037 7.33394 6.86444
#
# Compressibility (1/GPa) = 0.02200005
#
# Stress axis : x y z
#
# Youngs Moduli (GPa) = 35.90088 49.96658 33.31217
#
# Poissons Ratio (x) = 0.80951 0.32682
# Poissons Ratio (y) = 0.58163 0.06434
# Poissons Ratio (z) = 0.35222 0.09651
#
# Static dielectric constant tensor:
#      x y z
#    x 1.550160 0.000000 0.000000 
#    y 0.000000 1.526050 0.000000 
#    z 0.000000 0.000000 1.556180 
# 
# From -- ./inp_files/13782.got.cif
#   From: 2010.05.17/outbox.cif.g08.bks.cpg/sg36_7_cif.got.tgz:13782.got - 2010.06.03 17:41:39.
