data_PCOD9350199
_publ_section_title
;
Structure prediction by ZEFSAII (Michael W. Deem and Ramdas Pophale) SiO2 
 PCOD9350199
Probable space group: C M M 2
;
_chemical_formula_sum "Si O2"
_cell_formula_units_Z 24
_cell_length_a 9.000000
_cell_length_b 15.000000
_cell_length_c 18.000000
_cell_angle_alpha 90.000000
_cell_angle_beta 90.000000
_cell_angle_gamma 90.000000
_cell_volume 2430.000000
_symmetry_space_group_name_H-M "C M M 2"
_symmetry_group_IT_number 35
_symmetry_cell_setting 'orthorhombic'
loop_
_space_group_symop_operation_xyz
x,y,z
-x,-y,z
-x,y,z
x,-y,z
1/2+x,1/2+y,z
1/2-x,1/2-y,z
1/2-x,1/2+y,z
1/2+x,1/2-y,z
loop_
_atom_site_type_symbol
_atom_site_label
_atom_site_fract_x
_atom_site_fract_y
_atom_site_fract_z
Si Si1 0.821005 0.000000 0.375000
Si Si2 0.821449 0.661724 0.111048
Si Si3 0.677605 0.000000 0.216345
Si Si4 0.320303 0.652902 0.645452
Si Si5 0.834489 0.894516 0.806023
Si Si6 0.820784 0.152807 0.484307
Si Si7 0.672661 0.892147 0.951075
O O1 0.771422 0.086952 0.420109
O O2 0.759515 0.000000 0.293348
O O3 0.000000 0.000000 0.374946
O O4 0.750000 0.750000 0.141075
O O5 0.782565 0.583338 0.165923
O O6 0.000000 0.666550 0.106919
O O7 0.762980 0.644308 0.027755
O O8 0.500000 0.000000 0.228179
O O9 0.500000 0.653813 0.648335
O O10 0.250000 0.750000 0.642376
O O11 0.267809 0.614775 0.723939
O O12 0.282267 0.612134 0.565550
O O13 0.746421 0.858749 0.875903
O O14 0.000000 0.855363 0.805999
O O15 0.846438 0.000000 0.818301
O O16 0.750000 0.250000 0.477423
O O17 0.000000 0.161448 0.481923
O O18 0.500000 0.869369 0.947840
O O19 0.682280 0.000000 0.955292
#
# Coordination Sequence:
#
# PCOD9350199 Si02
#       7
#     4   8   4   8   8   8   8
#     4  10  22  38  60  87 110 140 180 221 272 328
#     4  10  21  38  60  84 109 144 184 221 268 325
#     4  10  22  42  62  81 112 146 176 217 272 332
#     4   9  18  32  50  71 101 140 177 217 263 310
#     4   9  18  30  47  74 104 136 178 222 263 306
#     4   9  19  36  57  81 111 145 182 224 269 320
#     4   9  17  33  54  73 102 143 182 220 265 316
#
# _framework density 9.8765429999999999
#
# number of rings (size 3 to 8) (size 9 to 14) (size 15 to 20)
#    0.000    2.667    0.833    0.000    1.167    4.000 
#    0.000    6.667    0.000    0.000    0.000    0.000 
#    0.000    0.000    0.000    0.000    0.000    0.000 
#
# Total GULP energy -133636.296830 kJ/mol
# GULP energy per Si atom -5568.179035 kJ/mol
# Density = 0.985406 g / cm^3
# Si number density = 9.876543 Si / 1000 Ang^3
#
#
#
# Elastic Constant Matrix: (Units=GPa)
#
#
# Indices 1 2 3 4 5 6 
#
# 1 -5.6971 32.5870 46.3555 0.0000 0.0000 0.0000
# 2 32.5870 91.1086 85.9469 0.0000 0.0000 0.0000
# 3 46.3555 85.9469 164.6724 0.0000 0.0000 0.0000
# 4 0.0000 0.0000 0.0000 51.5633 0.0000 0.0000
# 5 0.0000 0.0000 0.0000 0.0000 53.1443 0.0000
# 6 0.0000 0.0000 0.0000 0.0000 0.0000 14.5611
#
#
#
# Elastic Compliance Matrix: (Units=1/GPa)
#
#
# Indices 1 2 3 4 5 6 
#
# 1 -0.049336 0.008953 0.009215 0.000000 0.000000 0.000000
# 2 0.008953 0.019997 -0.012957 0.000000 0.000000 0.000000
# 3 0.009215 -0.012957 0.010241 0.000000 0.000000 0.000000
# 4 0.000000 0.000000 0.000000 0.019394 0.000000 0.000000
# 5 0.000000 0.000000 0.000000 0.000000 0.018817 0.000000
# 6 0.000000 0.000000 0.000000 0.000000 0.000000 0.068676
#
#
# Mechanical properties :
#
#
# Convention : Reuss Voigt Hill
#
# Bulk Modulus (GPa) = -115.26423 64.42920 -25.41751
# Shear Modulus (GPa) = 67.13723 29.53336 48.33530
#
# Velocity S-wave (km/s) = 5.83627 3.87088 4.95206
# Velocity P-wave (km/s) = 3.61430 7.25716 4.44990
#
# Compressibility (1/GPa) = -0.00867572
#
# Stress axis : x y z
#
# Youngs Moduli (GPa) = -20.26922 50.00825 97.64567
#
# Poissons Ratio (x) = -0.44771 -0.89985
# Poissons Ratio (y) = 0.18147 1.26520
# Poissons Ratio (z) = 0.18679 0.64796
#
# Static dielectric constant tensor:
#      x y z
#    x 1.681430 0.000000 0.000000 
#    y 0.000000 1.693450 0.000000 
#    z 0.000000 0.000000 1.719800 
# 
# From -- ./inp_files/15233.got.cif
#   From: 2010.05.17/outbox.ucp.g08.bks.cvg/sg35_8_cif.got.tgz:15233.got - 2010.06.11 10:36:28.
