data_PCOD9350735
_publ_section_title
;
Structure prediction by ZEFSAII (Michael W. Deem and Ramdas Pophale) SiO2 
 PCOD9350735
Probable space group: C M C 21
;
_chemical_formula_sum "Si O2"
_cell_formula_units_Z 48
_cell_length_a 25.829626
_cell_length_b 5.770677
_cell_length_c 12.524462
_cell_angle_alpha 90.000000
_cell_angle_beta 90.000000
_cell_angle_gamma 90.000000
_cell_volume 1866.826528
_symmetry_space_group_name_H-M "C M C 21"
_symmetry_group_IT_number 36
_symmetry_cell_setting 'orthorhombic'
loop_
_space_group_symop_operation_xyz
x,y,z
-x,-y,1/2+z
x,-y,1/2+z
-x,y,z
1/2+x,1/2+y,z
1/2-x,1/2-y,1/2+z
1/2+x,1/2-y,1/2+z
1/2-x,1/2+y,z
loop_
_atom_site_type_symbol
_atom_site_label
_atom_site_fract_x
_atom_site_fract_y
_atom_site_fract_z
Si Si1 0.371603 0.928087 0.304030
Si Si2 0.240153 0.403305 0.201257
Si Si3 0.776087 0.116974 0.939361
Si Si4 0.442755 0.731286 0.907392
Si Si5 0.880389 0.880072 0.992346
Si Si6 0.060521 0.863445 0.643420
O O1 0.318516 0.927775 0.240256
O O2 0.360269 0.834163 0.424727
O O3 0.410176 0.773522 0.234028
O O4 0.401123 0.162315 0.330038
O O5 0.253725 0.649841 0.147980
O O6 0.275707 0.391297 0.308157
O O7 0.756458 0.378997 0.962136
O O8 0.833504 0.063284 0.982764
O O9 0.500000 0.783825 0.870624
O O10 0.430013 0.461772 0.922168
O O11 0.438228 0.794157 0.033882
O O12 0.905119 0.910647 0.108724
O O13 0.000000 0.915101 0.663973
#
# Coordination Sequence:
#
# PCOD9350735 Si02
#       6
#     8   8   8   8   8   8
#     4  12  21  39  73  88 129 187 216 272 361 399
#     4  10  20  36  64  99 136 176 225 285 336 411
#     4  10  18  33  62  93 130 172 216 275 333 399
#     4   9  21  40  61  90 127 164 218 278 331 396
#     4  10  21  39  64  89 129 173 211 272 341 395
#     4   9  23  43  60  97 133 160 234 290 322 418
#
# _framework density 25.712083
#
# number of rings (size 3 to 8) (size 9 to 14) (size 15 to 20)
#    1.000    1.000    3.333    2.500    0.000    2.667 
#    3.000    1.667    0.000    0.000    0.000    0.000 
#    0.000    0.000    0.000    0.000    0.000    0.000 
#
# Total GULP energy -133826.174039 kJ/mol
# GULP energy per Si atom -5576.090585 kJ/mol
# Density = 2.565356 g / cm^3
# Si number density = 25.712083 Si / 1000 Ang^3
#
#
#
# Elastic Constant Matrix: (Units=GPa)
#
#
# Indices 1 2 3 4 5 6 
#
# 1 119.1445 17.8634 24.4391 0.0000 0.0000 0.0000
# 2 17.8634 121.1132 51.7484 0.0000 0.0000 0.0000
# 3 24.4391 51.7484 80.7573 0.0000 0.0000 0.0000
# 4 0.0000 0.0000 0.0000 48.5087 0.0000 0.0000
# 5 0.0000 0.0000 0.0000 0.0000 23.5721 0.0000
# 6 0.0000 0.0000 0.0000 0.0000 0.0000 11.7830
#
#
#
# Elastic Compliance Matrix: (Units=1/GPa)
#
#
# Indices 1 2 3 4 5 6 
#
# 1 0.008953 -0.000224 -0.002566 0.000000 0.000000 0.000000
# 2 -0.000224 0.011375 -0.007221 0.000000 0.000000 0.000000
# 3 -0.002566 -0.007221 0.017787 0.000000 0.000000 0.000000
# 4 0.000000 0.000000 0.000000 0.020615 0.000000 0.000000
# 5 0.000000 0.000000 0.000000 0.000000 0.042423 0.000000
# 6 0.000000 0.000000 0.000000 0.000000 0.000000 0.084868
#
#
# Mechanical properties :
#
#
# Convention : Reuss Voigt Hill
#
# Bulk Modulus (GPa) = 55.27187 56.56853 55.92020
# Shear Modulus (GPa) = 23.57665 31.90370 27.74017
#
# Velocity S-wave (km/s) = 3.03140 3.52633 3.28819
# Velocity P-wave (km/s) = 5.81340 6.21518 6.01765
#
# Compressibility (1/GPa) = 0.01809239
#
# Stress axis : x y z
#
# Youngs Moduli (GPa) = 111.69345 87.91001 56.22228
#
# Poissons Ratio (x) = 0.01971 0.14425
# Poissons Ratio (y) = 0.02505 0.40600
# Poissons Ratio (z) = 0.28657 0.63482
#
# Static dielectric constant tensor:
#      x y z
#    x 1.998570 0.000000 0.000000 
#    y 0.000000 2.134210 0.000000 
#    z 0.000000 0.000000 2.122900 
# 
# From -- ./inp_files/13059.got.cif
#   From: 2010.05.17/outbox.cif.g08.bks.cpg/sg36_7_cif.got.tgz:13059.got - 2010.06.03 17:41:39.
