data_PCOD9350141
_publ_section_title
;
Structure prediction by ZEFSAII (Michael W. Deem and Ramdas Pophale) SiO2 
 PCOD9350141
Probable space group: C M M 2
;
_chemical_formula_sum "Si O2"
_cell_formula_units_Z 32
_cell_length_a 30.000000
_cell_length_b 9.000000
_cell_length_c 15.000000
_cell_angle_alpha 90.000000
_cell_angle_beta 90.000000
_cell_angle_gamma 90.000000
_cell_volume 4050.000000
_symmetry_space_group_name_H-M "C M M 2"
_symmetry_group_IT_number 35
_symmetry_cell_setting 'orthorhombic'
loop_
_space_group_symop_operation_xyz
x,y,z
-x,-y,z
-x,y,z
x,-y,z
1/2+x,1/2+y,z
1/2-x,1/2-y,z
1/2-x,1/2+y,z
1/2+x,1/2-y,z
loop_
_atom_site_type_symbol
_atom_site_label
_atom_site_fract_x
_atom_site_fract_y
_atom_site_fract_z
Si Si1 0.634929 0.170689 0.997150
Si Si2 0.296918 0.828140 0.158551
Si Si3 0.200684 0.176865 0.330299
Si Si4 0.856898 0.320151 0.675668
Si Si5 0.200731 0.679136 0.508147
Si Si6 0.450063 0.820373 0.753637
Si Si7 0.049750 0.823361 0.949109
Si Si8 0.201613 0.320203 0.843512
O O1 0.590270 0.263626 0.007515
O O2 0.665703 0.227764 0.916876
O O3 0.622163 0.000000 0.976473
O O4 0.668117 0.170736 0.079611
O O5 0.250000 0.750000 0.133188
O O6 0.318795 0.734502 0.238248
O O7 0.287622 0.000000 0.184762
O O8 0.250000 0.250000 0.326089
O O9 0.181483 0.253777 0.417153
O O10 0.202434 0.000000 0.337516
O O11 0.858606 0.500000 0.677452
O O12 0.833974 0.277524 0.584049
O O13 0.907148 0.269725 0.696911
O O14 0.821523 0.276424 0.751250
O O15 0.205528 0.500000 0.503653
O O16 0.250000 0.750000 0.523232
O O17 0.500000 0.780642 0.720522
O O18 0.445368 0.752968 0.852287
O O19 0.448385 0.000000 0.760039
O O20 0.000000 0.786559 0.982611
O O21 0.052678 0.000000 0.938764
O O22 0.205707 0.500000 0.848254
O O23 0.250000 0.250000 0.855481
#
# Coordination Sequence:
#
# PCOD9350141 Si02
#       8
#     8   8   8   8   8   8   8   8
#     4  10  20  33  49  67  92 125 159 192 227 275
#     4  10  19  31  48  71  96 124 157 193 232 275
#     4  10  18  30  47  66  90 120 154 193 233 276
#     4   9  17  29  45  66  92 120 154 192 228 270
#     4  10  18  29  45  65  92 122 153 192 229 271
#     4   9  16  30  51  68  87 119 156 193 235 279
#     4  10  20  32  47  69  94 119 153 198 240 275
#     4  10  19  31  43  61  92 125 159 187 219 266
#
# _framework density 7.9012349999999998
#
# number of rings (size 3 to 8) (size 9 to 14) (size 15 to 20)
#    0.000    2.250    1.250    4.500    0.000    2.250 
#    0.000    1.875    0.000    0.000    0.000    0.875 
#    0.000    5.000    0.000    0.000    0.000    0.000 
#
# Total GULP energy -178183.598956 kJ/mol
# GULP energy per Si atom -5568.237467 kJ/mol
# Density = 0.788325 g / cm^3
# Si number density = 7.901235 Si / 1000 Ang^3
#
#
#
# Elastic Constant Matrix: (Units=GPa)
#
#
# Indices 1 2 3 4 5 6 
#
# 1 97.3271 32.9213 21.6511 0.0000 0.0000 0.0000
# 2 32.9213 56.8164 20.0832 0.0000 0.0000 0.0000
# 3 21.6511 20.0832 56.3749 0.0000 0.0000 0.0000
# 4 0.0000 0.0000 0.0000 14.4215 0.0000 0.0000
# 5 0.0000 0.0000 0.0000 0.0000 190.9104 0.0000
# 6 0.0000 0.0000 0.0000 0.0000 0.0000 21.5620
#
#
#
# Elastic Compliance Matrix: (Units=1/GPa)
#
#
# Indices 1 2 3 4 5 6 
#
# 1 0.013121 -0.006660 -0.002666 0.000000 0.000000 0.000000
# 2 -0.006660 0.023517 -0.005820 0.000000 0.000000 0.000000
# 3 -0.002666 -0.005820 0.020836 0.000000 0.000000 0.000000
# 4 0.000000 0.000000 0.000000 0.069341 0.000000 0.000000
# 5 0.000000 0.000000 0.000000 0.000000 0.005238 0.000000
# 6 0.000000 0.000000 0.000000 0.000000 0.000000 0.046378
#
#
# Mechanical properties :
#
#
# Convention : Reuss Voigt Hill
#
# Bulk Modulus (GPa) = 36.79117 39.98107 38.38612
# Shear Modulus (GPa) = 22.95866 54.43629 38.69747
#
# Velocity S-wave (km/s) = 3.81577 5.87561 4.95393
# Velocity P-wave (km/s) = 6.53803 8.44901 7.55419
#
# Compressibility (1/GPa) = 0.02718044
#
# Stress axis : x y z
#
# Youngs Moduli (GPa) = 76.21618 42.52292 47.99446
#
# Poissons Ratio (x) = 0.28320 0.12798
# Poissons Ratio (y) = 0.50760 0.27932
# Poissons Ratio (z) = 0.20323 0.24748
#
# Static dielectric constant tensor:
#      x y z
#    x 1.501300 0.000000 0.000000 
#    y 0.000000 1.534570 0.000000 
#    z 0.000000 0.000000 1.590830 
# 
# From -- ./inp_files/17752.got.cif
#   From: 2010.05.17/outbox.ucp.g08.bks.cvg/sg35_9_cif.got.tgz:17752.got - 2010.06.11 10:36:28.
