data_PCOD9350555
_publ_section_title
;
Structure prediction by ZEFSAII (Michael W. Deem and Ramdas Pophale) SiO2 
 PCOD9350555
Probable space group: C M C 21
;
_chemical_formula_sum "Si O2"
_cell_formula_units_Z 64
_cell_length_a 7.453876
_cell_length_b 21.856836
_cell_length_c 14.705032
_cell_angle_alpha 90.000000
_cell_angle_beta 90.000000
_cell_angle_gamma 90.000000
_cell_volume 2395.716540
_symmetry_space_group_name_H-M "C M C 21"
_symmetry_group_IT_number 36
_symmetry_cell_setting 'orthorhombic'
loop_
_space_group_symop_operation_xyz
x,y,z
-x,-y,1/2+z
x,-y,1/2+z
-x,y,z
1/2+x,1/2+y,z
1/2-x,1/2-y,1/2+z
1/2+x,1/2-y,1/2+z
1/2-x,1/2+y,z
loop_
_atom_site_type_symbol
_atom_site_label
_atom_site_fract_x
_atom_site_fract_y
_atom_site_fract_z
Si Si1 0.720936 0.402688 0.565270
Si Si2 0.715516 0.902302 0.900178
Si Si3 0.289738 0.328011 0.729697
Si Si4 0.286925 0.786125 0.016808
Si Si5 0.208668 0.984908 0.188179
Si Si6 0.285177 0.214670 0.850612
Si Si7 0.283619 0.852960 0.185225
Si Si8 0.291208 0.462653 0.388123
O O1 0.500000 0.400887 0.562103
O O2 0.780070 0.347035 0.630596
O O3 0.779294 0.462740 0.622775
O O4 0.784204 0.415176 0.462364
O O5 0.500000 0.902867 0.904114
O O6 0.772753 0.886503 0.796717
O O7 0.781826 0.844686 0.959407
O O8 0.782575 0.968603 0.929388
O O9 0.500000 0.313810 0.716451
O O10 0.216017 0.273207 0.791853
O O11 0.500000 0.791473 0.021939
O O12 0.259095 0.726631 0.955043
O O13 0.223726 0.797873 0.119106
O O14 0.221638 0.917286 0.146352
O O15 0.292145 0.973583 0.288345
O O16 0.000000 0.000346 0.201990
O O17 0.500000 0.215070 0.847741
O O18 0.221221 0.158772 0.788476
O O19 0.500000 0.854288 0.186529
O O20 0.500000 0.447420 0.376246
#
# Coordination Sequence:
#
# PCOD9350555 Si02
#       8
#     8   8   8   8   8   8   8   8
#     4   9  17  31  52  77 103 130 170 219 262 308
#     4  10  18  29  49  76 104 136 173 211 257 310
#     4   9  16  32  54  73  97 129 169 219 262 301
#     4   9  19  35  55  80 108 139 178 221 265 314
#     4  10  20  34  52  79 107 138 178 216 263 317
#     4   9  19  35  57  80 102 135 180 222 264 312
#     4  10  21  38  55  78 111 144 177 217 266 320
#     4  10  19  32  50  75 106 137 173 215 259 312
#
# _framework density 26.714347
#
# number of rings (size 3 to 8) (size 9 to 14) (size 15 to 20)
#    0.000    2.500    1.250    1.125    0.000    2.000 
#    2.250    0.625    0.000    0.000    0.000    0.000 
#    0.000    0.000    0.000    0.000    0.000    0.000 
#
# Total GULP energy -178859.567055 kJ/mol
# GULP energy per Si atom -5589.361470 kJ/mol
# Density = 2.665354 g / cm^3
# Si number density = 26.714347 Si / 1000 Ang^3
#
#
#
# Elastic Constant Matrix: (Units=GPa)
#
#
# Indices 1 2 3 4 5 6 
#
# 1 93.8481 -3.4280 7.2948 0.0000 0.0000 0.0000
# 2 -3.4280 79.2166 10.0296 0.0000 0.0000 0.0000
# 3 7.2948 10.0296 161.1770 0.0000 0.0000 0.0000
# 4 0.0000 0.0000 0.0000 48.3137 0.0000 0.0000
# 5 0.0000 0.0000 0.0000 0.0000 6.4984 0.0000
# 6 0.0000 0.0000 0.0000 0.0000 0.0000 -281.0008
#
#
#
# Elastic Compliance Matrix: (Units=1/GPa)
#
#
# Indices 1 2 3 4 5 6 
#
# 1 0.010715 0.000529 -0.000518 0.000000 0.000000 0.000000
# 2 0.000529 0.012750 -0.000817 0.000000 0.000000 0.000000
# 3 -0.000518 -0.000817 0.006279 0.000000 0.000000 0.000000
# 4 0.000000 0.000000 0.000000 0.020698 0.000000 0.000000
# 5 0.000000 0.000000 0.000000 0.000000 0.153884 0.000000
# 6 0.000000 0.000000 0.000000 0.000000 0.000000 -0.003559
#
#
# Mechanical properties :
#
#
# Convention : Reuss Voigt Hill
#
# Bulk Modulus (GPa) = 35.54695 40.22603 37.88649
# Shear Modulus (GPa) = 23.61202 -23.88140 -0.13469
#
# Velocity S-wave (km/s) = 2.97622 -2.99315 -0.22478
# Velocity P-wave (km/s) = 5.01455 1.77349 3.76105
#
# Compressibility (1/GPa) = 0.02813181
#
# Stress axis : x y z
#
# Youngs Moduli (GPa) = 93.32616 78.43131 159.26961
#
# Poissons Ratio (x) = -0.04151 0.08248
# Poissons Ratio (y) = -0.04939 0.13018
# Poissons Ratio (z) = 0.04833 0.06411
#
# Static dielectric constant tensor:
#      x y z
#    x 1.992940 0.000000 0.000000 
#    y 0.000000 2.121470 0.000000 
#    z 0.000000 0.000000 2.149460 
# 
# From -- ./inp_files/10870.got.cif
#   From: 2010.05.17/outbox.cif.g08.bks.cpg/sg36_6_cif.got.tgz:10870.got - 2010.06.03 17:41:39.
