data_PCOD9350391
_publ_section_title
;
Structure prediction by ZEFSAII (Michael W. Deem and Ramdas Pophale) SiO2 
 PCOD9350391
Probable space group: C M M 2
;
_chemical_formula_sum "Si O2"
_cell_formula_units_Z 64
_cell_length_a 8.714468
_cell_length_b 30.144623
_cell_length_c 12.505403
_cell_angle_alpha 90.000000
_cell_angle_beta 90.000000
_cell_angle_gamma 90.000000
_cell_volume 3285.098744
_symmetry_space_group_name_H-M "C M M 2"
_symmetry_group_IT_number 35
_symmetry_cell_setting 'orthorhombic'
loop_
_space_group_symop_operation_xyz
x,y,z
-x,-y,z
-x,y,z
x,-y,z
1/2+x,1/2+y,z
1/2-x,1/2-y,z
1/2-x,1/2+y,z
1/2+x,1/2-y,z
loop_
_atom_site_type_symbol
_atom_site_label
_atom_site_fract_x
_atom_site_fract_y
_atom_site_fract_z
Si Si1 0.676050 0.330758 0.827140
Si Si2 0.823195 0.067877 0.754273
Si Si3 0.814897 0.549093 0.521577
Si Si4 0.318071 0.854019 0.045971
Si Si5 0.183447 0.358985 0.432715
Si Si6 0.184019 0.795869 0.604466
Si Si7 0.317670 0.700279 0.242274
Si Si8 0.184699 0.548177 0.982459
O O1 0.500000 0.321770 0.860832
O O2 0.678066 0.379269 0.772501
O O3 0.720273 0.299040 0.730264
O O4 0.782620 0.332934 0.930109
O O5 0.748083 0.055913 0.641568
O O6 0.737511 0.049906 0.859018
O O7 0.000000 0.053259 0.754860
O O8 0.769121 0.500000 0.484038
O O9 0.766892 0.589762 0.445670
O O10 0.000000 0.550720 0.527684
O O11 0.500000 0.854024 0.066783
O O12 0.235148 0.825058 0.135181
O O13 0.263194 0.905721 0.037754
O O14 0.234066 0.335279 0.542016
O O15 0.259146 0.330603 0.338963
O O16 0.000000 0.357411 0.419949
O O17 0.250000 0.750000 0.560216
O O18 0.000000 0.798649 0.591799
O O19 0.500000 0.703719 0.246530
O O20 0.250000 0.750000 0.247779
O O21 0.234503 0.500000 0.027180
O O22 0.000000 0.549483 0.985090
#
# Coordination Sequence:
#
# PCOD9350391 Si02
#       8
#     8   8   8   8   8   8   8   8
#     4   9  19  35  54  80 121 163 197 240 295 351
#     4  10  18  30  50  80 118 161 204 246 290 339
#     4  10  21  36  56  84 119 159 200 242 290 347
#     4  10  21  38  62  90 120 155 200 248 296 349
#     4  11  23  41  64  88 118 154 198 247 296 351
#     4  11  22  37  57  85 120 157 196 240 295 359
#     4  12  26  46  70  91 115 148 194 248 303 361
#     4   9  18  33  54  83 121 164 205 242 285 343
#
# _framework density 19.481911
#
# number of rings (size 3 to 8) (size 9 to 14) (size 15 to 20)
#    0.000    1.750    1.250    3.375    0.000    5.000 
#    0.000    1.875    0.000    3.750    0.000    0.000 
#    0.000    0.000    0.000    0.000    0.000    0.000 
#
# Total GULP energy -178640.450231 kJ/mol
# GULP energy per Si atom -5582.514070 kJ/mol
# Density = 1.943757 g / cm^3
# Si number density = 19.481911 Si / 1000 Ang^3
#
#
#
# Elastic Constant Matrix: (Units=GPa)
#
#
# Indices 1 2 3 4 5 6 
#
# 1 62.4281 51.0647 42.0200 0.0000 0.0000 0.0000
# 2 51.0647 160.1214 64.7582 0.0000 0.0000 0.0000
# 3 42.0200 64.7582 76.6840 0.0000 0.0000 0.0000
# 4 0.0000 0.0000 0.0000 14.0759 0.0000 0.0000
# 5 0.0000 0.0000 0.0000 0.0000 24.5934 0.0000
# 6 0.0000 0.0000 0.0000 0.0000 0.0000 18.6563
#
#
#
# Elastic Compliance Matrix: (Units=1/GPa)
#
#
# Indices 1 2 3 4 5 6 
#
# 1 0.026954 -0.003983 -0.011406 0.000000 0.000000 0.000000
# 2 -0.003983 0.010073 -0.006324 0.000000 0.000000 0.000000
# 3 -0.011406 -0.006324 0.024631 0.000000 0.000000 0.000000
# 4 0.000000 0.000000 0.000000 0.071043 0.000000 0.000000
# 5 0.000000 0.000000 0.000000 0.000000 0.040661 0.000000
# 6 0.000000 0.000000 0.000000 0.000000 0.000000 0.053601
#
#
# Mechanical properties :
#
#
# Convention : Reuss Voigt Hill
#
# Bulk Modulus (GPa) = 54.84914 68.32435 61.58674
# Shear Modulus (GPa) = 18.08531 20.89118 19.48824
#
# Velocity S-wave (km/s) = 3.05013 3.27821 3.16622
# Velocity P-wave (km/s) = 6.37333 7.03389 6.71174
#
# Compressibility (1/GPa) = 0.01823183
#
# Stress axis : x y z
#
# Youngs Moduli (GPa) = 37.10050 99.27428 40.59867
#
# Poissons Ratio (x) = 0.39539 0.46308
# Poissons Ratio (y) = 0.14777 0.25675
# Poissons Ratio (z) = 0.42318 0.62782
#
# Static dielectric constant tensor:
#      x y z
#    x 1.669110 0.000000 0.000000 
#    y 0.000000 1.778720 0.000000 
#    z 0.000000 0.000000 1.657830 
# 
# From -- ./inp_files/11897.got.cif
#   From: 2010.05.17/outbox.cif.g08.bks.cpg/sg35_6_cif.got.tgz:11897.got - 2010.06.03 17:29:28.
