data_PCOD9350618
_publ_section_title
;
Structure prediction by ZEFSAII (Michael W. Deem and Ramdas Pophale) SiO2 
 PCOD9350618
Probable space group: C M C 21
;
_chemical_formula_sum "Si O2"
_cell_formula_units_Z 40
_cell_length_a 8.035222
_cell_length_b 29.792891
_cell_length_c 7.150444
_cell_angle_alpha 90.000000
_cell_angle_beta 90.000000
_cell_angle_gamma 90.000000
_cell_volume 1711.762617
_symmetry_space_group_name_H-M "C M C 21"
_symmetry_group_IT_number 36
_symmetry_cell_setting 'orthorhombic'
loop_
_space_group_symop_operation_xyz
x,y,z
-x,-y,1/2+z
x,-y,1/2+z
-x,y,z
1/2+x,1/2+y,z
1/2-x,1/2-y,1/2+z
1/2+x,1/2-y,1/2+z
1/2-x,1/2+y,z
loop_
_atom_site_type_symbol
_atom_site_label
_atom_site_fract_x
_atom_site_fract_y
_atom_site_fract_z
Si Si1 0.688283 0.907159 0.388350
Si Si2 0.199975 0.309815 0.436387
Si Si3 0.811056 0.212064 0.534954
Si Si4 0.317916 0.879591 0.943298
Si Si5 0.000000 0.037030 0.820297
Si Si6 0.000000 0.065671 0.389180
O O1 0.500000 0.922412 0.431203
O O2 0.727705 0.860797 0.498180
O O3 0.685458 0.892559 0.166578
O O4 0.832435 0.943514 0.413601
O O5 0.242965 0.264009 0.543315
O O6 0.302463 0.304026 0.247109
O O7 0.000000 0.308091 0.398459
O O8 0.704950 0.174371 0.428550
O O9 0.000000 0.209741 0.464121
O O10 0.500000 0.892300 0.872495
O O11 0.165629 0.905981 0.853365
O O12 0.000000 0.056685 0.611936
O O13 0.000000 0.983702 0.804433
#
# Coordination Sequence:
#
# PCOD9350618 Si02
#       6
#     8   8   8   8   4   4
#     4   8  16  32  51  72 100 133 170 206 247 305
#     4   9  19  32  48  75 106 136 174 214 252 305
#     4  10  18  31  51  75 105 138 174 214 252 303
#     4   9  17  32  53  74 101 136 171 208 252 307
#     4  10  20  34  56  76  98 130 172 214 257 302
#     4  10  20  36  54  78 100 130 174 216 257 310
#
# _framework density 23.367723999999999
#
# number of rings (size 3 to 8) (size 9 to 14) (size 15 to 20)
#    0.000    2.800    1.000    1.800    4.200    2.400 
#    0.000    2.000    0.000    2.400    0.000    0.000 
#    0.000    0.000    0.000    0.000    0.000    0.000 
#
# Total GULP energy -111655.600259 kJ/mol
# GULP energy per Si atom -5582.780013 kJ/mol
# Density = 2.331454 g / cm^3
# Si number density = 23.367724 Si / 1000 Ang^3
#
#
#
# Elastic Constant Matrix: (Units=GPa)
#
#
# Indices 1 2 3 4 5 6 
#
# 1 154.6028 110.2712 27.9313 0.0000 0.0000 0.0000
# 2 110.2712 152.7826 20.6413 0.0000 0.0000 0.0000
# 3 27.9313 20.6413 41.6180 0.0000 0.0000 0.0000
# 4 0.0000 0.0000 0.0000 33.0660 0.0000 0.0000
# 5 0.0000 0.0000 0.0000 0.0000 -0.2466 0.0000
# 6 0.0000 0.0000 0.0000 0.0000 0.0000 22.8229
#
#
#
# Elastic Compliance Matrix: (Units=1/GPa)
#
#
# Indices 1 2 3 4 5 6 
#
# 1 0.014156 -0.009575 -0.004752 0.000000 0.000000 0.000000
# 2 -0.009575 0.013492 -0.000265 0.000000 0.000000 0.000000
# 3 -0.004752 -0.000265 0.027349 0.000000 0.000000 0.000000
# 4 0.000000 0.000000 0.000000 0.030243 0.000000 0.000000
# 5 0.000000 0.000000 0.000000 0.000000 -4.054620 0.000000
# 6 0.000000 0.000000 0.000000 0.000000 0.000000 0.043816
#
#
# Mechanical properties :
#
#
# Convention : Reuss Voigt Hill
#
# Bulk Modulus (GPa) = 38.74116 74.07677 56.40897
# Shear Modulus (GPa) = -1.28608 23.80575 11.25984
#
# Velocity S-wave (km/s) = -0.74267 3.19524 2.19750
# Velocity P-wave (km/s) = 3.98491 6.73662 5.53451
#
# Compressibility (1/GPa) = 0.02581234
#
# Stress axis : x y z
#
# Youngs Moduli (GPa) = 70.63963 74.11708 36.56482
#
# Poissons Ratio (x) = 0.70970 0.17374
# Poissons Ratio (y) = 0.67640 0.00970
# Poissons Ratio (z) = 0.33566 0.01967
#
# Static dielectric constant tensor:
#      x y z
#    x 1.823040 0.000000 0.000000 
#    y 0.000000 1.892650 0.000000 
#    z 0.000000 0.000000 1.969940 
# 
# From -- ./inp_files/2459.got.cif
#   From: 2010.05.17/outbox.cif.g08.bks.cpg/sg36_2_cif.got.tgz:2459.got - 2010.06.03 17:41:39.
