data_PCOD9350747
_publ_section_title
;
Structure prediction by ZEFSAII (Michael W. Deem and Ramdas Pophale) SiO2 
 PCOD9350747
Probable space group: C M C 21
;
_chemical_formula_sum "Si O2"
_cell_formula_units_Z 64
_cell_length_a 8.524280
_cell_length_b 20.785213
_cell_length_c 20.357804
_cell_angle_alpha 90.000000
_cell_angle_beta 90.000000
_cell_angle_gamma 90.000000
_cell_volume 3606.974856
_symmetry_space_group_name_H-M "C M C 21"
_symmetry_group_IT_number 36
_symmetry_cell_setting 'orthorhombic'
loop_
_space_group_symop_operation_xyz
x,y,z
-x,-y,1/2+z
x,-y,1/2+z
-x,y,z
1/2+x,1/2+y,z
1/2-x,1/2-y,1/2+z
1/2+x,1/2-y,1/2+z
1/2-x,1/2+y,z
loop_
_atom_site_type_symbol
_atom_site_label
_atom_site_fract_x
_atom_site_fract_y
_atom_site_fract_z
Si Si1 0.311613 0.305804 0.877520
Si Si2 0.190299 0.523527 0.859577
Si Si3 0.310976 0.794032 0.196490
Si Si4 0.810594 0.581671 0.465164
Si Si5 0.813353 0.021847 0.217784
Si Si6 0.689992 0.082907 0.615290
Si Si7 0.190119 0.666662 0.844593
Si Si8 0.313596 0.159962 0.232712
O O1 0.500000 0.307646 0.878276
O O2 0.245711 0.351867 0.933270
O O3 0.258617 0.231284 0.881801
O O4 0.255632 0.330970 0.806225
O O5 0.243074 0.475667 0.917037
O O6 0.246711 0.498882 0.788866
O O7 0.244544 0.597192 0.868672
O O8 0.000000 0.523052 0.858639
O O9 0.500000 0.786696 0.195745
O O10 0.265047 0.846564 0.142577
O O11 0.267712 0.823203 0.268026
O O12 0.235987 0.723673 0.192952
O O13 0.758780 0.574001 0.540221
O O14 0.000000 0.581444 0.464956
O O15 0.752518 0.093784 0.204023
O O16 0.000000 0.021921 0.220809
O O17 0.755624 0.971269 0.163625
O O18 0.500000 0.079556 0.618210
O O19 0.000000 0.665901 0.847103
O O20 0.500000 0.155972 0.237559
#
# Coordination Sequence:
#
# PCOD9350747 Si02
#       8
#     8   8   8   8   8   8   8   8
#     4  10  19  33  53  79 111 146 183 228 282 334
#     4  10  18  34  57  82 112 149 189 231 281 334
#     4   9  17  33  55  78 108 145 185 229 281 334
#     4  10  21  35  57  84 112 152 194 230 278 346
#     4  12  23  35  55  85 114 147 193 238 288 339
#     4  10  21  39  58  80 115 157 194 231 285 345
#     4   8  15  29  52  78 103 139 180 220 273 325
#     4  11  21  34  55  82 111 141 184 237 286 335
#
# _framework density 17.743402
#
# number of rings (size 3 to 8) (size 9 to 14) (size 15 to 20)
#    0.000    2.000    2.500    3.375    0.000    1.000 
#    0.000    1.875    0.000    1.500    0.000    0.000 
#    0.000    0.000    0.000    0.000    0.000    0.000 
#
# Total GULP energy -178578.110888 kJ/mol
# GULP energy per Si atom -5580.565965 kJ/mol
# Density = 1.770302 g / cm^3
# Si number density = 17.743402 Si / 1000 Ang^3
#
#
#
# Elastic Constant Matrix: (Units=GPa)
#
#
# Indices 1 2 3 4 5 6 
#
# 1 22.8813 25.3343 23.0872 0.0000 0.0000 0.0000
# 2 25.3343 169.7484 80.3747 0.0000 0.0000 0.0000
# 3 23.0872 80.3747 117.2870 0.0000 0.0000 0.0000
# 4 0.0000 0.0000 0.0000 25.8026 0.0000 0.0000
# 5 0.0000 0.0000 0.0000 0.0000 15.0464 0.0000
# 6 0.0000 0.0000 0.0000 0.0000 0.0000 25.6833
#
#
#
# Elastic Compliance Matrix: (Units=1/GPa)
#
#
# Indices 1 2 3 4 5 6 
#
# 1 0.056988 -0.004728 -0.007978 0.000000 0.000000 0.000000
# 2 -0.004728 0.009113 -0.005314 0.000000 0.000000 0.000000
# 3 -0.007978 -0.005314 0.013738 0.000000 0.000000 0.000000
# 4 0.000000 0.000000 0.000000 0.038756 0.000000 0.000000
# 5 0.000000 0.000000 0.000000 0.000000 0.066461 0.000000
# 6 0.000000 0.000000 0.000000 0.000000 0.000000 0.038936
#
#
# Mechanical properties :
#
#
# Convention : Reuss Voigt Hill
#
# Bulk Modulus (GPa) = 22.83132 63.05655 42.94393
# Shear Modulus (GPa) = 18.20617 25.38115 21.79366
#
# Velocity S-wave (km/s) = 3.20673 3.78624 3.50847
# Velocity P-wave (km/s) = 5.15812 7.39793 6.37713
#
# Compressibility (1/GPa) = 0.04379949
#
# Stress axis : x y z
#
# Youngs Moduli (GPa) = 17.54748 109.73358 72.78922
#
# Poissons Ratio (x) = 0.51880 0.58070
# Poissons Ratio (y) = 0.08296 0.38683
# Poissons Ratio (z) = 0.13999 0.58316
#
# Static dielectric constant tensor:
#      x y z
#    x 1.603350 0.000000 0.000000 
#    y 0.000000 1.622310 0.000000 
#    z 0.000000 0.000000 1.578160 
# 
# From -- ./inp_files/13851.got.cif
#   From: 2010.05.17/outbox.cif.g08.bks.cpg/sg36_7_cif.got.tgz:13851.got - 2010.06.03 17:41:39.
