data_PCOD9350726
_publ_section_title
;
Structure prediction by ZEFSAII (Michael W. Deem and Ramdas Pophale) SiO2 
 PCOD9350726
Probable space group: C M C 21
;
_chemical_formula_sum "Si O2"
_cell_formula_units_Z 64
_cell_length_a 7.541417
_cell_length_b 15.891980
_cell_length_c 24.202225
_cell_angle_alpha 90.000000
_cell_angle_beta 90.000000
_cell_angle_gamma 90.000000
_cell_volume 2900.589427
_symmetry_space_group_name_H-M "C M C 21"
_symmetry_group_IT_number 36
_symmetry_cell_setting 'orthorhombic'
loop_
_space_group_symop_operation_xyz
x,y,z
-x,-y,1/2+z
x,-y,1/2+z
-x,y,z
1/2+x,1/2+y,z
1/2-x,1/2-y,1/2+z
1/2+x,1/2-y,1/2+z
1/2-x,1/2+y,z
loop_
_atom_site_type_symbol
_atom_site_label
_atom_site_fract_x
_atom_site_fract_y
_atom_site_fract_z
Si Si1 0.214263 0.637293 0.204640
Si Si2 0.796538 0.390244 0.341733
Si Si3 0.712737 0.257060 0.523026
Si Si4 0.282310 0.074373 0.323151
Si Si5 0.213643 0.897630 0.103140
Si Si6 0.785111 0.166915 0.720084
Si Si7 0.706483 0.578061 0.082240
Si Si8 0.204348 0.722587 0.402260
O O1 0.273086 0.587987 0.259554
O O2 0.263220 0.735190 0.212343
O O3 0.284318 0.602872 0.146854
O O4 0.000000 0.633525 0.201737
O O5 0.723969 0.484646 0.347065
O O6 0.788634 0.368796 0.276801
O O7 0.706839 0.313748 0.373636
O O8 0.000000 0.390716 0.360429
O O9 0.500000 0.266720 0.517642
O O10 0.743978 0.183448 0.566873
O O11 0.784265 0.345273 0.546849
O O12 0.784761 0.231405 0.463078
O O13 0.500000 0.074012 0.321827
O O14 0.220983 0.152589 0.360578
O O15 0.275084 0.883267 0.165928
O O16 0.000000 0.903631 0.106048
O O17 0.283744 0.984539 0.077745
O O18 0.000000 0.163317 0.723716
O O19 0.500000 0.571987 0.066403
O O20 0.000000 0.696708 0.410029
#
# Coordination Sequence:
#
# PCOD9350726 Si02
#       8
#     8   8   8   8   8   8   8   8
#     4  10  18  33  58  82 106 147 187 216 264 334
#     4  11  22  35  56  86 111 136 177 232 279 316
#     4  10  22  38  58  81 107 146 191 231 274 322
#     4   9  19  36  56  78 108 142 179 223 270 325
#     4  10  21  37  57  81 114 149 180 223 279 331
#     4  10  19  34  57  82 110 149 182 211 271 342
#     4  10  21  36  54  83 117 143 175 230 284 323
#     4  10  21  41  60  75 107 152 189 224 273 335
#
# _framework density 22.064478999999999
#
# number of rings (size 3 to 8) (size 9 to 14) (size 15 to 20)
#    0.000    2.000    2.500    1.125    0.000    3.000 
#    0.000    1.875    0.000    0.000    0.000    0.000 
#    0.000    0.000    0.000    0.000    0.000    0.000 
#
# Total GULP energy -178814.167665 kJ/mol
# GULP energy per Si atom -5587.942740 kJ/mol
# Density = 2.201426 g / cm^3
# Si number density = 22.064479 Si / 1000 Ang^3
#
#
#
# Elastic Constant Matrix: (Units=GPa)
#
#
# Indices 1 2 3 4 5 6 
#
# 1 50.7713 -8.4460 -14.5801 0.0000 0.0000 0.0000
# 2 -8.4460 85.9578 -14.9151 0.0000 0.0000 0.0000
# 3 -14.5801 -14.9151 68.1945 0.0000 0.0000 0.0000
# 4 0.0000 0.0000 0.0000 1.7186 0.0000 0.0000
# 5 0.0000 0.0000 0.0000 0.0000 14.3214 0.0000
# 6 0.0000 0.0000 0.0000 0.0000 0.0000 -53.5915
#
#
#
# Elastic Compliance Matrix: (Units=1/GPa)
#
#
# Indices 1 2 3 4 5 6 
#
# 1 0.021731 0.003057 0.005315 0.000000 0.000000 0.000000
# 2 0.003057 0.012523 0.003393 0.000000 0.000000 0.000000
# 3 0.005315 0.003393 0.016542 0.000000 0.000000 0.000000
# 4 0.000000 0.000000 0.000000 0.581885 0.000000 0.000000
# 5 0.000000 0.000000 0.000000 0.000000 0.069825 0.000000
# 6 0.000000 0.000000 0.000000 0.000000 0.000000 -0.018660
#
#
# Mechanical properties :
#
#
# Convention : Reuss Voigt Hill
#
# Bulk Modulus (GPa) = 13.45428 14.33791 13.89610
# Shear Modulus (GPa) = 7.29829 8.68068 7.98948
#
# Velocity S-wave (km/s) = 1.82068 1.98564 1.90495
# Velocity P-wave (km/s) = 3.24512 3.43065 3.33917
#
# Compressibility (1/GPa) = 0.07432579
#
# Stress axis : x y z
#
# Youngs Moduli (GPa) = 46.01710 79.85501 60.45120
#
# Poissons Ratio (x) = -0.24415 -0.32129
# Poissons Ratio (y) = -0.14069 -0.20509
# Poissons Ratio (z) = -0.24457 -0.27091
#
# Static dielectric constant tensor:
#      x y z
#    x 1.841410 0.000000 0.000000 
#    y 0.000000 1.804740 0.000000 
#    z 0.000000 0.000000 1.769410 
# 
# From -- ./inp_files/16581.got.cif
#   From: 2010.05.17/outbox.cif.g08.bks.cpg/sg36_9_cif.got.tgz:16581.got - 2010.06.03 17:41:39.
