data_PCOD9350529
_publ_section_title
;
Structure prediction by ZEFSAII (Michael W. Deem and Ramdas Pophale) SiO2 
 PCOD9350529
Probable space group: C M C 21
;
_chemical_formula_sum "Si O2"
_cell_formula_units_Z 64
_cell_length_a 19.243534
_cell_length_b 26.294380
_cell_length_c 8.276610
_cell_angle_alpha 90.000000
_cell_angle_beta 90.000000
_cell_angle_gamma 90.000000
_cell_volume 4187.938138
_symmetry_space_group_name_H-M "C M C 21"
_symmetry_group_IT_number 36
_symmetry_cell_setting 'orthorhombic'
loop_
_space_group_symop_operation_xyz
x,y,z
-x,-y,1/2+z
x,-y,1/2+z
-x,y,z
1/2+x,1/2+y,z
1/2-x,1/2-y,1/2+z
1/2+x,1/2-y,1/2+z
1/2-x,1/2+y,z
loop_
_atom_site_type_symbol
_atom_site_label
_atom_site_fract_x
_atom_site_fract_y
_atom_site_fract_z
Si Si1 0.581681 0.267323 0.327130
Si Si2 0.081957 0.716859 0.663333
Si Si3 0.676455 0.874714 0.035065
Si Si4 0.307069 0.235236 0.914118
Si Si5 0.654542 0.833346 0.688607
Si Si6 0.917232 0.459959 0.159364
Si Si7 0.418476 0.929549 0.531384
Si Si8 0.705654 0.316813 0.168209
O O1 0.500000 0.275997 0.301959
O O2 0.594051 0.257384 0.518501
O O3 0.604376 0.213424 0.244768
O O4 0.630397 0.311361 0.251639
O O5 0.121684 0.665927 0.609114
O O6 0.117717 0.732133 0.830573
O O7 0.000000 0.708244 0.677565
O O8 0.686364 0.857428 0.850300
O O9 0.636021 0.927616 0.051242
O O10 0.747787 0.866887 0.136826
O O11 0.252153 0.220652 0.778694
O O12 0.297939 0.193834 0.055639
O O13 0.298427 0.289458 0.995269
O O14 0.618607 0.879701 0.595962
O O15 0.905223 0.442464 0.343598
O O16 0.000000 0.451453 0.120081
O O17 0.903405 0.519574 0.133603
O O18 0.500000 0.919830 0.546816
#
# Coordination Sequence:
#
# PCOD9350529 Si02
#       8
#     8   8   8   8   8   8   8   8
#     4   9  18  30  44  62  84 111 144 180 216 257
#     4   9  17  28  42  60  83 110 142 179 213 248
#     4  10  19  30  43  60  83 113 147 183 214 250
#     4  10  18  28  42  60  82 110 144 179 213 251
#     4  10  19  29  44  63  85 113 146 178 212 251
#     4  10  20  32  45  62  85 114 148 182 215 249
#     4  10  19  30  44  62  85 114 146 181 216 248
#     4  10  18  29  43  59  81 109 143 180 216 254
#
# _framework density 15.281981999999999
#
# number of rings (size 3 to 8) (size 9 to 14) (size 15 to 20)
#    0.000    2.250    0.000    6.000    0.000    6.000 
#    0.000    0.000    0.000    0.000    0.000    0.000 
#    0.000    0.000    0.000   10.125    0.000    8.125 
#
# Total GULP energy -178246.454995 kJ/mol
# GULP energy per Si atom -5570.201719 kJ/mol
# Density = 1.524720 g / cm^3
# Si number density = 15.281982 Si / 1000 Ang^3
#
#
#
# Elastic Constant Matrix: (Units=GPa)
#
#
# Indices 1 2 3 4 5 6 
#
# 1 53.3676 19.8706 14.4961 0.0000 0.0000 0.0000
# 2 19.8706 47.8430 15.0279 0.0000 0.0000 0.0000
# 3 14.4961 15.0279 48.4854 0.0000 0.0000 0.0000
# 4 0.0000 0.0000 0.0000 22.5623 0.0000 0.0000
# 5 0.0000 0.0000 0.0000 0.0000 23.9338 0.0000
# 6 0.0000 0.0000 0.0000 0.0000 0.0000 22.0542
#
#
#
# Elastic Compliance Matrix: (Units=1/GPa)
#
#
# Indices 1 2 3 4 5 6 
#
# 1 0.022958 -0.008175 -0.004330 0.000000 0.000000 0.000000
# 2 -0.008175 0.026067 -0.005635 0.000000 0.000000 0.000000
# 3 -0.004330 -0.005635 0.023666 0.000000 0.000000 0.000000
# 4 0.000000 0.000000 0.000000 0.044322 0.000000 0.000000
# 5 0.000000 0.000000 0.000000 0.000000 0.041782 0.000000
# 6 0.000000 0.000000 0.000000 0.000000 0.000000 0.045343
#
#
# Mechanical properties :
#
#
# Convention : Reuss Voigt Hill
#
# Bulk Modulus (GPa) = 27.46474 27.60946 27.53710
# Shear Modulus (GPa) = 19.79768 20.39684 20.09726
#
# Velocity S-wave (km/s) = 3.60320 3.65732 3.63036
# Velocity P-wave (km/s) = 5.94321 5.99504 5.96918
#
# Compressibility (1/GPa) = 0.03641032
#
# Stress axis : x y z
#
# Youngs Moduli (GPa) = 43.55789 38.36253 42.25476
#
# Poissons Ratio (x) = 0.31361 0.18297
# Poissons Ratio (y) = 0.35609 0.23812
# Poissons Ratio (z) = 0.18861 0.21618
#
# Static dielectric constant tensor:
#      x y z
#    x 1.525520 0.000000 0.000000 
#    y 0.000000 1.504670 0.000000 
#    z 0.000000 0.000000 1.566400 
# 
# From -- ./inp_files/4999.got.cif
#   From: 2010.05.17/outbox.cif.g08.bks.cpg/sg36_3_cif.got.tgz:4999.got - 2010.06.03 17:41:39.
