data_PCOD9350401
_publ_section_title
;
Structure prediction by ZEFSAII (Michael W. Deem and Ramdas Pophale) SiO2 
 PCOD9350401
Probable space group: C M M 2
;
_chemical_formula_sum "Si O2"
_cell_formula_units_Z 64
_cell_length_a 8.865222
_cell_length_b 28.030105
_cell_length_c 13.395382
_cell_angle_alpha 90.000000
_cell_angle_beta 90.000000
_cell_angle_gamma 90.000000
_cell_volume 3328.660046
_symmetry_space_group_name_H-M "C M M 2"
_symmetry_group_IT_number 35
_symmetry_cell_setting 'orthorhombic'
loop_
_space_group_symop_operation_xyz
x,y,z
-x,-y,z
-x,y,z
x,-y,z
1/2+x,1/2+y,z
1/2-x,1/2-y,z
1/2-x,1/2+y,z
1/2+x,1/2-y,z
loop_
_atom_site_type_symbol
_atom_site_label
_atom_site_fract_x
_atom_site_fract_y
_atom_site_fract_z
Si Si1 0.320379 0.197996 0.295040
Si Si2 0.180435 0.602742 0.194290
Si Si3 0.821785 0.397373 0.806163
Si Si4 0.173666 0.942234 0.611808
Si Si5 0.819676 0.944870 0.999938
Si Si6 0.180883 0.196409 0.500008
Si Si7 0.179778 0.302025 0.704993
Si Si8 0.175485 0.442411 0.403879
O O1 0.500000 0.202902 0.310074
O O2 0.250000 0.250000 0.275899
O O3 0.292537 0.159117 0.209654
O O4 0.247688 0.177090 0.396861
O O5 0.258748 0.580920 0.098454
O O6 0.229680 0.577441 0.297601
O O7 0.000000 0.595442 0.185889
O O8 0.768301 0.422784 0.704491
O O9 0.793731 0.340930 0.790446
O O10 0.000000 0.404391 0.818018
O O11 0.738270 0.418986 0.900760
O O12 0.234627 0.927608 0.502827
O O13 0.000000 0.927121 0.622495
O O14 0.179425 0.000000 0.614894
O O15 0.000000 0.944288 0.000619
O O16 0.768451 0.000000 0.999351
O O17 0.250000 0.250000 0.500414
O O18 0.243803 0.177166 0.604229
O O19 0.000000 0.196855 0.498651
O O20 0.250000 0.250000 0.724855
O O21 0.000000 0.297188 0.688353
O O22 0.180629 0.500000 0.399106
O O23 0.000000 0.427858 0.415952
#
# Coordination Sequence:
#
# PCOD9350401 Si02
#       8
#     8   8   8   8   8   8   8   8
#     4  10  20  35  55  83 120 159 202 248 292 344
#     4  10  22  39  62  88 116 154 202 248 293 352
#     4  11  24  40  62  88 116 154 201 245 291 353
#     4  10  21  36  55  84 121 155 191 240 297 355
#     4  11  25  44  66  92 120 150 191 246 302 358
#     4  10  18  30  51  79 114 157 198 238 288 343
#     4  10  21  37  57  84 118 155 198 245 292 346
#     4   9  18  34  56  83 115 151 191 237 294 357
#
# _framework density 19.226956000000001
#
# number of rings (size 3 to 8) (size 9 to 14) (size 15 to 20)
#    0.000    1.875    0.000    5.250    1.750    7.250 
#    0.000    1.875    0.000    0.000    0.000    0.000 
#    0.000    0.000    0.000    0.000    0.000    0.000 
#
# Total GULP energy -178780.822155 kJ/mol
# GULP energy per Si atom -5586.900692 kJ/mol
# Density = 1.918319 g / cm^3
# Si number density = 19.226956 Si / 1000 Ang^3
#
#
#
# Elastic Constant Matrix: (Units=GPa)
#
#
# Indices 1 2 3 4 5 6 
#
# 1 89.3488 58.1833 53.5613 0.0000 0.0000 0.0000
# 2 58.1833 97.7339 72.1062 0.0000 0.0000 0.0000
# 3 53.5613 72.1062 141.5078 0.0000 0.0000 0.0000
# 4 0.0000 0.0000 0.0000 29.5086 0.0000 0.0000
# 5 0.0000 0.0000 0.0000 0.0000 27.1558 0.0000
# 6 0.0000 0.0000 0.0000 0.0000 0.0000 25.2298
#
#
#
# Elastic Compliance Matrix: (Units=1/GPa)
#
#
# Indices 1 2 3 4 5 6 
#
# 1 0.018716 -0.009479 -0.002254 0.000000 0.000000 0.000000
# 2 -0.009479 0.021197 -0.007213 0.000000 0.000000 0.000000
# 3 -0.002254 -0.007213 0.011595 0.000000 0.000000 0.000000
# 4 0.000000 0.000000 0.000000 0.033888 0.000000 0.000000
# 5 0.000000 0.000000 0.000000 0.000000 0.036825 0.000000
# 6 0.000000 0.000000 0.000000 0.000000 0.000000 0.039636
#
#
# Mechanical properties :
#
#
# Convention : Reuss Voigt Hill
#
# Bulk Modulus (GPa) = 73.44415 77.36579 75.40497
# Shear Modulus (GPa) = 24.47535 26.02817 25.25176
#
# Velocity S-wave (km/s) = 3.57174 3.68330 3.62795
# Velocity P-wave (km/s) = 7.43581 7.64294 7.54008
#
# Compressibility (1/GPa) = 0.01361579
#
# Stress axis : x y z
#
# Youngs Moduli (GPa) = 53.43022 47.17729 86.24199
#
# Poissons Ratio (x) = 0.44720 0.19438
# Poissons Ratio (y) = 0.50648 0.62206
# Poissons Ratio (z) = 0.12043 0.34029
#
# Static dielectric constant tensor:
#      x y z
#    x 1.648150 0.000000 0.000000 
#    y 0.000000 1.725420 0.000000 
#    z 0.000000 0.000000 1.648230 
# 
# From -- ./inp_files/12024.got.cif
#   From: 2010.05.17/outbox.cif.g08.bks.cpg/sg35_7_cif.got.tgz:12024.got - 2010.06.03 17:29:28.
