data_PCOD9350371
_publ_section_title
;
Structure prediction by ZEFSAII (Michael W. Deem and Ramdas Pophale) SiO2 
 PCOD9350371
Probable space group: C M M 2
;
_chemical_formula_sum "Si O2"
_cell_formula_units_Z 64
_cell_length_a 20.107678
_cell_length_b 17.133088
_cell_length_c 10.540947
_cell_angle_alpha 90.000000
_cell_angle_beta 90.000000
_cell_angle_gamma 90.000000
_cell_volume 3631.425987
_symmetry_space_group_name_H-M "C M M 2"
_symmetry_group_IT_number 35
_symmetry_cell_setting 'orthorhombic'
loop_
_space_group_symop_operation_xyz
x,y,z
-x,-y,z
-x,y,z
x,-y,z
1/2+x,1/2+y,z
1/2-x,1/2-y,z
1/2-x,1/2+y,z
1/2+x,1/2-y,z
loop_
_atom_site_type_symbol
_atom_site_label
_atom_site_fract_x
_atom_site_fract_y
_atom_site_fract_z
Si Si1 0.357557 0.594197 0.170560
Si Si2 0.071679 0.590710 0.248687
Si Si3 0.923157 0.904907 0.904607
Si Si4 0.923964 0.837377 0.419603
Si Si5 0.780465 0.336770 0.554992
Si Si6 0.714943 0.905541 0.270512
Si Si7 0.155207 0.907526 0.656038
Si Si8 0.427154 0.162088 0.513478
O O1 0.365369 0.500000 0.184364
O O2 0.395095 0.635547 0.286092
O O3 0.279445 0.612042 0.186748
O O4 0.388520 0.617701 0.036290
O O5 0.070276 0.500000 0.211860
O O6 0.144430 0.622269 0.212147
O O7 0.073528 0.597802 0.402223
O O8 0.000000 0.626142 0.209246
O O9 0.881262 0.878237 0.782695
O O10 0.000000 0.879583 0.898174
O O11 0.923334 0.000000 0.902352
O O12 0.880189 0.872018 0.532774
O O13 0.923234 0.744280 0.437907
O O14 0.000000 0.864434 0.432412
O O15 0.750000 0.250000 0.556302
O O16 0.775994 0.368607 0.410200
O O17 0.732489 0.386235 0.644946
O O18 0.858501 0.341164 0.590086
O O19 0.711655 0.000000 0.285653
O O20 0.147404 0.000000 0.650775
O O21 0.500000 0.159449 0.577650
#
# Coordination Sequence:
#
# PCOD9350371 Si02
#       8
#     8   8   8   8   8   8   8   8
#     4  10  18  30  47  71 102 138 173 205 243 289
#     4   8  14  25  42  65  96 131 163 201 253 306
#     4   9  19  34  49  68 100 138 171 204 244 296
#     4  11  20  30  48  76 105 133 164 203 253 304
#     4  11  18  30  48  70  99 133 164 203 253 297
#     4   9  16  26  44  70  97 122 159 207 249 293
#     4  11  21  33  50  74 100 132 170 208 250 298
#     4   9  18  30  45  72 104 134 164 204 257 307
#
# _framework density 17.623930999999999
#
# number of rings (size 3 to 8) (size 9 to 14) (size 15 to 20)
#    0.000    2.250    2.500    1.500    0.000    2.500 
#    0.000    0.000    0.000    3.750    0.000    0.875 
#    0.000    3.000    0.000    0.000    0.000    0.625 
#
# Total GULP energy -178232.701290 kJ/mol
# GULP energy per Si atom -5569.771915 kJ/mol
# Density = 1.758382 g / cm^3
# Si number density = 17.623931 Si / 1000 Ang^3
#
#
#
# Elastic Constant Matrix: (Units=GPa)
#
#
# Indices 1 2 3 4 5 6 
#
# 1 170.3908 4.9126 46.6198 0.0000 0.0000 0.0000
# 2 4.9126 20.4109 9.9304 0.0000 0.0000 0.0000
# 3 46.6198 9.9304 83.8600 0.0000 0.0000 0.0000
# 4 0.0000 0.0000 0.0000 -5.9271 0.0000 0.0000
# 5 0.0000 0.0000 0.0000 0.0000 15.6481 0.0000
# 6 0.0000 0.0000 0.0000 0.0000 0.0000 21.2589
#
#
#
# Elastic Compliance Matrix: (Units=1/GPa)
#
#
# Indices 1 2 3 4 5 6 
#
# 1 0.006923 0.000219 -0.003874 0.000000 0.000000 0.000000
# 2 0.000219 0.051996 -0.006279 0.000000 0.000000 0.000000
# 3 -0.003874 -0.006279 0.014822 0.000000 0.000000 0.000000
# 4 0.000000 0.000000 0.000000 -0.168715 0.000000 0.000000
# 5 0.000000 0.000000 0.000000 0.000000 0.063906 0.000000
# 6 0.000000 0.000000 0.000000 0.000000 0.000000 0.047039
#
#
# Mechanical properties :
#
#
# Convention : Reuss Voigt Hill
#
# Bulk Modulus (GPa) = 18.56267 44.17635 31.36951
# Shear Modulus (GPa) = 92.94492 20.40923 56.67707
#
# Velocity S-wave (km/s) = 7.26997 3.40669 5.67706
# Velocity P-wave (km/s) = 9.00141 6.37139 7.79808
#
# Compressibility (1/GPa) = 0.05387155
#
# Stress axis : x y z
#
# Youngs Moduli (GPa) = 144.45457 19.23241 67.46734
#
# Poissons Ratio (x) = -0.00421 0.26139
# Poissons Ratio (y) = -0.03161 0.42361
# Poissons Ratio (z) = 0.55967 0.12076
#
# Static dielectric constant tensor:
#      x y z
#    x 1.680040 0.000000 0.000000 
#    y 0.000000 1.617290 0.000000 
#    z 0.000000 0.000000 1.558410 
# 
# From -- ./inp_files/9442.got.cif
#   From: 2010.05.17/outbox.cif.g08.bks.cpg/sg35_5_cif.got.tgz:9442.got - 2010.06.03 17:29:28.
