data_PCOD9350857
_publ_section_title
;
Structure prediction by ZEFSAII (Michael W. Deem and Ramdas Pophale) SiO2 
 PCOD9350857
Probable space group: C M C 21
;
_chemical_formula_sum "Si O2"
_cell_formula_units_Z 64
_cell_length_a 7.600503
_cell_length_b 23.808435
_cell_length_c 16.922130
_cell_angle_alpha 90.000000
_cell_angle_beta 90.000000
_cell_angle_gamma 90.000000
_cell_volume 3062.162338
_symmetry_space_group_name_H-M "C M C 21"
_symmetry_group_IT_number 36
_symmetry_cell_setting 'orthorhombic'
loop_
_space_group_symop_operation_xyz
x,y,z
-x,-y,1/2+z
x,-y,1/2+z
-x,y,z
1/2+x,1/2+y,z
1/2-x,1/2-y,1/2+z
1/2+x,1/2-y,1/2+z
1/2-x,1/2+y,z
loop_
_atom_site_type_symbol
_atom_site_label
_atom_site_fract_x
_atom_site_fract_y
_atom_site_fract_z
Si Si1 0.283128 0.724880 0.802160
Si Si2 0.216307 0.962743 0.070108
Si Si3 0.795418 0.136035 0.676738
Si Si4 0.711832 0.611154 0.421388
Si Si5 0.290041 0.589921 0.088733
Si Si6 0.301237 0.677061 0.967913
Si Si7 0.707292 0.150450 0.253210
Si Si8 0.295068 0.287021 0.022629
O O1 0.500000 0.726937 0.800125
O O2 0.221717 0.673553 0.746935
O O3 0.226134 0.706373 0.889755
O O4 0.221793 0.786628 0.773381
O O5 0.277754 0.921681 0.140872
O O6 0.000000 0.960956 0.070872
O O7 0.274951 0.026079 0.085031
O O8 0.269198 0.936156 0.984828
O O9 0.790441 0.177520 0.602058
O O10 0.000000 0.124696 0.697356
O O11 0.500000 0.612426 0.426692
O O12 0.758523 0.610683 0.329420
O O13 0.776841 0.671091 0.455562
O O14 0.500000 0.587007 0.076861
O O15 0.266246 0.621489 0.172033
O O16 0.216294 0.626210 0.015437
O O17 0.500000 0.660287 0.946083
O O18 0.303883 0.728908 0.028673
O O19 0.500000 0.157369 0.245034
O O20 0.500000 0.274416 0.007440
#
# Coordination Sequence:
#
# PCOD9350857 Si02
#       8
#     8   8   8   8   8   8   8   8
#     4   9  17  29  46  73 104 132 167 207 254 313
#     4   8  16  33  53  75 102 133 173 216 258 305
#     4   8  14  27  49  74  97 125 165 210 249 295
#     4   9  17  32  55  80 104 132 171 217 259 304
#     4  10  21  36  52  76 108 139 177 220 261 305
#     4  10  19  31  47  71 107 138 163 206 256 307
#     4  11  21  34  54  78 106 137 175 216 265 321
#     4   9  16  28  50  75 100 130 165 204 250 306
#
# _framework density 20.900262999999999
#
# number of rings (size 3 to 8) (size 9 to 14) (size 15 to 20)
#    0.000    2.750    1.250    2.625    0.000    1.500 
#    2.250    0.625    0.000    0.750    0.000    0.000 
#    0.000    0.000    0.000    0.000    0.000    0.000 
#
# Total GULP energy -178290.578177 kJ/mol
# GULP energy per Si atom -5571.580568 kJ/mol
# Density = 2.085269 g / cm^3
# Si number density = 20.900263 Si / 1000 Ang^3
#
#
#
# Elastic Constant Matrix: (Units=GPa)
#
#
# Indices 1 2 3 4 5 6 
#
# 1 42.1893 9.1139 1.1555 0.0000 0.0000 0.0000
# 2 9.1139 179.8933 85.9248 0.0000 0.0000 0.0000
# 3 1.1555 85.9248 94.0103 0.0000 0.0000 0.0000
# 4 0.0000 0.0000 0.0000 25.1902 0.0000 0.0000
# 5 0.0000 0.0000 0.0000 0.0000 5.5721 0.0000
# 6 0.0000 0.0000 0.0000 0.0000 0.0000 1.7257
#
#
#
# Elastic Compliance Matrix: (Units=1/GPa)
#
#
# Indices 1 2 3 4 5 6 
#
# 1 0.024076 -0.001914 0.001453 0.000000 0.000000 0.000000
# 2 -0.001914 0.010018 -0.009133 0.000000 0.000000 0.000000
# 3 0.001453 -0.009133 0.018967 0.000000 0.000000 0.000000
# 4 0.000000 0.000000 0.000000 0.039698 0.000000 0.000000
# 5 0.000000 0.000000 0.000000 0.000000 0.179467 0.000000
# 6 0.000000 0.000000 0.000000 0.000000 0.000000 0.579491
#
#
# Mechanical properties :
#
#
# Convention : Reuss Voigt Hill
#
# Bulk Modulus (GPa) = 29.52104 56.49794 43.00949
# Shear Modulus (GPa) = 5.66768 21.15748 13.41258
#
# Velocity S-wave (km/s) = 1.64853 3.18513 2.53601
# Velocity P-wave (km/s) = 4.21651 6.37319 5.40354
#
# Compressibility (1/GPa) = 0.03387415
#
# Stress axis : x y z
#
# Youngs Moduli (GPa) = 41.53456 99.81910 52.72384
#
# Poissons Ratio (x) = 0.19105 -0.07663
# Poissons Ratio (y) = 0.07950 0.48153
# Poissons Ratio (z) = -0.06037 0.91165
#
# Static dielectric constant tensor:
#      x y z
#    x 1.810060 0.000000 0.000000 
#    y 0.000000 1.766720 0.000000 
#    z 0.000000 0.000000 1.793260 
# 
# From -- ./inp_files/14003.got.cif
#   From: 2010.05.17/outbox.cif.g08.bks.cpg/sg36_8_cif.got.tgz:14003.got - 2010.06.03 17:41:39.
