data_PCOD9350468
_publ_section_title
;
Structure prediction by ZEFSAII (Michael W. Deem and Ramdas Pophale) SiO2 
 PCOD9350468
Probable space group: C M C 21
;
_chemical_formula_sum "Si O2"
_cell_formula_units_Z 32
_cell_length_a 5.618086
_cell_length_b 14.839766
_cell_length_c 13.667649
_cell_angle_alpha 90.000000
_cell_angle_beta 90.000000
_cell_angle_gamma 90.000000
_cell_volume 1139.486680
_symmetry_space_group_name_H-M "C M C 21"
_symmetry_group_IT_number 36
_symmetry_cell_setting 'orthorhombic'
loop_
_space_group_symop_operation_xyz
x,y,z
-x,-y,1/2+z
x,-y,1/2+z
-x,y,z
1/2+x,1/2+y,z
1/2-x,1/2-y,1/2+z
1/2+x,1/2-y,1/2+z
1/2-x,1/2+y,z
loop_
_atom_site_type_symbol
_atom_site_label
_atom_site_fract_x
_atom_site_fract_y
_atom_site_fract_z
Si Si1 0.500000 0.788357 0.245191
Si Si2 0.500000 0.290032 0.546108
Si Si3 0.500000 0.717082 0.579507
Si Si4 0.500000 0.015711 0.693457
Si Si5 0.500000 0.950559 0.904906
Si Si6 0.000000 0.022351 0.686941
Si Si7 0.000000 0.975176 0.425856
Si Si8 0.500000 0.764183 0.792327
O O1 0.500000 0.707894 0.165523
O O2 0.500000 0.876979 0.176629
O O3 0.255390 0.784298 0.304766
O O4 0.247751 0.238835 0.525769
O O5 0.500000 0.380780 0.482736
O O6 0.500000 0.619073 0.632308
O O7 0.500000 0.781594 0.675595
O O8 0.500000 0.015635 0.810859
O O9 0.750262 0.976647 0.661390
O O10 0.755161 0.971858 0.952754
O O11 0.500000 0.853255 0.855675
O O12 0.000000 0.031267 0.806112
#
# Coordination Sequence:
#
# PCOD9350468 Si02
#       8
#     4   4   4   4   4   4   4   4
#     4  10  17  30  53  76  95 123 176 215 244 289
#     4  10  18  30  49  78 100 131 172 215 252 295
#     4  10  17  30  53  76  96 126 180 221 237 289
#     4  10  16  30  48  75 101 128 159 219 252 285
#     4  10  21  32  48  75 109 129 166 206 266 302
#     4  10  16  30  48  75  99 128 167 214 252 288
#     4  10  21  32  48  75 110 138 161 210 267 309
#     4  10  18  30  49  78  96 125 169 216 252 287
#
# _framework density 28.082822
#
# number of rings (size 3 to 8) (size 9 to 14) (size 15 to 20)
#    0.000    2.000    5.000    1.500    0.000    0.000 
#    0.000    0.000    0.000    0.000   13.000    0.000 
#    0.000    0.000    0.000    0.000    0.000    0.000 
#
# Total GULP energy -89427.628272 kJ/mol
# GULP energy per Si atom -5589.226767 kJ/mol
# Density = 2.801890 g / cm^3
# Si number density = 28.082822 Si / 1000 Ang^3
#
#
#
# Elastic Constant Matrix: (Units=GPa)
#
#
# Indices 1 2 3 4 5 6 
#
# 1 363.9570 62.3514 16.5030 0.0000 0.0000 0.0000
# 2 62.3514 88.3478 17.0250 0.0000 0.0000 0.0000
# 3 16.5030 17.0250 151.1924 0.0000 0.0000 0.0000
# 4 0.0000 0.0000 0.0000 54.0971 0.0000 0.0000
# 5 0.0000 0.0000 0.0000 0.0000 -3.4549 0.0000
# 6 0.0000 0.0000 0.0000 0.0000 0.0000 133.4148
#
#
#
# Elastic Compliance Matrix: (Units=1/GPa)
#
#
# Indices 1 2 3 4 5 6 
#
# 1 0.003127 -0.002188 -0.000095 0.000000 0.000000 0.000000
# 2 -0.002188 0.013102 -0.001236 0.000000 0.000000 0.000000
# 3 -0.000095 -0.001236 0.006764 0.000000 0.000000 0.000000
# 4 0.000000 0.000000 0.000000 0.018485 0.000000 0.000000
# 5 0.000000 0.000000 0.000000 0.000000 -0.289447 0.000000
# 6 0.000000 0.000000 0.000000 0.000000 0.000000 0.007495
#
#
# Mechanical properties :
#
#
# Convention : Reuss Voigt Hill
#
# Bulk Modulus (GPa) = 62.68563 88.36178 75.52370
# Shear Modulus (GPa) = -21.91856 70.65261 24.36702
#
# Velocity S-wave (km/s) = -2.79677 5.02128 2.94884
# Velocity P-wave (km/s) = 3.45557 8.07160 6.20853
#
# Compressibility (1/GPa) = 0.01595262
#
# Stress axis : x y z
#
# Youngs Moduli (GPa) = 319.81645 76.32621 147.84872
#
# Poissons Ratio (x) = 0.16704 0.01403
# Poissons Ratio (y) = 0.69990 0.18281
# Poissons Ratio (z) = 0.03034 0.09437
#
# Static dielectric constant tensor:
#      x y z
#    x 2.210360 0.000000 0.000000 
#    y 0.000000 2.156840 0.000000 
#    z 0.000000 0.000000 2.139400 
# 
# From -- ./inp_files/6247.got.cif
#   From: 2010.05.17/outbox.cif.g08.bks.cpg/sg36_4_cif.got.tgz:6247.got - 2010.06.03 17:41:39.
