data_PCOD9350617
_publ_section_title
;
Structure prediction by ZEFSAII (Michael W. Deem and Ramdas Pophale) SiO2 
 PCOD9350617
Probable space group: C M C 21
;
_chemical_formula_sum "Si O2"
_cell_formula_units_Z 64
_cell_length_a 7.583790
_cell_length_b 21.129955
_cell_length_c 20.115611
_cell_angle_alpha 90.000000
_cell_angle_beta 90.000000
_cell_angle_gamma 90.000000
_cell_volume 3223.428930
_symmetry_space_group_name_H-M "C M C 21"
_symmetry_group_IT_number 36
_symmetry_cell_setting 'orthorhombic'
loop_
_space_group_symop_operation_xyz
x,y,z
-x,-y,1/2+z
x,-y,1/2+z
-x,y,z
1/2+x,1/2+y,z
1/2-x,1/2-y,1/2+z
1/2+x,1/2-y,1/2+z
1/2-x,1/2+y,z
loop_
_atom_site_type_symbol
_atom_site_label
_atom_site_fract_x
_atom_site_fract_y
_atom_site_fract_z
Si Si1 0.786237 0.506833 0.646990
Si Si2 0.286218 0.064928 0.931112
Si Si3 0.205532 0.483472 0.294123
Si Si4 0.709045 0.359499 0.646762
Si Si5 0.791095 0.128299 0.294425
Si Si6 0.287081 0.815539 0.932853
Si Si7 0.209315 0.192430 0.009833
Si Si8 0.715200 0.940007 0.010702
O O1 0.718253 0.524169 0.720303
O O2 0.734663 0.434221 0.632655
O O3 0.729206 0.551699 0.587059
O O4 0.000000 0.507321 0.648951
O O5 0.500000 0.063663 0.930078
O O6 0.232294 0.128899 0.967092
O O7 0.220085 0.055561 0.855801
O O8 0.228679 0.003230 0.972192
O O9 0.214339 0.558654 0.309996
O O10 0.000000 0.466120 0.289481
O O11 0.500000 0.346839 0.649038
O O12 0.777811 0.349663 0.722000
O O13 0.782405 0.320679 0.584033
O O14 0.759663 0.174883 0.355684
O O15 0.000000 0.118519 0.287680
O O16 0.500000 0.815123 0.935328
O O17 0.220512 0.752352 0.968942
O O18 0.224470 0.877325 0.973203
O O19 0.000000 0.203031 0.017687
O O20 0.500000 0.939033 0.009854
#
# Coordination Sequence:
#
# PCOD9350617 Si02
#       8
#     8   8   8   8   8   8   8   8
#     4   9  16  28  49  75  97 126 168 207 246 293
#     4  10  18  31  51  75 102 129 162 210 253 290
#     4   9  17  30  49  74 103 132 166 205 250 300
#     4   9  18  32  48  72 102 129 161 201 251 299
#     4  10  19  31  50  75 102 130 164 208 251 295
#     4  10  20  36  53  71 101 137 171 206 246 298
#     4  10  21  35  52  74 102 137 170 203 247 301
#     4   9  16  29  50  74  97 124 164 208 246 286
#
# _framework density 19.854633
#
# number of rings (size 3 to 8) (size 9 to 14) (size 15 to 20)
#    0.000    2.500    2.500    0.375    0.000    1.500 
#    0.000    1.875    0.000    4.500    0.000    0.000 
#    0.000    0.000    0.000    0.000    0.000    0.000 
#
# Total GULP energy -178484.938588 kJ/mol
# GULP energy per Si atom -5577.654331 kJ/mol
# Density = 1.980944 g / cm^3
# Si number density = 19.854633 Si / 1000 Ang^3
#
#
#
# Elastic Constant Matrix: (Units=GPa)
#
#
# Indices 1 2 3 4 5 6 
#
# 1 42.4498 -3.7577 0.9950 0.0000 0.0000 0.0000
# 2 -3.7577 108.1947 80.5668 0.0000 0.0000 0.0000
# 3 0.9950 80.5668 187.7560 0.0000 0.0000 0.0000
# 4 0.0000 0.0000 0.0000 28.0286 0.0000 0.0000
# 5 0.0000 0.0000 0.0000 0.0000 5.0955 0.0000
# 6 0.0000 0.0000 0.0000 0.0000 0.0000 13.4214
#
#
#
# Elastic Compliance Matrix: (Units=1/GPa)
#
#
# Indices 1 2 3 4 5 6 
#
# 1 0.023693 0.001347 -0.000703 0.000000 0.000000 0.000000
# 2 0.001347 0.013659 -0.005868 0.000000 0.000000 0.000000
# 3 -0.000703 -0.005868 0.007848 0.000000 0.000000 0.000000
# 4 0.000000 0.000000 0.000000 0.035678 0.000000 0.000000
# 5 0.000000 0.000000 0.000000 0.000000 0.196252 0.000000
# 6 0.000000 0.000000 0.000000 0.000000 0.000000 0.074508
#
#
# Mechanical properties :
#
#
# Convention : Reuss Voigt Hill
#
# Bulk Modulus (GPa) = 28.77708 54.88985 41.83346
# Shear Modulus (GPa) = 13.38074 26.68221 20.03147
#
# Velocity S-wave (km/s) = 2.59884 3.66987 3.17977
# Velocity P-wave (km/s) = 4.85084 6.75745 5.88191
#
# Compressibility (1/GPa) = 0.03474988
#
# Stress axis : x y z
#
# Youngs Moduli (GPa) = 42.20669 73.21061 127.42228
#
# Poissons Ratio (x) = -0.09859 0.08963
# Poissons Ratio (y) = -0.05684 0.74776
# Poissons Ratio (z) = 0.02969 0.42963
#
# Static dielectric constant tensor:
#      x y z
#    x 1.759340 0.000000 0.000000 
#    y 0.000000 1.647840 0.000000 
#    z 0.000000 0.000000 1.747380 
# 
# From -- ./inp_files/15712.got.cif
#   From: 2010.05.17/outbox.cif.g08.bks.cpg/sg36_8_cif.got.tgz:15712.got - 2010.06.03 17:41:39.
