data_PCOD9350450
_publ_section_title
;
Structure prediction by ZEFSAII (Michael W. Deem and Ramdas Pophale) SiO2 
 PCOD9350450
Probable space group: C M M 2
;
_chemical_formula_sum "Si O2"
_cell_formula_units_Z 58
_cell_length_a 17.485334
_cell_length_b 29.228587
_cell_length_c 5.029614
_cell_angle_alpha 90.000000
_cell_angle_beta 90.000000
_cell_angle_gamma 90.000000
_cell_volume 2570.492905
_symmetry_space_group_name_H-M "C M M 2"
_symmetry_group_IT_number 35
_symmetry_cell_setting 'orthorhombic'
loop_
_space_group_symop_operation_xyz
x,y,z
-x,-y,z
-x,y,z
x,-y,z
1/2+x,1/2+y,z
1/2-x,1/2-y,z
1/2-x,1/2+y,z
1/2+x,1/2-y,z
loop_
_atom_site_type_symbol
_atom_site_label
_atom_site_fract_x
_atom_site_fract_y
_atom_site_fract_z
Si Si1 0.661930 0.826823 0.570490
Si Si2 0.500000 0.500000 0.095409
Si Si3 0.308972 0.946930 0.102050
Si Si4 0.915210 0.090562 0.950642
Si Si5 0.591332 0.677240 0.272477
Si Si6 0.407004 0.265172 0.774004
Si Si7 0.587755 0.135006 0.074296
Si Si8 0.226258 0.093117 0.594524
O O1 0.646508 0.775991 0.674658
O O2 0.636221 0.831739 0.265575
O O3 0.741401 0.854620 0.594755
O O4 0.605941 0.855187 0.767330
O O5 0.434262 0.541108 0.076596
O O6 0.383207 0.915501 0.144347
O O7 0.247236 0.929983 0.317066
O O8 0.323984 0.000000 0.127891
O O9 0.275980 0.934003 0.814956
O O10 0.858928 0.087792 0.703108
O O11 0.000000 0.106167 0.853488
O O12 0.883277 0.128489 0.155306
O O13 0.500000 0.675048 0.255531
O O14 0.606423 0.693451 0.568842
O O15 0.614290 0.716813 0.065023
O O16 0.500000 0.253658 0.766690
O O17 0.500000 0.142460 0.130446
#
# Coordination Sequence:
#
# PCOD9350450 Si02
#       8
#     8   2   8   8   8   8   8   8
#     4  10  20  34  55  86 116 157 205 240 303 359
#     4   8  20  36  72  94 120 158 218 262 316 402
#     4  10  22  35  57  81 112 155 198 239 311 370
#     4   9  20  39  65  92 121 156 208 257 322 375
#     4   9  19  34  55  83 122 148 186 241 301 346
#     4  10  18  31  56  85 113 157 191 235 281 356
#     4  10  19  33  52  80 117 154 194 256 288 342
#     4  10  22  40  59  82 121 154 192 264 307 361
#
# _framework density 22.563768
#
# number of rings (size 3 to 8) (size 9 to 14) (size 15 to 20)
#    0.414    1.931    0.000    2.483    1.931    2.483 
#    0.000    2.759    0.000   10.759    0.000    0.000 
#    0.000    0.000    0.000    0.000    0.000    0.000 
#
# Total GULP energy -161728.129393 kJ/mol
# GULP energy per Si atom -5576.832048 kJ/mol
# Density = 2.251241 g / cm^3
# Si number density = 22.563768 Si / 1000 Ang^3
#
#
#
# Elastic Constant Matrix: (Units=GPa)
#
#
# Indices 1 2 3 4 5 6 
#
# 1 32.6032 6.1519 -10.6144 0.0000 0.0000 0.0000
# 2 6.1519 121.0245 -3.5531 0.0000 0.0000 0.0000
# 3 -10.6144 -3.5531 41.6267 0.0000 0.0000 0.0000
# 4 0.0000 0.0000 0.0000 12.0046 0.0000 0.0000
# 5 0.0000 0.0000 0.0000 0.0000 12.0281 0.0000
# 6 0.0000 0.0000 0.0000 0.0000 0.0000 19.9510
#
#
#
# Elastic Compliance Matrix: (Units=1/GPa)
#
#
# Indices 1 2 3 4 5 6 
#
# 1 0.033706 -0.001465 0.008470 0.000000 0.000000 0.000000
# 2 -0.001465 0.008347 0.000339 0.000000 0.000000 0.000000
# 3 0.008470 0.000339 0.026212 0.000000 0.000000 0.000000
# 4 0.000000 0.000000 0.000000 0.083301 0.000000 0.000000
# 5 0.000000 0.000000 0.000000 0.000000 0.083139 0.000000
# 6 0.000000 0.000000 0.000000 0.000000 0.000000 0.050123
#
#
# Mechanical properties :
#
#
# Convention : Reuss Voigt Hill
#
# Bulk Modulus (GPa) = 12.05514 19.91368 15.98441
# Shear Modulus (GPa) = 16.79033 22.34807 19.56920
#
# Velocity S-wave (km/s) = 2.73083 3.15054 2.94816
# Velocity P-wave (km/s) = 3.91121 4.69885 4.32301
#
# Compressibility (1/GPa) = 0.08295219
#
# Stress axis : x y z
#
# Youngs Moduli (GPa) = 29.66871 119.80070 38.15102
#
# Poissons Ratio (x) = 0.17547 -0.32312
# Poissons Ratio (y) = 0.04345 -0.01293
# Poissons Ratio (z) = -0.25128 -0.04061
#
# Static dielectric constant tensor:
#      x y z
#    x 1.848670 0.000000 0.000000 
#    y 0.000000 1.849090 0.000000 
#    z 0.000000 0.000000 1.832380 
# 
# From -- ./inp_files/2701.got.cif
#   From: 2010.05.17/outbox.cif.g08.bks.cpg/sg35_2_cif.got.tgz:2701.got - 2010.06.03 17:29:28.
