data_PCOD9350402
_publ_section_title
;
Structure prediction by ZEFSAII (Michael W. Deem and Ramdas Pophale) SiO2 
 PCOD9350402
Probable space group: C M M 2
;
_chemical_formula_sum "Si O2"
_cell_formula_units_Z 34
_cell_length_a 15.450767
_cell_length_b 8.445894
_cell_length_c 13.645013
_cell_angle_alpha 90.000000
_cell_angle_beta 90.000000
_cell_angle_gamma 90.000000
_cell_volume 1780.613344
_symmetry_space_group_name_H-M "C M M 2"
_symmetry_group_IT_number 35
_symmetry_cell_setting 'orthorhombic'
loop_
_space_group_symop_operation_xyz
x,y,z
-x,-y,z
-x,y,z
x,-y,z
1/2+x,1/2+y,z
1/2-x,1/2-y,z
1/2-x,1/2+y,z
1/2+x,1/2-y,z
loop_
_atom_site_type_symbol
_atom_site_label
_atom_site_fract_x
_atom_site_fract_y
_atom_site_fract_z
Si Si1 0.604052 0.182446 0.622730
Si Si2 0.394085 0.324424 0.827927
Si Si3 0.339813 0.686472 0.414864
Si Si4 0.000000 0.500000 0.111766
Si Si5 0.400608 0.000000 0.921534
Si Si6 0.000000 0.679629 0.302178
O O1 0.500000 0.193465 0.611520
O O2 0.628459 0.291704 0.714395
O O3 0.644502 0.233113 0.520285
O O4 0.625417 0.000000 0.645772
O O5 0.500000 0.327142 0.835294
O O6 0.363861 0.500000 0.858461
O O7 0.363059 0.167801 0.886238
O O8 0.337205 0.500000 0.429299
O O9 0.250000 0.750000 0.373954
O O10 0.416689 0.732994 0.342629
O O11 0.000000 0.648225 0.185804
O O12 0.919012 0.500000 0.037757
O O13 0.500000 0.000000 0.877996
O O14 0.000000 0.500000 0.344989
#
# Coordination Sequence:
#
# PCOD9350402 Si02
#       6
#     8   8   8   2   4   4
#     4  10  18  30  51  81 118 159 193 233 288 346
#     4   9  15  24  44  75 115 150 189 229 280 351
#     4  12  24  38  58  86 121 163 207 248 303 371
#     4   8  20  34  60  76 118 144 190 262 320 356
#     4   8  14  30  45  78 109 144 187 235 303 348
#     4  10  21  41  59  83 115 156 193 264 313 353
#
# _framework density 19.094543999999999
#
# number of rings (size 3 to 8) (size 9 to 14) (size 15 to 20)
#    0.706    1.412    2.353    3.176    0.000    0.941 
#    0.000    2.353    0.000    0.000    0.000    1.647 
#    0.000    0.000    0.000    0.000    0.000    0.000 
#
# Total GULP energy -94794.575592 kJ/mol
# GULP energy per Si atom -5576.151505 kJ/mol
# Density = 1.905108 g / cm^3
# Si number density = 19.094544 Si / 1000 Ang^3
#
#
#
# Elastic Constant Matrix: (Units=GPa)
#
#
# Indices 1 2 3 4 5 6 
#
# 1 56.0418 26.3986 26.3085 0.0000 0.0000 0.0000
# 2 26.3986 141.3935 30.8833 0.0000 0.0000 0.0000
# 3 26.3085 30.8833 95.1625 0.0000 0.0000 0.0000
# 4 0.0000 0.0000 0.0000 14.5771 0.0000 0.0000
# 5 0.0000 0.0000 0.0000 0.0000 -14.2124 0.0000
# 6 0.0000 0.0000 0.0000 0.0000 0.0000 17.5927
#
#
#
# Elastic Compliance Matrix: (Units=1/GPa)
#
#
# Indices 1 2 3 4 5 6 
#
# 1 0.021579 -0.002934 -0.005014 0.000000 0.000000 0.000000
# 2 -0.002934 0.008011 -0.001789 0.000000 0.000000 0.000000
# 3 -0.005014 -0.001789 0.012475 0.000000 0.000000 0.000000
# 4 0.000000 0.000000 0.000000 0.068601 0.000000 0.000000
# 5 0.000000 0.000000 0.000000 0.000000 -0.070361 0.000000
# 6 0.000000 0.000000 0.000000 0.000000 0.000000 0.056842
#
#
# Mechanical properties :
#
#
# Convention : Reuss Voigt Hill
#
# Bulk Modulus (GPa) = 44.26196 51.08651 47.67423
# Shear Modulus (GPa) = 40.27379 17.52530 28.89955
#
# Velocity S-wave (km/s) = 4.59756 3.03284 3.89459
# Velocity P-wave (km/s) = 7.17037 6.25114 6.72647
#
# Compressibility (1/GPa) = 0.02259276
#
# Stress axis : x y z
#
# Youngs Moduli (GPa) = 46.34034 124.82972 80.16079
#
# Poissons Ratio (x) = 0.36623 0.40190
# Poissons Ratio (y) = 0.13596 0.14338
# Poissons Ratio (z) = 0.23234 0.22328
#
# Static dielectric constant tensor:
#      x y z
#    x 1.686560 0.000000 0.000000 
#    y 0.000000 1.677880 0.000000 
#    z 0.000000 0.000000 1.630280 
# 
# From -- ./inp_files/16924.got.cif
#   From: 2010.05.17/outbox.cif.g08.bks.cpg/sg35_9_cif.got.tgz:16924.got - 2010.06.03 17:29:28.
