data_PCOD9350024
_publ_section_title
;
Structure prediction by ZEFSAII (Michael W. Deem and Ramdas Pophale) SiO2 
 PCOD9350024
Probable space group: C M M 2
;
_chemical_formula_sum "Si O2"
_cell_formula_units_Z 48
_cell_length_a 7.603870
_cell_length_b 16.241364
_cell_length_c 19.192785
_cell_angle_alpha 90.000000
_cell_angle_beta 90.000000
_cell_angle_gamma 90.000000
_cell_volume 2370.255601
_symmetry_space_group_name_H-M "C M M 2"
_symmetry_group_IT_number 35
_symmetry_cell_setting 'orthorhombic'
loop_
_space_group_symop_operation_xyz
x,y,z
-x,-y,z
-x,y,z
x,-y,z
1/2+x,1/2+y,z
1/2-x,1/2-y,z
1/2-x,1/2+y,z
1/2+x,1/2-y,z
loop_
_atom_site_type_symbol
_atom_site_label
_atom_site_fract_x
_atom_site_fract_y
_atom_site_fract_z
Si Si1 0.286715 0.906495 0.916050
Si Si2 0.802399 0.000000 0.682320
Si Si3 0.789432 0.656227 0.440975
Si Si4 0.500000 0.597641 0.174077
Si Si5 0.699592 0.000000 0.528016
Si Si6 0.290962 0.158952 0.772863
Si Si7 0.500000 0.600307 0.334159
Si Si8 0.290387 0.154104 0.067289
O O1 0.500000 0.900804 0.917893
O O2 0.222587 0.850347 0.852447
O O3 0.239435 0.000000 0.898297
O O4 0.230731 0.886274 0.994240
O O5 0.696165 0.000000 0.611028
O O6 0.773451 0.918061 0.727746
O O7 0.000000 0.000000 0.656601
O O8 0.750000 0.750000 0.463761
O O9 0.730156 0.585749 0.496404
O O10 0.671804 0.635278 0.373480
O O11 0.000000 0.651576 0.428297
O O12 0.500000 0.500000 0.176874
O O13 0.500000 0.627197 0.253625
O O14 0.672090 0.624197 0.131029
O O15 0.500000 0.000000 0.502666
O O16 0.500000 0.150354 0.775155
O O17 0.250000 0.250000 0.745596
O O18 0.500000 0.500000 0.338625
O O19 0.500000 0.140052 0.077083
O O20 0.250000 0.250000 0.059042
#
# Coordination Sequence:
#
# PCOD9350024 Si02
#       8
#     8   4   8   4   4   8   4   8
#     4   9  18  35  62  90 119 170 219 272 331 379
#     4  12  26  42  64  98 132 173 214 260 331 387
#     4  11  23  42  70 104 134 173 223 266 322 392
#     4  11  26  44  64  98 128 176 219 266 342 394
#     4  10  24  44  70  98 134 171 212 265 322 386
#     4  11  22  41  64  90 131 170 219 274 324 388
#     4  11  24  44  70  95 137 175 216 272 330 391
#     4  11  22  41  63  91 132 172 221 276 330 393
#
# _framework density 20.250979000000001
#
# number of rings (size 3 to 8) (size 9 to 14) (size 15 to 20)
#    0.000    1.333    3.333    2.250    1.167    3.000 
#    3.000    3.333    0.000    0.000    0.000    0.000 
#    0.000    0.000    0.000    0.000    0.000    0.000 
#
# Total GULP energy -133982.848159 kJ/mol
# GULP energy per Si atom -5582.618673 kJ/mol
# Density = 2.020489 g / cm^3
# Si number density = 20.250979 Si / 1000 Ang^3
#
#
#
# Elastic Constant Matrix: (Units=GPa)
#
#
# Indices 1 2 3 4 5 6 
#
# 1 97.1096 11.0269 21.8709 0.0000 0.0000 0.0000
# 2 11.0269 137.7888 56.4165 0.0000 0.0000 0.0000
# 3 21.8709 56.4165 122.1629 0.0000 0.0000 0.0000
# 4 0.0000 0.0000 0.0000 7.7798 0.0000 0.0000
# 5 0.0000 0.0000 0.0000 0.0000-1729.6676 0.0000
# 6 0.0000 0.0000 0.0000 0.0000 0.0000 13.8703
#
#
#
# Elastic Compliance Matrix: (Units=1/GPa)
#
#
# Indices 1 2 3 4 5 6 
#
# 1 0.010731 -0.000089 -0.001880 0.000000 0.000000 0.000000
# 2 -0.000089 0.008950 -0.004118 0.000000 0.000000 0.000000
# 3 -0.001880 -0.004118 0.010424 0.000000 0.000000 0.000000
# 4 0.000000 0.000000 0.000000 0.128537 0.000000 0.000000
# 5 0.000000 0.000000 0.000000 0.000000 -0.000578 0.000000
# 6 0.000000 0.000000 0.000000 0.000000 0.000000 0.072096
#
#
# Mechanical properties :
#
#
# Convention : Reuss Voigt Hill
#
# Bulk Modulus (GPa) = 55.76518 59.52109 57.64314
# Shear Modulus (GPa) = 20.13596 -323.75369 -151.80886
#
# Velocity S-wave (km/s) = 3.15671 -12.65771 -8.66755
# Velocity P-wave (km/s) = 6.39400 13.57085 8.46419
#
# Compressibility (1/GPa) = 0.01793234
#
# Stress axis : x y z
#
# Youngs Moduli (GPa) = 93.18633 111.72568 95.93319
#
# Poissons Ratio (x) = 0.00994 0.18036
# Poissons Ratio (y) = 0.00829 0.39501
# Poissons Ratio (z) = 0.17520 0.46003
#
# Static dielectric constant tensor:
#      x y z
#    x 2.820510 0.000000 0.000000 
#    y 0.000000 1.726700 0.000000 
#    z 0.000000 0.000000 1.719100 
# 
# From -- ./inp_files/17972.got.cif
#   From: 2010.05.17/outbox.cif.g08.bks.cpg/sg35_9_cif.got.tgz:17972.got - 2010.06.03 17:29:28.
