data_PCOD9350940
_publ_section_title
;
Structure prediction by ZEFSAII (Michael W. Deem and Ramdas Pophale) SiO2 
 PCOD9350940
Probable space group: C M C 21
;
_chemical_formula_sum "Si O2"
_cell_formula_units_Z 64
_cell_length_a 23.973753
_cell_length_b 27.290633
_cell_length_c 5.506816
_cell_angle_alpha 90.000000
_cell_angle_beta 90.000000
_cell_angle_gamma 90.000000
_cell_volume 3602.883350
_symmetry_space_group_name_H-M "C M C 21"
_symmetry_group_IT_number 36
_symmetry_cell_setting 'orthorhombic'
loop_
_space_group_symop_operation_xyz
x,y,z
-x,-y,1/2+z
x,-y,1/2+z
-x,y,z
1/2+x,1/2+y,z
1/2-x,1/2-y,1/2+z
1/2+x,1/2-y,1/2+z
1/2-x,1/2+y,z
loop_
_atom_site_type_symbol
_atom_site_label
_atom_site_fract_x
_atom_site_fract_y
_atom_site_fract_z
Si Si1 0.564893 0.681794 0.972510
Si Si2 0.238252 0.379557 0.272007
Si Si3 0.294406 0.984161 0.208645
Si Si4 0.825884 0.299000 0.540514
Si Si5 0.167938 0.021819 0.301635
Si Si6 0.564876 0.743048 0.475616
Si Si7 0.833761 0.878183 0.612474
Si Si8 0.765005 0.200216 0.391113
O O1 0.500000 0.667060 0.974690
O O2 0.575057 0.709024 0.714653
O O3 0.573112 0.715364 0.216375
O O4 0.608090 0.637626 0.999727
O O5 0.212470 0.426731 0.144233
O O6 0.192459 0.350603 0.428909
O O7 0.288943 0.400993 0.429091
O O8 0.265910 0.336607 0.115043
O O9 0.321438 0.989401 0.476561
O O10 0.233683 0.008386 0.268762
O O11 0.889821 0.285779 0.504118
O O12 0.790778 0.253493 0.425585
O O13 0.799572 0.297824 0.810027
O O14 0.160231 0.080364 0.315850
O O15 0.144164 0.997225 0.544456
O O16 0.500000 0.758222 0.484912
O O17 0.802488 0.828661 0.696176
#
# Coordination Sequence:
#
# PCOD9350940 Si02
#       8
#     8   8   8   8   8   8   8   8
#     4  10  22  37  55  76  98 136 190 233 265 308
#     4  11  22  32  51  78 109 147 174 215 272 330
#     4  10  19  35  50  70 104 137 181 214 253 319
#     4  11  22  32  49  79 114 144 177 213 273 326
#     4  10  19  32  50  74  97 133 180 218 265 320
#     4  10  22  40  57  73 105 149 188 223 256 309
#     4  11  21  32  55  73 103 143 183 225 268 325
#     4  11  21  32  46  77 114 145 172 211 270 331
#
# _framework density 17.763551
#
# number of rings (size 3 to 8) (size 9 to 14) (size 15 to 20)
#    0.000    1.500    5.000    2.250    5.250    0.000 
#    0.000    0.000    0.000    0.750    0.000    0.000 
#    0.000    1.000    0.000    0.000    0.000    0.000 
#
# Total GULP energy -178254.954774 kJ/mol
# GULP energy per Si atom -5570.467337 kJ/mol
# Density = 1.772312 g / cm^3
# Si number density = 17.763551 Si / 1000 Ang^3
#
#
#
# Elastic Constant Matrix: (Units=GPa)
#
#
# Indices 1 2 3 4 5 6 
#
# 1 58.6435 21.5014 1.6941 0.0000 0.0000 0.0000
# 2 21.5014 79.3884 11.7679 0.0000 0.0000 0.0000
# 3 1.6941 11.7679 82.9196 0.0000 0.0000 0.0000
# 4 0.0000 0.0000 0.0000 15.6981 0.0000 0.0000
# 5 0.0000 0.0000 0.0000 0.0000 7.2971 0.0000
# 6 0.0000 0.0000 0.0000 0.0000 0.0000 10.6261
#
#
#
# Elastic Compliance Matrix: (Units=1/GPa)
#
#
# Indices 1 2 3 4 5 6 
#
# 1 0.018942 -0.005182 0.000348 0.000000 0.000000 0.000000
# 2 -0.005182 0.014285 -0.001921 0.000000 0.000000 0.000000
# 3 0.000348 -0.001921 0.012325 0.000000 0.000000 0.000000
# 4 0.000000 0.000000 0.000000 0.063702 0.000000 0.000000
# 5 0.000000 0.000000 0.000000 0.000000 0.137041 0.000000
# 6 0.000000 0.000000 0.000000 0.000000 0.000000 0.094108
#
#
# Mechanical properties :
#
#
# Convention : Reuss Voigt Hill
#
# Bulk Modulus (GPa) = 31.20870 32.31981 31.76425
# Shear Modulus (GPa) = 13.71390 19.12346 16.41868
#
# Velocity S-wave (km/s) = 2.78155 3.28465 3.04351
# Velocity P-wave (km/s) = 5.28423 5.71132 5.50192
#
# Compressibility (1/GPa) = 0.03204234
#
# Stress axis : x y z
#
# Youngs Moduli (GPa) = 52.79260 70.00566 81.13301
#
# Poissons Ratio (x) = 0.36276 -0.02827
# Poissons Ratio (y) = 0.27356 0.15589
# Poissons Ratio (z) = -0.01839 0.13451
#
# Static dielectric constant tensor:
#      x y z
#    x 1.587000 0.000000 0.000000 
#    y 0.000000 1.614690 0.000000 
#    z 0.000000 0.000000 1.760870 
# 
# From -- ./inp_files/1485.got.cif
#   From: 2010.05.17/outbox.cif.g08.bks.cpg/sg36_1_cif.got.tgz:1485.got - 2010.06.03 17:41:39.
