data_PCOD9350112
_publ_section_title
;
Structure prediction by ZEFSAII (Michael W. Deem and Ramdas Pophale) SiO2 
 PCOD9350112
Probable space group: C M M 2
;
_chemical_formula_sum "Si O2"
_cell_formula_units_Z 56
_cell_length_a 15.356889
_cell_length_b 15.540217
_cell_length_c 11.729512
_cell_angle_alpha 90.000000
_cell_angle_beta 90.000000
_cell_angle_gamma 90.000000
_cell_volume 2799.240855
_symmetry_space_group_name_H-M "C M M 2"
_symmetry_group_IT_number 35
_symmetry_cell_setting 'orthorhombic'
loop_
_space_group_symop_operation_xyz
x,y,z
-x,-y,z
-x,y,z
x,-y,z
1/2+x,1/2+y,z
1/2-x,1/2-y,z
1/2-x,1/2+y,z
1/2+x,1/2-y,z
loop_
_atom_site_type_symbol
_atom_site_label
_atom_site_fract_x
_atom_site_fract_y
_atom_site_fract_z
Si Si1 0.147220 0.745154 0.190930
Si Si2 0.093470 0.595154 0.580480
Si Si3 0.099359 0.598932 0.009468
Si Si4 0.295207 0.401077 0.622177
Si Si5 0.099049 0.775312 0.452349
Si Si6 0.095129 0.904567 0.050900
Si Si7 0.736747 0.648029 0.868961
O O1 0.250000 0.750000 0.170525
O O2 0.116378 0.663376 0.115910
O O3 0.130993 0.753404 0.325344
O O4 0.101318 0.829256 0.141245
O O5 0.093488 0.500000 0.522779
O O6 0.189535 0.600604 0.632028
O O7 0.092832 0.680802 0.506794
O O8 0.000000 0.597162 0.646154
O O9 0.107638 0.500000 0.048017
O O10 0.000000 0.613444 0.970551
O O11 0.168435 0.612427 0.907024
O O12 0.320772 0.500000 0.597558
O O13 0.337506 0.336474 0.528944
O O14 0.313240 0.374772 0.751958
O O15 0.000000 0.811705 0.450744
O O16 0.000000 0.900221 0.994282
O O17 0.104463 0.000000 0.101279
O O18 0.172646 0.886859 0.965183
O O19 0.750000 0.750000 0.872017
#
# Coordination Sequence:
#
# PCOD9350112 Si02
#       7
#     8   8   8   8   8   8   8
#     4  12  23  41  67  95 129 174 216 277 330 396
#     4   9  19  38  62  90 123 161 208 264 324 385
#     4  11  23  40  64  98 139 175 214 272 340 401
#     4  11  24  42  65  93 131 173 220 272 327 398
#     4  11  24  42  65  93 131 173 220 272 327 398
#     4  11  23  40  62  90 127 171 220 272 326 387
#     4  12  23  41  67  95 129 174 216 277 330 396
#
# _framework density 20.005423
#
# number of rings (size 3 to 8) (size 9 to 14) (size 15 to 20)
#    0.000    1.000    2.857    4.714    0.000    2.571 
#    0.000    2.857    0.000    0.000    0.000    0.000 
#    0.000    0.000    0.000    0.000    0.000    0.000 
#
# Total GULP energy -155931.300670 kJ/mol
# GULP energy per Si atom -5568.975024 kJ/mol
# Density = 1.995989 g / cm^3
# Si number density = 20.005423 Si / 1000 Ang^3
#
#
#
# Elastic Constant Matrix: (Units=GPa)
#
#
# Indices 1 2 3 4 5 6 
#
# 1 58.9167 -20.6030 -13.9781 0.0000 0.0000 0.0000
# 2 -20.6030 94.8159 9.2249 0.0000 0.0000 0.0000
# 3 -13.9781 9.2249 55.6289 0.0000 0.0000 0.0000
# 4 0.0000 0.0000 0.0000 13.0666 0.0000 0.0000
# 5 0.0000 0.0000 0.0000 0.0000 1.5635 0.0000
# 6 0.0000 0.0000 0.0000 0.0000 0.0000 229.6434
#
#
#
# Elastic Compliance Matrix: (Units=1/GPa)
#
#
# Indices 1 2 3 4 5 6 
#
# 1 0.019297 0.003782 0.004222 0.000000 0.000000 0.000000
# 2 0.003782 0.011461 -0.000950 0.000000 0.000000 0.000000
# 3 0.004222 -0.000950 0.019195 0.000000 0.000000 0.000000
# 4 0.000000 0.000000 0.000000 0.076531 0.000000 0.000000
# 5 0.000000 0.000000 0.000000 0.000000 0.639579 0.000000
# 6 0.000000 0.000000 0.000000 0.000000 0.000000 0.004355
#
#
# Mechanical properties :
#
#
# Convention : Reuss Voigt Hill
#
# Bulk Modulus (GPa) = 15.61005 17.62768 16.61887
# Shear Modulus (GPa) = 6.42952 64.50255 35.46603
#
# Velocity S-wave (km/s) = 1.79468 5.68441 4.21506
# Velocity P-wave (km/s) = 3.48057 7.20513 5.65810
#
# Compressibility (1/GPa) = 0.06406129
#
# Stress axis : x y z
#
# Youngs Moduli (GPa) = 51.82028 87.25154 52.09793
#
# Poissons Ratio (x) = -0.33003 -0.21994
# Poissons Ratio (y) = -0.19601 0.04950
# Poissons Ratio (z) = -0.21877 0.08290
#
# Static dielectric constant tensor:
#      x y z
#    x 1.764650 0.000000 0.000000 
#    y 0.000000 1.708160 0.000000 
#    z 0.000000 0.000000 1.755280 
# 
# From -- ./inp_files/12970.got.cif
#   From: 2010.05.17/outbox.cif.g08.bks.cpg/sg35_7_cif.got.tgz:12970.got - 2010.06.03 17:29:28.
