data_PCOD9350691
_publ_section_title
;
Structure prediction by ZEFSAII (Michael W. Deem and Ramdas Pophale) SiO2 
 PCOD9350691
Probable space group: C M C 21
;
_chemical_formula_sum "Si O2"
_cell_formula_units_Z 28
_cell_length_a 10.435292
_cell_length_b 30.156908
_cell_length_c 5.182480
_cell_angle_alpha 90.000000
_cell_angle_beta 90.000000
_cell_angle_gamma 90.000000
_cell_volume 1630.906456
_symmetry_space_group_name_H-M "C M C 21"
_symmetry_group_IT_number 36
_symmetry_cell_setting 'orthorhombic'
loop_
_space_group_symop_operation_xyz
x,y,z
-x,-y,1/2+z
x,-y,1/2+z
-x,y,z
1/2+x,1/2+y,z
1/2-x,1/2-y,1/2+z
1/2+x,1/2-y,1/2+z
1/2-x,1/2+y,z
loop_
_atom_site_type_symbol
_atom_site_label
_atom_site_fract_x
_atom_site_fract_y
_atom_site_fract_z
Si Si1 0.237531 0.839459 0.862050
Si Si2 0.000000 0.712944 0.287550
Si Si3 0.500000 0.726982 0.287873
Si Si4 0.853373 0.885954 0.368547
Si Si5 0.500000 0.529180 0.763501
O O1 0.373415 0.816368 0.825288
O O2 0.210639 0.875753 0.640609
O O3 0.126022 0.802853 0.827774
O O4 0.220904 0.861829 0.140108
O O5 0.000000 0.750892 0.506697
O O6 0.000000 0.735243 0.006652
O O7 0.879899 0.937609 0.308990
O O8 0.000000 0.867306 0.375282
O O9 0.500000 0.491368 0.979982
#
# Coordination Sequence:
#
# PCOD9350691 Si02
#       5
#     8   4   4   8   4
#     4  12  21  39  54  77 112 145 189 221 272 333
#     4  12  26  33  54  82 104 148 190 236 268 307
#     4  12  20  39  52  76 108 142 192 242 276 297
#     4  10  20  35  58  80 108 147 168 213 287 315
#     4  10  18  32  56  94 114 122 174 228 268 312
#
# _framework density 17.168365999999999
#
# number of rings (size 3 to 8) (size 9 to 14) (size 15 to 20)
#    0.857    0.000    2.857    6.857    0.000    0.000 
#    0.000    0.000    0.000    0.000    0.000   20.000 
#    0.000    0.000    0.000    0.000    0.000    0.000 
#
# Total GULP energy -78172.154542 kJ/mol
# GULP energy per Si atom -5583.725324 kJ/mol
# Density = 1.712929 g / cm^3
# Si number density = 17.168366 Si / 1000 Ang^3
#
#
#
# Elastic Constant Matrix: (Units=GPa)
#
#
# Indices 1 2 3 4 5 6 
#
# 1 98.6027 16.8041 -12.4718 0.0000 0.0000 0.0000
# 2 16.8041 35.4902 -26.3717 0.0000 0.0000 0.0000
# 3 -12.4718 -26.3717 39.2014 0.0000 0.0000 0.0000
# 4 0.0000 0.0000 0.0000 43.9805 0.0000 0.0000
# 5 0.0000 0.0000 0.0000 0.0000 3.5140 0.0000
# 6 0.0000 0.0000 0.0000 0.0000 0.0000 -35.2109
#
#
#
# Elastic Compliance Matrix: (Units=1/GPa)
#
#
# Indices 1 2 3 4 5 6 
#
# 1 0.011032 -0.005230 -0.000008 0.000000 0.000000 0.000000
# 2 -0.005230 0.058819 0.037905 0.000000 0.000000 0.000000
# 3 -0.000008 0.037905 0.051006 0.000000 0.000000 0.000000
# 4 0.000000 0.000000 0.000000 0.022737 0.000000 0.000000
# 5 0.000000 0.000000 0.000000 0.000000 0.284576 0.000000
# 6 0.000000 0.000000 0.000000 0.000000 0.000000 -0.028400
#
#
# Mechanical properties :
#
#
# Convention : Reuss Voigt Hill
#
# Bulk Modulus (GPa) = 5.37080 14.35728 9.86404
# Shear Modulus (GPa) = 12.61033 15.47896 14.04465
#
# Velocity S-wave (km/s) = 2.71312 3.00592 2.86327
# Velocity P-wave (km/s) = 3.59859 4.51976 4.08522
#
# Compressibility (1/GPa) = 0.18619206
#
# Stress axis : x y z
#
# Youngs Moduli (GPa) = 90.64623 17.00127 19.60537
#
# Poissons Ratio (x) = 0.08891 0.00016
# Poissons Ratio (y) = 0.47405 -0.74315
# Poissons Ratio (z) = 0.00076 -0.64444
#
# Static dielectric constant tensor:
#      x y z
#    x 1.551270 0.000000 0.000000 
#    y 0.000000 1.582430 0.000000 
#    z 0.000000 0.000000 1.569750 
# 
# From -- ./inp_files/434.got.cif
#   From: 2010.05.17/outbox.cif.g08.bks.cpg/sg36_1_cif.got.tgz:434.got - 2010.06.03 17:41:39.
