data_PCOD9350000
_publ_section_title
;
Structure prediction by ZEFSAII (Michael W. Deem and Ramdas Pophale) SiO2 
 PCOD9350000
Probable space group: C M M 2
;
_chemical_formula_sum "Si O2"
_cell_formula_units_Z 44
_cell_length_a 27.915876
_cell_length_b 10.917936
_cell_length_c 8.165740
_cell_angle_alpha 90.000000
_cell_angle_beta 90.000000
_cell_angle_gamma 90.000000
_cell_volume 2488.784839
_symmetry_space_group_name_H-M "C M M 2"
_symmetry_group_IT_number 35
_symmetry_cell_setting 'orthorhombic'
loop_
_space_group_symop_operation_xyz
x,y,z
-x,-y,z
-x,y,z
x,-y,z
1/2+x,1/2+y,z
1/2-x,1/2-y,z
1/2-x,1/2+y,z
1/2+x,1/2-y,z
loop_
_atom_site_type_symbol
_atom_site_label
_atom_site_fract_x
_atom_site_fract_y
_atom_site_fract_z
Si Si1 0.648201 0.643674 0.873800
Si Si2 0.943624 0.500000 0.540187
Si Si3 0.447438 0.217944 0.794182
Si Si4 0.307172 0.252624 0.209077
Si Si5 0.640962 0.000000 0.278855
Si Si6 0.210851 0.858508 0.544465
Si Si7 0.551369 0.000000 0.050606
O O1 0.647776 0.500000 0.909574
O O2 0.595659 0.691469 0.827601
O O3 0.679765 0.661101 0.708824
O O4 0.668187 0.708803 0.038001
O O5 0.939272 0.625340 0.643565
O O6 0.896771 0.500000 0.427395
O O7 0.000000 0.500000 0.486355
O O8 0.500000 0.276486 0.776660
O O9 0.449428 0.121817 0.942830
O O10 0.250000 0.250000 0.179979
O O11 0.326574 0.120093 0.264265
O O12 0.315371 0.339406 0.368450
O O13 0.602217 0.000000 0.134768
O O14 0.250000 0.750000 0.545811
O O15 0.228961 0.000000 0.549477
O O16 0.500000 0.000000 0.142589
#
# Coordination Sequence:
#
# PCOD9350000 Si02
#       7
#     8   4   8   8   4   8   4
#     4  11  22  39  60  84 117 162 202 243 303 365
#     4   9  19  35  63  95 123 149 191 261 322 368
#     4   9  18  36  56  84 118 148 188 244 301 365
#     4  11  25  39  58  87 122 160 205 257 301 358
#     4  12  21  36  60  90 116 164 203 243 312 368
#     4  10  23  42  61  86 118 156 204 256 305 358
#     4   9  17  33  55  83 115 139 183 246 296 348
#
# _framework density 17.679310999999998
#
# number of rings (size 3 to 8) (size 9 to 14) (size 15 to 20)
#    0.000    1.818    1.818    3.545    6.364    0.364 
#    4.909    0.000    0.000    0.000    0.000    2.545 
#    0.000    0.000    0.000    0.000    0.000    0.000 
#
# Total GULP energy -122475.042623 kJ/mol
# GULP energy per Si atom -5567.047392 kJ/mol
# Density = 1.763907 g / cm^3
# Si number density = 17.679311 Si / 1000 Ang^3
#
#
#
# Elastic Constant Matrix: (Units=GPa)
#
#
# Indices 1 2 3 4 5 6 
#
# 1 133.3793 60.4744 53.5593 0.0000 0.0000 0.0000
# 2 60.4744 96.8607 45.2800 0.0000 0.0000 0.0000
# 3 53.5593 45.2800 115.0802 0.0000 0.0000 0.0000
# 4 0.0000 0.0000 0.0000 26.2877 0.0000 0.0000
# 5 0.0000 0.0000 0.0000 0.0000 28.0954 0.0000
# 6 0.0000 0.0000 0.0000 0.0000 0.0000 35.3160
#
#
#
# Elastic Compliance Matrix: (Units=1/GPa)
#
#
# Indices 1 2 3 4 5 6 
#
# 1 0.011260 -0.005613 -0.003032 0.000000 0.000000 0.000000
# 2 -0.005613 0.015449 -0.003466 0.000000 0.000000 0.000000
# 3 -0.003032 -0.003466 0.011465 0.000000 0.000000 0.000000
# 4 0.000000 0.000000 0.000000 0.038041 0.000000 0.000000
# 5 0.000000 0.000000 0.000000 0.000000 0.035593 0.000000
# 6 0.000000 0.000000 0.000000 0.000000 0.000000 0.028316
#
#
# Mechanical properties :
#
#
# Convention : Reuss Voigt Hill
#
# Bulk Modulus (GPa) = 71.67883 73.77196 72.72539
# Shear Modulus (GPa) = 29.58673 30.34025 29.96349
#
# Velocity S-wave (km/s) = 4.09531 4.14713 4.12130
# Velocity P-wave (km/s) = 7.93688 8.04674 7.99200
#
# Compressibility (1/GPa) = 0.01395112
#
# Stress axis : x y z
#
# Youngs Moduli (GPa) = 88.81259 64.73035 87.22480
#
# Poissons Ratio (x) = 0.36330 0.26447
# Poissons Ratio (y) = 0.49846 0.30236
# Poissons Ratio (z) = 0.26928 0.22438
#
# Static dielectric constant tensor:
#      x y z
#    x 1.613290 0.000000 0.000000 
#    y 0.000000 1.576620 0.000000 
#    z 0.000000 0.000000 1.669720 
# 
# From -- ./inp_files/10433.got.cif
#   From: 2010.05.17/outbox.cif.g08.bks.cpg/sg35_6_cif.got.tgz:10433.got - 2010.06.03 17:29:28.
