data_PCOD9350831
_publ_section_title
;
Structure prediction by ZEFSAII (Michael W. Deem and Ramdas Pophale) SiO2 
 PCOD9350831
Probable space group: C M C 21
;
_chemical_formula_sum "Si O2"
_cell_formula_units_Z 48
_cell_length_a 17.460113
_cell_length_b 37.259703
_cell_length_c 5.161524
_cell_angle_alpha 90.000000
_cell_angle_beta 90.000000
_cell_angle_gamma 90.000000
_cell_volume 3357.873955
_symmetry_space_group_name_H-M "C M C 21"
_symmetry_group_IT_number 36
_symmetry_cell_setting 'orthorhombic'
loop_
_space_group_symop_operation_xyz
x,y,z
-x,-y,1/2+z
x,-y,1/2+z
-x,y,z
1/2+x,1/2+y,z
1/2-x,1/2-y,1/2+z
1/2+x,1/2-y,1/2+z
1/2-x,1/2+y,z
loop_
_atom_site_type_symbol
_atom_site_label
_atom_site_fract_x
_atom_site_fract_y
_atom_site_fract_z
Si Si1 0.909998 0.273939 0.538730
Si Si2 0.406697 0.478642 0.182497
Si Si3 0.681500 0.216401 0.555525
Si Si4 0.092740 0.899437 0.023706
Si Si5 0.092308 0.856366 0.521323
Si Si6 0.670000 0.290111 0.794998
O O1 0.861502 0.294726 0.317701
O O2 0.890610 0.232141 0.469675
O O3 0.000000 0.279900 0.517535
O O4 0.877921 0.283363 0.819458
O O5 0.383456 0.492785 0.463460
O O6 0.500000 0.477609 0.183057
O O7 0.380078 0.438923 0.104751
O O8 0.702872 0.258383 0.609802
O O9 0.759101 0.197239 0.469733
O O10 0.115863 0.870052 0.238128
O O11 0.000000 0.900698 0.034150
O O12 0.111675 0.886843 0.734829
O O13 0.131463 0.820447 0.624541
O O14 0.000000 0.851501 0.522296
#
# Coordination Sequence:
#
# PCOD9350831 Si02
#       6
#     8   8   8   8   8   8
#     4  10  19  30  44  60  75  94 125 165 204 242
#     4   9  15  24  40  53  68  96 124 152 190 228
#     4  10  20  31  44  58  78  97 129 168 194 252
#     4   9  18  29  36  56  79  94 124 161 194 234
#     4  10  20  28  41  56  78 103 124 160 205 251
#     4  10  20  32  43  59  76 104 129 158 209 251
#
# _framework density 14.294758
#
# number of rings (size 3 to 8) (size 9 to 14) (size 15 to 20)
#    1.000    1.333    1.667    2.000    2.333    4.000 
#    0.000    0.000    0.000    0.000    0.000    0.000 
#    0.000    0.000    0.000    0.000    0.000    0.000 
#
# Total GULP energy -133638.719955 kJ/mol
# GULP energy per Si atom -5568.279998 kJ/mol
# Density = 1.426222 g / cm^3
# Si number density = 14.294758 Si / 1000 Ang^3
#
#
#
# Elastic Constant Matrix: (Units=GPa)
#
#
# Indices 1 2 3 4 5 6 
#
# 1 42.5353 -2.7467 11.1675 0.0000 0.0000 0.0000
# 2 -2.7467 20.3380 -15.1631 0.0000 0.0000 0.0000
# 3 11.1675 -15.1631 56.8245 0.0000 0.0000 0.0000
# 4 0.0000 0.0000 0.0000 15.9811 0.0000 0.0000
# 5 0.0000 0.0000 0.0000 0.0000 15.4890 0.0000
# 6 0.0000 0.0000 0.0000 0.0000 0.0000 4.1881
#
#
#
# Elastic Compliance Matrix: (Units=1/GPa)
#
#
# Indices 1 2 3 4 5 6 
#
# 1 0.024791 -0.000355 -0.004967 0.000000 0.000000 0.000000
# 2 -0.000355 0.061385 0.016450 0.000000 0.000000 0.000000
# 3 -0.004967 0.016450 0.022964 0.000000 0.000000 0.000000
# 4 0.000000 0.000000 0.000000 0.062574 0.000000 0.000000
# 5 0.000000 0.000000 0.000000 0.000000 0.064562 0.000000
# 6 0.000000 0.000000 0.000000 0.000000 0.000000 0.238775
#
#
# Mechanical properties :
#
#
# Convention : Reuss Voigt Hill
#
# Bulk Modulus (GPa) = 7.61058 11.80149 9.70604
# Shear Modulus (GPa) = 10.06861 15.56097 12.81479
#
# Velocity S-wave (km/s) = 2.65685 3.30294 2.99736
# Velocity P-wave (km/s) = 3.84024 4.77699 4.33400
#
# Compressibility (1/GPa) = 0.13139597
#
# Stress axis : x y z
#
# Youngs Moduli (GPa) = 40.33727 16.29057 43.54712
#
# Poissons Ratio (x) = 0.00578 0.21629
# Poissons Ratio (y) = 0.01432 -0.71634
# Poissons Ratio (z) = 0.20035 -0.26798
#
# Static dielectric constant tensor:
#      x y z
#    x 1.458170 0.000000 0.000000 
#    y 0.000000 1.478140 0.000000 
#    z 0.000000 0.000000 1.515750 
# 
# From -- ./inp_files/894.got.cif
#   From: 2010.05.17/outbox.cif.g08.bks.cpg/sg36_1_cif.got.tgz:894.got - 2010.06.03 17:41:39.
