data_PCOD9350646
_publ_section_title
;
Structure prediction by ZEFSAII (Michael W. Deem and Ramdas Pophale) SiO2 
 PCOD9350646
Probable space group: C M C 21
;
_chemical_formula_sum "Si O2"
_cell_formula_units_Z 56
_cell_length_a 20.197736
_cell_length_b 15.924804
_cell_length_c 9.475161
_cell_angle_alpha 90.000000
_cell_angle_beta 90.000000
_cell_angle_gamma 90.000000
_cell_volume 3047.638037
_symmetry_space_group_name_H-M "C M C 21"
_symmetry_group_IT_number 36
_symmetry_cell_setting 'orthorhombic'
loop_
_space_group_symop_operation_xyz
x,y,z
-x,-y,1/2+z
x,-y,1/2+z
-x,y,z
1/2+x,1/2+y,z
1/2-x,1/2-y,1/2+z
1/2+x,1/2-y,1/2+z
1/2-x,1/2+y,z
loop_
_atom_site_type_symbol
_atom_site_label
_atom_site_fract_x
_atom_site_fract_y
_atom_site_fract_z
Si Si1 0.800016 0.091751 0.085620
Si Si2 0.812928 0.380766 0.367768
Si Si3 0.077685 0.611166 0.396325
Si Si4 0.193067 0.097897 0.646607
Si Si5 0.361384 0.712874 0.864433
Si Si6 0.919668 0.470782 0.194414
Si Si7 0.780046 0.197164 0.365204
O O1 0.792896 0.143320 0.228012
O O2 0.824188 0.998370 0.118251
O O3 0.728441 0.089289 0.005315
O O4 0.849858 0.145302 0.988099
O O5 0.758355 0.399863 0.245726
O O6 0.881558 0.419511 0.316761
O O7 0.823237 0.281096 0.377178
O O8 0.088689 0.711279 0.391586
O O9 0.103610 0.565620 0.541220
O O10 0.098794 0.565148 0.249393
O O11 0.000000 0.596175 0.403580
O O12 0.138035 0.155115 0.724860
O O13 0.211611 0.141008 0.501270
O O14 0.293383 0.765753 0.857057
O O15 0.000000 0.462125 0.198587
#
# Coordination Sequence:
#
# PCOD9350646 Si02
#       7
#     8   8   8   8   8   8   8
#     4  10  20  32  51  79 106 140 175 219 276 327
#     4  10  20  32  50  75 106 146 172 221 272 322
#     4  10  22  38  57  78 108 149 189 231 273 328
#     4  10  20  32  50  79 104 137 174 221 275 332
#     4  10  20  35  52  75 107 138 177 223 273 326
#     4  10  22  37  53  79 109 147 193 226 269 330
#     4  10  18  32  49  75 106 137 178 215 270 331
#
# _framework density 18.374886
#
# number of rings (size 3 to 8) (size 9 to 14) (size 15 to 20)
#    0.000    2.286    0.000    6.857    6.000    1.143 
#    0.000    0.000    0.000    0.857    0.000    2.000 
#    0.000    0.000    0.000    0.000    0.000    0.000 
#
# Total GULP energy -155919.746424 kJ/mol
# GULP energy per Si atom -5568.562372 kJ/mol
# Density = 1.833306 g / cm^3
# Si number density = 18.374886 Si / 1000 Ang^3
#
#
#
# Elastic Constant Matrix: (Units=GPa)
#
#
# Indices 1 2 3 4 5 6 
#
# 1 14.7420 2.7890 4.3664 0.0000 0.0000 0.0000
# 2 2.7890 117.8343 31.0140 0.0000 0.0000 0.0000
# 3 4.3664 31.0140 85.4582 0.0000 0.0000 0.0000
# 4 0.0000 0.0000 0.0000 46.0865 0.0000 0.0000
# 5 0.0000 0.0000 0.0000 0.0000 -7.0713 0.0000
# 6 0.0000 0.0000 0.0000 0.0000 0.0000 23.4454
#
#
#
# Elastic Compliance Matrix: (Units=1/GPa)
#
#
# Indices 1 2 3 4 5 6 
#
# 1 0.068940 -0.000779 -0.003240 0.000000 0.000000 0.000000
# 2 -0.000779 0.009392 -0.003369 0.000000 0.000000 0.000000
# 3 -0.003240 -0.003369 0.013090 0.000000 0.000000 0.000000
# 4 0.000000 0.000000 0.000000 0.021698 0.000000 0.000000
# 5 0.000000 0.000000 0.000000 0.000000 -0.141418 0.000000
# 6 0.000000 0.000000 0.000000 0.000000 0.000000 0.042652
#
#
# Mechanical properties :
#
#
# Convention : Reuss Voigt Hill
#
# Bulk Modulus (GPa) = 13.04685 32.70816 22.87750
# Shear Modulus (GPa) = 91.44441 24.48313 57.96377
#
# Velocity S-wave (km/s) = 7.06215 3.65420 5.62260
# Velocity P-wave (km/s) = 8.57989 5.97020 7.39114
#
# Compressibility (1/GPa) = 0.07664688
#
# Stress axis : x y z
#
# Youngs Moduli (GPa) = 14.50531 106.47896 76.39624
#
# Poissons Ratio (x) = 0.08295 0.24750
# Poissons Ratio (y) = 0.01130 0.25734
# Poissons Ratio (z) = 0.04699 0.35868
#
# Static dielectric constant tensor:
#      x y z
#    x 1.655940 0.000000 0.000000 
#    y 0.000000 1.695290 0.000000 
#    z 0.000000 0.000000 1.679280 
# 
# From -- ./inp_files/5219.got.cif
#   From: 2010.05.17/outbox.cif.g08.bks.cpg/sg36_3_cif.got.tgz:5219.got - 2010.06.03 17:41:39.
