data_PCOD9350244
_publ_section_title
;
Structure prediction by ZEFSAII (Michael W. Deem and Ramdas Pophale) SiO2 
 PCOD9350244
Probable space group: C M M 2
;
_chemical_formula_sum "Si O2"
_cell_formula_units_Z 40
_cell_length_a 27.591969
_cell_length_b 8.004543
_cell_length_c 9.430525
_cell_angle_alpha 90.000000
_cell_angle_beta 90.000000
_cell_angle_gamma 90.000000
_cell_volume 2082.836147
_symmetry_space_group_name_H-M "C M M 2"
_symmetry_group_IT_number 35
_symmetry_cell_setting 'orthorhombic'
loop_
_space_group_symop_operation_xyz
x,y,z
-x,-y,z
-x,y,z
x,-y,z
1/2+x,1/2+y,z
1/2-x,1/2-y,z
1/2-x,1/2+y,z
1/2+x,1/2-y,z
loop_
_atom_site_type_symbol
_atom_site_label
_atom_site_fract_x
_atom_site_fract_y
_atom_site_fract_z
Si Si1 0.595064 0.798174 0.466080
Si Si2 0.093546 0.294892 0.795535
Si Si3 0.500000 0.204456 0.970380
Si Si4 0.000000 0.295428 0.296147
Si Si5 0.699433 0.303543 0.488329
Si Si6 0.302251 0.191636 0.812396
O O1 0.588625 0.745804 0.630547
O O2 0.549021 0.741265 0.375533
O O3 0.648140 0.737851 0.416709
O O4 0.595914 0.000000 0.463375
O O5 0.094221 0.500000 0.796535
O O6 0.145700 0.231798 0.851988
O O7 0.048059 0.240807 0.887666
O O8 0.500000 0.257263 0.133165
O O9 0.500000 0.000000 0.968804
O O10 0.000000 0.500000 0.299679
O O11 0.701529 0.500000 0.517343
O O12 0.750000 0.250000 0.416305
O O13 0.698535 0.209786 0.640581
O O14 0.250000 0.250000 0.864683
O O15 0.305015 0.000000 0.851573
#
# Coordination Sequence:
#
# PCOD9350244 Si02
#       6
#     8   8   4   4   8   8
#     4   9  16  28  44  67  93 119 147 182 221 262
#     4   8  14  23  39  61  89 115 140 174 218 259
#     4   9  15  25  41  65  88 112 146 187 222 254
#     4   9  17  27  44  65  88 116 152 189 222 258
#     4  10  17  26  42  66  92 119 146 181 222 265
#     4   9  15  24  39  63  91 118 143 177 219 263
#
# _framework density 19.204581000000001
#
# number of rings (size 3 to 8) (size 9 to 14) (size 15 to 20)
#    0.000    3.000    0.000    5.400    0.000    2.400 
#    0.000    0.500    0.000    1.200    0.000   18.900 
#    0.000    0.000    0.000    0.000    0.000    0.000 
#
# Total GULP energy -111365.084529 kJ/mol
# GULP energy per Si atom -5568.254226 kJ/mol
# Density = 1.916087 g / cm^3
# Si number density = 19.204581 Si / 1000 Ang^3
#
#
#
# Elastic Constant Matrix: (Units=GPa)
#
#
# Indices 1 2 3 4 5 6 
#
# 1 261.2658 14.0383 80.1986 0.0000 0.0000 0.0000
# 2 14.0383 12.9015 7.9626 0.0000 0.0000 0.0000
# 3 80.1986 7.9626 59.2355 0.0000 0.0000 0.0000
# 4 0.0000 0.0000 0.0000 2.4349 0.0000 0.0000
# 5 0.0000 0.0000 0.0000 0.0000 -3.4748 0.0000
# 6 0.0000 0.0000 0.0000 0.0000 0.0000 23.0344
#
#
#
# Elastic Compliance Matrix: (Units=1/GPa)
#
#
# Indices 1 2 3 4 5 6 
#
# 1 0.006588 -0.001814 -0.008676 0.000000 0.000000 0.000000
# 2 -0.001814 0.085022 -0.008973 0.000000 0.000000 0.000000
# 3 -0.008676 -0.008973 0.029834 0.000000 0.000000 0.000000
# 4 0.000000 0.000000 0.000000 0.410702 0.000000 0.000000
# 5 0.000000 0.000000 0.000000 0.000000 -0.287789 0.000000
# 6 0.000000 0.000000 0.000000 0.000000 0.000000 0.043413
#
#
# Mechanical properties :
#
#
# Convention : Reuss Voigt Hill
#
# Bulk Modulus (GPa) = 12.11846 59.75577 35.93711
# Shear Modulus (GPa) = 14.11624 19.81245 16.96434
#
# Velocity S-wave (km/s) = 2.71411 3.21542 2.97534
# Velocity P-wave (km/s) = 4.01818 6.70583 5.52783
#
# Compressibility (1/GPa) = 0.08251873
#
# Stress axis : x y z
#
# Youngs Moduli (GPa) = 151.78816 11.76167 33.51877
#
# Poissons Ratio (x) = 0.02134 0.29080
# Poissons Ratio (y) = 0.27536 0.30076
# Poissons Ratio (z) = 1.31688 0.10554
#
# Static dielectric constant tensor:
#      x y z
#    x 1.742360 0.000000 0.000000 
#    y 0.000000 1.691800 0.000000 
#    z 0.000000 0.000000 1.621080 
# 
# From -- ./inp_files/10083.got.cif
#   From: 2010.05.17/outbox.cif.g08.bks.cpg/sg35_6_cif.got.tgz:10083.got - 2010.06.03 17:29:28.
