data_PCOD9350404
_publ_section_title
;
Structure prediction by ZEFSAII (Michael W. Deem and Ramdas Pophale) SiO2 
 PCOD9350404
Probable space group: C M M 2
;
_chemical_formula_sum "Si O2"
_cell_formula_units_Z 56
_cell_length_a 18.748208
_cell_length_b 8.711117
_cell_length_c 18.758488
_cell_angle_alpha 90.000000
_cell_angle_beta 90.000000
_cell_angle_gamma 90.000000
_cell_volume 3063.595619
_symmetry_space_group_name_H-M "C M M 2"
_symmetry_group_IT_number 35
_symmetry_cell_setting 'orthorhombic'
loop_
_space_group_symop_operation_xyz
x,y,z
-x,-y,z
-x,y,z
x,-y,z
1/2+x,1/2+y,z
1/2-x,1/2-y,z
1/2-x,1/2+y,z
1/2+x,1/2-y,z
loop_
_atom_site_type_symbol
_atom_site_label
_atom_site_fract_x
_atom_site_fract_y
_atom_site_fract_z
Si Si1 0.669714 0.684410 0.530960
Si Si2 0.170509 0.815600 0.809698
Si Si3 0.083720 0.683571 0.941989
Si Si4 0.170022 0.683911 0.227041
Si Si5 0.918180 0.186958 0.670450
Si Si6 0.584606 0.681888 0.094687
Si Si7 0.830441 0.683933 0.384244
O O1 0.673866 0.500000 0.528813
O O2 0.750000 0.750000 0.538497
O O3 0.622550 0.732995 0.598441
O O4 0.637908 0.744390 0.456025
O O5 0.250000 0.750000 0.806567
O O6 0.130306 0.758179 0.880140
O O7 0.125636 0.764773 0.740229
O O8 0.173372 0.000000 0.810024
O O9 0.089149 0.500000 0.938572
O O10 0.000000 0.726370 0.932841
O O11 0.106680 0.740723 0.020179
O O12 0.173287 0.500000 0.222181
O O13 0.250000 0.750000 0.223032
O O14 0.124903 0.750424 0.162401
O O15 0.139258 0.722524 0.306005
O O16 0.000000 0.239931 0.672469
O O17 0.919315 0.000000 0.670797
O O18 0.500000 0.709256 0.102785
O O19 0.596808 0.500000 0.090060
O O20 0.828134 0.500000 0.391261
O O21 0.750000 0.750000 0.382484
#
# Coordination Sequence:
#
# PCOD9350404 Si02
#       7
#     8   8   8   8   8   8   8
#     4  10  18  30  52  77 103 135 173 218 263 312
#     4  11  22  37  58  82 110 141 177 221 266 315
#     4  10  21  38  59  82 109 140 176 218 265 318
#     4  10  20  34  54  79 108 142 180 224 271 318
#     4   9  19  35  54  77 105 139 177 216 262 315
#     4  10  21  37  57  81 109 142 180 219 263 318
#     4   9  17  30  49  74 104 137 174 216 263 314
#
# _framework density 18.279174999999999
#
# number of rings (size 3 to 8) (size 9 to 14) (size 15 to 20)
#    0.000    2.143    0.000    4.286    0.000    4.571 
#    0.000    5.714    0.000    7.714    0.000    0.000 
#    0.000    0.000    0.000    0.000    0.000    0.000 
#
# Total GULP energy -156268.760296 kJ/mol
# GULP energy per Si atom -5581.027153 kJ/mol
# Density = 1.823757 g / cm^3
# Si number density = 18.279175 Si / 1000 Ang^3
#
#
#
# Elastic Constant Matrix: (Units=GPa)
#
#
# Indices 1 2 3 4 5 6 
#
# 1 89.7333 40.4391 94.1125 0.0000 0.0000 0.0000
# 2 40.4391 56.3676 62.6010 0.0000 0.0000 0.0000
# 3 94.1125 62.6010 216.9223 0.0000 0.0000 0.0000
# 4 0.0000 0.0000 0.0000 19.2396 0.0000 0.0000
# 5 0.0000 0.0000 0.0000 0.0000 -55.1542 0.0000
# 6 0.0000 0.0000 0.0000 0.0000 0.0000 17.2648
#
#
#
# Elastic Compliance Matrix: (Units=1/GPa)
#
#
# Indices 1 2 3 4 5 6 
#
# 1 0.022574 -0.007827 -0.007535 0.000000 0.000000 0.000000
# 2 -0.007827 0.028822 -0.004922 0.000000 0.000000 0.000000
# 3 -0.007535 -0.004922 0.009300 0.000000 0.000000 0.000000
# 4 0.000000 0.000000 0.000000 0.051976 0.000000 0.000000
# 5 0.000000 0.000000 0.000000 0.000000 -0.018131 0.000000
# 6 0.000000 0.000000 0.000000 0.000000 0.000000 0.057921
#
#
# Mechanical properties :
#
#
# Convention : Reuss Voigt Hill
#
# Bulk Modulus (GPa) = 49.68207 84.14761 66.91484
# Shear Modulus (GPa) = 25.03257 7.32806 16.18031
#
# Velocity S-wave (km/s) = 3.70463 2.00441 2.97842
# Velocity P-wave (km/s) = 6.74816 7.17576 6.96524
#
# Compressibility (1/GPa) = 0.02012799
#
# Stress axis : x y z
#
# Youngs Moduli (GPa) = 44.29820 34.69572 107.53154
#
# Poissons Ratio (x) = 0.27155 0.81028
# Poissons Ratio (y) = 0.34670 0.52928
# Poissons Ratio (z) = 0.33380 0.17077
#
# Static dielectric constant tensor:
#      x y z
#    x 1.603360 0.000000 0.000000 
#    y 0.000000 1.621350 0.000000 
#    z 0.000000 0.000000 1.638460 
# 
# From -- ./inp_files/15611.got.cif
#   From: 2010.05.17/outbox.cif.g08.bks.cpg/sg35_8_cif.got.tgz:15611.got - 2010.06.03 17:29:28.
