data_PCOD9350179
_publ_section_title
;
Structure prediction by ZEFSAII (Michael W. Deem and Ramdas Pophale) SiO2 
 PCOD9350179
Probable space group: C M M 2
;
_chemical_formula_sum "Si O2"
_cell_formula_units_Z 24
_cell_length_a 15.000000
_cell_length_b 9.000000
_cell_length_c 18.000000
_cell_angle_alpha 90.000000
_cell_angle_beta 90.000000
_cell_angle_gamma 90.000000
_cell_volume 2430.000000
_symmetry_space_group_name_H-M "C M M 2"
_symmetry_group_IT_number 35
_symmetry_cell_setting 'orthorhombic'
loop_
_space_group_symop_operation_xyz
x,y,z
-x,-y,z
-x,y,z
x,-y,z
1/2+x,1/2+y,z
1/2-x,1/2-y,z
1/2-x,1/2+y,z
1/2+x,1/2-y,z
loop_
_atom_site_type_symbol
_atom_site_label
_atom_site_fract_x
_atom_site_fract_y
_atom_site_fract_z
Si Si1 0.653265 0.676375 0.122020
Si Si2 0.655978 0.829009 0.816049
Si Si3 0.000000 0.331794 0.207413
Si Si4 0.000000 0.824927 0.556174
Si Si5 0.157450 0.169578 0.460484
Si Si6 0.500000 0.835325 0.699243
Si Si7 0.348178 0.676414 0.958648
Si Si8 0.500000 0.662157 0.342812
O O1 0.661432 0.500000 0.130934
O O2 0.750000 0.750000 0.127134
O O3 0.586933 0.747802 0.179438
O O4 0.613539 0.706166 0.039771
O O5 0.750000 0.750000 0.799675
O O6 0.587588 0.825185 0.749183
O O7 0.610548 0.749793 0.886589
O O8 0.674157 0.000000 0.835405
O O9 0.000000 0.500000 0.182377
O O10 0.000000 0.308748 0.294615
O O11 0.908112 0.762055 0.522823
O O12 0.000000 0.796789 0.642003
O O13 0.000000 0.000000 0.536065
O O14 0.250000 0.250000 0.447229
O O15 0.089506 0.164852 0.391445
O O16 0.179443 0.000000 0.481404
O O17 0.500000 0.000000 0.663080
O O18 0.342642 0.500000 0.949848
O O19 0.250000 0.750000 0.960751
O O20 0.500000 0.500000 0.302737
#
# Coordination Sequence:
#
# PCOD9350179 Si02
#       8
#     8   8   4   4   8   4   8   4
#     4  10  21  38  58  81 111 147 189 237 287 338
#     4  10  20  35  53  75 105 141 182 227 275 325
#     4  12  25  38  56  84 116 152 191 228 276 334
#     4   9  20  38  57  81 113 144 176 215 262 318
#     4   9  19  37  62  88 111 141 178 216 264 319
#     4  10  23  38  52  76 110 146 181 220 268 318
#     4   9  17  31  53  78 103 136 181 231 280 328
#     4   9  20  40  59  79 115 150 178 221 270 320
#
# _framework density 9.8765429999999999
#
# number of rings (size 3 to 8) (size 9 to 14) (size 15 to 20)
#    0.000    2.333    0.000    4.250    0.000    6.667 
#    0.000    8.333    0.000    0.000    0.000    0.000 
#    0.000    0.000    0.000    0.000    0.000    0.000 
#
# Total GULP energy -133658.160028 kJ/mol
# GULP energy per Si atom -5569.090001 kJ/mol
# Density = 0.985406 g / cm^3
# Si number density = 9.876543 Si / 1000 Ang^3
#
#
#
# Elastic Constant Matrix: (Units=GPa)
#
#
# Indices 1 2 3 4 5 6 
#
# 1 123.2328 43.1502 27.1449 0.0000 0.0000 0.0000
# 2 43.1502 76.9990 28.0648 0.0000 0.0000 0.0000
# 3 27.1449 28.0648 46.6828 0.0000 0.0000 0.0000
# 4 0.0000 0.0000 0.0000 23.3762 0.0000 0.0000
# 5 0.0000 0.0000 0.0000 0.0000 -18.3274 0.0000
# 6 0.0000 0.0000 0.0000 0.0000 0.0000 -54.7787
#
#
#
# Elastic Compliance Matrix: (Units=1/GPa)
#
#
# Indices 1 2 3 4 5 6 
#
# 1 0.010474 -0.004674 -0.003280 0.000000 0.000000 0.000000
# 2 -0.004674 0.018717 -0.008535 0.000000 0.000000 0.000000
# 3 -0.003280 -0.008535 0.028460 0.000000 0.000000 0.000000
# 4 0.000000 0.000000 0.000000 0.042779 0.000000 0.000000
# 5 0.000000 0.000000 0.000000 0.000000 -0.054563 0.000000
# 6 0.000000 0.000000 0.000000 0.000000 0.000000 -0.018255
#
#
# Mechanical properties :
#
#
# Convention : Reuss Voigt Hill
#
# Bulk Modulus (GPa) = 40.53078 49.29270 44.91174
# Shear Modulus (GPa) = 72.66099 -0.04231 36.30934
#
# Velocity S-wave (km/s) = 6.07161 -0.14651 4.29203
# Velocity P-wave (km/s) = 8.34960 4.99800 6.88098
#
# Compressibility (1/GPa) = 0.02467261
#
# Stress axis : x y z
#
# Youngs Moduli (GPa) = 95.47547 53.42699 35.13764
#
# Poissons Ratio (x) = 0.24971 0.11527
# Poissons Ratio (y) = 0.44624 0.29989
# Poissons Ratio (z) = 0.31320 0.45598
#
# Static dielectric constant tensor:
#      x y z
#    x 1.613510 0.000000 0.000000 
#    y 0.000000 1.681060 0.000000 
#    z 0.000000 0.000000 1.746630 
# 
# From -- ./inp_files/18834.got.cif
#   From: 2010.05.17/outbox.ucp.g08.bks.cvg/sg35_10_cif.got.tgz:18834.got - 2010.06.11 10:36:28.
