data_PCOD9350495
_publ_section_title
;
Structure prediction by ZEFSAII (Michael W. Deem and Ramdas Pophale) SiO2 
 PCOD9350495
Probable space group: C M C 21
;
_chemical_formula_sum "Si O2"
_cell_formula_units_Z 52
_cell_length_a 7.918988
_cell_length_b 35.922203
_cell_length_c 6.851419
_cell_angle_alpha 90.000000
_cell_angle_beta 90.000000
_cell_angle_gamma 90.000000
_cell_volume 1949.005997
_symmetry_space_group_name_H-M "C M C 21"
_symmetry_group_IT_number 36
_symmetry_cell_setting 'orthorhombic'
loop_
_space_group_symop_operation_xyz
x,y,z
-x,-y,1/2+z
x,-y,1/2+z
-x,y,z
1/2+x,1/2+y,z
1/2-x,1/2-y,1/2+z
1/2+x,1/2-y,1/2+z
1/2-x,1/2+y,z
loop_
_atom_site_type_symbol
_atom_site_label
_atom_site_fract_x
_atom_site_fract_y
_atom_site_fract_z
Si Si1 0.310941 0.277362 0.431050
Si Si2 0.685138 0.303389 0.878830
Si Si3 0.795889 0.854885 0.350634
Si Si4 0.000000 0.512503 0.657585
Si Si5 0.313328 0.120291 0.279210
Si Si6 0.806733 0.933908 0.214151
Si Si7 0.813730 0.955328 0.676252
O O1 0.500000 0.268809 0.361762
O O2 0.318765 0.294345 0.647140
O O3 0.224122 0.237739 0.455304
O O4 0.240198 0.312255 0.306208
O O5 0.500000 0.314950 0.946469
O O6 0.791321 0.340849 0.892763
O O7 0.709937 0.867114 0.552596
O O8 0.770121 0.889690 0.208643
O O9 0.000000 0.852991 0.382827
O O10 0.848122 0.543137 0.628916
O O11 0.849112 0.481346 0.707330
O O12 0.500000 0.106225 0.308467
O O13 0.196293 0.083904 0.291807
O O14 0.804964 0.944882 0.446055
O O15 0.000000 0.941047 0.150545
O O16 0.000000 0.972395 0.713359
#
# Coordination Sequence:
#
# PCOD9350495 Si02
#       7
#     8   8   8   4   8   8   8
#     4   9  18  33  52  77 110 143 182 228 275 332
#     4  10  20  33  51  79 112 144 182 229 282 332
#     4   8  16  31  50  74 104 135 170 220 276 326
#     4  12  20  30  52  82 104 132 178 226 278 332
#     4  10  17  29  51  77 101 134 177 220 271 331
#     4   9  19  34  52  75 107 141 176 225 278 327
#     4  10  20  35  52  76 109 140 176 227 279 327
#
# _framework density 26.680268999999999
#
# number of rings (size 3 to 8) (size 9 to 14) (size 15 to 20)
#    0.000    2.462    0.769    4.615    3.231    3.077 
#    0.000    0.000    0.000    3.692    0.000    4.308 
#    0.000    0.000    0.000    0.000    0.000    0.000 
#
# Total GULP energy -144854.877266 kJ/mol
# GULP energy per Si atom -5571.341433 kJ/mol
# Density = 2.661954 g / cm^3
# Si number density = 26.680269 Si / 1000 Ang^3
#
#
#
# Elastic Constant Matrix: (Units=GPa)
#
#
# Indices 1 2 3 4 5 6 
#
# 1 191.6629 90.5270 15.5584 0.0000 0.0000 0.0000
# 2 90.5270 218.9155 32.9617 0.0000 0.0000 0.0000
# 3 15.5584 32.9617 82.3184 0.0000 0.0000 0.0000
# 4 0.0000 0.0000 0.0000 2059.7070 0.0000 0.0000
# 5 0.0000 0.0000 0.0000 0.0000 -12.1867 0.0000
# 6 0.0000 0.0000 0.0000 0.0000 0.0000 52.3543
#
#
#
# Elastic Compliance Matrix: (Units=1/GPa)
#
#
# Indices 1 2 3 4 5 6 
#
# 1 0.006486 -0.002658 -0.000162 0.000000 0.000000 0.000000
# 2 -0.002658 0.005950 -0.001880 0.000000 0.000000 0.000000
# 3 -0.000162 -0.001880 0.012931 0.000000 0.000000 0.000000
# 4 0.000000 0.000000 0.000000 0.000486 0.000000 0.000000
# 5 0.000000 0.000000 0.000000 0.000000 -0.082057 0.000000
# 6 0.000000 0.000000 0.000000 0.000000 0.000000 0.019101
#
#
# Mechanical properties :
#
#
# Convention : Reuss Voigt Hill
#
# Bulk Modulus (GPa) = 62.62444 85.66567 74.14506
# Shear Modulus (GPa) = -223.40067 443.56491 110.08212
#
# Velocity S-wave (km/s) = -9.16048 12.90786 6.43034
# Velocity P-wave (km/s) = 9.40014 15.94768 9.10950
#
# Compressibility (1/GPa) = 0.01596821
#
# Stress axis : x y z
#
# Youngs Moduli (GPa) = 154.17968 168.06385 77.33130
#
# Poissons Ratio (x) = 0.44667 0.01250
# Poissons Ratio (y) = 0.40977 0.14540
# Poissons Ratio (z) = 0.02492 0.31599
#
# Static dielectric constant tensor:
#      x y z
#    x 1.987970 0.000000 0.000000 
#    y 0.000000 2.038920 0.000000 
#    z 0.000000 0.000000 2.288310 
# 
# From -- ./inp_files/7012.got.cif
#   From: 2010.05.17/outbox.cif.g08.bks.cpg/sg36_4_cif.got.tgz:7012.got - 2010.06.03 17:41:39.
