data_PCOD9350317
_publ_section_title
;
Structure prediction by ZEFSAII (Michael W. Deem and Ramdas Pophale) SiO2 
 PCOD9350317
Probable space group: C M M 2
;
_chemical_formula_sum "Si O2"
_cell_formula_units_Z 40
_cell_length_a 27.045217
_cell_length_b 7.634698
_cell_length_c 9.964203
_cell_angle_alpha 90.000000
_cell_angle_beta 90.000000
_cell_angle_gamma 90.000000
_cell_volume 2057.429203
_symmetry_space_group_name_H-M "C M M 2"
_symmetry_group_IT_number 35
_symmetry_cell_setting 'orthorhombic'
loop_
_space_group_symop_operation_xyz
x,y,z
-x,-y,z
-x,y,z
x,-y,z
1/2+x,1/2+y,z
1/2-x,1/2-y,z
1/2-x,1/2+y,z
1/2+x,1/2-y,z
loop_
_atom_site_type_symbol
_atom_site_label
_atom_site_fract_x
_atom_site_fract_y
_atom_site_fract_z
Si Si1 0.194488 0.710105 0.309370
Si Si2 0.392855 0.215514 0.501790
Si Si3 0.500000 0.801925 0.480849
Si Si4 0.194300 0.289437 0.003509
Si Si5 0.000000 0.202604 0.784445
Si Si6 0.607338 0.789214 0.811330
O O1 0.189732 0.500000 0.303905
O O2 0.250000 0.750000 0.356442
O O3 0.152066 0.774124 0.408918
O O4 0.189554 0.777332 0.156562
O O5 0.446548 0.276676 0.448646
O O6 0.387002 0.270896 0.656820
O O7 0.394112 0.000000 0.502198
O O8 0.500000 0.807819 0.644226
O O9 0.500000 0.000000 0.427288
O O10 0.189884 0.500000 0.008599
O O11 0.250000 0.250000 0.956164
O O12 0.151023 0.223249 0.906697
O O13 0.948307 0.241974 0.856520
O O14 0.000000 0.000000 0.746171
O O15 0.610193 0.000000 0.809268
#
# Coordination Sequence:
#
# PCOD9350317 Si02
#       6
#     8   8   4   8   4   8
#     4   9  17  30  45  64  88 116 147 180 217 260
#     4   8  14  26  46  66  85 110 144 179 214 256
#     4   8  14  28  47  64  86 118 146 176 220 266
#     4   9  18  31  47  65  89 119 151 184 222 264
#     4  10  18  28  45  70  94 116 144 184 226 264
#     4   9  17  31  48  66  89 120 151 181 218 265
#
# _framework density 19.441738000000001
#
# number of rings (size 3 to 8) (size 9 to 14) (size 15 to 20)
#    0.000    3.200    0.000    2.100    0.000    1.600 
#    0.000    5.000    0.000    4.800    0.000    5.600 
#    0.000    0.000    0.000    0.000    0.000    0.000 
#
# Total GULP energy -111426.325609 kJ/mol
# GULP energy per Si atom -5571.316280 kJ/mol
# Density = 1.939749 g / cm^3
# Si number density = 19.441738 Si / 1000 Ang^3
#
#
#
# Elastic Constant Matrix: (Units=GPa)
#
#
# Indices 1 2 3 4 5 6 
#
# 1 242.4334 0.1868 102.1316 0.0000 0.0000 0.0000
# 2 0.1868 43.4755 4.8635 0.0000 0.0000 0.0000
# 3 102.1316 4.8635 66.0207 0.0000 0.0000 0.0000
# 4 0.0000 0.0000 0.0000 3.1494 0.0000 0.0000
# 5 0.0000 0.0000 0.0000 0.0000 -29.2130 0.0000
# 6 0.0000 0.0000 0.0000 0.0000 0.0000 19.9623
#
#
#
# Elastic Compliance Matrix: (Units=1/GPa)
#
#
# Indices 1 2 3 4 5 6 
#
# 1 0.012021 0.002045 -0.018746 0.000000 0.000000 0.000000
# 2 0.002045 0.023541 -0.004898 0.000000 0.000000 0.000000
# 3 -0.018746 -0.004898 0.044507 0.000000 0.000000 0.000000
# 4 0.000000 0.000000 0.000000 0.317518 0.000000 0.000000
# 5 0.000000 0.000000 0.000000 0.000000 -0.034231 0.000000
# 6 0.000000 0.000000 0.000000 0.000000 0.000000 0.050094
#
#
# Mechanical properties :
#
#
# Convention : Reuss Voigt Hill
#
# Bulk Modulus (GPa) = 27.12205 62.92147 45.02176
# Shear Modulus (GPa) = 10.66240 15.09625 12.87932
#
# Velocity S-wave (km/s) = 2.34440 2.78957 2.57662
# Velocity P-wave (km/s) = 4.61616 6.54294 5.66211
#
# Compressibility (1/GPa) = 0.03687037
#
# Stress axis : x y z
#
# Youngs Moduli (GPa) = 83.19099 42.47970 22.46836
#
# Poissons Ratio (x) = -0.08689 0.42119
# Poissons Ratio (y) = -0.17016 0.11006
# Poissons Ratio (z) = 1.55950 0.20808
#
# Static dielectric constant tensor:
#      x y z
#    x 1.699540 0.000000 0.000000 
#    y 0.000000 1.738860 0.000000 
#    z 0.000000 0.000000 1.658460 
# 
# From -- ./inp_files/5023.got.cif
#   From: 2010.05.17/outbox.cif.g08.bks.cpg/sg35_3_cif.got.tgz:5023.got - 2010.06.03 17:29:28.
