data_PCOD9350678
_publ_section_title
;
Structure prediction by ZEFSAII (Michael W. Deem and Ramdas Pophale) SiO2 
 PCOD9350678
Probable space group: C M C 21
;
_chemical_formula_sum "Si O2"
_cell_formula_units_Z 64
_cell_length_a 7.722867
_cell_length_b 23.442282
_cell_length_c 17.106609
_cell_angle_alpha 90.000000
_cell_angle_beta 90.000000
_cell_angle_gamma 90.000000
_cell_volume 3097.008310
_symmetry_space_group_name_H-M "C M C 21"
_symmetry_group_IT_number 36
_symmetry_cell_setting 'orthorhombic'
loop_
_space_group_symop_operation_xyz
x,y,z
-x,-y,1/2+z
x,-y,1/2+z
-x,y,z
1/2+x,1/2+y,z
1/2-x,1/2-y,1/2+z
1/2+x,1/2-y,1/2+z
1/2-x,1/2+y,z
loop_
_atom_site_type_symbol
_atom_site_label
_atom_site_fract_x
_atom_site_fract_y
_atom_site_fract_z
Si Si1 0.291648 0.709996 0.843700
Si Si2 0.788669 0.599294 0.160258
Si Si3 0.693860 0.920337 0.952201
Si Si4 0.793590 0.634666 0.992142
Si Si5 0.786817 0.339687 0.820632
Si Si6 0.696577 0.528939 0.888527
Si Si7 0.300323 0.974566 0.106633
Si Si8 0.794641 0.107658 0.739222
O O1 0.500000 0.709122 0.838355
O O2 0.252535 0.684073 0.929808
O O3 0.232901 0.773905 0.826710
O O4 0.227916 0.666452 0.776574
O O5 0.730345 0.627609 0.241664
O O6 0.730529 0.533629 0.143705
O O7 0.000000 0.598621 0.164068
O O8 0.738317 0.635926 0.082952
O O9 0.500000 0.901055 0.975264
O O10 0.773913 0.871303 0.899444
O O11 0.683727 0.974733 0.895415
O O12 0.781683 0.948408 0.028052
O O13 0.723927 0.575449 0.956332
O O14 0.000000 0.630809 0.991933
O O15 0.000000 0.341407 0.821110
O O16 0.500000 0.508344 0.889907
O O17 0.724878 0.563176 0.809686
O O18 0.500000 0.988666 0.085939
O O19 0.294016 0.922590 0.166972
O O20 0.000000 0.113556 0.721718
#
# Coordination Sequence:
#
# PCOD9350678 Si02
#       8
#     8   8   8   8   8   8   8   8
#     4   9  19  37  55  74 103 140 186 223 259 321
#     4   9  17  31  52  80 106 133 172 218 265 318
#     4  10  19  33  54  79 107 141 177 218 265 317
#     4  10  18  32  55  80 106 135 176 225 265 312
#     4   9  18  34  56  76 103 146 185 217 262 318
#     4  10  19  32  52  78 108 140 173 212 267 324
#     4  10  19  32  51  80 110 132 169 219 267 320
#     4   9  19  33  49  73 101 135 176 214 258 312
#
# _framework density 20.665105000000001
#
# number of rings (size 3 to 8) (size 9 to 14) (size 15 to 20)
#    0.000    2.500    1.250    2.250    0.000    4.000 
#    2.250    0.625    0.000    3.000    0.000    0.000 
#    0.000    0.000    0.000    0.000    0.000    0.000 
#
# Total GULP energy -178358.247944 kJ/mol
# GULP energy per Si atom -5573.695248 kJ/mol
# Density = 2.061807 g / cm^3
# Si number density = 20.665105 Si / 1000 Ang^3
#
#
#
# Elastic Constant Matrix: (Units=GPa)
#
#
# Indices 1 2 3 4 5 6 
#
# 1 16.2267 17.0904 10.6046 0.0000 0.0000 0.0000
# 2 17.0904 142.4628 81.7336 0.0000 0.0000 0.0000
# 3 10.6046 81.7336 101.7743 0.0000 0.0000 0.0000
# 4 0.0000 0.0000 0.0000 24.0342 0.0000 0.0000
# 5 0.0000 0.0000 0.0000 0.0000 18.1361 0.0000
# 6 0.0000 0.0000 0.0000 0.0000 0.0000 12.6674
#
#
#
# Elastic Compliance Matrix: (Units=1/GPa)
#
#
# Indices 1 2 3 4 5 6 
#
# 1 0.070597 -0.007879 -0.001028 0.000000 0.000000 0.000000
# 2 -0.007879 0.013896 -0.010339 0.000000 0.000000 0.000000
# 3 -0.001028 -0.010339 0.018236 0.000000 0.000000 0.000000
# 4 0.000000 0.000000 0.000000 0.041607 0.000000 0.000000
# 5 0.000000 0.000000 0.000000 0.000000 0.055139 0.000000
# 6 0.000000 0.000000 0.000000 0.000000 0.000000 0.078943
#
#
# Mechanical properties :
#
#
# Convention : Reuss Voigt Hill
#
# Bulk Modulus (GPa) = 15.56747 53.25790 34.41268
# Shear Modulus (GPa) = 14.77878 21.03657 17.90767
#
# Velocity S-wave (km/s) = 2.67714 3.19403 2.94694
# Velocity P-wave (km/s) = 4.13590 6.27936 5.31677
#
# Compressibility (1/GPa) = 0.06423653
#
# Stress axis : x y z
#
# Youngs Moduli (GPa) = 14.16485 71.96218 54.83710
#
# Poissons Ratio (x) = 0.56700 0.05639
# Poissons Ratio (y) = 0.11161 0.56695
# Poissons Ratio (z) = 0.01457 0.74401
#
# Static dielectric constant tensor:
#      x y z
#    x 1.786070 0.000000 0.000000 
#    y 0.000000 1.724260 0.000000 
#    z 0.000000 0.000000 1.790820 
# 
# From -- ./inp_files/10913.got.cif
#   From: 2010.05.17/outbox.cif.g08.bks.cpg/sg36_6_cif.got.tgz:10913.got - 2010.06.03 17:41:39.
