data_PCOD9350956
_publ_section_title
;
Structure prediction by ZEFSAII (Michael W. Deem and Ramdas Pophale) SiO2 
 PCOD9350956
Probable space group: C M C 21
;
_chemical_formula_sum "Si O2"
_cell_formula_units_Z 64
_cell_length_a 9.481255
_cell_length_b 25.455196
_cell_length_c 14.138326
_cell_angle_alpha 90.000000
_cell_angle_beta 90.000000
_cell_angle_gamma 90.000000
_cell_volume 3412.245454
_symmetry_space_group_name_H-M "C M C 21"
_symmetry_group_IT_number 36
_symmetry_cell_setting 'orthorhombic'
loop_
_space_group_symop_operation_xyz
x,y,z
-x,-y,1/2+z
x,-y,1/2+z
-x,y,z
1/2+x,1/2+y,z
1/2-x,1/2-y,1/2+z
1/2+x,1/2-y,1/2+z
1/2-x,1/2+y,z
loop_
_atom_site_type_symbol
_atom_site_label
_atom_site_fract_x
_atom_site_fract_y
_atom_site_fract_z
Si Si1 0.328693 0.795317 0.239740
Si Si2 0.338900 0.567879 0.047574
Si Si3 0.171064 0.190714 0.345460
Si Si4 0.836772 0.076972 0.274825
Si Si5 0.331001 0.666793 0.552364
Si Si6 0.159659 0.624107 0.903792
Si Si7 0.161173 0.477120 0.272655
Si Si8 0.668692 0.453163 0.084401
O O1 0.500000 0.798265 0.228053
O O2 0.286787 0.737448 0.275762
O O3 0.252671 0.813110 0.143842
O O4 0.290010 0.833895 0.326651
O O5 0.500000 0.571689 0.014708
O O6 0.334813 0.575448 0.160552
O O7 0.291134 0.507272 0.031373
O O8 0.250993 0.612363 0.995385
O O9 0.214233 0.133467 0.309180
O O10 0.212568 0.195743 0.455427
O O11 0.000000 0.190909 0.345187
O O12 0.000000 0.069330 0.305602
O O13 0.740585 0.029035 0.307127
O O14 0.500000 0.673404 0.566369
O O15 0.306958 0.603836 0.539075
O O16 0.158774 0.568632 0.849237
O O17 0.000000 0.638795 0.930000
O O18 0.246842 0.455465 0.182512
O O19 0.000000 0.489315 0.245239
O O20 0.500000 0.457577 0.102650
#
# Coordination Sequence:
#
# PCOD9350956 Si02
#       8
#     8   8   8   8   8   8   8   8
#     4  10  21  40  59  80 114 153 188 227 278 332
#     4   9  19  32  51  81 112 143 182 226 274 326
#     4   9  20  38  62  84 108 147 190 230 278 333
#     4   9  19  37  57  80 109 143 184 230 279 328
#     4  10  20  36  59  86 109 140 188 236 277 325
#     4  10  21  34  50  77 112 150 186 218 268 332
#     4  10  19  32  51  78 111 146 182 221 274 334
#     4   9  18  33  53  80 111 142 184 232 278 324
#
# _framework density 18.755977999999999
#
# number of rings (size 3 to 8) (size 9 to 14) (size 15 to 20)
#    0.000    2.500    1.250    1.125    1.750    4.500 
#    0.000    1.875    0.000    0.000    0.000    0.000 
#    0.000    0.000    0.000    0.000    0.000    0.000 
#
# Total GULP energy -178428.329603 kJ/mol
# GULP energy per Si atom -5575.885300 kJ/mol
# Density = 1.871329 g / cm^3
# Si number density = 18.755978 Si / 1000 Ang^3
#
#
#
# Elastic Constant Matrix: (Units=GPa)
#
#
# Indices 1 2 3 4 5 6 
#
# 1 23.5560 17.8755 11.5176 0.0000 0.0000 0.0000
# 2 17.8755 87.2898 20.9339 0.0000 0.0000 0.0000
# 3 11.5176 20.9339 46.8919 0.0000 0.0000 0.0000
# 4 0.0000 0.0000 0.0000 25.3074 0.0000 0.0000
# 5 0.0000 0.0000 0.0000 0.0000 25.7448 0.0000
# 6 0.0000 0.0000 0.0000 0.0000 0.0000 17.1974
#
#
#
# Elastic Compliance Matrix: (Units=1/GPa)
#
#
# Indices 1 2 3 4 5 6 
#
# 1 0.053629 -0.008761 -0.009261 0.000000 0.000000 0.000000
# 2 -0.008761 0.014261 -0.004215 0.000000 0.000000 0.000000
# 3 -0.009261 -0.004215 0.025482 0.000000 0.000000 0.000000
# 4 0.000000 0.000000 0.000000 0.039514 0.000000 0.000000
# 5 0.000000 0.000000 0.000000 0.000000 0.038843 0.000000
# 6 0.000000 0.000000 0.000000 0.000000 0.000000 0.058148
#
#
# Mechanical properties :
#
#
# Convention : Reuss Voigt Hill
#
# Bulk Modulus (GPa) = 20.45083 28.71020 24.58052
# Shear Modulus (GPa) = 17.20283 20.81064 19.00673
#
# Velocity S-wave (km/s) = 3.03180 3.33460 3.18680
# Velocity P-wave (km/s) = 4.81488 5.49241 5.16477
#
# Compressibility (1/GPa) = 0.04889776
#
# Stress axis : x y z
#
# Youngs Moduli (GPa) = 18.64671 70.12129 39.24364
#
# Poissons Ratio (x) = 0.61435 0.36344
# Poissons Ratio (y) = 0.16337 0.16539
# Poissons Ratio (z) = 0.17269 0.29553
#
# Static dielectric constant tensor:
#      x y z
#    x 1.646560 0.000000 0.000000 
#    y 0.000000 1.662030 0.000000 
#    z 0.000000 0.000000 1.647590 
# 
# From -- ./inp_files/11001.got.cif
#   From: 2010.05.17/outbox.cif.g08.bks.cpg/sg36_6_cif.got.tgz:11001.got - 2010.06.03 17:41:39.
