data_PCOD9350069
_publ_section_title
;
Structure prediction by ZEFSAII (Michael W. Deem and Ramdas Pophale) SiO2 
 PCOD9350069
Probable space group: C M M 2
;
_chemical_formula_sum "Si O2"
_cell_formula_units_Z 48
_cell_length_a 39.397403
_cell_length_b 8.083596
_cell_length_c 7.832904
_cell_angle_alpha 90.000000
_cell_angle_beta 90.000000
_cell_angle_gamma 90.000000
_cell_volume 2494.566002
_symmetry_space_group_name_H-M "C M M 2"
_symmetry_group_IT_number 35
_symmetry_cell_setting 'orthorhombic'
loop_
_space_group_symop_operation_xyz
x,y,z
-x,-y,z
-x,y,z
x,-y,z
1/2+x,1/2+y,z
1/2-x,1/2-y,z
1/2-x,1/2+y,z
1/2+x,1/2-y,z
loop_
_atom_site_type_symbol
_atom_site_label
_atom_site_fract_x
_atom_site_fract_y
_atom_site_fract_z
Si Si1 0.288212 0.800481 0.870950
Si Si2 0.538495 0.300521 0.483406
Si Si3 0.086533 0.303513 0.177114
Si Si4 0.663758 0.203112 0.176987
Si Si5 0.288211 0.800483 0.483024
Si Si6 0.461503 0.699485 0.870815
O O1 0.250000 0.750000 0.919725
O O2 0.294483 0.740794 0.676986
O O3 0.289396 0.000000 0.868061
O O4 0.315489 0.743169 0.009365
O O5 0.500000 0.244803 0.440566
O O6 0.537852 0.500000 0.484859
O O7 0.565452 0.247416 0.343784
O O8 0.546243 0.244869 0.677108
O O9 0.088925 0.500000 0.177187
O O10 0.125005 0.238002 0.177037
O O11 0.065448 0.252669 0.010429
O O12 0.684515 0.256825 0.344598
O O13 0.663656 0.000000 0.176974
O O14 0.250000 0.750000 0.434251
O O15 0.289396 0.000000 0.485917
O O16 0.500000 0.755165 0.913638
O O17 0.462135 0.500000 0.869407
#
# Coordination Sequence:
#
# PCOD9350069 Si02
#       6
#     8   8   8   8   8   8
#     4   9  17  31  51  71  92 122 161 202 241 284
#     4   9  19  37  58  76  98 134 176 213 253 304
#     4  11  22  33  50  79 110 137 168 209 255 303
#     4   9  19  33  47  68 100 135 162 187 237 305
#     4   9  17  31  51  71  92 122 161 202 241 284
#     4   9  19  37  58  76  98 134 176 213 253 304
#
# _framework density 19.241824999999999
#
# number of rings (size 3 to 8) (size 9 to 14) (size 15 to 20)
#    0.000    2.667    0.000    2.500    0.000    4.667 
#    0.000    8.333    0.000    4.000    0.000    0.000 
#    0.000    0.000    0.000    0.000    0.000    0.000 
#
# Total GULP energy -133916.146859 kJ/mol
# GULP energy per Si atom -5579.839452 kJ/mol
# Density = 1.919803 g / cm^3
# Si number density = 19.241825 Si / 1000 Ang^3
#
#
#
# Elastic Constant Matrix: (Units=GPa)
#
#
# Indices 1 2 3 4 5 6 
#
# 1 205.1591 13.6023 150.2647 0.0000 0.0000 0.0000
# 2 13.6023 11.0477 14.0755 0.0000 0.0000 0.0000
# 3 150.2647 14.0755 158.7385 0.0000 0.0000 0.0000
# 4 0.0000 0.0000 0.0000 70.6184 0.0000 0.0000
# 5 0.0000 0.0000 0.0000 0.0000 -15.9469 0.0000
# 6 0.0000 0.0000 0.0000 0.0000 0.0000 25.5093
#
#
#
# Elastic Compliance Matrix: (Units=1/GPa)
#
#
# Indices 1 2 3 4 5 6 
#
# 1 0.015896 -0.000451 -0.015008 0.000000 0.000000 0.000000
# 2 -0.000451 0.102057 -0.008622 0.000000 0.000000 0.000000
# 3 -0.015008 -0.008622 0.021271 0.000000 0.000000 0.000000
# 4 0.000000 0.000000 0.000000 0.014161 0.000000 0.000000
# 5 0.000000 0.000000 0.000000 0.000000 -0.062708 0.000000
# 6 0.000000 0.000000 0.000000 0.000000 0.000000 0.039201
#
#
# Mechanical properties :
#
#
# Convention : Reuss Voigt Hill
#
# Bulk Modulus (GPa) = 10.98156 81.20338 46.09247
# Shear Modulus (GPa) = 23.99292 29.16967 26.58130
#
# Velocity S-wave (km/s) = 3.53500 3.89775 3.72080
# Velocity P-wave (km/s) = 4.73087 7.90884 6.51655
#
# Compressibility (1/GPa) = 0.09106173
#
# Stress axis : x y z
#
# Youngs Moduli (GPa) = 62.90799 9.79842 47.01295
#
# Poissons Ratio (x) = 0.00442 0.70555
# Poissons Ratio (y) = 0.02839 0.40536
# Poissons Ratio (z) = 0.94410 0.08449
#
# Static dielectric constant tensor:
#      x y z
#    x 1.648830 0.000000 0.000000 
#    y 0.000000 1.685220 0.000000 
#    z 0.000000 0.000000 1.677020 
# 
# From -- ./inp_files/10483.got.cif
#   From: 2010.05.17/outbox.cif.g08.bks.cpg/sg35_6_cif.got.tgz:10483.got - 2010.06.03 17:29:28.
