data_PCOD9350020
_publ_section_title
;
Structure prediction by ZEFSAII (Michael W. Deem and Ramdas Pophale) SiO2 
 PCOD9350020
Probable space group: C M M 2
;
_chemical_formula_sum "Si O2"
_cell_formula_units_Z 32
_cell_length_a 15.679838
_cell_length_b 7.684894
_cell_length_c 13.909863
_cell_angle_alpha 90.000000
_cell_angle_beta 90.000000
_cell_angle_gamma 90.000000
_cell_volume 1676.109183
_symmetry_space_group_name_H-M "C M M 2"
_symmetry_group_IT_number 35
_symmetry_cell_setting 'orthorhombic'
loop_
_space_group_symop_operation_xyz
x,y,z
-x,-y,z
-x,y,z
x,-y,z
1/2+x,1/2+y,z
1/2-x,1/2-y,z
1/2-x,1/2+y,z
1/2+x,1/2-y,z
loop_
_atom_site_type_symbol
_atom_site_label
_atom_site_fract_x
_atom_site_fract_y
_atom_site_fract_z
Si Si1 0.397085 0.500000 0.433000
Si Si2 0.157146 0.302048 0.068493
Si Si3 0.345562 0.207123 0.580121
Si Si4 0.500000 0.701333 0.941777
Si Si5 0.000000 0.291419 0.721397
Si Si6 0.102709 0.000000 0.210817
O O1 0.500000 0.500000 0.437805
O O2 0.363669 0.329256 0.488499
O O3 0.370536 0.500000 0.321840
O O4 0.159498 0.500000 0.103245
O O5 0.250000 0.250000 0.029282
O O6 0.135294 0.168698 0.153688
O O7 0.084049 0.284186 0.988473
O O8 0.250000 0.250000 0.613928
O O9 0.416497 0.254624 0.659474
O O10 0.352933 0.000000 0.559814
O O11 0.500000 0.500000 0.971184
O O12 0.500000 0.714633 0.827405
O O13 0.000000 0.500000 0.732399
O O14 0.000000 0.000000 0.208177
#
# Coordination Sequence:
#
# PCOD9350020 Si02
#       6
#     4   8   8   4   4   4
#     4  11  24  42  68  93 130 169 217 264 317 375
#     4  12  23  43  67  92 133 170 209 266 318 373
#     4  11  23  42  66  94 132 170 212 263 318 376
#     4  12  24  42  68  96 129 168 214 261 321 385
#     4  10  24  42  64  95 128 167 216 262 316 383
#     4  11  24  44  64  99 126 167 223 258 317 383
#
# _framework density 19.091835
#
# number of rings (size 3 to 8) (size 9 to 14) (size 15 to 20)
#    0.000    0.750    6.250    1.125    1.750    3.000 
#    0.000    5.000    0.000    0.000    0.000    0.000 
#    0.000    0.000    0.000    0.000    0.000    0.000 
#
# Total GULP energy -89441.119646 kJ/mol
# GULP energy per Si atom -5590.069978 kJ/mol
# Density = 1.904838 g / cm^3
# Si number density = 19.091835 Si / 1000 Ang^3
#
#
#
# Elastic Constant Matrix: (Units=GPa)
#
#
# Indices 1 2 3 4 5 6 
#
# 1 164.0739 39.8741 67.6134 0.0000 0.0000 0.0000
# 2 39.8741 148.0345 58.7976 0.0000 0.0000 0.0000
# 3 67.6134 58.7976 143.9161 0.0000 0.0000 0.0000
# 4 0.0000 0.0000 0.0000 -22.8023 0.0000 0.0000
# 5 0.0000 0.0000 0.0000 0.0000 0.0931 0.0000
# 6 0.0000 0.0000 0.0000 0.0000 0.0000 24.2091
#
#
#
# Elastic Compliance Matrix: (Units=1/GPa)
#
#
# Indices 1 2 3 4 5 6 
#
# 1 0.007628 -0.000754 -0.003276 0.000000 0.000000 0.000000
# 2 -0.000754 0.008138 -0.002971 0.000000 0.000000 0.000000
# 3 -0.003276 -0.002971 0.009701 0.000000 0.000000 0.000000
# 4 0.000000 0.000000 0.000000 -0.043855 0.000000 0.000000
# 5 0.000000 0.000000 0.000000 0.000000 10.745478 0.000000
# 6 0.000000 0.000000 0.000000 0.000000 0.000000 0.041307
#
#
# Mechanical properties :
#
#
# Convention : Reuss Voigt Hill
#
# Bulk Modulus (GPa) = 87.20748 87.62163 87.41455
# Shear Modulus (GPa) = 0.46355 19.61593 10.03974
#
# Velocity S-wave (km/s) = 0.49328 3.20887 2.29566
# Velocity P-wave (km/s) = 6.78981 7.72810 7.27410
#
# Compressibility (1/GPa) = 0.01146691
#
# Stress axis : x y z
#
# Youngs Moduli (GPa) = 131.09825 122.87814 103.07929
#
# Poissons Ratio (x) = 0.09259 0.33767
# Poissons Ratio (y) = 0.09878 0.30624
# Poissons Ratio (z) = 0.42945 0.36506
#
# Static dielectric constant tensor:
#      x y z
#    x 1.674270 0.000000 0.000000 
#    y 0.000000 1.667320 0.000000 
#    z 0.000000 0.000000 1.622900 
# 
# From -- ./inp_files/12739.got.cif
#   From: 2010.05.17/outbox.cif.g08.bks.cpg/sg35_7_cif.got.tgz:12739.got - 2010.06.03 17:29:28.
