data_PCOD9350071
_publ_section_title
;
Structure prediction by ZEFSAII (Michael W. Deem and Ramdas Pophale) SiO2 
 PCOD9350071
Probable space group: C M M 2
;
_chemical_formula_sum "Si O2"
_cell_formula_units_Z 40
_cell_length_a 9.282362
_cell_length_b 18.358241
_cell_length_c 13.541317
_cell_angle_alpha 90.000000
_cell_angle_beta 90.000000
_cell_angle_gamma 90.000000
_cell_volume 2307.546562
_symmetry_space_group_name_H-M "C M M 2"
_symmetry_group_IT_number 35
_symmetry_cell_setting 'orthorhombic'
loop_
_space_group_symop_operation_xyz
x,y,z
-x,-y,z
-x,y,z
x,-y,z
1/2+x,1/2+y,z
1/2-x,1/2-y,z
1/2-x,1/2+y,z
1/2+x,1/2-y,z
loop_
_atom_site_type_symbol
_atom_site_label
_atom_site_fract_x
_atom_site_fract_y
_atom_site_fract_z
Si Si1 0.166874 0.588577 0.900050
Si Si2 0.175199 0.083773 0.309554
Si Si3 0.833577 0.911093 0.093334
Si Si4 0.328702 0.912485 0.679335
Si Si5 0.326340 0.327708 0.505350
O O1 0.173764 0.500000 0.900556
O O2 0.216561 0.610702 0.790473
O O3 0.000000 0.608730 0.909304
O O4 0.251582 0.614599 0.996041
O O5 0.225049 0.110491 0.201399
O O6 0.214095 0.132579 0.402580
O O7 0.000000 0.082301 0.304362
O O8 0.222505 0.000000 0.324480
O O9 0.000000 0.889340 0.085899
O O10 0.829804 0.000000 0.094391
O O11 0.500000 0.896190 0.668003
O O12 0.234641 0.874684 0.596049
O O13 0.314067 0.000000 0.672625
O O14 0.500000 0.321926 0.510238
O O15 0.250000 0.250000 0.508827
#
# Coordination Sequence:
#
# PCOD9350071 Si02
#       5
#     8   8   8   8   8
#     4   8  14  25  42  67  99 128 151 184 234 284
#     4   8  15  29  49  72  96 123 157 198 241 283
#     4   8  13  23  42  68  95 120 150 191 235 280
#     4   9  18  33  52  74 101 130 161 201 245 287
#     4  11  22  35  51  70  96 130 167 206 247 293
#
# _framework density 17.334429
#
# number of rings (size 3 to 8) (size 9 to 14) (size 15 to 20)
#    0.000    3.200    0.000    3.600    0.000    2.000 
#    0.000    4.000    0.000    6.000    0.000    5.600 
#    0.000    0.000    0.000    0.000    0.000    0.000 
#
# Total GULP energy -111348.124440 kJ/mol
# GULP energy per Si atom -5567.406222 kJ/mol
# Density = 1.729498 g / cm^3
# Si number density = 17.334429 Si / 1000 Ang^3
#
#
#
# Elastic Constant Matrix: (Units=GPa)
#
#
# Indices 1 2 3 4 5 6 
#
# 1 50.3804 26.6893 74.5378 0.0000 0.0000 0.0000
# 2 26.6893 33.0850 49.2373 0.0000 0.0000 0.0000
# 3 74.5378 49.2373 207.2878 0.0000 0.0000 0.0000
# 4 0.0000 0.0000 0.0000 -5.5838 0.0000 0.0000
# 5 0.0000 0.0000 0.0000 0.0000 21.4826 0.0000
# 6 0.0000 0.0000 0.0000 0.0000 0.0000 13.8166
#
#
#
# Elastic Compliance Matrix: (Units=1/GPa)
#
#
# Indices 1 2 3 4 5 6 
#
# 1 0.050495 -0.021209 -0.013119 0.000000 0.000000 0.000000
# 2 -0.021209 0.055660 -0.005594 0.000000 0.000000 0.000000
# 3 -0.013119 -0.005594 0.010871 0.000000 0.000000 0.000000
# 4 0.000000 0.000000 0.000000 -0.179089 0.000000 0.000000
# 5 0.000000 0.000000 0.000000 0.000000 0.046549 0.000000
# 6 0.000000 0.000000 0.000000 0.000000 0.000000 0.072376
#
#
# Mechanical properties :
#
#
# Convention : Reuss Voigt Hill
#
# Bulk Modulus (GPa) = 26.89663 65.74244 46.31954
# Shear Modulus (GPa) = 33.53406 15.29568 24.41487
#
# Velocity S-wave (km/s) = 4.40311 2.97372 3.75702
# Velocity P-wave (km/s) = 6.43427 7.05684 6.75273
#
# Compressibility (1/GPa) = 0.03717937
#
# Stress axis : x y z
#
# Youngs Moduli (GPa) = 19.80399 17.96613 91.99125
#
# Poissons Ratio (x) = 0.38105 1.20687
# Poissons Ratio (y) = 0.42003 0.51464
# Poissons Ratio (z) = 0.25982 0.10051
#
# Static dielectric constant tensor:
#      x y z
#    x 1.581540 0.000000 0.000000 
#    y 0.000000 1.567780 0.000000 
#    z 0.000000 0.000000 1.616090 
# 
# From -- ./inp_files/11028.got.cif
#   From: 2010.05.17/outbox.cif.g08.bks.cpg/sg35_6_cif.got.tgz:11028.got - 2010.06.03 17:29:28.
