data_PCOD9350591
_publ_section_title
;
Structure prediction by ZEFSAII (Michael W. Deem and Ramdas Pophale) SiO2 
 PCOD9350591
Probable space group: C M C 21
;
_chemical_formula_sum "Si O2"
_cell_formula_units_Z 48
_cell_length_a 9.119880
_cell_length_b 18.679836
_cell_length_c 16.641140
_cell_angle_alpha 90.000000
_cell_angle_beta 90.000000
_cell_angle_gamma 90.000000
_cell_volume 2834.949044
_symmetry_space_group_name_H-M "C M C 21"
_symmetry_group_IT_number 36
_symmetry_cell_setting 'orthorhombic'
loop_
_space_group_symop_operation_xyz
x,y,z
-x,-y,1/2+z
x,-y,1/2+z
-x,y,z
1/2+x,1/2+y,z
1/2-x,1/2-y,1/2+z
1/2+x,1/2-y,1/2+z
1/2-x,1/2+y,z
loop_
_atom_site_type_symbol
_atom_site_label
_atom_site_fract_x
_atom_site_fract_y
_atom_site_fract_z
Si Si1 0.326413 0.168536 0.308110
Si Si2 0.673787 0.208132 0.896643
Si Si3 0.328291 0.658024 0.147074
Si Si4 0.825673 0.919277 0.477330
Si Si5 0.172349 0.430066 0.963958
Si Si6 0.327657 0.212696 0.541762
O O1 0.500000 0.180722 0.306660
O O2 0.244144 0.242978 0.327442
O O3 0.268901 0.139803 0.223420
O O4 0.296905 0.113415 0.381380
O O5 0.500000 0.203445 0.888262
O O6 0.745303 0.130792 0.911945
O O7 0.721344 0.251504 0.976794
O O8 0.500000 0.647235 0.165754
O O9 0.308042 0.741639 0.122141
O O10 0.294121 0.613191 0.066296
O O11 0.000000 0.914582 0.465829
O O12 0.768906 0.999838 0.472034
O O13 0.000000 0.449533 0.963681
O O14 0.195733 0.371950 0.035299
O O15 0.500000 0.224683 0.516941
#
# Coordination Sequence:
#
# PCOD9350591 Si02
#       6
#     8   8   8   8   8   8
#     4  10  20  34  52  75 103 133 167 211 257 299
#     4  10  18  30  51  74  96 127 167 204 242 295
#     4   9  18  33  52  74 100 132 169 210 255 300
#     4  10  20  34  52  75 104 134 167 209 253 299
#     4   9  18  33  52  74 101 134 170 205 247 300
#     4   8  16  32  51  72 100 130 162 203 246 291
#
# _framework density 16.931519999999999
#
# number of rings (size 3 to 8) (size 9 to 14) (size 15 to 20)
#    0.000    2.667    0.000    4.500    0.000    6.667 
#    0.000    1.667    0.000    6.000    0.000    0.000 
#    0.000    0.000    0.000    0.000    0.000    0.000 
#
# Total GULP energy -133680.096157 kJ/mol
# GULP energy per Si atom -5570.004007 kJ/mol
# Density = 1.689298 g / cm^3
# Si number density = 16.931520 Si / 1000 Ang^3
#
#
#
# Elastic Constant Matrix: (Units=GPa)
#
#
# Indices 1 2 3 4 5 6 
#
# 1 79.2539 58.1676 40.2313 0.0000 0.0000 0.0000
# 2 58.1676 110.6895 26.1641 0.0000 0.0000 0.0000
# 3 40.2313 26.1641 57.9863 0.0000 0.0000 0.0000
# 4 0.0000 0.0000 0.0000 11.7962 0.0000 0.0000
# 5 0.0000 0.0000 0.0000 0.0000 26.4920 0.0000
# 6 0.0000 0.0000 0.0000 0.0000 0.0000 32.7355
#
#
#
# Elastic Compliance Matrix: (Units=1/GPa)
#
#
# Indices 1 2 3 4 5 6 
#
# 1 0.028451 -0.011513 -0.014544 0.000000 0.000000 0.000000
# 2 -0.011513 0.014772 0.001323 0.000000 0.000000 0.000000
# 3 -0.014544 0.001323 0.026740 0.000000 0.000000 0.000000
# 4 0.000000 0.000000 0.000000 0.084773 0.000000 0.000000
# 5 0.000000 0.000000 0.000000 0.000000 0.037747 0.000000
# 6 0.000000 0.000000 0.000000 0.000000 0.000000 0.030548
#
#
# Mechanical properties :
#
#
# Convention : Reuss Voigt Hill
#
# Bulk Modulus (GPa) = 48.79849 55.22842 52.01345
# Shear Modulus (GPa) = 17.89994 22.42919 20.16456
#
# Velocity S-wave (km/s) = 3.25498 3.64359 3.45476
# Velocity P-wave (km/s) = 6.55822 7.09863 6.83377
#
# Compressibility (1/GPa) = 0.02049244
#
# Stress axis : x y z
#
# Youngs Moduli (GPa) = 35.14866 67.69682 37.39761
#
# Poissons Ratio (x) = 0.77939 0.54393
# Poissons Ratio (y) = 0.40466 -0.04946
# Poissons Ratio (z) = 0.51122 -0.08953
#
# Static dielectric constant tensor:
#      x y z
#    x 1.561070 0.000000 0.000000 
#    y 0.000000 1.585040 0.000000 
#    z 0.000000 0.000000 1.589630 
# 
# From -- ./inp_files/13551.got.cif
#   From: 2010.05.17/outbox.cif.g08.bks.cpg/sg36_7_cif.got.tgz:13551.got - 2010.06.03 17:41:39.
