data_PCOD9350514
_publ_section_title
;
Structure prediction by ZEFSAII (Michael W. Deem and Ramdas Pophale) SiO2 
 PCOD9350514
Probable space group: C M C 21
;
_chemical_formula_sum "Si O2"
_cell_formula_units_Z 48
_cell_length_a 18.899707
_cell_length_b 8.606453
_cell_length_c 13.337604
_cell_angle_alpha 90.000000
_cell_angle_beta 90.000000
_cell_angle_gamma 90.000000
_cell_volume 2169.487198
_symmetry_space_group_name_H-M "C M C 21"
_symmetry_group_IT_number 36
_symmetry_cell_setting 'orthorhombic'
loop_
_space_group_symop_operation_xyz
x,y,z
-x,-y,1/2+z
x,-y,1/2+z
-x,y,z
1/2+x,1/2+y,z
1/2-x,1/2-y,1/2+z
1/2+x,1/2-y,1/2+z
1/2-x,1/2+y,z
loop_
_atom_site_type_symbol
_atom_site_label
_atom_site_fract_x
_atom_site_fract_y
_atom_site_fract_z
Si Si1 0.846312 0.816373 0.410330
Si Si2 0.881277 0.516209 0.516372
Si Si3 0.000000 0.170741 0.670876
Si Si4 0.749034 0.152800 0.092345
Si Si5 0.500000 0.938870 0.391028
Si Si6 0.500000 0.679508 0.903515
Si Si7 0.341668 0.580071 0.679572
Si Si8 0.000000 0.449417 0.161789
O O1 0.849897 0.632160 0.433626
O O2 0.784658 0.868111 0.483536
O O3 0.924595 0.872955 0.445060
O O4 0.838668 0.860081 0.294542
O O5 0.822754 0.443514 0.585953
O O6 0.930333 0.396426 0.453870
O O7 0.933167 0.599943 0.595727
O O8 0.000000 0.128363 0.788444
O O9 0.078106 0.108410 0.639226
O O10 0.000000 0.360015 0.663464
O O11 0.716901 0.319833 0.119059
O O12 0.809368 0.092440 0.168163
O O13 0.500000 0.130094 0.396975
O O14 0.500000 0.893683 0.275727
#
# Coordination Sequence:
#
# PCOD9350514 Si02
#       8
#     8   8   4   8   4   4   8   4
#     4  10  22  41  62  88 127 163 210 265 324 377
#     4  10  20  34  58  92 122 160 207 263 312 375
#     4   9  17  38  59  90 116 168 206 254 313 384
#     4  12  24  39  61  98 122 170 211 264 320 393
#     4   8  17  31  55  88 116 161 202 264 307 357
#     4   7  15  34  60  80 110 163 200 240 313 379
#     4  11  25  41  68  90 131 170 215 263 331 382
#     4  10  17  33  64  86 122 158 226 254 305 382
#
# _framework density 22.125042000000001
#
# number of rings (size 3 to 8) (size 9 to 14) (size 15 to 20)
#    0.000    2.000    3.333    1.500    2.333    0.667 
#    0.000    0.000    0.000    0.000    0.000    0.000 
#    0.000    0.000    0.000    0.000    0.000    0.000 
#
# Total GULP energy -133617.865418 kJ/mol
# GULP energy per Si atom -5567.411059 kJ/mol
# Density = 2.207468 g / cm^3
# Si number density = 22.125042 Si / 1000 Ang^3
#
#
#
# Elastic Constant Matrix: (Units=GPa)
#
#
# Indices 1 2 3 4 5 6 
#
# 1 100.3487 22.5186 7.5792 0.0000 0.0000 0.0000
# 2 22.5186 17.1665 -1.4557 0.0000 0.0000 0.0000
# 3 7.5792 -1.4557 101.8844 0.0000 0.0000 0.0000
# 4 0.0000 0.0000 0.0000 22.5097 0.0000 0.0000
# 5 0.0000 0.0000 0.0000 0.0000 36.2457 0.0000
# 6 0.0000 0.0000 0.0000 0.0000 0.0000 -16.4615
#
#
#
# Elastic Compliance Matrix: (Units=1/GPa)
#
#
# Indices 1 2 3 4 5 6 
#
# 1 0.014301 -0.018873 -0.001334 0.000000 0.000000 0.000000
# 2 -0.018873 0.083230 0.002593 0.000000 0.000000 0.000000
# 3 -0.001334 0.002593 0.009951 0.000000 0.000000 0.000000
# 4 0.000000 0.000000 0.000000 0.044425 0.000000 0.000000
# 5 0.000000 0.000000 0.000000 0.000000 0.027589 0.000000
# 6 0.000000 0.000000 0.000000 0.000000 0.000000 -0.060748
#
#
# Mechanical properties :
#
#
# Convention : Reuss Voigt Hill
#
# Bulk Modulus (GPa) = 13.83974 30.74266 22.29120
# Shear Modulus (GPa) = 28.08019 21.17595 24.62807
#
# Velocity S-wave (km/s) = 3.56639 3.09706 3.33998
# Velocity P-wave (km/s) = 4.81951 5.16858 4.99709
#
# Compressibility (1/GPa) = 0.07225570
#
# Stress axis : x y z
#
# Youngs Moduli (GPa) = 69.92446 12.01489 100.48946
#
# Poissons Ratio (x) = 0.22676 0.13400
# Poissons Ratio (y) = 1.31968 -0.26058
# Poissons Ratio (z) = 0.09325 -0.03116
#
# Static dielectric constant tensor:
#      x y z
#    x 1.879260 0.000000 0.000000 
#    y 0.000000 1.871430 0.000000 
#    z 0.000000 0.000000 1.814850 
# 
# From -- ./inp_files/12522.got.cif
#   From: 2010.05.17/outbox.cif.g08.bks.cpg/sg36_7_cif.got.tgz:12522.got - 2010.06.03 17:41:39.
