data_PCOD9350099
_publ_section_title
;
Structure prediction by ZEFSAII (Michael W. Deem and Ramdas Pophale) SiO2 
 PCOD9350099
Probable space group: C M M 2
;
_chemical_formula_sum "Si O2"
_cell_formula_units_Z 40
_cell_length_a 15.787146
_cell_length_b 8.607085
_cell_length_c 14.777546
_cell_angle_alpha 90.000000
_cell_angle_beta 90.000000
_cell_angle_gamma 90.000000
_cell_volume 2007.992273
_symmetry_space_group_name_H-M "C M M 2"
_symmetry_group_IT_number 35
_symmetry_cell_setting 'orthorhombic'
loop_
_space_group_symop_operation_xyz
x,y,z
-x,-y,z
-x,y,z
x,-y,z
1/2+x,1/2+y,z
1/2-x,1/2-y,z
1/2-x,1/2+y,z
1/2+x,1/2-y,z
loop_
_atom_site_type_symbol
_atom_site_label
_atom_site_fract_x
_atom_site_fract_y
_atom_site_fract_z
Si Si1 0.098494 0.688901 0.959690
Si Si2 0.102706 0.316159 0.759724
Si Si3 0.341183 0.683528 0.572488
Si Si4 0.839134 0.686483 0.153107
Si Si5 0.000000 0.315277 0.462433
Si Si6 0.500000 0.684927 0.260582
O O1 0.099230 0.500000 0.957844
O O2 0.128937 0.738270 0.860280
O O3 0.000000 0.735447 0.969987
O O4 0.147768 0.739958 0.048729
O O5 0.122376 0.500000 0.749182
O O6 0.143375 0.223016 0.678035
O O7 0.000000 0.302769 0.755451
O O8 0.344073 0.500000 0.558272
O O9 0.250000 0.750000 0.545343
O O10 0.417205 0.762989 0.517752
O O11 0.839624 0.500000 0.154535
O O12 0.750000 0.750000 0.187382
O O13 0.917443 0.747745 0.210924
O O14 0.000000 0.500000 0.452683
O O15 0.000000 0.236791 0.364513
O O16 0.500000 0.500000 0.253853
#
# Coordination Sequence:
#
# PCOD9350099 Si02
#       6
#     8   8   8   8   4   4
#     4   8  15  31  58  89 124 169 214 257 307 364
#     4   9  17  33  60  91 127 171 214 257 309 367
#     4  12  25  42  65  96 131 168 211 259 311 373
#     4  11  22  40  65  95 130 169 212 260 314 372
#     4  12  26  48  73  96 123 160 203 258 324 382
#     4  12  26  46  69  96 125 160 207 260 318 380
#
# _framework density 19.920394999999999
#
# number of rings (size 3 to 8) (size 9 to 14) (size 15 to 20)
#    0.000    1.600    2.000    5.400    0.000    1.600 
#    0.000    8.000    0.000    0.000    0.000    0.000 
#    0.000    0.000    0.000    0.000    0.000    0.000 
#
# Total GULP energy -111809.364982 kJ/mol
# GULP energy per Si atom -5590.468249 kJ/mol
# Density = 1.987506 g / cm^3
# Si number density = 19.920395 Si / 1000 Ang^3
#
#
#
# Elastic Constant Matrix: (Units=GPa)
#
#
# Indices 1 2 3 4 5 6 
#
# 1 138.4109 32.4493 56.0155 0.0000 0.0000 0.0000
# 2 32.4493 78.2074 14.7825 0.0000 0.0000 0.0000
# 3 56.0155 14.7825 106.7817 0.0000 0.0000 0.0000
# 4 0.0000 0.0000 0.0000 22.7247 0.0000 0.0000
# 5 0.0000 0.0000 0.0000 0.0000 -9.5884 0.0000
# 6 0.0000 0.0000 0.0000 0.0000 0.0000 26.4962
#
#
#
# Elastic Compliance Matrix: (Units=1/GPa)
#
#
# Indices 1 2 3 4 5 6 
#
# 1 0.009899 -0.003210 -0.004749 0.000000 0.000000 0.000000
# 2 -0.003210 0.014171 -0.000278 0.000000 0.000000 0.000000
# 3 -0.004749 -0.000278 0.011894 0.000000 0.000000 0.000000
# 4 0.000000 0.000000 0.000000 0.044005 0.000000 0.000000
# 5 0.000000 0.000000 0.000000 0.000000 -0.104292 0.000000
# 6 0.000000 0.000000 0.000000 0.000000 0.000000 0.037741
#
#
# Mechanical properties :
#
#
# Convention : Reuss Voigt Hill
#
# Bulk Modulus (GPa) = 51.30364 58.87717 55.09040
# Shear Modulus (GPa) = 137.40782 22.60334 80.00558
#
# Velocity S-wave (km/s) = 8.31434 3.37216 6.34428
# Velocity P-wave (km/s) = 10.86191 6.69196 9.02118
#
# Compressibility (1/GPa) = 0.01949179
#
# Stress axis : x y z
#
# Youngs Moduli (GPa) = 101.01920 70.56751 84.07337
#
# Poissons Ratio (x) = 0.22650 0.39922
# Poissons Ratio (y) = 0.32424 0.02337
# Poissons Ratio (z) = 0.47969 0.01962
#
# Static dielectric constant tensor:
#      x y z
#    x 1.691020 0.000000 0.000000 
#    y 0.000000 1.661560 0.000000 
#    z 0.000000 0.000000 1.701470 
# 
# From -- ./inp_files/16618.got.cif
#   From: 2010.05.17/outbox.cif.g08.bks.cpg/sg35_9_cif.got.tgz:16618.got - 2010.06.03 17:29:28.
