data_PCOD9350059
_publ_section_title
;
Structure prediction by ZEFSAII (Michael W. Deem and Ramdas Pophale) SiO2 
 PCOD9350059
Probable space group: C M M 2
;
_chemical_formula_sum "Si O2"
_cell_formula_units_Z 48
_cell_length_a 16.311896
_cell_length_b 7.881544
_cell_length_c 18.119951
_cell_angle_alpha 90.000000
_cell_angle_beta 90.000000
_cell_angle_gamma 90.000000
_cell_volume 2329.553920
_symmetry_space_group_name_H-M "C M M 2"
_symmetry_group_IT_number 35
_symmetry_cell_setting 'orthorhombic'
loop_
_space_group_symop_operation_xyz
x,y,z
-x,-y,z
-x,y,z
x,-y,z
1/2+x,1/2+y,z
1/2-x,1/2-y,z
1/2-x,1/2+y,z
1/2+x,1/2-y,z
loop_
_atom_site_type_symbol
_atom_site_label
_atom_site_fract_x
_atom_site_fract_y
_atom_site_fract_z
Si Si1 0.100482 0.000000 0.919490
Si Si2 0.344776 0.806650 0.652691
Si Si3 0.903580 0.000000 0.752880
Si Si4 0.094731 0.707121 0.187223
Si Si5 0.098167 0.306676 0.344598
Si Si6 0.600543 0.804310 0.025188
Si Si7 0.843331 0.193696 0.499367
O O1 0.131962 0.000000 0.835677
O O2 0.125727 0.831766 0.964295
O O3 0.000000 0.000000 0.919248
O O4 0.250000 0.750000 0.645300
O O5 0.381567 0.668099 0.707173
O O6 0.379256 0.795058 0.569003
O O7 0.350945 0.000000 0.678930
O O8 0.000000 0.000000 0.761921
O O9 0.093390 0.500000 0.190079
O O10 0.130918 0.763226 0.266111
O O11 0.130330 0.750122 0.107219
O O12 0.000000 0.766105 0.185260
O O13 0.128797 0.500000 0.354414
O O14 0.115351 0.212093 0.420202
O O15 0.000000 0.314121 0.335643
O O16 0.500000 0.804595 0.027921
O O17 0.624781 0.000000 0.010980
O O18 0.750000 0.250000 0.487408
O O19 0.844764 0.000000 0.523852
#
# Coordination Sequence:
#
# PCOD9350059 Si02
#       7
#     4   8   4   8   8   8   8
#     4   9  18  30  46  73 113 146 172 225 288 334
#     4  11  21  41  67  86 111 155 200 240 288 353
#     4  11  24  40  58  93 130 148 186 251 303 350
#     4   7  11  22  41  65  97 137 179 219 258 314
#     4   9  17  30  48  74 109 144 178 222 277 325
#     4   8  13  24  43  66  98 143 184 215 265 333
#     4  11  21  36  55  77 105 140 188 235 269 325
#
# _framework density 20.604803
#
# number of rings (size 3 to 8) (size 9 to 14) (size 15 to 20)
#    0.000    2.667    1.667    4.500    0.000    2.000 
#    1.500    1.667    0.000    0.000    0.000    1.167 
#    0.000    0.000    0.000    0.000    0.000    0.000 
#
# Total GULP energy -133741.107271 kJ/mol
# GULP energy per Si atom -5572.546136 kJ/mol
# Density = 2.055791 g / cm^3
# Si number density = 20.604803 Si / 1000 Ang^3
#
#
#
# Elastic Constant Matrix: (Units=GPa)
#
#
# Indices 1 2 3 4 5 6 
#
# 1 4.5158 5.9292 16.2640 0.0000 0.0000 0.0000
# 2 5.9292 126.0978 71.6557 0.0000 0.0000 0.0000
# 3 16.2640 71.6557 190.5830 0.0000 0.0000 0.0000
# 4 0.0000 0.0000 0.0000 32.4274 0.0000 0.0000
# 5 0.0000 0.0000 0.0000 0.0000 -58.8707 0.0000
# 6 0.0000 0.0000 0.0000 0.0000 0.0000 7.2585
#
#
#
# Elastic Compliance Matrix: (Units=1/GPa)
#
#
# Indices 1 2 3 4 5 6 
#
# 1 0.319748 0.000599 -0.027512 0.000000 0.000000 0.000000
# 2 0.000599 0.010086 -0.003843 0.000000 0.000000 0.000000
# 3 -0.027512 -0.003843 0.009040 0.000000 0.000000 0.000000
# 4 0.000000 0.000000 0.000000 0.030838 0.000000 0.000000
# 5 0.000000 0.000000 0.000000 0.000000 -0.016986 0.000000
# 6 0.000000 0.000000 0.000000 0.000000 0.000000 0.137770
#
#
# Mechanical properties :
#
#
# Convention : Reuss Voigt Hill
#
# Bulk Modulus (GPa) = 3.60540 56.54381 30.07461
# Shear Modulus (GPa) = 7.75842 11.31957 9.53899
#
# Velocity S-wave (km/s) = 1.94255 2.34640 2.15396
# Velocity P-wave (km/s) = 2.60479 5.90275 4.56220
#
# Compressibility (1/GPa) = 0.27736136
#
# Stress axis : x y z
#
# Youngs Moduli (GPa) = 3.12747 99.14560 110.62064
#
# Poissons Ratio (x) = -0.05940 3.04339
# Poissons Ratio (y) = -0.00187 0.42515
# Poissons Ratio (z) = 0.08604 0.38105
#
# Static dielectric constant tensor:
#      x y z
#    x 1.751830 0.000000 0.000000 
#    y 0.000000 1.736390 0.000000 
#    z 0.000000 0.000000 1.790490 
# 
# From -- ./inp_files/18778.got.cif
#   From: 2010.05.17/outbox.cif.g08.bks.cpg/sg35_10_cif.got.tgz:18778.got - 2010.06.03 17:29:28.
