data_PCOD9350311
_publ_section_title
;
Structure prediction by ZEFSAII (Michael W. Deem and Ramdas Pophale) SiO2 
 PCOD9350311
Probable space group: C M M 2
;
_chemical_formula_sum "Si O2"
_cell_formula_units_Z 44
_cell_length_a 20.875043
_cell_length_b 13.156943
_cell_length_c 5.698835
_cell_angle_alpha 90.000000
_cell_angle_beta 90.000000
_cell_angle_gamma 90.000000
_cell_volume 1565.195011
_symmetry_space_group_name_H-M "C M M 2"
_symmetry_group_IT_number 35
_symmetry_cell_setting 'orthorhombic'
loop_
_space_group_symop_operation_xyz
x,y,z
-x,-y,z
-x,y,z
x,-y,z
1/2+x,1/2+y,z
1/2-x,1/2-y,z
1/2-x,1/2+y,z
1/2+x,1/2-y,z
loop_
_atom_site_type_symbol
_atom_site_label
_atom_site_fract_x
_atom_site_fract_y
_atom_site_fract_z
Si Si1 0.131735 0.377371 0.018190
Si Si2 0.252415 0.118064 0.749192
Si Si3 0.424412 0.122207 0.517579
Si Si4 0.882424 0.125427 0.259273
Si Si5 0.750000 0.750000 0.319838
Si Si6 0.098626 0.880978 0.760665
O O1 0.127536 0.500000 0.022422
O O2 0.102057 0.344669 0.263104
O O3 0.206971 0.347334 0.978961
O O4 0.100297 0.341235 0.773897
O O5 0.279642 0.170753 0.518354
O O6 0.264785 0.000000 0.726091
O O7 0.176513 0.128842 0.763991
O O8 0.500000 0.136429 0.515891
O O9 0.411989 0.000000 0.524367
O O10 0.812680 0.179404 0.251429
O O11 0.919951 0.151481 0.021221
O O12 0.872436 0.000000 0.262588
O O13 0.918102 0.155300 0.500340
O O14 0.081977 0.000000 0.755320
#
# Coordination Sequence:
#
# PCOD9350311 Si02
#       6
#     8   8   8   8   4   8
#     4   9  17  27  40  58  81 105 131 170 206 237
#     4   9  18  31  44  61  84 112 148 182 214 247
#     4   9  16  27  43  61  79 102 132 163 202 251
#     4   9  17  28  40  55  72  95 132 173 209 242
#     4  10  18  28  44  58  78 110 146 180 212 242
#     4   8  15  27  40  52  71  96 125 166 204 236
#
# _framework density 28.111515000000001
#
# number of rings (size 3 to 8) (size 9 to 14) (size 15 to 20)
#    0.000    3.091    0.000    2.182    0.000    8.000 
#    0.000   12.727    0.000    0.000    0.000    0.000 
#    0.000    0.000    0.000    0.000    0.000   21.818 
#
# Total GULP energy -122977.846078 kJ/mol
# GULP energy per Si atom -5589.902094 kJ/mol
# Density = 2.804753 g / cm^3
# Si number density = 28.111515 Si / 1000 Ang^3
#
#
#
# Elastic Constant Matrix: (Units=GPa)
#
#
# Indices 1 2 3 4 5 6 
#
# 1 93.5475 -10.6280 60.1775 0.0000 0.0000 0.0000
# 2 -10.6280 131.8951 16.7006 0.0000 0.0000 0.0000
# 3 60.1775 16.7006 202.0601 0.0000 0.0000 0.0000
# 4 0.0000 0.0000 0.0000 58.8883 0.0000 0.0000
# 5 0.0000 0.0000 0.0000 0.0000 11.5460 0.0000
# 6 0.0000 0.0000 0.0000 0.0000 0.0000 15.1657
#
#
#
# Elastic Compliance Matrix: (Units=1/GPa)
#
#
# Indices 1 2 3 4 5 6 
#
# 1 0.013557 0.001621 -0.004172 0.000000 0.000000 0.000000
# 2 0.001621 0.007856 -0.001132 0.000000 0.000000 0.000000
# 3 -0.004172 -0.001132 0.006285 0.000000 0.000000 0.000000
# 4 0.000000 0.000000 0.000000 0.016981 0.000000 0.000000
# 5 0.000000 0.000000 0.000000 0.000000 0.086610 0.000000
# 6 0.000000 0.000000 0.000000 0.000000 0.000000 0.065938
#
#
# Mechanical properties :
#
#
# Convention : Reuss Voigt Hill
#
# Bulk Modulus (GPa) = 49.18292 62.22255 55.70274
# Shear Modulus (GPa) = 23.65506 41.20350 32.42928
#
# Velocity S-wave (km/s) = 2.90396 3.83262 3.40014
# Velocity P-wave (km/s) = 5.36448 6.46278 5.93907
#
# Compressibility (1/GPa) = 0.02033226
#
# Stress axis : x y z
#
# Youngs Moduli (GPa) = 73.76042 127.29606 159.10973
#
# Poissons Ratio (x) = -0.20630 0.66374
# Poissons Ratio (y) = -0.11954 0.18010
# Poissons Ratio (z) = 0.30770 0.14409
#
# Static dielectric constant tensor:
#      x y z
#    x 2.154260 0.000000 0.000000 
#    y 0.000000 2.277250 0.000000 
#    z 0.000000 0.000000 2.268670 
# 
# From -- ./inp_files/3668.got.cif
#   From: 2010.05.17/outbox.cif.g08.bks.cpg/sg35_2_cif.got.tgz:3668.got - 2010.06.03 17:29:28.
