data_PCOD9350790
_publ_section_title
;
Structure prediction by ZEFSAII (Michael W. Deem and Ramdas Pophale) SiO2 
 PCOD9350790
Probable space group: C M C 21
;
_chemical_formula_sum "Si O2"
_cell_formula_units_Z 48
_cell_length_a 18.086238
_cell_length_b 12.709555
_cell_length_c 9.854445
_cell_angle_alpha 90.000000
_cell_angle_beta 90.000000
_cell_angle_gamma 90.000000
_cell_volume 2265.221924
_symmetry_space_group_name_H-M "C M C 21"
_symmetry_group_IT_number 36
_symmetry_cell_setting 'orthorhombic'
loop_
_space_group_symop_operation_xyz
x,y,z
-x,-y,1/2+z
x,-y,1/2+z
-x,y,z
1/2+x,1/2+y,z
1/2-x,1/2-y,1/2+z
1/2+x,1/2-y,1/2+z
1/2-x,1/2+y,z
loop_
_atom_site_type_symbol
_atom_site_label
_atom_site_fract_x
_atom_site_fract_y
_atom_site_fract_z
Si Si1 0.373339 0.921885 0.630160
Si Si2 0.500000 0.829386 0.914804
Si Si3 0.839645 0.703064 0.408324
Si Si4 0.500000 0.791127 0.483793
Si Si5 0.845591 0.063148 0.810750
Si Si6 0.738468 0.455460 0.035497
Si Si7 0.500000 0.364301 0.202557
Si Si8 0.000000 0.547974 0.761605
O O1 0.345889 0.864430 0.767977
O O2 0.426601 0.843732 0.548424
O O3 0.307063 0.962900 0.536953
O O4 0.426506 0.017775 0.677985
O O5 0.579332 0.805058 0.978146
O O6 0.500000 0.747787 0.785863
O O7 0.500000 0.952045 0.872683
O O8 0.827054 0.822653 0.370637
O O9 0.775348 0.655001 0.498161
O O10 0.500000 0.672658 0.544882
O O11 0.500000 0.837870 0.330946
O O12 0.793054 0.041040 0.685044
O O13 0.928066 0.073188 0.751634
O O14 0.825509 0.982356 0.928931
#
# Coordination Sequence:
#
# PCOD9350790 Si02
#       8
#     8   4   8   4   8   8   4   4
#     4  10  18  36  57  95 132 164 205 256 325 394
#     4   8  14  35  55  85 116 163 198 242 313 381
#     4  10  20  39  62  91 128 165 210 258 325 389
#     4  11  17  30  67  89 124 169 211 249 329 393
#     4  11  26  43  68  89 124 175 219 275 330 381
#     4  12  25  40  63 100 131 166 216 269 331 402
#     4  10  20  43  63  86 116 174 227 268 314 383
#     4   9  17  28  55  98 126 166 194 259 320 407
#
# _framework density 21.189975
#
# number of rings (size 3 to 8) (size 9 to 14) (size 15 to 20)
#    0.000    1.667    6.667    2.000    2.333    1.333 
#    0.000    0.000    0.000    0.000    0.000    0.000 
#    0.000    0.000    0.000    0.000    0.000    0.000 
#
# Total GULP energy -133950.730490 kJ/mol
# GULP energy per Si atom -5581.280437 kJ/mol
# Density = 2.114175 g / cm^3
# Si number density = 21.189975 Si / 1000 Ang^3
#
#
#
# Elastic Constant Matrix: (Units=GPa)
#
#
# Indices 1 2 3 4 5 6 
#
# 1 78.1304 32.1366 2.0316 0.0000 0.0000 0.0000
# 2 32.1366 22.3736 3.3663 0.0000 0.0000 0.0000
# 3 2.0316 3.3663 39.2546 0.0000 0.0000 0.0000
# 4 0.0000 0.0000 0.0000 12.6258 0.0000 0.0000
# 5 0.0000 0.0000 0.0000 0.0000 16.2899 0.0000
# 6 0.0000 0.0000 0.0000 0.0000 0.0000 19.5615
#
#
#
# Elastic Compliance Matrix: (Units=1/GPa)
#
#
# Indices 1 2 3 4 5 6 
#
# 1 0.031479 -0.045557 0.002278 0.000000 0.000000 0.000000
# 2 -0.045557 0.111213 -0.007179 0.000000 0.000000 0.000000
# 3 0.002278 -0.007179 0.025972 0.000000 0.000000 0.000000
# 4 0.000000 0.000000 0.000000 0.079203 0.000000 0.000000
# 5 0.000000 0.000000 0.000000 0.000000 0.061388 0.000000
# 6 0.000000 0.000000 0.000000 0.000000 0.000000 0.051121
#
#
# Mechanical properties :
#
#
# Convention : Reuss Voigt Hill
#
# Bulk Modulus (GPa) = 14.76109 23.86976 19.31542
# Shear Modulus (GPa) = 10.33324 16.51038 13.42181
#
# Velocity S-wave (km/s) = 2.21067 2.79437 2.51948
# Velocity P-wave (km/s) = 3.67386 4.65837 4.19510
#
# Compressibility (1/GPa) = 0.06774567
#
# Stress axis : x y z
#
# Youngs Moduli (GPa) = 31.76763 8.99177 38.50228
#
# Poissons Ratio (x) = 0.40964 -0.08769
# Poissons Ratio (y) = 1.44725 0.27642
# Poissons Ratio (z) = -0.07236 0.06455
#
# Static dielectric constant tensor:
#      x y z
#    x 1.787560 0.000000 0.000000 
#    y 0.000000 1.759210 0.000000 
#    z 0.000000 0.000000 1.803780 
# 
# From -- ./inp_files/8896.got.cif
#   From: 2010.05.17/outbox.cif.g08.bks.cpg/sg36_5_cif.got.tgz:8896.got - 2010.06.03 17:41:39.
