data_PCOD9350158
_publ_section_title
;
Structure prediction by ZEFSAII (Michael W. Deem and Ramdas Pophale) SiO2 
 PCOD9350158
Probable space group: C M M 2
;
_chemical_formula_sum "Si O2"
_cell_formula_units_Z 32
_cell_length_a 9.000000
_cell_length_b 21.000000
_cell_length_c 18.000000
_cell_angle_alpha 90.000000
_cell_angle_beta 90.000000
_cell_angle_gamma 90.000000
_cell_volume 3402.000000
_symmetry_space_group_name_H-M "C M M 2"
_symmetry_group_IT_number 35
_symmetry_cell_setting 'orthorhombic'
loop_
_space_group_symop_operation_xyz
x,y,z
-x,-y,z
-x,y,z
x,-y,z
1/2+x,1/2+y,z
1/2-x,1/2-y,z
1/2-x,1/2+y,z
1/2+x,1/2-y,z
loop_
_atom_site_type_symbol
_atom_site_label
_atom_site_fract_x
_atom_site_fract_y
_atom_site_fract_z
Si Si1 0.676871 0.313201 0.701490
Si Si2 0.832404 0.689495 0.187756
Si Si3 0.669123 0.187222 0.010167
Si Si4 0.319693 0.070323 0.437868
Si Si5 0.820587 0.313440 0.538853
Si Si6 0.825357 0.428004 0.783626
Si Si7 0.173674 0.929899 0.942440
Si Si8 0.181435 0.569445 0.267181
O O1 0.500000 0.306114 0.696444
O O2 0.750000 0.250000 0.737069
O O3 0.751857 0.318436 0.620654
O O4 0.724915 0.376120 0.744135
O O5 0.750000 0.750000 0.218345
O O6 0.837120 0.692792 0.099094
O O7 0.762428 0.624187 0.214260
O O8 0.000000 0.691583 0.215683
O O9 0.500000 0.181584 0.982396
O O10 0.750000 0.250000 0.979881
O O11 0.766519 0.126234 0.992385
O O12 0.500000 0.069418 0.439328
O O13 0.273205 0.125685 0.492043
O O14 0.277937 0.081766 0.352526
O O15 0.267850 0.000000 0.460077
O O16 0.750000 0.250000 0.504624
O O17 0.000000 0.309305 0.542652
O O18 0.804310 0.500000 0.754187
O O19 0.773159 0.428751 0.868675
O O20 0.000000 0.412275 0.777120
O O21 0.000000 0.921268 0.923414
O O22 0.189813 0.000000 0.977063
O O23 0.235286 0.500000 0.245324
O O24 0.000000 0.567462 0.263845
#
# Coordination Sequence:
#
# PCOD9350158 Si02
#       8
#     8   8   8   8   8   8   8   8
#     4  11  22  37  56  78 106 138 174 214 257 305
#     4   9  18  31  49  73 100 131 166 208 254 301
#     4  10  20  34  52  75 104 137 175 216 259 307
#     4   8  15  28  47  71  98 129 167 210 252 297
#     4  10  19  32  50  73 101 132 168 209 255 305
#     4  10  21  38  59  82 108 137 170 209 253 303
#     4  10  21  37  56  79 107 137 170 210 256 305
#     4   8  14  27  47  71  98 128 166 210 252 296
#
# _framework density 9.4062319999999993
#
# number of rings (size 3 to 8) (size 9 to 14) (size 15 to 20)
#    0.000    2.500    0.000    4.125    0.000    4.000 
#    0.000    5.000    0.000    2.250    0.000    3.500 
#    0.000    0.000    0.000    0.000    0.000    0.000 
#
# Total GULP energy -178229.538603 kJ/mol
# GULP energy per Si atom -5569.673081 kJ/mol
# Density = 0.938482 g / cm^3
# Si number density = 9.406232 Si / 1000 Ang^3
#
#
#
# Elastic Constant Matrix: (Units=GPa)
#
#
# Indices 1 2 3 4 5 6 
#
# 1 70.6562 49.4340 15.9207 0.0000 0.0000 0.0000
# 2 49.4340 104.9786 33.5248 0.0000 0.0000 0.0000
# 3 15.9207 33.5248 -5.0811 0.0000 0.0000 0.0000
# 4 0.0000 0.0000 0.0000 93.9519 0.0000 0.0000
# 5 0.0000 0.0000 0.0000 0.0000 4.7867 0.0000
# 6 0.0000 0.0000 0.0000 0.0000 0.0000 27.1795
#
#
#
# Elastic Compliance Matrix: (Units=1/GPa)
#
#
# Indices 1 2 3 4 5 6 
#
# 1 0.021106 -0.009996 0.000179 0.000000 0.000000 0.000000
# 2 -0.009996 0.007800 0.020143 0.000000 0.000000 0.000000
# 3 0.000179 0.020143 -0.063341 0.000000 0.000000 0.000000
# 4 0.000000 0.000000 0.000000 0.010644 0.000000 0.000000
# 5 0.000000 0.000000 0.000000 0.000000 0.208914 0.000000
# 6 0.000000 0.000000 0.000000 0.000000 0.000000 0.036792
#
#
# Mechanical properties :
#
#
# Convention : Reuss Voigt Hill
#
# Bulk Modulus (GPa) = -72.56193 40.92363 -15.81915
# Shear Modulus (GPa) = 25.42338 29.96190 27.69264
#
# Velocity S-wave (km/s) = 3.68014 3.99515 3.84088
# Velocity P-wave (km/s) = 4.53839 6.56371 3.35301
#
# Compressibility (1/GPa) = -0.01378133
#
# Stress axis : x y z
#
# Youngs Moduli (GPa) = 47.37916 128.20367 -15.78762
#
# Poissons Ratio (x) = 1.28154 0.00283
# Poissons Ratio (y) = 0.47361 0.31802
# Poissons Ratio (z) = -0.00849 -2.58246
#
# Static dielectric constant tensor:
#      x y z
#    x 1.655730 0.000000 0.000000 
#    y 0.000000 1.686490 0.000000 
#    z 0.000000 0.000000 1.637550 
# 
# From -- ./inp_files/18443.got.cif
#   From: 2010.05.17/outbox.ucp.g08.bks.cvg/sg35_10_cif.got.tgz:18443.got - 2010.06.11 10:36:28.
