data_PCOD9350802
_publ_section_title
;
Structure prediction by ZEFSAII (Michael W. Deem and Ramdas Pophale) SiO2 
 PCOD9350802
Probable space group: C M C 21
;
_chemical_formula_sum "Si O2"
_cell_formula_units_Z 56
_cell_length_a 15.900946
_cell_length_b 12.468239
_cell_length_c 14.360434
_cell_angle_alpha 90.000000
_cell_angle_beta 90.000000
_cell_angle_gamma 90.000000
_cell_volume 2847.053620
_symmetry_space_group_name_H-M "C M C 21"
_symmetry_group_IT_number 36
_symmetry_cell_setting 'orthorhombic'
loop_
_space_group_symop_operation_xyz
x,y,z
-x,-y,1/2+z
x,-y,1/2+z
-x,y,z
1/2+x,1/2+y,z
1/2-x,1/2-y,1/2+z
1/2+x,1/2-y,1/2+z
1/2-x,1/2+y,z
loop_
_atom_site_type_symbol
_atom_site_label
_atom_site_fract_x
_atom_site_fract_y
_atom_site_fract_z
Si Si1 0.903448 0.675880 0.932150
Si Si2 0.676905 0.010279 0.803840
Si Si3 0.092042 0.822904 0.191726
Si Si4 0.744641 0.176682 0.431999
Si Si5 0.673853 0.514342 0.556848
Si Si6 0.322257 0.114591 0.126933
Si Si7 0.655862 0.615702 0.880433
O O1 0.891068 0.582720 0.855970
O O2 0.837407 0.772558 0.912156
O O3 0.000000 0.710578 0.937832
O O4 0.871152 0.623766 0.029246
O O5 0.763115 0.076932 0.819669
O O6 0.702885 0.900556 0.855966
O O7 0.650991 0.976224 0.700671
O O8 0.112998 0.924508 0.126760
O O9 0.160254 0.730085 0.173048
O O10 0.092213 0.856081 0.299402
O O11 0.000000 0.779441 0.166385
O O12 0.758060 0.103130 0.522392
O O13 0.684825 0.279010 0.436117
O O14 0.726396 0.418926 0.604609
O O15 0.635222 0.470894 0.459825
#
# Coordination Sequence:
#
# PCOD9350802 Si02
#       7
#     8   8   8   8   8   8   8
#     4  11  23  38  59  93 125 153 199 255 306 348
#     4  10  21  37  62  88 119 159 205 242 295 365
#     4  12  25  38  61  95 123 153 202 261 309 350
#     4  10  18  38  59  86 117 157 199 236 298 360
#     4  11  21  38  63  90 118 164 205 246 295 370
#     4  12  21  37  64  92 118 160 208 250 292 368
#     4  10  20  38  61  88 116 162 204 244 296 367
#
# _framework density 19.669457999999999
#
# number of rings (size 3 to 8) (size 9 to 14) (size 15 to 20)
#    0.000    1.143    8.571    0.429    0.000    1.714 
#    0.000    2.143    0.000    0.000    0.000    0.000 
#    0.000    0.000    0.000    0.000    0.000    0.000 
#
# Total GULP energy -156009.214841 kJ/mol
# GULP energy per Si atom -5571.757673 kJ/mol
# Density = 1.962469 g / cm^3
# Si number density = 19.669458 Si / 1000 Ang^3
#
#
#
# Elastic Constant Matrix: (Units=GPa)
#
#
# Indices 1 2 3 4 5 6 
#
# 1 38.7093 19.5577 0.0996 0.0000 0.0000 0.0000
# 2 19.5577 92.2096 27.8619 0.0000 0.0000 0.0000
# 3 0.0996 27.8619 73.2647 0.0000 0.0000 0.0000
# 4 0.0000 0.0000 0.0000 34.6443 0.0000 0.0000
# 5 0.0000 0.0000 0.0000 0.0000 13.2802 0.0000
# 6 0.0000 0.0000 0.0000 0.0000 0.0000 13.9284
#
#
#
# Elastic Compliance Matrix: (Units=1/GPa)
#
#
# Indices 1 2 3 4 5 6 
#
# 1 0.029377 -0.007026 0.002632 0.000000 0.000000 0.000000
# 2 -0.007026 0.013933 -0.005289 0.000000 0.000000 0.000000
# 3 0.002632 -0.005289 0.015657 0.000000 0.000000 0.000000
# 4 0.000000 0.000000 0.000000 0.028865 0.000000 0.000000
# 5 0.000000 0.000000 0.000000 0.000000 0.075300 0.000000
# 6 0.000000 0.000000 0.000000 0.000000 0.000000 0.071796
#
#
# Mechanical properties :
#
#
# Convention : Reuss Voigt Hill
#
# Bulk Modulus (GPa) = 25.25218 33.24688 29.24953
# Shear Modulus (GPa) = 18.69200 22.81487 20.75344
#
# Velocity S-wave (km/s) = 3.08605 3.40945 3.25177
# Velocity P-wave (km/s) = 5.05612 5.69549 5.38530
#
# Compressibility (1/GPa) = 0.03960054
#
# Stress axis : x y z
#
# Youngs Moduli (GPa) = 34.04056 71.77078 63.86928
#
# Poissons Ratio (x) = 0.50427 -0.16811
# Poissons Ratio (y) = 0.23917 0.33781
# Poissons Ratio (z) = -0.08960 0.37961
#
# Static dielectric constant tensor:
#      x y z
#    x 1.688230 0.000000 0.000000 
#    y 0.000000 1.713820 0.000000 
#    z 0.000000 0.000000 1.745370 
# 
# From -- ./inp_files/12172.got.cif
#   From: 2010.05.17/outbox.cif.g08.bks.cpg/sg36_7_cif.got.tgz:12172.got - 2010.06.03 17:41:39.
