data_PCOD9350664
_publ_section_title
;
Structure prediction by ZEFSAII (Michael W. Deem and Ramdas Pophale) SiO2 
 PCOD9350664
Probable space group: C M C 21
;
_chemical_formula_sum "Si O2"
_cell_formula_units_Z 52
_cell_length_a 7.892785
_cell_length_b 24.869455
_cell_length_c 9.682238
_cell_angle_alpha 90.000000
_cell_angle_beta 90.000000
_cell_angle_gamma 90.000000
_cell_volume 1900.519346
_symmetry_space_group_name_H-M "C M C 21"
_symmetry_group_IT_number 36
_symmetry_cell_setting 'orthorhombic'
loop_
_space_group_symop_operation_xyz
x,y,z
-x,-y,1/2+z
x,-y,1/2+z
-x,y,z
1/2+x,1/2+y,z
1/2-x,1/2-y,1/2+z
1/2+x,1/2-y,1/2+z
1/2-x,1/2+y,z
loop_
_atom_site_type_symbol
_atom_site_label
_atom_site_fract_x
_atom_site_fract_y
_atom_site_fract_z
Si Si1 0.305030 0.980322 0.293740
Si Si2 0.702868 0.180206 0.642185
Si Si3 0.807600 0.672074 0.217656
Si Si4 0.500000 0.518556 0.126777
Si Si5 0.686696 0.610549 0.965321
Si Si6 0.695939 0.915851 0.953549
Si Si7 0.308008 0.762740 0.405597
O O1 0.500000 0.994652 0.255277
O O2 0.153784 0.979871 0.184518
O O3 0.236022 0.026637 0.400873
O O4 0.307402 0.921655 0.362992
O O5 0.500000 0.174734 0.650390
O O6 0.768818 0.126418 0.565197
O O7 0.765833 0.192280 0.798009
O O8 0.734299 0.230280 0.537133
O O9 0.804035 0.619265 0.313134
O O10 0.689174 0.713803 0.293213
O O11 0.000000 0.692664 0.228011
O O12 0.757240 0.658158 0.061222
O O13 0.643517 0.563362 0.077782
O O14 0.500000 0.621060 0.908255
O O15 0.500000 0.926128 0.994695
O O16 0.500000 0.776939 0.436327
#
# Coordination Sequence:
#
# PCOD9350664 Si02
#       7
#     8   8   8   4   8   8   8
#     4  11  20  33  56  81 107 145 187 232 279 331
#     4   9  19  36  56  80 111 144 183 232 281 337
#     4  10  18  32  54  79 105 140 181 228 280 340
#     4  10  20  36  52  76 114 142 182 234 282 330
#     4  10  20  32  53  78 110 136 181 232 272 324
#     4   8  15  30  53  75  98 135 181 227 274 333
#     4  10  20  33  57  83 111 145 187 233 285 337
#
# _framework density 27.360942000000001
#
# number of rings (size 3 to 8) (size 9 to 14) (size 15 to 20)
#    0.462    1.846    2.308    2.308    0.000    1.846 
#    0.000    0.000    3.385    0.000    0.000    0.000 
#    0.000    0.000    0.000    0.000    0.000    0.000 
#
# Total GULP energy -144749.993031 kJ/mol
# GULP energy per Si atom -5567.307424 kJ/mol
# Density = 2.729867 g / cm^3
# Si number density = 27.360942 Si / 1000 Ang^3
#
#
#
# Elastic Constant Matrix: (Units=GPa)
#
#
# Indices 1 2 3 4 5 6 
#
# 1 114.7015 17.9058 17.4747 0.0000 0.0000 0.0000
# 2 17.9058 99.0497 -1.8264 0.0000 0.0000 0.0000
# 3 17.4747 -1.8264 160.1998 0.0000 0.0000 0.0000
# 4 0.0000 0.0000 0.0000 52.8077 0.0000 0.0000
# 5 0.0000 0.0000 0.0000 0.0000 39.5310 0.0000
# 6 0.0000 0.0000 0.0000 0.0000 0.0000 33.0030
#
#
#
# Elastic Compliance Matrix: (Units=1/GPa)
#
#
# Indices 1 2 3 4 5 6 
#
# 1 0.009134 -0.001670 -0.001015 0.000000 0.000000 0.000000
# 2 -0.001670 0.010403 0.000301 0.000000 0.000000 0.000000
# 3 -0.001015 0.000301 0.006356 0.000000 0.000000 0.000000
# 4 0.000000 0.000000 0.000000 0.018937 0.000000 0.000000
# 5 0.000000 0.000000 0.000000 0.000000 0.025297 0.000000
# 6 0.000000 0.000000 0.000000 0.000000 0.000000 0.030300
#
#
# Mechanical properties :
#
#
# Convention : Reuss Voigt Hill
#
# Bulk Modulus (GPa) = 47.33841 49.00657 48.17249
# Shear Modulus (GPa) = 44.54844 47.76145 46.15495
#
# Velocity S-wave (km/s) = 4.03944 4.18258 4.11163
# Velocity P-wave (km/s) = 6.25261 6.42459 6.33918
#
# Compressibility (1/GPa) = 0.02112450
#
# Stress axis : x y z
#
# Youngs Moduli (GPa) = 109.48525 96.12276 157.32209
#
# Poissons Ratio (x) = 0.16051 0.15974
# Poissons Ratio (y) = 0.18283 -0.04732
# Poissons Ratio (z) = 0.11117 -0.02891
#
# Static dielectric constant tensor:
#      x y z
#    x 1.641070 0.000000 0.000000 
#    y 0.000000 2.231640 0.000000 
#    z 0.000000 0.000000 2.308200 
# 
# From -- ./inp_files/6832.got.cif
#   From: 2010.05.17/outbox.cif.g08.bks.cpg/sg36_4_cif.got.tgz:6832.got - 2010.06.03 17:41:39.
