data_PCOD9350798
_publ_section_title
;
Structure prediction by ZEFSAII (Michael W. Deem and Ramdas Pophale) SiO2 
 PCOD9350798
Probable space group: C M C 21
;
_chemical_formula_sum "Si O2"
_cell_formula_units_Z 48
_cell_length_a 28.567716
_cell_length_b 5.340452
_cell_length_c 13.317283
_cell_angle_alpha 90.000000
_cell_angle_beta 90.000000
_cell_angle_gamma 90.000000
_cell_volume 2031.744836
_symmetry_space_group_name_H-M "C M C 21"
_symmetry_group_IT_number 36
_symmetry_cell_setting 'orthorhombic'
loop_
_space_group_symop_operation_xyz
x,y,z
-x,-y,1/2+z
x,-y,1/2+z
-x,y,z
1/2+x,1/2+y,z
1/2-x,1/2-y,1/2+z
1/2+x,1/2-y,1/2+z
1/2-x,1/2+y,z
loop_
_atom_site_type_symbol
_atom_site_label
_atom_site_fract_x
_atom_site_fract_y
_atom_site_fract_z
Si Si1 0.777519 0.624332 0.300390
Si Si2 0.500000 0.493600 0.217746
Si Si3 0.896861 0.114759 0.250225
Si Si4 0.000000 0.499899 0.085506
Si Si5 0.171897 0.787054 0.109183
Si Si6 0.345386 0.559880 0.930624
Si Si7 0.098123 0.410115 0.055454
O O1 0.761674 0.340559 0.318448
O O2 0.791629 0.660977 0.183634
O O3 0.819915 0.723742 0.367771
O O4 0.449705 0.522226 0.271733
O O5 0.500000 0.721011 0.135291
O O6 0.500000 0.223287 0.165554
O O7 0.865625 0.929233 0.180680
O O8 0.866080 0.135380 0.349871
O O9 0.902784 0.348898 0.175316
O O10 0.048369 0.521242 0.026114
O O11 0.141977 0.588743 0.047491
O O12 0.188647 0.969299 0.020424
O O13 0.390078 0.669939 0.989560
#
# Coordination Sequence:
#
# PCOD9350798 Si02
#       7
#     8   4   8   4   8   8   8
#     4  11  28  47  69  97 130 170 219 280 342 410
#     4  10  18  37  61  92 129 180 222 264 316 381
#     4   9  20  38  61  91 133 177 222 267 330 388
#     4  10  20  37  65  94 133 180 224 264 314 381
#     4  10  22  41  68  91 130 173 219 273 341 399
#     4  10  24  41  66  99 131 173 219 283 338 404
#     4  10  21  39  66  96 134 184 222 273 328 397
#
# _framework density 23.625015999999999
#
# number of rings (size 3 to 8) (size 9 to 14) (size 15 to 20)
#    0.000    2.000    1.667    0.000    9.333    3.333 
#    0.000    1.667    0.000    0.000    0.000    0.000 
#    0.000    0.000    0.000    0.000    0.000    0.000 
#
# Total GULP energy -133913.288203 kJ/mol
# GULP energy per Si atom -5579.720342 kJ/mol
# Density = 2.357124 g / cm^3
# Si number density = 23.625016 Si / 1000 Ang^3
#
#
#
# Elastic Constant Matrix: (Units=GPa)
#
#
# Indices 1 2 3 4 5 6 
#
# 1 61.9168 -0.4898 27.3462 0.0000 0.0000 0.0000
# 2 -0.4898 41.9852 9.3250 0.0000 0.0000 0.0000
# 3 27.3462 9.3250 111.9188 0.0000 0.0000 0.0000
# 4 0.0000 0.0000 0.0000 19.6752 0.0000 0.0000
# 5 0.0000 0.0000 0.0000 0.0000 13.3064 0.0000
# 6 0.0000 0.0000 0.0000 0.0000 0.0000 29.3963
#
#
#
# Elastic Compliance Matrix: (Units=1/GPa)
#
#
# Indices 1 2 3 4 5 6 
#
# 1 0.018166 0.001220 -0.004540 0.000000 0.000000 0.000000
# 2 0.001220 0.024349 -0.002327 0.000000 0.000000 0.000000
# 3 -0.004540 -0.002327 0.010238 0.000000 0.000000 0.000000
# 4 0.000000 0.000000 0.000000 0.050825 0.000000 0.000000
# 5 0.000000 0.000000 0.000000 0.000000 0.075152 0.000000
# 6 0.000000 0.000000 0.000000 0.000000 0.000000 0.034018
#
#
# Mechanical properties :
#
#
# Convention : Reuss Voigt Hill
#
# Bulk Modulus (GPa) = 24.12010 32.02039 28.07025
# Shear Modulus (GPa) = 21.02065 24.45155 22.73610
#
# Velocity S-wave (km/s) = 2.98612 3.22061 3.10558
# Velocity P-wave (km/s) = 4.70329 5.23572 4.97663
#
# Compressibility (1/GPa) = 0.04145919
#
# Stress axis : x y z
#
# Youngs Moduli (GPa) = 55.04902 41.06951 97.67257
#
# Poissons Ratio (x) = -0.05012 0.44346
# Poissons Ratio (y) = -0.06718 0.22727
# Poissons Ratio (z) = 0.24994 0.09556
#
# Static dielectric constant tensor:
#      x y z
#    x 1.946190 0.000000 0.000000 
#    y 0.000000 1.964730 0.000000 
#    z 0.000000 0.000000 1.861480 
# 
# From -- ./inp_files/13088.got.cif
#   From: 2010.05.17/outbox.cif.g08.bks.cpg/sg36_7_cif.got.tgz:13088.got - 2010.06.03 17:41:39.
