data_PCOD9350893
_publ_section_title
;
Structure prediction by ZEFSAII (Michael W. Deem and Ramdas Pophale) SiO2 
 PCOD9350893
Probable space group: C M C 21
;
_chemical_formula_sum "Si O2"
_cell_formula_units_Z 40
_cell_length_a 12.035783
_cell_length_b 30.619718
_cell_length_c 5.482152
_cell_angle_alpha 90.000000
_cell_angle_beta 90.000000
_cell_angle_gamma 90.000000
_cell_volume 2020.349983
_symmetry_space_group_name_H-M "C M C 21"
_symmetry_group_IT_number 36
_symmetry_cell_setting 'orthorhombic'
loop_
_space_group_symop_operation_xyz
x,y,z
-x,-y,1/2+z
x,-y,1/2+z
-x,y,z
1/2+x,1/2+y,z
1/2-x,1/2-y,1/2+z
1/2+x,1/2-y,1/2+z
1/2-x,1/2+y,z
loop_
_atom_site_type_symbol
_atom_site_label
_atom_site_fract_x
_atom_site_fract_y
_atom_site_fract_z
Si Si1 0.823252 0.223958 0.669770
Si Si2 0.128559 0.349998 0.169770
Si Si3 0.628539 0.527881 0.169771
Si Si4 0.162158 0.800683 0.669770
Si Si5 0.219180 0.387893 0.669770
O O1 0.716917 0.190262 0.669770
O O2 0.886026 0.214243 0.423308
O O3 0.778950 0.273281 0.669770
O O4 0.886026 0.214243 0.916232
O O5 0.152964 0.377464 0.418515
O O6 0.000000 0.335731 0.169770
O O7 0.152964 0.377464 0.921025
O O8 0.640620 0.500000 0.419771
O O9 0.500000 0.544604 0.169771
O O10 0.720909 0.565612 0.169770
O O11 0.183260 0.851630 0.669770
#
# Coordination Sequence:
#
# PCOD9350893 Si02
#       5
#     8   8   8   8   8
#     4   8  14  25  41  64  95 131 168 203 236 271
#     4  10  19  31  50  76 107 144 179 204 237 295
#     4  10  21  38  60  82 101 124 161 211 269 326
#     4   8  14  25  43  66  93 127 165 204 244 281
#     4  10  19  33  54  76 103 136 170 214 258 301
#
# _framework density 19.798548
#
# number of rings (size 3 to 8) (size 9 to 14) (size 15 to 20)
#    0.000    2.800    0.000    1.800    0.000    0.000 
#    0.000    1.000    0.000   12.000    0.000   22.400 
#    0.000    0.000    0.000    0.000    0.000    0.000 
#
# Total GULP energy -111355.097065 kJ/mol
# GULP energy per Si atom -5567.754853 kJ/mol
# Density = 1.975349 g / cm^3
# Si number density = 19.798548 Si / 1000 Ang^3
#
#
#
# Elastic Constant Matrix: (Units=GPa)
#
#
# Indices 1 2 3 4 5 6 
#
# 1 107.1778 35.3606 32.6501 0.0000 0.0000 0.0000
# 2 35.3606 75.5182 28.6393 0.0000 0.0000 0.0000
# 3 32.6501 28.6393 213.9557 0.0000 0.0000 0.0000
# 4 0.0000 0.0000 0.0000 25.5213 0.0000 0.0000
# 5 0.0000 0.0000 0.0000 0.0000 -7.6760 0.0000
# 6 0.0000 0.0000 0.0000 0.0000 0.0000 178.2641
#
#
#
# Elastic Compliance Matrix: (Units=1/GPa)
#
#
# Indices 1 2 3 4 5 6 
#
# 1 0.011262 -0.004869 -0.001067 0.000000 0.000000 0.000000
# 2 -0.004869 0.016055 -0.001406 0.000000 0.000000 0.000000
# 3 -0.001067 -0.001406 0.005025 0.000000 0.000000 0.000000
# 4 0.000000 0.000000 0.000000 0.039183 0.000000 0.000000
# 5 0.000000 0.000000 0.000000 0.000000 -0.130276 0.000000
# 6 0.000000 0.000000 0.000000 0.000000 0.000000 0.005610
#
#
# Mechanical properties :
#
#
# Convention : Reuss Voigt Hill
#
# Bulk Modulus (GPa) = 56.63078 65.55020 61.09049
# Shear Modulus (GPa) = -153.49936 59.22199 -47.13868
#
# Velocity S-wave (km/s) = -8.81470 5.47515 -4.88476
# Velocity P-wave (km/s) = 8.65638 8.55278 0.94416
#
# Compressibility (1/GPa) = 0.01765824
#
# Stress axis : x y z
#
# Youngs Moduli (GPa) = 88.79791 62.28705 199.00964
#
# Poissons Ratio (x) = 0.30324 0.21231
# Poissons Ratio (y) = 0.43231 0.27982
# Poissons Ratio (z) = 0.09473 0.08758
#
# Static dielectric constant tensor:
#      x y z
#    x 1.660070 0.000000 0.000000 
#    y 0.000000 1.652130 0.000000 
#    z 0.000000 0.000000 1.783580 
# 
# From -- ./inp_files/498.got.cif
#   From: 2010.05.17/outbox.cif.g08.bks.cpg/sg36_1_cif.got.tgz:498.got - 2010.06.03 17:41:39.
