data_PCOD9350818
_publ_section_title
;
Structure prediction by ZEFSAII (Michael W. Deem and Ramdas Pophale) SiO2 
 PCOD9350818
Probable space group: C M C 21
;
_chemical_formula_sum "Si O2"
_cell_formula_units_Z 64
_cell_length_a 13.921864
_cell_length_b 34.993322
_cell_length_c 9.128328
_cell_angle_alpha 90.000000
_cell_angle_beta 90.000000
_cell_angle_gamma 90.000000
_cell_volume 4447.068271
_symmetry_space_group_name_H-M "C M C 21"
_symmetry_group_IT_number 36
_symmetry_cell_setting 'orthorhombic'
loop_
_space_group_symop_operation_xyz
x,y,z
-x,-y,1/2+z
x,-y,1/2+z
-x,y,z
1/2+x,1/2+y,z
1/2-x,1/2-y,1/2+z
1/2+x,1/2-y,1/2+z
1/2-x,1/2+y,z
loop_
_atom_site_type_symbol
_atom_site_label
_atom_site_fract_x
_atom_site_fract_y
_atom_site_fract_z
Si Si1 0.114729 0.617345 0.768480
Si Si2 0.299359 0.191238 0.268127
Si Si3 0.616834 0.961466 0.111519
Si Si4 0.700641 0.191239 0.617183
Si Si5 0.885271 0.382655 0.616829
Si Si6 0.890792 0.236042 0.616729
Si Si7 0.390792 0.736041 0.268579
Si Si8 0.383166 0.038533 0.273790
O O1 0.143926 0.577083 0.696354
O O2 0.169910 0.652495 0.695741
O O3 0.000000 0.622479 0.742663
O O4 0.129578 0.616372 0.942655
O O5 0.311723 0.187757 0.442655
O O6 0.330090 0.152494 0.189570
O O7 0.363334 0.226087 0.206240
O O8 0.189654 0.204188 0.237209
O O9 0.500000 0.962384 0.111632
O O10 0.649311 0.999999 0.192656
O O11 0.648019 0.960608 0.942655
O O12 0.810346 0.204189 0.648101
O O13 0.636666 0.226088 0.679066
O O14 0.856074 0.422918 0.688953
O O15 0.000000 0.377522 0.642646
O O16 0.883508 0.244924 0.442654
O O17 0.000000 0.224313 0.647555
O O18 0.500000 0.724312 0.237754
O O19 0.500000 0.037615 0.273677
#
# Coordination Sequence:
#
# PCOD9350818 Si02
#       8
#     8   8   8   8   8   8   8   8
#     4  10  19  29  41  58  83 114 143 171 205 244
#     4  10  19  29  43  63  83 105 138 176 209 244
#     4   9  16  26  40  58  81 109 140 171 203 241
#     4  10  19  29  43  63  83 105 138 176 209 244
#     4  10  19  29  41  58  83 114 143 171 205 244
#     4   9  18  32  46  59  80 110 139 169 209 253
#     4   9  18  32  46  59  80 110 139 169 209 253
#     4   9  16  26  40  58  81 109 140 171 203 241
#
# _framework density 14.391503999999999
#
# number of rings (size 3 to 8) (size 9 to 14) (size 15 to 20)
#    0.000    2.500    0.000    3.000    0.000    9.000 
#    0.000    0.000    0.000    0.000    0.000    0.000 
#    0.000    1.000    0.000    2.750    0.000    4.000 
#
# Total GULP energy -178393.115077 kJ/mol
# GULP energy per Si atom -5574.784846 kJ/mol
# Density = 1.435875 g / cm^3
# Si number density = 14.391504 Si / 1000 Ang^3
#
#
#
# Elastic Constant Matrix: (Units=GPa)
#
#
# Indices 1 2 3 4 5 6 
#
# 1 65.7362 50.7976 46.7408 0.0000 0.0000 0.0000
# 2 50.7976 155.1815 87.8818 0.0000 0.0000 0.0000
# 3 46.7408 87.8818 94.4938 0.0000 0.0000 0.0000
# 4 0.0000 0.0000 0.0000 31.7509 0.0000 0.0000
# 5 0.0000 0.0000 0.0000 0.0000 16.0917 0.0000
# 6 0.0000 0.0000 0.0000 0.0000 0.0000 19.0892
#
#
#
# Elastic Compliance Matrix: (Units=1/GPa)
#
#
# Indices 1 2 3 4 5 6 
#
# 1 0.023875 -0.002382 -0.009594 0.000000 0.000000 0.000000
# 2 -0.002382 0.013852 -0.011705 0.000000 0.000000 0.000000
# 3 -0.009594 -0.011705 0.026215 0.000000 0.000000 0.000000
# 4 0.000000 0.000000 0.000000 0.031495 0.000000 0.000000
# 5 0.000000 0.000000 0.000000 0.000000 0.062144 0.000000
# 6 0.000000 0.000000 0.000000 0.000000 0.000000 0.052386
#
#
# Mechanical properties :
#
#
# Convention : Reuss Voigt Hill
#
# Bulk Modulus (GPa) = 60.31606 76.25022 68.28314
# Shear Modulus (GPa) = 19.02186 22.05245 20.53716
#
# Velocity S-wave (km/s) = 3.63952 3.91874 3.78171
# Velocity P-wave (km/s) = 7.72421 8.57748 8.16200
#
# Compressibility (1/GPa) = 0.01657933
#
# Stress axis : x y z
#
# Youngs Moduli (GPa) = 41.88515 72.18924 38.14675
#
# Poissons Ratio (x) = 0.17194 0.36600
# Poissons Ratio (y) = 0.09976 0.44651
# Poissons Ratio (z) = 0.40186 0.84498
#
# Static dielectric constant tensor:
#      x y z
#    x 1.462050 0.000000 0.000000 
#    y 0.000000 1.453160 0.000000 
#    z 0.000000 0.000000 1.481090 
# 
# From -- ./inp_files/4423.got.cif
#   From: 2010.05.17/outbox.cif.g08.bks.cpg/sg36_3_cif.got.tgz:4423.got - 2010.06.03 17:41:39.
