data_PCOD9350561
_publ_section_title
;
Structure prediction by ZEFSAII (Michael W. Deem and Ramdas Pophale) SiO2 
 PCOD9350561
Probable space group: C M C 21
;
_chemical_formula_sum "Si O2"
_cell_formula_units_Z 28
_cell_length_a 15.744268
_cell_length_b 13.370308
_cell_length_c 4.979869
_cell_angle_alpha 90.000000
_cell_angle_beta 90.000000
_cell_angle_gamma 90.000000
_cell_volume 1048.290871
_symmetry_space_group_name_H-M "C M C 21"
_symmetry_group_IT_number 36
_symmetry_cell_setting 'orthorhombic'
loop_
_space_group_symop_operation_xyz
x,y,z
-x,-y,1/2+z
x,-y,1/2+z
-x,y,z
1/2+x,1/2+y,z
1/2-x,1/2-y,1/2+z
1/2+x,1/2-y,1/2+z
1/2-x,1/2+y,z
loop_
_atom_site_type_symbol
_atom_site_label
_atom_site_fract_x
_atom_site_fract_y
_atom_site_fract_z
Si Si1 0.904977 0.630913 0.633040
Si Si2 0.701492 0.869824 0.649947
Si Si3 0.145488 0.172623 0.862096
Si Si4 0.500000 0.437493 0.052072
O O1 0.834355 0.587273 0.428086
O O2 0.903768 0.748585 0.551205
O O3 0.000000 0.592448 0.591964
O O4 0.873137 0.620192 0.933362
O O5 0.792655 0.898390 0.532970
O O6 0.706040 0.749092 0.698433
O O7 0.082457 0.120320 0.657778
O O8 0.500000 0.462178 0.738091
#
# Coordination Sequence:
#
# PCOD9350561 Si02
#       4
#     8   8   8   4
#     4  10  18  29  50  81 107 133 165 242 309 340
#     4  10  19  30  56  79  96 150 179 260 298 297
#     4  10  20  36  53  76 111 142 212 226 285 339
#     4  12  30  38  54  80 128 182 188 214 268 376
#
# _framework density 26.710146000000002
#
# number of rings (size 3 to 8) (size 9 to 14) (size 15 to 20)
#    1.714    0.000    4.286    0.857    6.000    0.000 
#    0.000    0.000    0.000    0.000    0.000    0.000 
#    0.000   22.857    0.000    0.000    0.000    0.000 
#
# Total GULP energy -78340.782076 kJ/mol
# GULP energy per Si atom -5595.770148 kJ/mol
# Density = 2.664935 g / cm^3
# Si number density = 26.710146 Si / 1000 Ang^3
#
#
#
# Elastic Constant Matrix: (Units=GPa)
#
#
# Indices 1 2 3 4 5 6 
#
# 1 122.4172 -1.7151 11.2250 0.0000 0.0000 0.0000
# 2 -1.7151 72.8043 -7.5593 0.0000 0.0000 0.0000
# 3 11.2250 -7.5593 107.2801 0.0000 0.0000 0.0000
# 4 0.0000 0.0000 0.0000 14.6372 0.0000 0.0000
# 5 0.0000 0.0000 0.0000 0.0000 39.7259 0.0000
# 6 0.0000 0.0000 0.0000 0.0000 0.0000 15.6451
#
#
#
# Elastic Compliance Matrix: (Units=1/GPa)
#
#
# Indices 1 2 3 4 5 6 
#
# 1 0.008249 0.000105 -0.000856 0.000000 0.000000 0.000000
# 2 0.000105 0.013838 0.000964 0.000000 0.000000 0.000000
# 3 -0.000856 0.000964 0.009479 0.000000 0.000000 0.000000
# 4 0.000000 0.000000 0.000000 0.068319 0.000000 0.000000
# 5 0.000000 0.000000 0.000000 0.000000 0.025173 0.000000
# 6 0.000000 0.000000 0.000000 0.000000 0.000000 0.063918
#
#
# Mechanical properties :
#
#
# Convention : Reuss Voigt Hill
#
# Bulk Modulus (GPa) = 31.25654 34.04478 32.65066
# Shear Modulus (GPa) = 25.09895 34.03838 29.56866
#
# Velocity S-wave (km/s) = 3.06874 3.57369 3.33080
# Velocity P-wave (km/s) = 4.92786 5.45913 5.20028
#
# Compressibility (1/GPa) = 0.03199330
#
# Stress axis : x y z
#
# Youngs Moduli (GPa) = 121.23093 72.26463 105.49804
#
# Poissons Ratio (x) = -0.00762 0.09027
# Poissons Ratio (y) = -0.01279 -0.10170
# Poissons Ratio (z) = 0.10373 -0.06967
#
# Static dielectric constant tensor:
#      x y z
#    x 2.022520 0.000000 0.000000 
#    y 0.000000 2.229470 0.000000 
#    z 0.000000 0.000000 2.030050 
# 
# From -- ./inp_files/623.got.cif
#   From: 2010.05.17/outbox.cif.g08.bks.cpg/sg36_1_cif.got.tgz:623.got - 2010.06.03 17:41:39.
