data_PCOD9350422
_publ_section_title
;
Structure prediction by ZEFSAII (Michael W. Deem and Ramdas Pophale) SiO2 
 PCOD9350422
Probable space group: C M M 2
;
_chemical_formula_sum "Si O2"
_cell_formula_units_Z 64
_cell_length_a 30.169673
_cell_length_b 8.600426
_cell_length_c 12.799535
_cell_angle_alpha 90.000000
_cell_angle_beta 90.000000
_cell_angle_gamma 90.000000
_cell_volume 3321.121459
_symmetry_space_group_name_H-M "C M M 2"
_symmetry_group_IT_number 35
_symmetry_cell_setting 'orthorhombic'
loop_
_space_group_symop_operation_xyz
x,y,z
-x,-y,z
-x,y,z
x,-y,z
1/2+x,1/2+y,z
1/2-x,1/2-y,z
1/2-x,1/2+y,z
1/2+x,1/2-y,z
loop_
_atom_site_type_symbol
_atom_site_label
_atom_site_fract_x
_atom_site_fract_y
_atom_site_fract_z
Si Si1 0.893600 0.685939 0.546110
Si Si2 0.888480 0.686165 0.150137
Si Si3 0.051559 0.309470 0.344095
Si Si4 0.702757 0.813424 0.059908
Si Si5 0.816731 0.821025 0.830643
Si Si6 0.918792 0.178443 0.762343
Si Si7 0.548598 0.687328 0.977321
Si Si8 0.203750 0.685315 0.606382
O O1 0.890892 0.500000 0.537276
O O2 0.923184 0.741652 0.449470
O O3 0.916433 0.728075 0.655688
O O4 0.842364 0.743547 0.553938
O O5 0.886655 0.500000 0.159796
O O6 0.917962 0.743753 0.247089
O O7 0.838101 0.740905 0.132689
O O8 0.914584 0.731611 0.045892
O O9 0.050894 0.500000 0.343157
O O10 0.000000 0.259821 0.338358
O O11 0.750000 0.750000 0.095629
O O12 0.703313 0.000000 0.058475
O O13 0.694852 0.754925 0.941107
O O14 0.869615 0.821292 0.812861
O O15 0.798920 0.733946 0.728328
O O16 0.801093 0.000000 0.830155
O O17 0.948840 0.237020 0.856637
O O18 0.930624 0.000000 0.737736
O O19 0.500000 0.722048 0.020935
O O20 0.555138 0.500000 0.978679
O O21 0.204443 0.500000 0.599418
O O22 0.250000 0.750000 0.562872
#
# Coordination Sequence:
#
# PCOD9350422 Si02
#       8
#     8   8   8   8   8   8   8   8
#     4   9  19  34  54  79 106 137 176 224 269 315
#     4  10  21  37  58  81 107 139 182 231 272 320
#     4   9  18  36  61  84 105 134 176 226 278 323
#     4  11  22  34  51  77 108 143 181 222 269 322
#     4  10  18  31  51  74 105 146 184 219 261 313
#     4   9  18  32  50  75 110 148 177 212 265 321
#     4  10  20  34  53  79 112 147 178 214 271 334
#     4  10  19  31  48  74 108 143 180 219 261 314
#
# _framework density 19.270599000000001
#
# number of rings (size 3 to 8) (size 9 to 14) (size 15 to 20)
#    0.000    2.250    1.250    1.875    0.000    3.250 
#    0.000    1.250    0.000    0.750    0.000    0.000 
#    0.000    0.000    0.000    0.000    0.000    0.000 
#
# Total GULP energy -178480.863492 kJ/mol
# GULP energy per Si atom -5577.526984 kJ/mol
# Density = 1.922674 g / cm^3
# Si number density = 19.270599 Si / 1000 Ang^3
#
#
#
# Elastic Constant Matrix: (Units=GPa)
#
#
# Indices 1 2 3 4 5 6 
#
# 1 152.4461 18.9863 76.6128 0.0000 0.0000 0.0000
# 2 18.9863 16.8565 9.1776 0.0000 0.0000 0.0000
# 3 76.6128 9.1776 102.2000 0.0000 0.0000 0.0000
# 4 0.0000 0.0000 0.0000 20.6969 0.0000 0.0000
# 5 0.0000 0.0000 0.0000 0.0000 15.7815 0.0000
# 6 0.0000 0.0000 0.0000 0.0000 0.0000 12.3857
#
#
#
# Elastic Compliance Matrix: (Units=1/GPa)
#
#
# Indices 1 2 3 4 5 6 
#
# 1 0.011645 -0.008794 -0.007940 0.000000 0.000000 0.000000
# 2 -0.008794 0.069014 0.000394 0.000000 0.000000 0.000000
# 3 -0.007940 0.000394 0.015701 0.000000 0.000000 0.000000
# 4 0.000000 0.000000 0.000000 0.048316 0.000000 0.000000
# 5 0.000000 0.000000 0.000000 0.000000 0.063365 0.000000
# 6 0.000000 0.000000 0.000000 0.000000 0.000000 0.080738
#
#
# Mechanical properties :
#
#
# Convention : Reuss Voigt Hill
#
# Bulk Modulus (GPa) = 15.70285 53.45064 34.57674
# Shear Modulus (GPa) = 14.59059 20.88787 17.73923
#
# Velocity S-wave (km/s) = 2.75461 3.29587 3.03732
# Velocity P-wave (km/s) = 4.27591 6.50237 5.50292
#
# Compressibility (1/GPa) = 0.06368272
#
# Stress axis : x y z
#
# Youngs Moduli (GPa) = 85.87250 14.48975 63.68858
#
# Poissons Ratio (x) = 0.12742 0.50569
# Poissons Ratio (y) = 0.75513 -0.02512
# Poissons Ratio (z) = 0.68183 -0.00572
#
# Static dielectric constant tensor:
#      x y z
#    x 1.727410 0.000000 0.000000 
#    y 0.000000 1.663670 0.000000 
#    z 0.000000 0.000000 1.649290 
# 
# From -- ./inp_files/14566.got.cif
#   From: 2010.05.17/outbox.cif.g08.bks.cpg/sg35_8_cif.got.tgz:14566.got - 2010.06.03 17:29:28.
