data_PCOD9350959
_publ_section_title
;
Structure prediction by ZEFSAII (Michael W. Deem and Ramdas Pophale) SiO2 
 PCOD9350959
Probable space group: C M C 21
;
_chemical_formula_sum "Si O2"
_cell_formula_units_Z 48
_cell_length_a 9.228355
_cell_length_b 28.824070
_cell_length_c 7.918610
_cell_angle_alpha 90.000000
_cell_angle_beta 90.000000
_cell_angle_gamma 90.000000
_cell_volume 2106.340366
_symmetry_space_group_name_H-M "C M C 21"
_symmetry_group_IT_number 36
_symmetry_cell_setting 'orthorhombic'
loop_
_space_group_symop_operation_xyz
x,y,z
-x,-y,1/2+z
x,-y,1/2+z
-x,y,z
1/2+x,1/2+y,z
1/2-x,1/2-y,1/2+z
1/2+x,1/2-y,1/2+z
1/2-x,1/2+y,z
loop_
_atom_site_type_symbol
_atom_site_label
_atom_site_fract_x
_atom_site_fract_y
_atom_site_fract_z
Si Si1 0.835883 0.652191 0.392720
Si Si2 0.170379 0.982718 0.072174
Si Si3 0.325297 0.234955 0.614731
Si Si4 0.165915 0.403071 0.253699
Si Si5 0.672916 0.679092 0.912342
Si Si6 0.832593 0.926905 0.719540
O O1 0.789708 0.703403 0.449737
O O2 0.835596 0.625141 0.574260
O O3 0.745403 0.620538 0.266519
O O4 0.000000 0.654519 0.329775
O O5 0.257199 0.950537 0.201389
O O6 0.000000 0.983244 0.120197
O O7 0.222561 0.035983 0.082183
O O8 0.177606 0.958125 0.890890
O O9 0.500000 0.230079 0.644557
O O10 0.294201 0.288536 0.573629
O O11 0.234328 0.210785 0.760322
O O12 0.252338 0.370494 0.384096
O O13 0.000000 0.409404 0.306968
O O14 0.500000 0.674140 0.899216
O O15 0.000000 0.915904 0.683845
#
# Coordination Sequence:
#
# PCOD9350959 Si02
#       6
#     8   8   8   8   8   8
#     4   8  15  29  47  65  89 120 152 187 226 272
#     4   9  17  30  47  67  91 119 152 189 231 278
#     4   9  19  34  50  72 100 127 160 201 240 284
#     4   9  17  30  48  69  93 122 158 196 232 278
#     4  10  19  32  52  74  97 128 163 199 241 286
#     4   9  17  29  46  67  90 116 149 188 226 270
#
# _framework density 22.788340000000002
#
# number of rings (size 3 to 8) (size 9 to 14) (size 15 to 20)
#    0.000    3.000    0.000    2.000    0.000    6.000 
#    0.000    1.667    0.000    6.000    0.000    0.000 
#    0.000    0.000    0.000    0.000    0.000    0.000 
#
# Total GULP energy -134038.353031 kJ/mol
# GULP energy per Si atom -5584.931376 kJ/mol
# Density = 2.273647 g / cm^3
# Si number density = 22.788340 Si / 1000 Ang^3
#
#
#
# Elastic Constant Matrix: (Units=GPa)
#
#
# Indices 1 2 3 4 5 6 
#
# 1 37.6686 28.5472 18.2022 0.0000 0.0000 0.0000
# 2 28.5472 147.2963 15.8049 0.0000 0.0000 0.0000
# 3 18.2022 15.8049 69.5152 0.0000 0.0000 0.0000
# 4 0.0000 0.0000 0.0000 47.5527 0.0000 0.0000
# 5 0.0000 0.0000 0.0000 0.0000 3.3139 0.0000
# 6 0.0000 0.0000 0.0000 0.0000 0.0000 28.3440
#
#
#
# Elastic Compliance Matrix: (Units=1/GPa)
#
#
# Indices 1 2 3 4 5 6 
#
# 1 0.034775 -0.005907 -0.007763 0.000000 0.000000 0.000000
# 2 -0.005907 0.007962 -0.000264 0.000000 0.000000 0.000000
# 3 -0.007763 -0.000264 0.016478 0.000000 0.000000 0.000000
# 4 0.000000 0.000000 0.000000 0.021029 0.000000 0.000000
# 5 0.000000 0.000000 0.000000 0.000000 0.301763 0.000000
# 6 0.000000 0.000000 0.000000 0.000000 0.000000 0.035281
#
#
# Mechanical properties :
#
#
# Convention : Reuss Voigt Hill
#
# Bulk Modulus (GPa) = 31.89913 42.17653 37.03783
# Shear Modulus (GPa) = 10.97446 28.63715 19.80580
#
# Velocity S-wave (km/s) = 2.19688 3.54878 2.95128
# Velocity P-wave (km/s) = 4.52365 5.94474 5.28220
#
# Compressibility (1/GPa) = 0.03134881
#
# Stress axis : x y z
#
# Youngs Moduli (GPa) = 28.75645 125.59520 60.68732
#
# Poissons Ratio (x) = 0.74185 0.47110
# Poissons Ratio (y) = 0.16986 0.01600
# Poissons Ratio (z) = 0.22323 0.03311
#
# Static dielectric constant tensor:
#      x y z
#    x 1.775390 0.000000 0.000000 
#    y 0.000000 1.849820 0.000000 
#    z 0.000000 0.000000 1.918890 
# 
# From -- ./inp_files/2730.got.cif
#   From: 2010.05.17/outbox.cif.g08.bks.cpg/sg36_2_cif.got.tgz:2730.got - 2010.06.03 17:41:39.
