data_PCOD9350445
_publ_section_title
;
Structure prediction by ZEFSAII (Michael W. Deem and Ramdas Pophale) SiO2 
 PCOD9350445
Probable space group: C M M 2
;
_chemical_formula_sum "Si O2"
_cell_formula_units_Z 40
_cell_length_a 15.006228
_cell_length_b 10.652841
_cell_length_c 11.800733
_cell_angle_alpha 90.000000
_cell_angle_beta 90.000000
_cell_angle_gamma 90.000000
_cell_volume 1886.452915
_symmetry_space_group_name_H-M "C M M 2"
_symmetry_group_IT_number 35
_symmetry_cell_setting 'orthorhombic'
loop_
_space_group_symop_operation_xyz
x,y,z
-x,-y,z
-x,y,z
x,-y,z
1/2+x,1/2+y,z
1/2-x,1/2-y,z
1/2-x,1/2+y,z
1/2+x,1/2-y,z
loop_
_atom_site_type_symbol
_atom_site_label
_atom_site_fract_x
_atom_site_fract_y
_atom_site_fract_z
Si Si1 0.607363 0.500000 0.937990
Si Si2 0.855148 0.000000 0.206828
Si Si3 0.109206 0.253416 0.814272
Si Si4 0.358746 0.000000 0.207480
Si Si5 0.605579 0.000000 0.943391
Si Si6 0.143478 0.251237 0.328404
Si Si7 0.393007 0.145551 0.572292
O O1 0.500000 0.500000 0.931770
O O2 0.639174 0.624577 0.872519
O O3 0.628994 0.500000 0.071807
O O4 0.748156 0.000000 0.221174
O O5 0.890308 0.124325 0.269940
O O6 0.139838 0.372514 0.887796
O O7 0.137496 0.283533 0.685908
O O8 0.000000 0.249923 0.814835
O O9 0.393397 0.874328 0.266136
O O10 0.379416 0.000000 0.076006
O O11 0.500000 0.000000 0.920498
O O12 0.250000 0.250000 0.312000
O O13 0.127722 0.273788 0.461012
O O14 0.500000 0.136066 0.580164
O O15 0.359484 0.000000 0.564431
#
# Coordination Sequence:
#
# PCOD9350445 Si02
#       7
#     4   4   8   4   4   8   8
#     4  10  20  35  54  76 108 143 175 214 267 328
#     4  10  22  37  52  76 112 147 179 220 269 320
#     4   9  18  33  54  80 108 138 171 219 276 318
#     4  10  20  35  54  76 106 145 185 224 267 316
#     4  10  18  31  54  80 104 137 183 224 263 316
#     4  10  21  37  55  78 111 147 181 221 273 325
#     4  10  19  35  60  85 108 137 183 233 269 314
#
# _framework density 21.203816
#
# number of rings (size 3 to 8) (size 9 to 14) (size 15 to 20)
#    0.000    2.200    2.000    1.200    0.000    2.400 
#    0.000    3.000    0.000    0.000    0.000    0.000 
#    0.000    0.000    0.000    0.000    0.000    0.000 
#
# Total GULP energy -111691.444588 kJ/mol
# GULP energy per Si atom -5584.572229 kJ/mol
# Density = 2.115555 g / cm^3
# Si number density = 21.203816 Si / 1000 Ang^3
#
#
#
# Elastic Constant Matrix: (Units=GPa)
#
#
# Indices 1 2 3 4 5 6 
#
# 1 48.5691 12.2778 -13.5761 0.0000 0.0000 0.0000
# 2 12.2778 238.9291 136.9278 0.0000 0.0000 0.0000
# 3 -13.5761 136.9278 211.1161 0.0000 0.0000 0.0000
# 4 0.0000 0.0000 0.0000 37.2304 0.0000 0.0000
# 5 0.0000 0.0000 0.0000 0.0000 31.2476 0.0000
# 6 0.0000 0.0000 0.0000 0.0000 0.0000 -11.7525
#
#
#
# Elastic Compliance Matrix: (Units=1/GPa)
#
#
# Indices 1 2 3 4 5 6 
#
# 1 0.022354 -0.003139 0.003474 0.000000 0.000000 0.000000
# 2 -0.003139 0.007102 -0.004808 0.000000 0.000000 0.000000
# 3 0.003474 -0.004808 0.008079 0.000000 0.000000 0.000000
# 4 0.000000 0.000000 0.000000 0.026860 0.000000 0.000000
# 5 0.000000 0.000000 0.000000 0.000000 0.032002 0.000000
# 6 0.000000 0.000000 0.000000 0.000000 0.000000 -0.085088
#
#
# Mechanical properties :
#
#
# Convention : Reuss Voigt Hill
#
# Bulk Modulus (GPa) = 34.98133 85.54147 60.26140
# Shear Modulus (GPa) = 167.86415 35.54408 101.70412
#
# Velocity S-wave (km/s) = 8.90723 4.09871 6.93319
# Velocity P-wave (km/s) = 11.05977 7.92650 9.62154
#
# Compressibility (1/GPa) = 0.02858667
#
# Stress axis : x y z
#
# Youngs Moduli (GPa) = 44.73511 140.79966 123.78128
#
# Poissons Ratio (x) = 0.44203 -0.42998
# Poissons Ratio (y) = 0.14044 0.59518
# Poissons Ratio (z) = -0.15540 0.67702
#
# Static dielectric constant tensor:
#      x y z
#    x 1.786720 0.000000 0.000000 
#    y 0.000000 1.769400 0.000000 
#    z 0.000000 0.000000 1.720550 
# 
# From -- ./inp_files/6126.got.cif
#   From: 2010.05.17/outbox.cif.g08.bks.cpg/sg35_4_cif.got.tgz:6126.got - 2010.06.03 17:29:28.
