data_PCOD9350996
_publ_section_title
;
Structure prediction by ZEFSAII (Michael W. Deem and Ramdas Pophale) SiO2 
 PCOD9350996
Probable space group: C M C 21
;
_chemical_formula_sum "Si O2"
_cell_formula_units_Z 64
_cell_length_a 8.186368
_cell_length_b 21.548529
_cell_length_c 18.338368
_cell_angle_alpha 90.000000
_cell_angle_beta 90.000000
_cell_angle_gamma 90.000000
_cell_volume 3234.964921
_symmetry_space_group_name_H-M "C M C 21"
_symmetry_group_IT_number 36
_symmetry_cell_setting 'orthorhombic'
loop_
_space_group_symop_operation_xyz
x,y,z
-x,-y,1/2+z
x,-y,1/2+z
-x,y,z
1/2+x,1/2+y,z
1/2-x,1/2-y,1/2+z
1/2+x,1/2-y,1/2+z
1/2-x,1/2+y,z
loop_
_atom_site_type_symbol
_atom_site_label
_atom_site_fract_x
_atom_site_fract_y
_atom_site_fract_z
Si Si1 0.192452 0.742590 0.091930
Si Si2 0.806581 0.634342 0.519003
Si Si3 0.300057 0.353153 0.851636
Si Si4 0.690916 0.485719 0.824015
Si Si5 0.193488 0.118812 0.817837
Si Si6 0.804088 0.636680 0.983559
Si Si7 0.691701 0.241639 0.750674
Si Si8 0.697933 0.999597 0.989339
O O1 0.218334 0.812562 0.064168
O O2 0.277359 0.735111 0.169421
O O3 0.000000 0.731490 0.101633
O O4 0.257367 0.694001 0.031547
O O5 0.766887 0.645570 0.433644
O O6 0.759901 0.562386 0.534062
O O7 0.000000 0.640742 0.531064
O O8 0.500000 0.353910 0.855406
O O9 0.243732 0.416443 0.810815
O O10 0.246108 0.292317 0.808455
O O11 0.500000 0.483494 0.804228
O O12 0.762811 0.550850 0.795573
O O13 0.713221 0.492994 0.911462
O O14 0.252710 0.137053 0.899005
O O15 0.232330 0.174405 0.763813
O O16 0.000000 0.111528 0.822987
O O17 0.760380 0.568716 0.016060
O O18 0.000000 0.640795 0.983169
O O19 0.500000 0.234864 0.763758
O O20 0.500000 0.002402 0.477313
#
# Coordination Sequence:
#
# PCOD9350996 Si02
#       8
#     8   8   8   8   8   8   8   8
#     4  11  23  37  52  71 100 137 173 211 253 298
#     4  10  19  32  54  81 106 132 165 206 250 300
#     4   9  18  34  55  77 102 133 169 208 251 298
#     4   8  15  29  50  76 103 129 161 203 248 294
#     4  10  19  32  54  81 106 132 165 206 250 300
#     4   9  18  34  55  77 102 133 169 208 251 298
#     4  11  23  37  52  71 100 137 173 211 253 298
#     4   8  15  29  50  76 103 129 161 203 248 294
#
# _framework density 19.783832
#
# number of rings (size 3 to 8) (size 9 to 14) (size 15 to 20)
#    0.000    2.500    0.000    2.250    0.000    6.000 
#    0.000    1.250    0.000    3.000    0.000    0.000 
#    0.000    0.000    0.000    0.000    0.000    0.000 
#
# Total GULP energy -178338.942874 kJ/mol
# GULP energy per Si atom -5573.091965 kJ/mol
# Density = 1.973880 g / cm^3
# Si number density = 19.783832 Si / 1000 Ang^3
#
#
#
# Elastic Constant Matrix: (Units=GPa)
#
#
# Indices 1 2 3 4 5 6 
#
# 1 5.9577 11.0850 -3.6373 0.0000 0.0000 0.0000
# 2 11.0850 62.0439 -8.4715 0.0000 0.0000 0.0000
# 3 -3.6373 -8.4715 15.2274 0.0000 0.0000 0.0000
# 4 0.0000 0.0000 0.0000 0.2937 0.0000 0.0000
# 5 0.0000 0.0000 0.0000 0.0000 23.2719 0.0000
# 6 0.0000 0.0000 0.0000 0.0000 0.0000 18.8502
#
#
#
# Elastic Compliance Matrix: (Units=1/GPa)
#
#
# Indices 1 2 3 4 5 6 
#
# 1 0.273476 -0.043224 0.041276 0.000000 0.000000 0.000000
# 2 -0.043224 0.024274 0.003180 0.000000 0.000000 0.000000
# 3 0.041276 0.003180 0.077299 0.000000 0.000000 0.000000
# 4 0.000000 0.000000 0.000000 3.404664 0.000000 0.000000
# 5 0.000000 0.000000 0.000000 0.000000 0.042970 0.000000
# 6 0.000000 0.000000 0.000000 0.000000 0.000000 0.053050
#
#
# Mechanical properties :
#
#
# Convention : Reuss Voigt Hill
#
# Bulk Modulus (GPa) = 2.64892 9.02016 5.83454
# Shear Modulus (GPa) = 1.25028 14.10002 7.67515
#
# Velocity S-wave (km/s) = 0.79583 2.67255 1.97178
# Velocity P-wave (km/s) = 1.47861 3.75401 2.85297
#
# Compressibility (1/GPa) = 0.37751238
#
# Stress axis : x y z
#
# Youngs Moduli (GPa) = 3.65663 41.19555 12.93671
#
# Poissons Ratio (x) = 1.78065 -0.53397
# Poissons Ratio (y) = 0.15806 -0.04114
# Poissons Ratio (z) = -0.15093 -0.13100
#
# Static dielectric constant tensor:
#      x y z
#    x 1.700070 0.000000 0.000000 
#    y 0.000000 1.776680 0.000000 
#    z 0.000000 0.000000 1.646790 
# 
# From -- ./inp_files/13808.got.cif
#   From: 2010.05.17/outbox.cif.g08.bks.cpg/sg36_7_cif.got.tgz:13808.got - 2010.06.03 17:41:39.
