data_PCOD9350150
_publ_section_title
;
Structure prediction by ZEFSAII (Michael W. Deem and Ramdas Pophale) SiO2 
 PCOD9350150
Probable space group: C M M 2
;
_chemical_formula_sum "Si O2"
_cell_formula_units_Z 28
_cell_length_a 15.000000
_cell_length_b 21.000000
_cell_length_c 9.000000
_cell_angle_alpha 90.000000
_cell_angle_beta 90.000000
_cell_angle_gamma 90.000000
_cell_volume 2835.000000
_symmetry_space_group_name_H-M "C M M 2"
_symmetry_group_IT_number 35
_symmetry_cell_setting 'orthorhombic'
loop_
_space_group_symop_operation_xyz
x,y,z
-x,-y,z
-x,y,z
x,-y,z
1/2+x,1/2+y,z
1/2-x,1/2-y,z
1/2-x,1/2+y,z
1/2+x,1/2-y,z
loop_
_atom_site_type_symbol
_atom_site_label
_atom_site_fract_x
_atom_site_fract_y
_atom_site_fract_z
Si Si1 0.595340 0.781544 0.513790
Si Si2 0.595557 0.356113 0.657484
Si Si3 0.785637 0.617268 0.647747
Si Si4 0.403572 0.644396 0.009709
Si Si5 0.899792 0.500000 0.003555
Si Si6 0.348703 0.765679 0.194551
Si Si7 0.210217 0.382074 0.002205
Si Si8 0.100726 0.500000 0.639378
O O1 0.500000 0.807412 0.572163
O O2 0.598909 0.708357 0.563307
O O3 0.678676 0.817875 0.580589
O O4 0.597580 0.787092 0.337091
O O5 0.500000 0.387820 0.632966
O O6 0.682414 0.395634 0.618513
O O7 0.600407 0.338882 0.833508
O O8 0.847520 0.561896 0.588471
O O9 0.796345 0.621707 0.824898
O O10 0.500000 0.614104 0.036381
O O11 0.393260 0.706630 0.111102
O O12 0.313582 0.606105 0.039917
O O13 0.849417 0.561351 0.058008
O O14 0.000000 0.500000 0.051872
O O15 0.897608 0.500000 0.821558
O O16 0.250000 0.750000 0.255206
O O17 0.327332 0.818223 0.072123
O O18 0.000000 0.500000 0.590532
#
# Coordination Sequence:
#
# PCOD9350150 Si02
#       8
#     8   8   8   8   4   8   8   4
#     4  11  21  31  47  73 101 129 160 197 242 289
#     4   9  18  31  49  73  99 127 159 195 240 289
#     4  10  18  33  52  70  96 129 163 201 237 281
#     4   9  17  31  50  73 100 127 156 195 241 289
#     4   9  18  32  50  70  94 125 163 203 238 277
#     4  10  19  31  48  72 101 130 158 194 240 288
#     4   9  19  33  51  72  95 127 166 199 236 284
#     4   9  18  32  50  72  94 123 163 201 238 281
#
# _framework density 9.8765429999999999
#
# number of rings (size 3 to 8) (size 9 to 14) (size 15 to 20)
#    0.000    2.429    0.000    3.000    0.000    4.000 
#    0.000    1.429    0.000    5.143    0.000    0.000 
#    0.000    4.571    0.000    0.000    0.000    0.000 
#
# Total GULP energy -155883.591876 kJ/mol
# GULP energy per Si atom -5567.271138 kJ/mol
# Density = 0.985406 g / cm^3
# Si number density = 9.876543 Si / 1000 Ang^3
#
#
#
# Elastic Constant Matrix: (Units=GPa)
#
#
# Indices 1 2 3 4 5 6 
#
# 1 174.4007 52.7626 36.5430 0.0000 0.0000 0.0000
# 2 52.7626 30.6452 6.0136 0.0000 0.0000 0.0000
# 3 36.5430 6.0136 0.5014 0.0000 0.0000 0.0000
# 4 0.0000 0.0000 0.0000 0.5390 0.0000 0.0000
# 5 0.0000 0.0000 0.0000 0.0000 15.0498 0.0000
# 6 0.0000 0.0000 0.0000 0.0000 0.0000 18.9920
#
#
#
# Elastic Compliance Matrix: (Units=1/GPa)
#
#
# Indices 1 2 3 4 5 6 
#
# 1 0.000914 -0.008494 0.035268 0.000000 0.000000 0.000000
# 2 -0.008494 0.054839 -0.038641 0.000000 0.000000 0.000000
# 3 0.035268 -0.038641 -0.112523 0.000000 0.000000 0.000000
# 4 0.000000 0.000000 0.000000 1.855218 0.000000 0.000000
# 5 0.000000 0.000000 0.000000 0.000000 0.066446 0.000000
# 6 0.000000 0.000000 0.000000 0.000000 0.000000 0.052654
#
#
# Mechanical properties :
#
#
# Convention : Reuss Voigt Hill
#
# Bulk Modulus (GPa) = -12.42156 44.02062 15.79953
# Shear Modulus (GPa) = 2.61172 14.26471 8.43821
#
# Velocity S-wave (km/s) = 1.15111 2.69020 2.06909
# Velocity P-wave (km/s) = 2.12963 5.65539 3.70460
#
# Compressibility (1/GPa) = -0.08050519
#
# Stress axis : x y z
#
# Youngs Moduli (GPa) = 1094.24905 18.23532 -8.88704
#
# Poissons Ratio (x) = 0.15489 0.31343
# Poissons Ratio (y) = 9.29466 -0.34340
# Poissons Ratio (z) = -38.59178 0.70463
#
# Static dielectric constant tensor:
#      x y z
#    x 1.745480 0.000000 0.000000 
#    y 0.000000 1.533750 0.000000 
#    z 0.000000 0.000000 1.654490 
# 
# From -- ./inp_files/7673.got.cif
#   From: 2010.05.17/outbox.ucp.g08.bks.cvg/sg35_4_cif.got.tgz:7673.got - 2010.06.11 10:36:28.
