data_PCOD9350680
_publ_section_title
;
Structure prediction by ZEFSAII (Michael W. Deem and Ramdas Pophale) SiO2 
 PCOD9350680
Probable space group: C M C 21
;
_chemical_formula_sum "Si O2"
_cell_formula_units_Z 64
_cell_length_a 7.481543
_cell_length_b 24.496758
_cell_length_c 15.861382
_cell_angle_alpha 90.000000
_cell_angle_beta 90.000000
_cell_angle_gamma 90.000000
_cell_volume 2906.971761
_symmetry_space_group_name_H-M "C M C 21"
_symmetry_group_IT_number 36
_symmetry_cell_setting 'orthorhombic'
loop_
_space_group_symop_operation_xyz
x,y,z
-x,-y,1/2+z
x,-y,1/2+z
-x,y,z
1/2+x,1/2+y,z
1/2-x,1/2-y,1/2+z
1/2+x,1/2-y,1/2+z
1/2-x,1/2+y,z
loop_
_atom_site_type_symbol
_atom_site_label
_atom_site_fract_x
_atom_site_fract_y
_atom_site_fract_z
Si Si1 0.706428 0.629334 0.452210
Si Si2 0.718461 0.451417 0.809374
Si Si3 0.291531 0.142321 0.635409
Si Si4 0.718749 0.627219 0.158319
Si Si5 0.216672 0.076554 0.804668
Si Si6 0.207658 0.865743 0.473179
Si Si7 0.217835 0.247807 0.215664
Si Si8 0.216305 0.750141 0.910151
O O1 0.500000 0.634622 0.425483
O O2 0.780364 0.582763 0.391127
O O3 0.711608 0.616867 0.551025
O O4 0.781537 0.690217 0.438482
O O5 0.500000 0.453272 0.810239
O O6 0.772675 0.417398 0.726870
O O7 0.777049 0.513915 0.807691
O O8 0.500000 0.148397 0.617038
O O9 0.271352 0.106357 0.718917
O O10 0.218076 0.202605 0.657323
O O11 0.500000 0.627807 0.157554
O O12 0.774689 0.687797 0.187193
O O13 0.782839 0.616772 0.063379
O O14 0.283590 0.108477 0.887664
O O15 0.000000 0.077752 0.805164
O O16 0.217194 0.800318 0.465075
O O17 0.000000 0.882029 0.474473
O O18 0.269771 0.258136 0.312624
O O19 0.000000 0.248556 0.214161
O O20 0.000000 0.748602 0.914504
#
# Coordination Sequence:
#
# PCOD9350680 Si02
#       8
#     8   8   8   8   8   8   8   8
#     4  10  20  35  58  85 110 137 178 227 272 319
#     4   9  18  34  56  79 106 140 179 225 270 311
#     4  11  22  36  56  80 110 147 181 217 271 331
#     4   9  16  30  53  79 104 136 176 217 264 319
#     4  10  21  36  54  80 109 140 183 229 267 307
#     4  10  20  32  51  80 111 138 173 220 266 315
#     4   9  16  29  51  77 104 138 176 210 257 325
#     4  10  18  32  55  80 108 142 176 213 265 327
#
# _framework density 22.016038000000002
#
# number of rings (size 3 to 8) (size 9 to 14) (size 15 to 20)
#    0.000    2.250    2.500    1.125    0.000    2.500 
#    0.000    4.375    0.000    3.000    0.000    0.000 
#    0.000    0.000    0.000    0.000    0.000    0.000 
#
# Total GULP energy -178798.369054 kJ/mol
# GULP energy per Si atom -5587.449033 kJ/mol
# Density = 2.196593 g / cm^3
# Si number density = 22.016038 Si / 1000 Ang^3
#
#
#
# Elastic Constant Matrix: (Units=GPa)
#
#
# Indices 1 2 3 4 5 6 
#
# 1 61.0428 -7.8879 -10.5851 0.0000 0.0000 0.0000
# 2 -7.8879 122.4282 31.8591 0.0000 0.0000 0.0000
# 3 -10.5851 31.8591 108.0188 0.0000 0.0000 0.0000
# 4 0.0000 0.0000 0.0000 5.9591 0.0000 0.0000
# 5 0.0000 0.0000 0.0000 0.0000 3.3498 0.0000
# 6 0.0000 0.0000 0.0000 0.0000 0.0000 10.2300
#
#
#
# Elastic Compliance Matrix: (Units=1/GPa)
#
#
# Indices 1 2 3 4 5 6 
#
# 1 0.016721 0.000705 0.001431 0.000000 0.000000 0.000000
# 2 0.000705 0.008877 -0.002549 0.000000 0.000000 0.000000
# 3 0.001431 -0.002549 0.010150 0.000000 0.000000 0.000000
# 4 0.000000 0.000000 0.000000 0.167811 0.000000 0.000000
# 5 0.000000 0.000000 0.000000 0.000000 0.298522 0.000000
# 6 0.000000 0.000000 0.000000 0.000000 0.000000 0.097752
#
#
# Mechanical properties :
#
#
# Convention : Reuss Voigt Hill
#
# Bulk Modulus (GPa) = 28.63620 35.36243 31.99932
# Shear Modulus (GPa) = 8.16595 22.44803 15.30699
#
# Velocity S-wave (km/s) = 1.92799 3.19662 2.63965
# Velocity P-wave (km/s) = 4.24163 5.45174 4.88430
#
# Compressibility (1/GPa) = 0.03492083
#
# Stress axis : x y z
#
# Youngs Moduli (GPa) = 59.80454 112.65319 98.52556
#
# Poissons Ratio (x) = -0.07942 -0.14095
# Poissons Ratio (y) = -0.04216 0.25115
# Poissons Ratio (z) = -0.08556 0.28716
#
# Static dielectric constant tensor:
#      x y z
#    x 1.869310 0.000000 0.000000 
#    y 0.000000 1.764400 0.000000 
#    z 0.000000 0.000000 1.790590 
# 
# From -- ./inp_files/11034.got.cif
#   From: 2010.05.17/outbox.cif.g08.bks.cpg/sg36_6_cif.got.tgz:11034.got - 2010.06.03 17:41:39.
