data_PCOD9350310
_publ_section_title
;
Structure prediction by ZEFSAII (Michael W. Deem and Ramdas Pophale) SiO2 
 PCOD9350310
Probable space group: C M M 2
;
_chemical_formula_sum "Si O2"
_cell_formula_units_Z 64
_cell_length_a 7.713830
_cell_length_b 29.895934
_cell_length_c 16.156715
_cell_angle_alpha 90.000000
_cell_angle_beta 90.000000
_cell_angle_gamma 90.000000
_cell_volume 3725.934825
_symmetry_space_group_name_H-M "C M M 2"
_symmetry_group_IT_number 35
_symmetry_cell_setting 'orthorhombic'
loop_
_space_group_symop_operation_xyz
x,y,z
-x,-y,z
-x,y,z
x,-y,z
1/2+x,1/2+y,z
1/2-x,1/2-y,z
1/2-x,1/2+y,z
1/2+x,1/2-y,z
loop_
_atom_site_type_symbol
_atom_site_label
_atom_site_fract_x
_atom_site_fract_y
_atom_site_fract_z
Si Si1 0.795512 0.949247 0.447640
Si Si2 0.287608 0.607488 0.601541
Si Si3 0.791818 0.799562 0.860343
Si Si4 0.708715 0.393247 0.924143
Si Si5 0.701809 0.945864 0.265457
Si Si6 0.708053 0.700457 0.670106
Si Si7 0.708386 0.948915 0.086041
Si Si8 0.288262 0.448581 0.763664
O O1 0.725407 0.916304 0.517840
O O2 0.778164 0.932221 0.353565
O O3 0.000000 0.953249 0.464093
O O4 0.722021 0.000000 0.452729
O O5 0.500000 0.608213 0.599829
O O6 0.229167 0.658308 0.617269
O O7 0.237097 0.577989 0.681236
O O8 0.750000 0.750000 0.892039
O O9 0.728747 0.842323 0.911760
O O10 0.726735 0.802936 0.765211
O O11 0.000000 0.802530 0.856669
O O12 0.500000 0.392466 0.919213
O O13 0.770114 0.422809 0.846086
O O14 0.753331 0.416891 0.009853
O O15 0.500000 0.933607 0.268853
O O16 0.774629 0.932094 0.175808
O O17 0.714696 0.000000 0.263162
O O18 0.500000 0.697034 0.674315
O O19 0.750000 0.750000 0.638676
O O20 0.500000 0.951713 0.094117
O O21 0.771242 0.000000 0.070526
O O22 0.500000 0.448723 0.764591
O O23 0.231162 0.500000 0.762658
#
# Coordination Sequence:
#
# PCOD9350310 Si02
#       8
#     8   8   8   8   8   8   8   8
#     4   9  16  25  41  66  89 109 140 179 213 247
#     4   9  15  25  40  60  87 116 141 170 210 252
#     4   9  17  29  44  62  85 112 146 184 220 257
#     4  10  18  28  43  66  89 112 146 185 218 250
#     4   8  15  29  45  59  81 115 147 174 210 254
#     4   9  16  28  44  60  82 111 144 180 214 249
#     4   9  18  31  45  62  87 119 150 177 212 262
#     4   9  15  23  37  58  86 118 146 168 198 246
#
# _framework density 17.176898000000001
#
# number of rings (size 3 to 8) (size 9 to 14) (size 15 to 20)
#    0.000    3.000    1.250    1.500    0.000    3.250 
#    0.000    1.875    0.000    0.750    0.000    2.625 
#    0.000    2.000    0.000    0.000    0.000    0.000 
#
# Total GULP energy -178265.508688 kJ/mol
# GULP energy per Si atom -5570.797146 kJ/mol
# Density = 1.713780 g / cm^3
# Si number density = 17.176898 Si / 1000 Ang^3
#
#
#
# Elastic Constant Matrix: (Units=GPa)
#
#
# Indices 1 2 3 4 5 6 
#
# 1 23.1548 6.5606 5.3837 0.0000 0.0000 0.0000
# 2 6.5606 148.9419 92.8113 0.0000 0.0000 0.0000
# 3 5.3837 92.8113 145.6364 0.0000 0.0000 0.0000
# 4 0.0000 0.0000 0.0000 7.7586 0.0000 0.0000
# 5 0.0000 0.0000 0.0000 0.0000 43.3425 0.0000
# 6 0.0000 0.0000 0.0000 0.0000 0.0000 13.8694
#
#
#
# Elastic Compliance Matrix: (Units=1/GPa)
#
#
# Indices 1 2 3 4 5 6 
#
# 1 0.043770 -0.001526 -0.000646 0.000000 0.000000 0.000000
# 2 -0.001526 0.011190 -0.007075 0.000000 0.000000 0.000000
# 3 -0.000646 -0.007075 0.011399 0.000000 0.000000 0.000000
# 4 0.000000 0.000000 0.000000 0.128889 0.000000 0.000000
# 5 0.000000 0.000000 0.000000 0.000000 0.023072 0.000000
# 6 0.000000 0.000000 0.000000 0.000000 0.000000 0.072101
#
#
# Mechanical properties :
#
#
# Convention : Reuss Voigt Hill
#
# Bulk Modulus (GPa) = 20.89140 58.58268 39.73704
# Shear Modulus (GPa) = 15.39085 27.19259 21.29172
#
# Velocity S-wave (km/s) = 2.99661 3.98312 3.52455
# Velocity P-wave (km/s) = 4.91546 7.43863 6.30456
#
# Compressibility (1/GPa) = 0.04786659
#
# Stress axis : x y z
#
# Youngs Moduli (GPa) = 22.84668 89.36832 87.72878
#
# Poissons Ratio (x) = 0.13634 0.05666
# Poissons Ratio (y) = 0.03485 0.62064
# Poissons Ratio (z) = 0.01475 0.63224
#
# Static dielectric constant tensor:
#      x y z
#    x 1.651100 0.000000 0.000000 
#    y 0.000000 1.582910 0.000000 
#    z 0.000000 0.000000 1.587410 
# 
# From -- ./inp_files/12544.got.cif
#   From: 2010.05.17/outbox.cif.g08.bks.cpg/sg35_7_cif.got.tgz:12544.got - 2010.06.03 17:29:28.
