data_PCOD9350479
_publ_section_title
;
Structure prediction by ZEFSAII (Michael W. Deem and Ramdas Pophale) SiO2 
 PCOD9350479
Probable space group: C M C 21
;
_chemical_formula_sum "Si O2"
_cell_formula_units_Z 64
_cell_length_a 9.184532
_cell_length_b 13.939511
_cell_length_c 21.613321
_cell_angle_alpha 90.000000
_cell_angle_beta 90.000000
_cell_angle_gamma 90.000000
_cell_volume 2767.107772
_symmetry_space_group_name_H-M "C M C 21"
_symmetry_group_IT_number 36
_symmetry_cell_setting 'orthorhombic'
loop_
_space_group_symop_operation_xyz
x,y,z
-x,-y,1/2+z
x,-y,1/2+z
-x,y,z
1/2+x,1/2+y,z
1/2-x,1/2-y,1/2+z
1/2+x,1/2-y,1/2+z
1/2-x,1/2+y,z
loop_
_atom_site_type_symbol
_atom_site_label
_atom_site_fract_x
_atom_site_fract_y
_atom_site_fract_z
Si Si1 0.165718 0.793849 0.549460
Si Si2 0.167158 0.173024 0.913590
Si Si3 0.339247 0.072367 0.514554
Si Si4 0.337147 0.444306 0.892196
Si Si5 0.825924 0.291138 0.292150
Si Si6 0.177547 0.004968 0.764155
Si Si7 0.167799 0.969388 0.131141
Si Si8 0.830933 0.742258 0.169578
O O1 0.229144 0.823998 0.482984
O O2 0.152801 0.679056 0.541989
O O3 0.256834 0.809728 0.611251
O O4 0.000000 0.830646 0.554114
O O5 0.157233 0.060613 0.897459
O O6 0.259353 0.225743 0.860671
O O7 0.000000 0.210769 0.914746
O O8 0.500000 0.031462 0.507527
O O9 0.250155 0.015828 0.566803
O O10 0.266414 0.083985 0.447801
O O11 0.500000 0.406590 0.903194
O O12 0.297501 0.431243 0.820246
O O13 0.772877 0.400865 0.278766
O O14 0.756075 0.235974 0.233895
O O15 0.000000 0.282424 0.292076
O O16 0.216488 0.977912 0.694042
O O17 0.000000 0.025615 0.764952
O O18 0.173282 0.856230 0.150718
O O19 0.000000 0.990755 0.120748
O O20 0.000000 0.715996 0.177456
#
# Coordination Sequence:
#
# PCOD9350479 Si02
#       8
#     8   8   8   8   8   8   8   8
#     4   9  18  32  49  69  93 121 154 192 231 270
#     4   9  18  33  50  67  91 123 157 191 228 271
#     4  10  19  29  44  69  97 121 147 184 229 272
#     4   9  17  30  48  68  91 121 153 185 224 272
#     4  10  17  25  42  68  94 118 150 191 230 269
#     4   8  15  28  45  65  88 116 152 191 230 268
#     4   8  14  26  44  64  86 114 150 188 223 264
#     4   9  16  27  44  66  92 120 151 188 229 272
#
# _framework density 23.128843
#
# number of rings (size 3 to 8) (size 9 to 14) (size 15 to 20)
#    0.000    3.000    0.000    3.375    0.000    6.000 
#    0.000    0.000    0.000    1.500    0.000    5.250 
#    0.000    0.000    0.000    0.000    0.000    0.000 
#
# Total GULP energy -178677.292382 kJ/mol
# GULP energy per Si atom -5583.665387 kJ/mol
# Density = 2.307620 g / cm^3
# Si number density = 23.128843 Si / 1000 Ang^3
#
#
#
# Elastic Constant Matrix: (Units=GPa)
#
#
# Indices 1 2 3 4 5 6 
#
# 1 120.2784 2.2735 123.0231 0.0000 0.0000 0.0000
# 2 2.2735 49.6348 33.6640 0.0000 0.0000 0.0000
# 3 123.0231 33.6640 258.6900 0.0000 0.0000 0.0000
# 4 0.0000 0.0000 0.0000 46.0849 0.0000 0.0000
# 5 0.0000 0.0000 0.0000 0.0000 38.2806 0.0000
# 6 0.0000 0.0000 0.0000 0.0000 0.0000 -0.6122
#
#
#
# Elastic Compliance Matrix: (Units=1/GPa)
#
#
# Indices 1 2 3 4 5 6 
#
# 1 0.017360 0.005269 -0.008941 0.000000 0.000000 0.000000
# 2 0.005269 0.023697 -0.005590 0.000000 0.000000 0.000000
# 3 -0.008941 -0.005590 0.008845 0.000000 0.000000 0.000000
# 4 0.000000 0.000000 0.000000 0.021699 0.000000 0.000000
# 5 0.000000 0.000000 0.000000 0.000000 0.026123 0.000000
# 6 0.000000 0.000000 0.000000 0.000000 0.000000 -1.633506
#
#
# Mechanical properties :
#
#
# Convention : Reuss Voigt Hill
#
# Bulk Modulus (GPa) = 31.86907 82.94716 57.40811
# Shear Modulus (GPa) = -3.31829 34.72685 15.70428
#
# Velocity S-wave (km/s) = -1.19909 3.87906 2.60857
# Velocity P-wave (km/s) = 3.44844 7.48357 5.82647
#
# Compressibility (1/GPa) = 0.03137839
#
# Stress axis : x y z
#
# Youngs Moduli (GPa) = 57.60408 42.19977 113.05567
#
# Poissons Ratio (x) = -0.22236 1.01088
# Poissons Ratio (y) = -0.30353 0.63193
# Poissons Ratio (z) = 0.51506 0.23588
#
# Static dielectric constant tensor:
#      x y z
#    x 1.804200 0.000000 0.000000 
#    y 0.000000 1.978200 0.000000 
#    z 0.000000 0.000000 1.895630 
# 
# From -- ./inp_files/14051.got.cif
#   From: 2010.05.17/outbox.cif.g08.bks.cpg/sg36_8_cif.got.tgz:14051.got - 2010.06.03 17:41:39.
