data_PCOD9350201
_publ_section_title
;
Structure prediction by ZEFSAII (Michael W. Deem and Ramdas Pophale) SiO2 
 PCOD9350201
Probable space group: C M M 2
;
_chemical_formula_sum "Si O2"
_cell_formula_units_Z 32
_cell_length_a 30.000000
_cell_length_b 9.000000
_cell_length_c 12.000000
_cell_angle_alpha 90.000000
_cell_angle_beta 90.000000
_cell_angle_gamma 90.000000
_cell_volume 3240.000000
_symmetry_space_group_name_H-M "C M M 2"
_symmetry_group_IT_number 35
_symmetry_cell_setting 'orthorhombic'
loop_
_space_group_symop_operation_xyz
x,y,z
-x,-y,z
-x,y,z
x,-y,z
1/2+x,1/2+y,z
1/2-x,1/2-y,z
1/2-x,1/2+y,z
1/2+x,1/2-y,z
loop_
_atom_site_type_symbol
_atom_site_label
_atom_site_fract_x
_atom_site_fract_y
_atom_site_fract_z
Si Si1 0.553528 0.329848 0.042330
Si Si2 0.799098 0.823000 0.048972
Si Si3 0.200887 0.322893 0.579407
Si Si4 0.798891 0.175884 0.798451
Si Si5 0.551838 0.672243 0.600982
Si Si6 0.554103 0.165762 0.822831
Si Si7 0.623485 0.824422 0.190678
Si Si8 0.129711 0.174251 0.426081
O O1 0.500000 0.317960 0.054082
O O2 0.566557 0.500000 0.065451
O O3 0.579824 0.218697 0.120902
O O4 0.566141 0.283499 0.917037
O O5 0.750000 0.750000 0.056603
O O6 0.833371 0.740893 0.128371
O O7 0.796080 0.000000 0.070797
O O8 0.817225 0.805003 0.922276
O O9 0.204533 0.500000 0.583368
O O10 0.250000 0.250000 0.568521
O O11 0.179757 0.259185 0.694354
O O12 0.169591 0.265948 0.481587
O O13 0.750000 0.250000 0.804877
O O14 0.795689 0.000000 0.774979
O O15 0.500000 0.702065 0.572389
O O16 0.554066 0.500000 0.639117
O O17 0.566305 0.777750 0.701279
O O18 0.585258 0.689666 0.499564
O O19 0.500000 0.160111 0.823729
O O20 0.570916 0.000000 0.847176
O O21 0.620415 0.739751 0.306352
O O22 0.627405 0.000000 0.204512
O O23 0.141591 0.000000 0.422408
#
# Coordination Sequence:
#
# PCOD9350201 Si02
#       8
#     8   8   8   8   8   8   8   8
#     4  10  21  39  63  88 117 155 196 239 290 347
#     4  10  21  39  63  90 121 156 195 239 290 347
#     4  11  22  38  61  88 119 153 191 236 290 346
#     4   9  17  32  57  88 119 150 186 230 283 344
#     4   9  19  37  61  87 116 152 191 233 284 343
#     4   9  17  31  55  88 122 152 186 233 288 344
#     4  12  26  42  60  85 117 153 198 247 294 346
#     4  11  24  42  61  83 114 152 199 246 287 341
#
# _framework density 9.8765429999999999
#
# number of rings (size 3 to 8) (size 9 to 14) (size 15 to 20)
#    0.000    1.875    0.000    4.875    0.000    6.750 
#    0.000    5.000    0.000    0.000    0.000    0.000 
#    0.000    0.000    0.000    0.000    0.000    0.000 
#
# Total GULP energy -178714.871281 kJ/mol
# GULP energy per Si atom -5584.839728 kJ/mol
# Density = 0.985406 g / cm^3
# Si number density = 9.876543 Si / 1000 Ang^3
#
#
#
# Elastic Constant Matrix: (Units=GPa)
#
#
# Indices 1 2 3 4 5 6 
#
# 1 49.3371 27.5831 13.7924 0.0000 0.0000 0.0000
# 2 27.5831 90.9032 35.7180 0.0000 0.0000 0.0000
# 3 13.7924 35.7180 79.1445 0.0000 0.0000 0.0000
# 4 0.0000 0.0000 0.0000 28.2492 0.0000 0.0000
# 5 0.0000 0.0000 0.0000 0.0000 20.0980 0.0000
# 6 0.0000 0.0000 0.0000 0.0000 0.0000 25.7025
#
#
#
# Elastic Compliance Matrix: (Units=1/GPa)
#
#
# Indices 1 2 3 4 5 6 
#
# 1 0.024490 -0.006994 -0.001111 0.000000 0.000000 0.000000
# 2 -0.006994 0.015370 -0.005717 0.000000 0.000000 0.000000
# 3 -0.001111 -0.005717 0.015409 0.000000 0.000000 0.000000
# 4 0.000000 0.000000 0.000000 0.035399 0.000000 0.000000
# 5 0.000000 0.000000 0.000000 0.000000 0.049756 0.000000
# 6 0.000000 0.000000 0.000000 0.000000 0.000000 0.038907
#
#
# Mechanical properties :
#
#
# Convention : Reuss Voigt Hill
#
# Bulk Modulus (GPa) = 36.20261 41.50799 38.85530
# Shear Modulus (GPa) = 23.12847 24.29605 23.71226
#
# Velocity S-wave (km/s) = 3.42552 3.51092 3.46849
# Velocity P-wave (km/s) = 5.83206 6.12327 5.97944
#
# Compressibility (1/GPa) = 0.02762232
#
# Stress axis : x y z
#
# Youngs Moduli (GPa) = 40.83339 65.06369 64.89704
#
# Poissons Ratio (x) = 0.45508 0.07211
# Poissons Ratio (y) = 0.28561 0.37104
# Poissons Ratio (z) = 0.04537 0.37199
#
# Static dielectric constant tensor:
#      x y z
#    x 1.685290 0.000000 0.000000 
#    y 0.000000 1.658610 0.000000 
#    z 0.000000 0.000000 1.726570 
# 
# From -- ./inp_files/14604.got.cif
#   From: 2010.05.17/outbox.ucp.g08.bks.cvg/sg35_8_cif.got.tgz:14604.got - 2010.06.11 10:36:28.
