data_PCOD9350601
_publ_section_title
;
Structure prediction by ZEFSAII (Michael W. Deem and Ramdas Pophale) SiO2 
 PCOD9350601
Probable space group: C M C 21
;
_chemical_formula_sum "Si O2"
_cell_formula_units_Z 64
_cell_length_a 7.540493
_cell_length_b 23.529328
_cell_length_c 17.027508
_cell_angle_alpha 90.000000
_cell_angle_beta 90.000000
_cell_angle_gamma 90.000000
_cell_volume 3021.067007
_symmetry_space_group_name_H-M "C M C 21"
_symmetry_group_IT_number 36
_symmetry_cell_setting 'orthorhombic'
loop_
_space_group_symop_operation_xyz
x,y,z
-x,-y,1/2+z
x,-y,1/2+z
-x,y,z
1/2+x,1/2+y,z
1/2-x,1/2-y,1/2+z
1/2+x,1/2-y,1/2+z
1/2-x,1/2+y,z
loop_
_atom_site_type_symbol
_atom_site_label
_atom_site_fract_x
_atom_site_fract_y
_atom_site_fract_z
Si Si1 0.203621 0.410793 0.030500
Si Si2 0.285981 0.367515 0.596020
Si Si3 0.698061 0.670189 0.397899
Si Si4 0.282796 0.714224 0.231752
Si Si5 0.793267 0.532292 0.986039
Si Si6 0.206830 0.783252 0.459959
Si Si7 0.285922 0.115476 0.848422
Si Si8 0.283234 0.841687 0.182009
O O1 0.277623 0.371461 0.101075
O O2 0.000000 0.421736 0.054585
O O3 0.205668 0.376783 0.948785
O O4 0.287006 0.472030 0.011161
O O5 0.500000 0.371731 0.595235
O O6 0.232249 0.338956 0.677086
O O7 0.216921 0.426285 0.561372
O O8 0.231688 0.320887 0.532042
O O9 0.500000 0.649018 0.380270
O O10 0.778060 0.696371 0.318485
O O11 0.691147 0.725408 0.452492
O O12 0.500000 0.717387 0.233887
O O13 0.225512 0.776216 0.199271
O O14 0.720249 0.566962 0.909726
O O15 0.000000 0.522265 0.966807
O O16 0.230802 0.824209 0.385539
O O17 0.000000 0.769514 0.470985
O O18 0.500000 0.113355 0.850170
O O19 0.232749 0.119184 0.757268
O O20 0.500000 0.838773 0.179548
#
# Coordination Sequence:
#
# PCOD9350601 Si02
#       8
#     8   8   8   8   8   8   8   8
#     4  10  21  37  54  77 108 143 181 222 266 315
#     4   9  18  33  55  77 100 136 177 214 257 315
#     4  11  21  34  53  76 107 142 176 215 264 322
#     4   9  17  31  52  78 101 132 177 214 255 322
#     4   9  19  35  53  78 108 136 178 224 263 308
#     4  10  18  30  52  80 107 133 167 216 270 315
#     4   9  16  31  55  77 101 140 181 216 256 313
#     4   9  16  31  56  77 100 140 181 213 259 326
#
# _framework density 21.184567999999999
#
# number of rings (size 3 to 8) (size 9 to 14) (size 15 to 20)
#    0.000    2.500    1.250    1.500    0.000    3.000 
#    2.250    1.875    0.000    0.000    0.000    0.000 
#    0.000    0.000    0.000    0.000    0.000    0.000 
#
# Total GULP energy -178360.403767 kJ/mol
# GULP energy per Si atom -5573.762618 kJ/mol
# Density = 2.113635 g / cm^3
# Si number density = 21.184568 Si / 1000 Ang^3
#
#
#
# Elastic Constant Matrix: (Units=GPa)
#
#
# Indices 1 2 3 4 5 6 
#
# 1 46.6442 3.8486 2.6686 0.0000 0.0000 0.0000
# 2 3.8486 141.5403 76.0382 0.0000 0.0000 0.0000
# 3 2.6686 76.0382 98.5030 0.0000 0.0000 0.0000
# 4 0.0000 0.0000 0.0000 21.7572 0.0000 0.0000
# 5 0.0000 0.0000 0.0000 0.0000 11.6254 0.0000
# 6 0.0000 0.0000 0.0000 0.0000 0.0000 5.1263
#
#
#
# Elastic Compliance Matrix: (Units=1/GPa)
#
#
# Indices 1 2 3 4 5 6 
#
# 1 0.021490 -0.000464 -0.000224 0.000000 0.000000 0.000000
# 2 -0.000464 0.012081 -0.009313 0.000000 0.000000 0.000000
# 3 -0.000224 -0.009313 0.017347 0.000000 0.000000 0.000000
# 4 0.000000 0.000000 0.000000 0.045962 0.000000 0.000000
# 5 0.000000 0.000000 0.000000 0.000000 0.086019 0.000000
# 6 0.000000 0.000000 0.000000 0.000000 0.000000 0.195073
#
#
# Mechanical properties :
#
#
# Convention : Reuss Voigt Hill
#
# Bulk Modulus (GPa) = 32.34592 50.19981 41.27287
# Shear Modulus (GPa) = 12.24651 21.31058 16.77854
#
# Velocity S-wave (km/s) = 2.40695 3.17511 2.81733
# Velocity P-wave (km/s) = 4.79857 6.09833 5.48707
#
# Compressibility (1/GPa) = 0.03091580
#
# Stress axis : x y z
#
# Youngs Moduli (GPa) = 46.53333 82.77480 57.64601
#
# Poissons Ratio (x) = 0.03841 0.01291
# Poissons Ratio (y) = 0.02159 0.53687
# Poissons Ratio (z) = 0.01042 0.77090
#
# Static dielectric constant tensor:
#      x y z
#    x 1.803060 0.000000 0.000000 
#    y 0.000000 1.749270 0.000000 
#    z 0.000000 0.000000 1.824490 
# 
# From -- ./inp_files/13906.got.cif
#   From: 2010.05.17/outbox.cif.g08.bks.cpg/sg36_7_cif.got.tgz:13906.got - 2010.06.03 17:41:39.
