data_PCOD9350331
_publ_section_title
;
Structure prediction by ZEFSAII (Michael W. Deem and Ramdas Pophale) SiO2 
 PCOD9350331
Probable space group: C M M 2
;
_chemical_formula_sum "Si O2"
_cell_formula_units_Z 64
_cell_length_a 7.831450
_cell_length_b 29.943806
_cell_length_c 16.110017
_cell_angle_alpha 90.000000
_cell_angle_beta 90.000000
_cell_angle_gamma 90.000000
_cell_volume 3777.854075
_symmetry_space_group_name_H-M "C M M 2"
_symmetry_group_IT_number 35
_symmetry_cell_setting 'orthorhombic'
loop_
_space_group_symop_operation_xyz
x,y,z
-x,-y,z
-x,y,z
x,-y,z
1/2+x,1/2+y,z
1/2-x,1/2-y,z
1/2-x,1/2+y,z
1/2+x,1/2-y,z
loop_
_atom_site_type_symbol
_atom_site_label
_atom_site_fract_x
_atom_site_fract_y
_atom_site_fract_z
Si Si1 0.791181 0.392895 0.030050
Si Si2 0.203110 0.607558 0.709500
Si Si3 0.290960 0.948700 0.867498
Si Si4 0.802367 0.554077 0.371053
Si Si5 0.794834 0.700650 0.963555
Si Si6 0.209416 0.551878 0.189654
Si Si7 0.699405 0.550586 0.553534
Si Si8 0.794634 0.700805 0.772302
O O1 0.734578 0.416979 0.114224
O O2 0.000000 0.393064 0.031676
O O3 0.740041 0.421700 0.949597
O O4 0.734383 0.341924 0.015841
O O5 0.268895 0.576548 0.784633
O O6 0.230375 0.584197 0.621663
O O7 0.268838 0.658060 0.721044
O O8 0.000000 0.609955 0.721985
O O9 0.500000 0.948999 0.866732
O O10 0.234972 0.000000 0.869445
O O11 0.795865 0.500000 0.367854
O O12 0.732065 0.567803 0.281049
O O13 0.721040 0.566513 0.458637
O O14 0.000000 0.567618 0.375514
O O15 0.750000 0.750000 0.994825
O O16 0.732097 0.697025 0.867966
O O17 0.000000 0.697766 0.960285
O O18 0.259459 0.500000 0.176417
O O19 0.000000 0.551905 0.191877
O O20 0.500000 0.546974 0.570287
O O21 0.774566 0.500000 0.560579
O O22 0.750000 0.750000 0.740476
O O23 0.000000 0.699005 0.775393
#
# Coordination Sequence:
#
# PCOD9350331 Si02
#       8
#     8   8   8   8   8   8   8   8
#     4   9  14  22  37  60  88 114 140 173 210 248
#     4  10  18  29  44  64  87 114 148 182 215 254
#     4   9  15  22  35  57  86 117 144 169 202 245
#     4   8  14  26  43  62  84 110 141 178 217 255
#     4   9  16  27  42  60  84 112 144 180 213 247
#     4   8  13  21  37  63  90 112 137 173 216 256
#     4  10  20  31  43  62  88 117 148 180 216 260
#     4   9  17  29  44  62  85 112 146 184 219 256
#
# _framework density 16.940833000000001
#
# number of rings (size 3 to 8) (size 9 to 14) (size 15 to 20)
#    0.000    3.000    1.250    1.875    0.000    3.250 
#    0.000    0.000    0.000    0.750    0.000    0.875 
#    0.000    7.000    0.000    0.000    0.000    0.000 
#
# Total GULP energy -178249.779008 kJ/mol
# GULP energy per Si atom -5570.305594 kJ/mol
# Density = 1.690228 g / cm^3
# Si number density = 16.940833 Si / 1000 Ang^3
#
#
#
# Elastic Constant Matrix: (Units=GPa)
#
#
# Indices 1 2 3 4 5 6 
#
# 1 15.1899 7.7826 2.5960 0.0000 0.0000 0.0000
# 2 7.7826 148.3206 84.3273 0.0000 0.0000 0.0000
# 3 2.5960 84.3273 121.9295 0.0000 0.0000 0.0000
# 4 0.0000 0.0000 0.0000 8.0826 0.0000 0.0000
# 5 0.0000 0.0000 0.0000 0.0000 -4.6851 0.0000
# 6 0.0000 0.0000 0.0000 0.0000 0.0000 13.1573
#
#
#
# Elastic Compliance Matrix: (Units=1/GPa)
#
#
# Indices 1 2 3 4 5 6 
#
# 1 0.067859 -0.004514 0.001677 0.000000 0.000000 0.000000
# 2 -0.004514 0.011412 -0.007796 0.000000 0.000000 0.000000
# 3 0.001677 -0.007796 0.013558 0.000000 0.000000 0.000000
# 4 0.000000 0.000000 0.000000 0.123723 0.000000 0.000000
# 5 0.000000 0.000000 0.000000 0.000000 -0.213441 0.000000
# 6 0.000000 0.000000 0.000000 0.000000 0.000000 0.076004
#
#
# Mechanical properties :
#
#
# Convention : Reuss Voigt Hill
#
# Bulk Modulus (GPa) = 13.97384 52.76130 33.36757
# Shear Modulus (GPa) = 40.24633 16.02655 28.13644
#
# Velocity S-wave (km/s) = 4.87940 3.07910 4.07979
# Velocity P-wave (km/s) = 6.32545 6.62217 6.47551
#
# Compressibility (1/GPa) = 0.07156230
#
# Stress axis : x y z
#
# Youngs Moduli (GPa) = 14.73635 87.63073 73.75917
#
# Poissons Ratio (x) = 0.39559 -0.12372
# Poissons Ratio (y) = 0.06652 0.57504
# Poissons Ratio (z) = -0.02472 0.68318
#
# Static dielectric constant tensor:
#      x y z
#    x 1.629270 0.000000 0.000000 
#    y 0.000000 1.578420 0.000000 
#    z 0.000000 0.000000 1.569400 
# 
# From -- ./inp_files/16235.got.cif
#   From: 2010.05.17/outbox.cif.g08.bks.cpg/sg35_9_cif.got.tgz:16235.got - 2010.06.03 17:29:28.
