data_PCOD9350778
_publ_section_title
;
Structure prediction by ZEFSAII (Michael W. Deem and Ramdas Pophale) SiO2 
 PCOD9350778
Probable space group: C M C 21
;
_chemical_formula_sum "Si O2"
_cell_formula_units_Z 64
_cell_length_a 7.692534
_cell_length_b 24.068515
_cell_length_c 15.854654
_cell_angle_alpha 90.000000
_cell_angle_beta 90.000000
_cell_angle_gamma 90.000000
_cell_volume 2935.455417
_symmetry_space_group_name_H-M "C M C 21"
_symmetry_group_IT_number 36
_symmetry_cell_setting 'orthorhombic'
loop_
_space_group_symop_operation_xyz
x,y,z
-x,-y,1/2+z
x,-y,1/2+z
-x,y,z
1/2+x,1/2+y,z
1/2-x,1/2-y,1/2+z
1/2+x,1/2-y,1/2+z
1/2-x,1/2+y,z
loop_
_atom_site_type_symbol
_atom_site_label
_atom_site_fract_x
_atom_site_fract_y
_atom_site_fract_z
Si Si1 0.701716 0.116471 0.960460
Si Si2 0.789936 0.500106 0.702830
Si Si3 0.797391 0.123266 0.432518
Si Si4 0.786446 0.622295 0.146302
Si Si5 0.201209 0.293555 0.789770
Si Si6 0.299324 0.168856 0.791618
Si Si7 0.795815 0.000648 0.896913
Si Si8 0.789389 0.613090 0.620884
O O1 0.500000 0.134163 0.962661
O O2 0.782211 0.142874 0.876168
O O3 0.709382 0.050018 0.949260
O O4 0.775402 0.132616 0.051206
O O5 0.730569 0.439086 0.675485
O O6 0.728898 0.512346 0.797669
O O7 0.736877 0.549351 0.639985
O O8 0.000000 0.499974 0.704841
O O9 0.712106 0.169375 0.373806
O O10 0.779520 0.133720 0.531697
O O11 0.000000 0.122602 0.408712
O O12 0.725906 0.061207 0.414733
O O13 0.730815 0.668234 0.213485
O O14 0.000000 0.621626 0.146639
O O15 0.294401 0.234942 0.797643
O O16 0.000000 0.280680 0.772401
O O17 0.500000 0.148882 0.790564
O O18 0.227909 0.147889 0.702232
O O19 0.000000 0.001259 0.917399
O O20 0.000000 0.615461 0.615741
#
# Coordination Sequence:
#
# PCOD9350778 Si02
#       8
#     8   8   8   8   8   8   8   8
#     4  10  20  39  64  87 116 155 195 239 292 357
#     4  10  18  35  61  88 117 151 192 239 293 355
#     4  11  24  40  59  87 122 161 198 244 302 350
#     4   9  19  35  61  90 112 145 196 243 285 343
#     4  11  23  40  62  87 117 156 205 250 292 352
#     4  10  22  40  61  87 120 155 196 245 300 351
#     4  11  22  35  56  89 124 155 191 239 298 353
#     4  10  21  38  62  91 118 154 199 243 296 357
#
# _framework density 21.802409000000001
#
# number of rings (size 3 to 8) (size 9 to 14) (size 15 to 20)
#    0.000    1.750    2.500    1.875    0.000    5.000 
#    0.000    3.125    0.000    0.000    0.000    0.000 
#    0.000    0.000    0.000    0.000    0.000    0.000 
#
# Total GULP energy -178864.906262 kJ/mol
# GULP energy per Si atom -5589.528321 kJ/mol
# Density = 2.175279 g / cm^3
# Si number density = 21.802409 Si / 1000 Ang^3
#
#
#
# Elastic Constant Matrix: (Units=GPa)
#
#
# Indices 1 2 3 4 5 6 
#
# 1 40.5078 -7.3517 -6.6349 0.0000 0.0000 0.0000
# 2 -7.3517 92.6861 28.6216 0.0000 0.0000 0.0000
# 3 -6.6349 28.6216 122.9419 0.0000 0.0000 0.0000
# 4 0.0000 0.0000 0.0000 5.9434 0.0000 0.0000
# 5 0.0000 0.0000 0.0000 0.0000 1.7246 0.0000
# 6 0.0000 0.0000 0.0000 0.0000 0.0000 8.2357
#
#
#
# Elastic Compliance Matrix: (Units=1/GPa)
#
#
# Indices 1 2 3 4 5 6 
#
# 1 0.025152 0.001698 0.000962 0.000000 0.000000 0.000000
# 2 0.001698 0.011739 -0.002641 0.000000 0.000000 0.000000
# 3 0.000962 -0.002641 0.008801 0.000000 0.000000 0.000000
# 4 0.000000 0.000000 0.000000 0.168255 0.000000 0.000000
# 5 0.000000 0.000000 0.000000 0.000000 0.579858 0.000000
# 6 0.000000 0.000000 0.000000 0.000000 0.000000 0.121422
#
#
# Mechanical properties :
#
#
# Convention : Reuss Voigt Hill
#
# Bulk Modulus (GPa) = 21.86751 31.71175 26.78963
# Shear Modulus (GPa) = 5.37384 19.28077 12.32731
#
# Velocity S-wave (km/s) = 1.57167 2.97701 2.38042
# Velocity P-wave (km/s) = 3.65310 5.13746 4.45750
#
# Compressibility (1/GPa) = 0.04572995
#
# Stress axis : x y z
#
# Youngs Moduli (GPa) = 39.75769 85.18290 113.62632
#
# Poissons Ratio (x) = -0.14463 -0.10932
# Poissons Ratio (y) = -0.06751 0.30013
# Poissons Ratio (z) = -0.03825 0.22500
#
# Static dielectric constant tensor:
#      x y z
#    x 1.827140 0.000000 0.000000 
#    y 0.000000 1.759190 0.000000 
#    z 0.000000 0.000000 1.789860 
# 
# From -- ./inp_files/10918.got.cif
#   From: 2010.05.17/outbox.cif.g08.bks.cpg/sg36_6_cif.got.tgz:10918.got - 2010.06.03 17:41:39.
