data_PCOD9350761
_publ_section_title
;
Structure prediction by ZEFSAII (Michael W. Deem and Ramdas Pophale) SiO2 
 PCOD9350761
Probable space group: C M C 21
;
_chemical_formula_sum "Si O2"
_cell_formula_units_Z 60
_cell_length_a 11.824442
_cell_length_b 28.758164
_cell_length_c 8.987552
_cell_angle_alpha 90.000000
_cell_angle_beta 90.000000
_cell_angle_gamma 90.000000
_cell_volume 3056.210247
_symmetry_space_group_name_H-M "C M C 21"
_symmetry_group_IT_number 36
_symmetry_cell_setting 'orthorhombic'
loop_
_space_group_symop_operation_xyz
x,y,z
-x,-y,1/2+z
x,-y,1/2+z
-x,y,z
1/2+x,1/2+y,z
1/2-x,1/2-y,1/2+z
1/2+x,1/2-y,1/2+z
1/2-x,1/2+y,z
loop_
_atom_site_type_symbol
_atom_site_label
_atom_site_fract_x
_atom_site_fract_y
_atom_site_fract_z
Si Si1 0.778952 0.797360 0.780600
Si Si2 0.629931 0.046453 0.496848
Si Si3 0.624506 0.768998 0.524166
Si Si4 0.132615 0.655963 0.531074
Si Si5 0.695493 0.036285 0.163218
Si Si6 0.633497 0.384376 0.590773
Si Si7 0.000000 0.577955 0.946615
Si Si8 0.809323 0.640924 0.848339
O O1 0.719725 0.767708 0.650434
O O2 0.840022 0.840683 0.699961
O O3 0.855183 0.766017 0.888017
O O4 0.682570 0.817059 0.890807
O O5 0.500000 0.036290 0.540587
O O6 0.645493 0.101302 0.497540
O O7 0.648852 0.030579 0.328346
O O8 0.711099 0.015094 0.596731
O O9 0.500000 0.761798 0.588372
O O10 0.632934 0.821064 0.456815
O O11 0.199882 0.662727 0.685112
O O12 0.000000 0.667091 0.552800
O O13 0.803570 0.069992 0.155060
O O14 0.599526 0.061177 0.063712
O O15 0.500000 0.390350 0.575650
O O16 0.695145 0.373492 0.432789
O O17 0.899616 0.599257 0.837905
#
# Coordination Sequence:
#
# PCOD9350761 Si02
#       8
#     8   8   8   8   8   8   4   8
#     4  11  23  41  64  93 126 168 212 265 321 389
#     4  11  22  34  59  96 127 157 199 262 324 386
#     4  11  22  39  64  92 124 161 211 266 320 376
#     4  11  22  37  61  95 131 159 200 258 330 392
#     4  11  22  36  61  91 129 161 210 258 320 383
#     4  10  23  44  64  84 124 177 219 258 310 375
#     4  10  18  34  60  90 130 164 196 254 326 378
#     4  10  21  36  64  91 124 164 208 254 323 379
#
# _framework density 19.632158
#
# number of rings (size 3 to 8) (size 9 to 14) (size 15 to 20)
#    0.000    1.333    4.000    1.600    3.733    0.000 
#    0.000   10.667    0.000    0.000    0.000    0.000 
#    0.000    0.000    0.000    0.000    0.000    0.000 
#
# Total GULP energy -167014.165989 kJ/mol
# GULP energy per Si atom -5567.138866 kJ/mol
# Density = 1.958747 g / cm^3
# Si number density = 19.632158 Si / 1000 Ang^3
#
#
#
# Elastic Constant Matrix: (Units=GPa)
#
#
# Indices 1 2 3 4 5 6 
#
# 1 95.9804 19.5412 -12.1508 0.0000 0.0000 0.0000
# 2 19.5412 41.6231 -1.2898 0.0000 0.0000 0.0000
# 3 -12.1508 -1.2898 51.5743 0.0000 0.0000 0.0000
# 4 0.0000 0.0000 0.0000 35.5526 0.0000 0.0000
# 5 0.0000 0.0000 0.0000 0.0000 20.4047 0.0000
# 6 0.0000 0.0000 0.0000 0.0000 0.0000 15.4703
#
#
#
# Elastic Compliance Matrix: (Units=1/GPa)
#
#
# Indices 1 2 3 4 5 6 
#
# 1 0.011874 -0.005492 0.002660 0.000000 0.000000 0.000000
# 2 -0.005492 0.026584 -0.000629 0.000000 0.000000 0.000000
# 3 0.002660 -0.000629 0.020000 0.000000 0.000000 0.000000
# 4 0.000000 0.000000 0.000000 0.028127 0.000000 0.000000
# 5 0.000000 0.000000 0.000000 0.000000 0.049008 0.000000
# 6 0.000000 0.000000 0.000000 0.000000 0.000000 0.064640
#
#
# Mechanical properties :
#
#
# Convention : Reuss Voigt Hill
#
# Bulk Modulus (GPa) = 19.40385 22.37542 20.88963
# Shear Modulus (GPa) = 22.28810 26.49065 24.38937
#
# Velocity S-wave (km/s) = 3.37305 3.67733 3.52848
# Velocity P-wave (km/s) = 5.00751 5.42701 5.22148
#
# Compressibility (1/GPa) = 0.05153617
#
# Stress axis : x y z
#
# Youngs Moduli (GPa) = 84.21964 37.61653 49.99882
#
# Poissons Ratio (x) = 0.20659 -0.13300
# Poissons Ratio (y) = 0.46254 0.03145
# Poissons Ratio (z) = -0.22403 0.02366
#
# Static dielectric constant tensor:
#      x y z
#    x 1.647810 0.000000 0.000000 
#    y 0.000000 1.761340 0.000000 
#    z 0.000000 0.000000 1.696430 
# 
# From -- ./inp_files/3473.got.cif
#   From: 2010.05.17/outbox.cif.g08.bks.cpg/sg36_2_cif.got.tgz:3473.got - 2010.06.03 17:41:39.
