data_PCOD9350953
_publ_section_title
;
Structure prediction by ZEFSAII (Michael W. Deem and Ramdas Pophale) SiO2 
 PCOD9350953
Probable space group: C M C 21
;
_chemical_formula_sum "Si O2"
_cell_formula_units_Z 64
_cell_length_a 7.458547
_cell_length_b 22.086776
_cell_length_c 14.376786
_cell_angle_alpha 90.000000
_cell_angle_beta 90.000000
_cell_angle_gamma 90.000000
_cell_volume 2368.363535
_symmetry_space_group_name_H-M "C M C 21"
_symmetry_group_IT_number 36
_symmetry_cell_setting 'orthorhombic'
loop_
_space_group_symop_operation_xyz
x,y,z
-x,-y,1/2+z
x,-y,1/2+z
-x,y,z
1/2+x,1/2+y,z
1/2-x,1/2-y,1/2+z
1/2+x,1/2-y,1/2+z
1/2-x,1/2+y,z
loop_
_atom_site_type_symbol
_atom_site_label
_atom_site_fract_x
_atom_site_fract_y
_atom_site_fract_z
Si Si1 0.288597 0.466161 0.627850
Si Si2 0.705649 0.853981 0.091196
Si Si3 0.215959 0.734122 0.978367
Si Si4 0.787016 0.849549 0.738084
Si Si5 0.280715 0.219062 0.759742
Si Si6 0.707504 0.107004 0.963552
Si Si7 0.715739 0.034466 0.801317
Si Si8 0.284835 0.081803 0.416175
O O1 0.500000 0.460350 0.617923
O O2 0.212443 0.407995 0.684867
O O3 0.213803 0.453395 0.526086
O O4 0.255998 0.523383 0.693622
O O5 0.500000 0.873009 0.107842
O O6 0.782697 0.834072 0.190863
O O7 0.702579 0.791018 0.031591
O O8 0.786926 0.902313 0.018505
O O9 0.262438 0.725242 0.868748
O O10 0.278177 0.667168 0.013766
O O11 0.000000 0.742861 0.986236
O O12 0.718250 0.783014 0.715947
O O13 0.755402 0.862644 0.847128
O O14 0.000000 0.849322 0.723997
O O15 0.500000 0.216494 0.756555
O O16 0.500000 0.121763 0.948301
O O17 0.783893 0.090053 0.862978
O O18 0.500000 0.035458 0.807126
O O19 0.784408 0.975621 0.858228
O O20 0.500000 0.076089 0.423218
#
# Coordination Sequence:
#
# PCOD9350953 Si02
#       8
#     8   8   8   8   8   8   8   8
#     4  10  20  34  57  85 107 141 185 225 274 323
#     4  10  19  32  51  77 105 137 174 217 271 324
#     4  10  20  35  54  78 108 144 180 219 265 320
#     4   9  16  29  50  72  99 136 172 211 259 312
#     4   9  17  30  48  72 104 137 170 208 259 319
#     4  10  21  37  56  81 111 146 183 223 273 324
#     4   9  19  37  56  79 109 141 181 228 272 319
#     4   9  17  30  50  74  99 128 169 219 265 307
#
# _framework density 27.022877000000001
#
# number of rings (size 3 to 8) (size 9 to 14) (size 15 to 20)
#    0.000    2.500    1.250    1.125    0.000    2.500 
#    2.250    1.250    0.000    0.000    0.000    0.000 
#    0.000    0.000    0.000    0.000    0.000    0.000 
#
# Total GULP energy -178856.485491 kJ/mol
# GULP energy per Si atom -5589.265172 kJ/mol
# Density = 2.696137 g / cm^3
# Si number density = 27.022877 Si / 1000 Ang^3
#
#
#
# Elastic Constant Matrix: (Units=GPa)
#
#
# Indices 1 2 3 4 5 6 
#
# 1 98.2468 -0.0791 -7.4742 0.0000 0.0000 0.0000
# 2 -0.0791 79.9794 27.8769 0.0000 0.0000 0.0000
# 3 -7.4742 27.8769 153.6590 0.0000 0.0000 0.0000
# 4 0.0000 0.0000 0.0000 59.0765 0.0000 0.0000
# 5 0.0000 0.0000 0.0000 0.0000 5.0494 0.0000
# 6 0.0000 0.0000 0.0000 0.0000 0.0000 8.5630
#
#
#
# Elastic Compliance Matrix: (Units=1/GPa)
#
#
# Indices 1 2 3 4 5 6 
#
# 1 0.010219 -0.000174 0.000529 0.000000 0.000000 0.000000
# 2 -0.000174 0.013350 -0.002430 0.000000 0.000000 0.000000
# 3 0.000529 -0.002430 0.006975 0.000000 0.000000 0.000000
# 4 0.000000 0.000000 0.000000 0.016927 0.000000 0.000000
# 5 0.000000 0.000000 0.000000 0.000000 0.198044 0.000000
# 6 0.000000 0.000000 0.000000 0.000000 0.000000 0.116782
#
#
# Mechanical properties :
#
#
# Convention : Reuss Voigt Hill
#
# Bulk Modulus (GPa) = 37.89125 41.39248 39.64187
# Shear Modulus (GPa) = 13.32463 35.30854 24.31659
#
# Velocity S-wave (km/s) = 2.22297 3.61864 3.00301
# Velocity P-wave (km/s) = 4.54325 5.72802 5.16969
#
# Compressibility (1/GPa) = 0.02639132
#
# Stress axis : x y z
#
# Youngs Moduli (GPa) = 97.86145 74.90532 143.37803
#
# Poissons Ratio (x) = 0.01305 -0.07580
# Poissons Ratio (y) = 0.01704 0.34848
# Poissons Ratio (z) = -0.05173 0.18206
#
# Static dielectric constant tensor:
#      x y z
#    x 2.010840 0.000000 0.000000 
#    y 0.000000 2.178050 0.000000 
#    z 0.000000 0.000000 2.173960 
# 
# From -- ./inp_files/11080.got.cif
#   From: 2010.05.17/outbox.cif.g08.bks.cpg/sg36_6_cif.got.tgz:11080.got - 2010.06.03 17:41:39.
