data_PCOD9350757
_publ_section_title
;
Structure prediction by ZEFSAII (Michael W. Deem and Ramdas Pophale) SiO2 
 PCOD9350757
Probable space group: C M C 21
;
_chemical_formula_sum "Si O2"
_cell_formula_units_Z 64
_cell_length_a 7.586593
_cell_length_b 24.139318
_cell_length_c 15.853999
_cell_angle_alpha 90.000000
_cell_angle_beta 90.000000
_cell_angle_gamma 90.000000
_cell_volume 2903.424976
_symmetry_space_group_name_H-M "C M C 21"
_symmetry_group_IT_number 36
_symmetry_cell_setting 'orthorhombic'
loop_
_space_group_symop_operation_xyz
x,y,z
-x,-y,1/2+z
x,-y,1/2+z
-x,y,z
1/2+x,1/2+y,z
1/2-x,1/2-y,1/2+z
1/2+x,1/2-y,1/2+z
1/2-x,1/2+y,z
loop_
_atom_site_type_symbol
_atom_site_label
_atom_site_fract_x
_atom_site_fract_y
_atom_site_fract_z
Si Si1 0.285611 0.751664 0.675840
Si Si2 0.202176 0.457158 0.764572
Si Si3 0.292465 0.873134 0.627803
Si Si4 0.296918 0.418378 0.274243
Si Si5 0.704354 0.381859 0.918490
Si Si6 0.712917 0.242986 0.370514
Si Si7 0.783756 0.863355 0.103094
Si Si8 0.786535 0.142182 0.940711
O O1 0.500000 0.752006 0.671984
O O2 0.219890 0.811898 0.647737
O O3 0.238578 0.742855 0.773843
O O4 0.228082 0.700206 0.618869
O O5 0.281195 0.420683 0.688337
O O6 0.292486 0.515700 0.779259
O O7 0.206215 0.418528 0.846999
O O8 0.000000 0.471025 0.743984
O O9 0.500000 0.870494 0.649265
O O10 0.273248 0.882973 0.528904
O O11 0.500000 0.398897 0.272802
O O12 0.223756 0.397405 0.185000
O O13 0.221183 0.391015 0.358719
O O14 0.500000 0.398716 0.918185
O O15 0.716174 0.316961 0.894882
O O16 0.776670 0.386502 0.013332
O O17 0.500000 0.239497 0.373489
O O18 0.769821 0.293749 0.429694
O O19 0.000000 0.864124 0.099263
O O20 0.000000 0.141286 0.941713
#
# Coordination Sequence:
#
# PCOD9350757 Si02
#       8
#     8   8   8   8   8   8   8   8
#     4   9  15  31  58  83 111 150 186 220 273 342
#     4  11  24  42  60  80 111 154 196 238 291 342
#     4  10  21  37  59  83 113 152 191 233 286 345
#     4  10  21  40  62  83 110 149 195 240 284 336
#     4  11  22  36  59  90 119 149 190 237 283 335
#     4  10  18  34  59  86 119 155 187 225 281 345
#     4   9  18  34  59  86 112 147 188 229 280 340
#     4  10  21  36  60  89 117 150 189 234 286 339
#
# _framework density 22.042930999999999
#
# number of rings (size 3 to 8) (size 9 to 14) (size 15 to 20)
#    0.000    2.000    2.500    1.500    0.000    4.000 
#    0.000    5.000    0.000    1.500    0.000    0.000 
#    0.000    0.000    0.000    0.000    0.000    0.000 
#
# Total GULP energy -178819.100054 kJ/mol
# GULP energy per Si atom -5588.096877 kJ/mol
# Density = 2.199276 g / cm^3
# Si number density = 22.042931 Si / 1000 Ang^3
#
#
#
# Elastic Constant Matrix: (Units=GPa)
#
#
# Indices 1 2 3 4 5 6 
#
# 1 47.5546 -11.0705 -10.7313 0.0000 0.0000 0.0000
# 2 -11.0705 97.1186 31.5186 0.0000 0.0000 0.0000
# 3 -10.7313 31.5186 116.9859 0.0000 0.0000 0.0000
# 4 0.0000 0.0000 0.0000 7.5087 0.0000 0.0000
# 5 0.0000 0.0000 0.0000 0.0000 3.2941 0.0000
# 6 0.0000 0.0000 0.0000 0.0000 0.0000 14.8597
#
#
#
# Elastic Compliance Matrix: (Units=1/GPa)
#
#
# Indices 1 2 3 4 5 6 
#
# 1 0.021827 0.002014 0.001459 0.000000 0.000000 0.000000
# 2 0.002014 0.011469 -0.002905 0.000000 0.000000 0.000000
# 3 0.001459 -0.002905 0.009465 0.000000 0.000000 0.000000
# 4 0.000000 0.000000 0.000000 0.133179 0.000000 0.000000
# 5 0.000000 0.000000 0.000000 0.000000 0.303573 0.000000
# 6 0.000000 0.000000 0.000000 0.000000 0.000000 0.067296
#
#
# Mechanical properties :
#
#
# Convention : Reuss Voigt Hill
#
# Bulk Modulus (GPa) = 22.78020 31.23252 27.00636
# Shear Modulus (GPa) = 8.92373 21.92864 15.42618
#
# Velocity S-wave (km/s) = 2.01423 3.15749 2.64829
# Velocity P-wave (km/s) = 3.97069 5.24335 4.65076
#
# Compressibility (1/GPa) = 0.04389777
#
# Stress axis : x y z
#
# Youngs Moduli (GPa) = 45.81531 87.19028 105.65619
#
# Poissons Ratio (x) = -0.17563 -0.15420
# Poissons Ratio (y) = -0.09229 0.30696
# Poissons Ratio (z) = -0.06687 0.25331
#
# Static dielectric constant tensor:
#      x y z
#    x 1.822680 0.000000 0.000000 
#    y 0.000000 1.767120 0.000000 
#    z 0.000000 0.000000 1.801050 
# 
# From -- ./inp_files/11076.got.cif
#   From: 2010.05.17/outbox.cif.g08.bks.cpg/sg36_6_cif.got.tgz:11076.got - 2010.06.03 17:41:39.
