data_PCOD9350756
_publ_section_title
;
Structure prediction by ZEFSAII (Michael W. Deem and Ramdas Pophale) SiO2 
 PCOD9350756
Probable space group: C M C 21
;
_chemical_formula_sum "Si O2"
_cell_formula_units_Z 64
_cell_length_a 19.691982
_cell_length_b 10.599936
_cell_length_c 15.085018
_cell_angle_alpha 90.000000
_cell_angle_beta 90.000000
_cell_angle_gamma 90.000000
_cell_volume 3148.752360
_symmetry_space_group_name_H-M "C M C 21"
_symmetry_group_IT_number 36
_symmetry_cell_setting 'orthorhombic'
loop_
_space_group_symop_operation_xyz
x,y,z
-x,-y,1/2+z
x,-y,1/2+z
-x,y,z
1/2+x,1/2+y,z
1/2-x,1/2-y,1/2+z
1/2+x,1/2-y,1/2+z
1/2-x,1/2+y,z
loop_
_atom_site_type_symbol
_atom_site_label
_atom_site_fract_x
_atom_site_fract_y
_atom_site_fract_z
Si Si1 0.647878 0.131034 0.877850
Si Si2 0.686334 0.509871 0.202669
Si Si3 0.422191 0.894305 0.552412
Si Si4 0.425162 0.646988 0.287622
Si Si5 0.425749 0.397644 0.086093
Si Si6 0.426165 0.587608 0.922951
Si Si7 0.169426 0.430319 0.721496
Si Si8 0.797394 0.193495 0.848209
O O1 0.593885 0.237631 0.850380
O O2 0.721871 0.198235 0.888790
O O3 0.651986 0.035928 0.794752
O O4 0.623047 0.065220 0.968228
O O5 0.637389 0.628839 0.220310
O O6 0.639035 0.417431 0.147079
O O7 0.760531 0.542059 0.168064
O O8 0.702725 0.437755 0.293803
O O9 0.500000 0.939741 0.546929
O O10 0.423482 0.741709 0.547097
O O11 0.389022 0.921346 0.648035
O O12 0.500000 0.665139 0.248160
O O13 0.426471 0.517598 0.344584
O O14 0.500000 0.409590 0.132194
O O15 0.422246 0.504253 0.011342
O O16 0.500000 0.652586 0.919694
O O17 0.361564 0.677727 0.912983
O O18 0.186650 0.305541 0.779443
#
# Coordination Sequence:
#
# PCOD9350756 Si02
#       8
#     8   8   8   8   8   8   8   8
#     4  11  23  40  63  90 129 169 218 259 315 387
#     4  10  20  36  60  87 123 152 199 260 311 372
#     4  11  24  42  64  91 125 173 222 262 317 387
#     4  10  18  34  59  85 115 156 199 251 312 371
#     4  10  19  35  61  93 121 152 204 264 317 372
#     4   9  19  34  58  89 117 151 202 258 314 365
#     4  11  24  42  62  95 128 169 214 260 320 385
#     4  10  21  39  59  90 122 160 204 256 320 377
#
# _framework density 20.325510000000001
#
# number of rings (size 3 to 8) (size 9 to 14) (size 15 to 20)
#    0.000    1.750    3.750    0.750    1.750    2.000 
#    0.000    1.250    0.000    1.500    0.000    0.000 
#    0.000    0.000    0.000    0.000    0.000    0.000 
#
# Total GULP energy -178356.226216 kJ/mol
# GULP energy per Si atom -5573.632069 kJ/mol
# Density = 2.027925 g / cm^3
# Si number density = 20.325510 Si / 1000 Ang^3
#
#
#
# Elastic Constant Matrix: (Units=GPa)
#
#
# Indices 1 2 3 4 5 6 
#
# 1 139.4559 16.7612 48.1916 0.0000 0.0000 0.0000
# 2 16.7612 29.2870 7.3640 0.0000 0.0000 0.0000
# 3 48.1916 7.3640 66.9649 0.0000 0.0000 0.0000
# 4 0.0000 0.0000 0.0000 21.7978 0.0000 0.0000
# 5 0.0000 0.0000 0.0000 0.0000 29.8353 0.0000
# 6 0.0000 0.0000 0.0000 0.0000 0.0000 14.2527
#
#
#
# Elastic Compliance Matrix: (Units=1/GPa)
#
#
# Indices 1 2 3 4 5 6 
#
# 1 0.009984 -0.004018 -0.006743 0.000000 0.000000 0.000000
# 2 -0.004018 0.036733 -0.001148 0.000000 0.000000 0.000000
# 3 -0.006743 -0.001148 0.019912 0.000000 0.000000 0.000000
# 4 0.000000 0.000000 0.000000 0.045876 0.000000 0.000000
# 5 0.000000 0.000000 0.000000 0.000000 0.033517 0.000000
# 6 0.000000 0.000000 0.000000 0.000000 0.000000 0.070162
#
#
# Mechanical properties :
#
#
# Convention : Reuss Voigt Hill
#
# Bulk Modulus (GPa) = 23.35847 42.26016 32.80931
# Shear Modulus (GPa) = 19.66387 24.06988 21.86688
#
# Velocity S-wave (km/s) = 3.11376 3.44498 3.28355
# Velocity P-wave (km/s) = 4.94413 6.05481 5.52744
#
# Compressibility (1/GPa) = 0.04281103
#
# Stress axis : x y z
#
# Youngs Moduli (GPa) = 100.16136 27.22336 50.22079
#
# Poissons Ratio (x) = 0.10939 0.33864
# Poissons Ratio (y) = 0.40249 0.05763
# Poissons Ratio (z) = 0.67539 0.03124
#
# Static dielectric constant tensor:
#      x y z
#    x 1.794530 0.000000 0.000000 
#    y 0.000000 1.724170 0.000000 
#    z 0.000000 0.000000 1.756510 
# 
# From -- ./inp_files/12651.got.cif
#   From: 2010.05.17/outbox.cif.g08.bks.cpg/sg36_7_cif.got.tgz:12651.got - 2010.06.03 17:41:39.
