data_PCOD9350146
_publ_section_title
;
Structure prediction by ZEFSAII (Michael W. Deem and Ramdas Pophale) SiO2 
 PCOD9350146
Probable space group: C M M 2
;
_chemical_formula_sum "Si O2"
_cell_formula_units_Z 32
_cell_length_a 9.000000
_cell_length_b 30.000000
_cell_length_c 12.000000
_cell_angle_alpha 90.000000
_cell_angle_beta 90.000000
_cell_angle_gamma 90.000000
_cell_volume 3240.000000
_symmetry_space_group_name_H-M "C M M 2"
_symmetry_group_IT_number 35
_symmetry_cell_setting 'orthorhombic'
loop_
_space_group_symop_operation_xyz
x,y,z
-x,-y,z
-x,y,z
x,-y,z
1/2+x,1/2+y,z
1/2-x,1/2-y,z
1/2-x,1/2+y,z
1/2+x,1/2-y,z
loop_
_atom_site_type_symbol
_atom_site_label
_atom_site_fract_x
_atom_site_fract_y
_atom_site_fract_z
Si Si1 0.674716 0.574900 0.328930
Si Si2 0.670363 0.290449 0.184293
Si Si3 0.324120 0.452079 0.581930
Si Si4 0.325380 0.049061 0.103541
Si Si5 0.175084 0.668053 0.384236
Si Si6 0.672299 0.297368 0.831194
Si Si7 0.173318 0.867041 0.008126
Si Si8 0.172952 0.852266 0.605242
O O1 0.500000 0.584307 0.311631
O O2 0.689135 0.550188 0.447321
O O3 0.739449 0.551060 0.221121
O O4 0.766455 0.619980 0.344494
O O5 0.500000 0.278914 0.200257
O O6 0.750000 0.250000 0.120838
O O7 0.751900 0.297583 0.300296
O O8 0.678247 0.336723 0.118476
O O9 0.500000 0.453029 0.608592
O O10 0.259997 0.500000 0.619782
O O11 0.271111 0.403362 0.623385
O O12 0.500000 0.055974 0.124288
O O13 0.261524 0.088046 0.027524
O O14 0.304363 0.000000 0.053984
O O15 0.234009 0.671182 0.509157
O O16 0.000000 0.670691 0.378812
O O17 0.500000 0.290521 0.864910
O O18 0.750000 0.250000 0.829815
O O19 0.676008 0.321820 0.712937
O O20 0.736521 0.333997 0.915342
O O21 0.000000 0.877216 0.983193
O O22 0.000000 0.856485 0.567214
#
# Coordination Sequence:
#
# PCOD9350146 Si02
#       8
#     8   8   8   8   8   8   8   8
#     4  10  18  31  52  79 113 155 198 240 286 341
#     4  11  22  36  56  83 114 150 191 237 295 359
#     4   8  14  26  48  78 109 145 186 227 277 334
#     4  11  23  36  54  84 120 158 199 239 285 344
#     4  11  21  34  54  82 118 156 194 236 290 349
#     4  10  22  41  64  89 112 145 195 249 300 353
#     4  10  22  40  61  84 114 151 195 244 294 350
#     4   9  19  36  57  82 116 149 190 243 292 348
#
# _framework density 9.8765429999999999
#
# number of rings (size 3 to 8) (size 9 to 14) (size 15 to 20)
#    0.000    2.000    1.250    3.750    0.000    3.500 
#    0.000    1.875    0.000    5.625    0.000    0.000 
#    0.000    0.000    0.000    0.000    0.000    0.000 
#
# Total GULP energy -178463.291500 kJ/mol
# GULP energy per Si atom -5576.977859 kJ/mol
# Density = 0.985406 g / cm^3
# Si number density = 9.876543 Si / 1000 Ang^3
#
#
#
# Elastic Constant Matrix: (Units=GPa)
#
#
# Indices 1 2 3 4 5 6 
#
# 1 93.5514 49.4842 32.1779 0.0000 0.0000 0.0000
# 2 49.4842 101.9847 35.5913 0.0000 0.0000 0.0000
# 3 32.1779 35.5913 40.3969 0.0000 0.0000 0.0000
# 4 0.0000 0.0000 0.0000 -23.6157 0.0000 0.0000
# 5 0.0000 0.0000 0.0000 0.0000 -3.6133 0.0000
# 6 0.0000 0.0000 0.0000 0.0000 0.0000 24.6209
#
#
#
# Elastic Compliance Matrix: (Units=1/GPa)
#
#
# Indices 1 2 3 4 5 6 
#
# 1 0.016235 -0.004858 -0.008652 0.000000 0.000000 0.000000
# 2 -0.004858 0.015612 -0.009886 0.000000 0.000000 0.000000
# 3 -0.008652 -0.009886 0.040355 0.000000 0.000000 0.000000
# 4 0.000000 0.000000 0.000000 -0.042345 0.000000 0.000000
# 5 0.000000 0.000000 0.000000 0.000000 -0.276755 0.000000
# 6 0.000000 0.000000 0.000000 0.000000 0.000000 0.040616
#
#
# Mechanical properties :
#
#
# Convention : Reuss Voigt Hill
#
# Bulk Modulus (GPa) = 39.35121 52.27110 45.81115
# Shear Modulus (GPa) = -33.10818 7.39036 -12.85891
#
# Velocity S-wave (km/s) = -4.09846 1.93636 -2.55420
# Velocity P-wave (km/s) = 1.55940 5.61418 3.81361
#
# Compressibility (1/GPa) = 0.02541218
#
# Stress axis : x y z
#
# Youngs Moduli (GPa) = 61.59621 64.05127 24.77982
#
# Poissons Ratio (x) = 0.31116 0.21439
# Poissons Ratio (y) = 0.29923 0.24496
# Poissons Ratio (z) = 0.53291 0.63319
#
# Static dielectric constant tensor:
#      x y z
#    x 1.667930 0.000000 0.000000 
#    y 0.000000 1.747750 0.000000 
#    z 0.000000 0.000000 1.737310 
# 
# From -- ./inp_files/11999.got.cif
#   From: 2010.05.17/outbox.ucp.g08.bks.cvg/sg35_6_cif.got.tgz:11999.got - 2010.06.11 10:36:28.
