data_PCOD9350345
_publ_section_title
;
Structure prediction by ZEFSAII (Michael W. Deem and Ramdas Pophale) SiO2 
 PCOD9350345
Probable space group: C M M 2
;
_chemical_formula_sum "Si O2"
_cell_formula_units_Z 64
_cell_length_a 20.212173
_cell_length_b 20.079477
_cell_length_c 8.734915
_cell_angle_alpha 90.000000
_cell_angle_beta 90.000000
_cell_angle_gamma 90.000000
_cell_volume 3545.064055
_symmetry_space_group_name_H-M "C M M 2"
_symmetry_group_IT_number 35
_symmetry_cell_setting 'orthorhombic'
loop_
_space_group_symop_operation_xyz
x,y,z
-x,-y,z
-x,y,z
x,-y,z
1/2+x,1/2+y,z
1/2-x,1/2-y,z
1/2-x,1/2+y,z
1/2+x,1/2-y,z
loop_
_atom_site_type_symbol
_atom_site_label
_atom_site_fract_x
_atom_site_fract_y
_atom_site_fract_z
Si Si1 0.573994 0.201817 0.551560
Si Si2 0.296936 0.926999 0.761538
Si Si3 0.073607 0.632818 0.883842
Si Si4 0.717024 0.348899 0.977057
Si Si5 0.858593 0.574983 0.426285
Si Si6 0.179939 0.213846 0.408806
Si Si7 0.222903 0.923612 0.275784
Si Si8 0.650880 0.771293 0.077526
O O1 0.500000 0.223935 0.513961
O O2 0.574904 0.174678 0.725338
O O3 0.593236 0.137608 0.445545
O O4 0.627413 0.259819 0.530643
O O5 0.364628 0.916464 0.858437
O O6 0.317240 0.922479 0.585349
O O7 0.270527 0.000000 0.792996
O O8 0.242929 0.874538 0.815687
O O9 0.000000 0.603693 0.899888
O O10 0.091953 0.681971 0.022385
O O11 0.703536 0.406403 0.101112
O O12 0.659376 0.294775 0.973654
O O13 0.781432 0.312125 0.049263
O O14 0.888227 0.500000 0.416646
O O15 0.802749 0.582203 0.296903
O O16 0.250000 0.250000 0.438171
O O17 0.191884 0.135526 0.379299
O O18 0.152322 0.244284 0.248965
O O19 0.206085 0.000000 0.316288
#
# Coordination Sequence:
#
# PCOD9350345 Si02
#       8
#     8   8   8   8   8   8   8   8
#     4  10  20  33  48  70  98 131 166 200 238 285
#     4   9  17  27  42  64  93 126 159 189 224 271
#     4   9  19  32  45  66  96 127 162 196 230 277
#     4   9  15  27  43  65  90 118 153 190 237 276
#     4   9  17  29  44  67  96 129 162 196 232 277
#     4  11  18  33  51  73  98 124 161 203 241 287
#     4  10  18  29  48  71  98 125 154 195 243 285
#     4   9  16  29  46  66  90 122 154 198 237 276
#
# _framework density 18.053270999999999
#
# number of rings (size 3 to 8) (size 9 to 14) (size 15 to 20)
#    0.000    2.500    3.750    0.375    0.000    2.000 
#    2.250    2.500    0.000    0.375    0.000    3.500 
#    0.000    6.500    0.000    0.000    0.000    0.000 
#
# Total GULP energy -178224.820360 kJ/mol
# GULP energy per Si atom -5569.525636 kJ/mol
# Density = 1.801218 g / cm^3
# Si number density = 18.053271 Si / 1000 Ang^3
#
#
#
# Elastic Constant Matrix: (Units=GPa)
#
#
# Indices 1 2 3 4 5 6 
#
# 1 34.6014 12.5650 5.1932 0.0000 0.0000 0.0000
# 2 12.5650 81.2859 9.5383 0.0000 0.0000 0.0000
# 3 5.1932 9.5383 12.3342 0.0000 0.0000 0.0000
# 4 0.0000 0.0000 0.0000 11.4923 0.0000 0.0000
# 5 0.0000 0.0000 0.0000 0.0000 13.7802 0.0000
# 6 0.0000 0.0000 0.0000 0.0000 0.0000 13.3139
#
#
#
# Elastic Compliance Matrix: (Units=1/GPa)
#
#
# Indices 1 2 3 4 5 6 
#
# 1 0.031821 -0.003681 -0.010552 0.000000 0.000000 0.000000
# 2 -0.003681 0.013956 -0.009243 0.000000 0.000000 0.000000
# 3 -0.010552 -0.009243 0.092666 0.000000 0.000000 0.000000
# 4 0.000000 0.000000 0.000000 0.087015 0.000000 0.000000
# 5 0.000000 0.000000 0.000000 0.000000 0.072568 0.000000
# 6 0.000000 0.000000 0.000000 0.000000 0.000000 0.075109
#
#
# Mechanical properties :
#
#
# Convention : Reuss Voigt Hill
#
# Bulk Modulus (GPa) = 10.92986 20.31272 15.62129
# Shear Modulus (GPa) = 11.09678 14.44563 12.77120
#
# Velocity S-wave (km/s) = 2.48194 2.83179 2.66262
# Velocity P-wave (km/s) = 3.77899 4.68701 4.25727
#
# Compressibility (1/GPa) = 0.09149252
#
# Stress axis : x y z
#
# Youngs Moduli (GPa) = 31.42602 71.65513 10.79148
#
# Poissons Ratio (x) = 0.26374 0.11387
# Poissons Ratio (y) = 0.11567 0.09974
# Poissons Ratio (z) = 0.33160 0.66227
#
# Static dielectric constant tensor:
#      x y z
#    x 1.611040 0.000000 0.000000 
#    y 0.000000 1.655660 0.000000 
#    z 0.000000 0.000000 1.675350 
# 
# From -- ./inp_files/9505.got.cif
#   From: 2010.05.17/outbox.cif.g08.bks.cpg/sg35_5_cif.got.tgz:9505.got - 2010.06.03 17:29:28.
