data_PCOD9350779
_publ_section_title
;
Structure prediction by ZEFSAII (Michael W. Deem and Ramdas Pophale) SiO2 
 PCOD9350779
Probable space group: C M C 21
;
_chemical_formula_sum "Si O2"
_cell_formula_units_Z 44
_cell_length_a 13.674612
_cell_length_b 8.967786
_cell_length_c 14.680923
_cell_angle_alpha 90.000000
_cell_angle_beta 90.000000
_cell_angle_gamma 90.000000
_cell_volume 1800.336181
_symmetry_space_group_name_H-M "C M C 21"
_symmetry_group_IT_number 36
_symmetry_cell_setting 'orthorhombic'
loop_
_space_group_symop_operation_xyz
x,y,z
-x,-y,1/2+z
x,-y,1/2+z
-x,y,z
1/2+x,1/2+y,z
1/2-x,1/2-y,1/2+z
1/2+x,1/2-y,1/2+z
1/2-x,1/2+y,z
loop_
_atom_site_type_symbol
_atom_site_label
_atom_site_fract_x
_atom_site_fract_y
_atom_site_fract_z
Si Si1 0.500000 0.507108 0.741930
Si Si2 0.297883 0.790332 0.371836
Si Si3 0.834070 0.209237 0.169754
Si Si4 0.500000 0.264887 0.096202
Si Si5 0.000000 0.111472 0.419321
Si Si6 0.616130 0.102866 0.359870
Si Si7 0.650822 0.037148 0.141802
O O1 0.587381 0.404398 0.708209
O O2 0.500000 0.663998 0.694890
O O3 0.500000 0.524434 0.850125
O O4 0.287962 0.780082 0.261535
O O5 0.396927 0.696580 0.396683
O O6 0.189198 0.732538 0.396366
O O7 0.327635 0.956589 0.397404
O O8 0.758894 0.097464 0.123378
O O9 0.866142 0.362516 0.121058
O O10 0.588559 0.153591 0.084762
O O11 0.500000 0.401836 0.026877
O O12 0.500000 0.108753 0.382092
O O13 0.623319 0.071995 0.248871
#
# Coordination Sequence:
#
# PCOD9350779 Si02
#       7
#     4   8   8   4   4   8   8
#     4  10  21  39  65  92 130 178 226 280 343 411
#     4   9  19  36  62  90 129 170 208 281 334 394
#     4   9  18  34  62  91 124 166 213 269 335 408
#     4  12  23  37  65  94 130 182 224 286 349 407
#     4  10  22  42  62  94 136 182 234 288 356 416
#     4  10  18  35  61  94 127 162 220 265 331 409
#     4  10  19  34  59  96 125 163 218 273 336 412
#
# _framework density 24.439881
#
# number of rings (size 3 to 8) (size 9 to 14) (size 15 to 20)
#    0.000    2.182    1.818    1.636    2.545    4.364 
#    1.636    3.636    0.000   15.273    0.000    0.000 
#    0.000    0.000    0.000    0.000    0.000    0.000 
#
# Total GULP energy -122592.108559 kJ/mol
# GULP energy per Si atom -5572.368571 kJ/mol
# Density = 2.438426 g / cm^3
# Si number density = 24.439881 Si / 1000 Ang^3
#
#
#
# Elastic Constant Matrix: (Units=GPa)
#
#
# Indices 1 2 3 4 5 6 
#
# 1 162.8078 37.3823 -13.2199 0.0000 0.0000 0.0000
# 2 37.3823 109.6776 3.0561 0.0000 0.0000 0.0000
# 3 -13.2199 3.0561 46.8866 0.0000 0.0000 0.0000
# 4 0.0000 0.0000 0.0000 16.3472 0.0000 0.0000
# 5 0.0000 0.0000 0.0000 0.0000 0.1649 0.0000
# 6 0.0000 0.0000 0.0000 0.0000 0.0000 38.0250
#
#
#
# Elastic Compliance Matrix: (Units=1/GPa)
#
#
# Indices 1 2 3 4 5 6 
#
# 1 0.006862 -0.002397 0.002091 0.000000 0.000000 0.000000
# 2 -0.002397 0.009972 -0.001326 0.000000 0.000000 0.000000
# 3 0.002091 -0.001326 0.022004 0.000000 0.000000 0.000000
# 4 0.000000 0.000000 0.000000 0.061173 0.000000 0.000000
# 5 0.000000 0.000000 0.000000 0.000000 6.062698 0.000000
# 6 0.000000 0.000000 0.000000 0.000000 0.000000 0.026298
#
#
# Mechanical properties :
#
#
# Convention : Reuss Voigt Hill
#
# Bulk Modulus (GPa) = 28.11026 41.53434 34.82230
# Shear Modulus (GPa) = 0.80591 30.38433 15.59512
#
# Velocity S-wave (km/s) = 0.57487 3.52977 2.52881
# Velocity P-wave (km/s) = 3.45939 5.80032 4.77552
#
# Compressibility (1/GPa) = 0.03557420
#
# Stress axis : x y z
#
# Youngs Moduli (GPa) = 145.72067 100.28430 45.44615
#
# Poissons Ratio (x) = 0.24041 -0.09503
# Poissons Ratio (y) = 0.34933 0.06026
# Poissons Ratio (z) = -0.30472 0.13297
#
# Static dielectric constant tensor:
#      x y z
#    x 1.894340 0.000000 0.000000 
#    y 0.000000 1.910570 0.000000 
#    z 0.000000 0.000000 2.018590 
# 
# From -- ./inp_files/14568.got.cif
#   From: 2010.05.17/outbox.cif.g08.bks.cpg/sg36_8_cif.got.tgz:14568.got - 2010.06.03 17:41:39.
