data_PCOD9350814
_publ_section_title
;
Structure prediction by ZEFSAII (Michael W. Deem and Ramdas Pophale) SiO2 
 PCOD9350814
Probable space group: C M C 21
;
_chemical_formula_sum "Si O2"
_cell_formula_units_Z 56
_cell_length_a 19.967359
_cell_length_b 13.910039
_cell_length_c 7.161336
_cell_angle_alpha 90.000000
_cell_angle_beta 90.000000
_cell_angle_gamma 90.000000
_cell_volume 1989.037745
_symmetry_space_group_name_H-M "C M C 21"
_symmetry_group_IT_number 36
_symmetry_cell_setting 'orthorhombic'
loop_
_space_group_symop_operation_xyz
x,y,z
-x,-y,1/2+z
x,-y,1/2+z
-x,y,z
1/2+x,1/2+y,z
1/2-x,1/2-y,1/2+z
1/2+x,1/2-y,1/2+z
1/2-x,1/2+y,z
loop_
_atom_site_type_symbol
_atom_site_label
_atom_site_fract_x
_atom_site_fract_y
_atom_site_fract_z
Si Si1 0.927319 0.679795 0.984720
Si Si2 0.927849 0.819609 0.546846
Si Si3 0.713598 0.798066 0.492765
Si Si4 0.072752 0.602662 0.398243
Si Si5 0.182374 0.058945 0.107814
Si Si6 0.425649 0.398304 0.130777
Si Si7 0.214042 0.613197 0.377754
O O1 0.854622 0.671705 0.886163
O O2 0.000000 0.663340 0.888446
O O3 0.929720 0.615763 0.173433
O O4 0.925658 0.791328 0.047659
O O5 0.924211 0.709213 0.488068
O O6 0.870567 0.860598 0.676226
O O7 0.921716 0.879082 0.353663
O O8 0.000000 0.837578 0.631813
O O9 0.773826 0.873921 0.467636
O O10 0.743302 0.690381 0.493498
O O11 0.693050 0.816232 0.707927
O O12 0.146564 0.563063 0.449596
O O13 0.000000 0.560569 0.452177
O O14 0.236070 0.041303 0.271875
O O15 0.135441 0.967301 0.074742
O O16 0.500000 0.439828 0.090359
#
# Coordination Sequence:
#
# PCOD9350814 Si02
#       7
#     8   8   8   8   8   8   8
#     4   8  15  28  47  68  94 132 168 197 238 301
#     4   9  16  28  46  65  96 137 167 196 243 303
#     4   9  18  30  49  68  98 129 166 213 253 294
#     4   8  12  24  44  64  85 119 164 196 229 284
#     4  10  19  28  46  69 100 126 169 209 250 291
#     4   9  18  31  47  70 102 139 170 198 246 312
#     4   9  17  29  44  68  93 126 160 207 252 291
#
# _framework density 28.154318
#
# number of rings (size 3 to 8) (size 9 to 14) (size 15 to 20)
#    0.857    2.286    1.429    2.143    0.000    1.143 
#    0.000    2.857    0.000    0.000    0.000    0.000 
#    0.000   16.000    0.000    0.000    0.000    0.000 
#
# Total GULP energy -156215.752073 kJ/mol
# GULP energy per Si atom -5579.134003 kJ/mol
# Density = 2.809024 g / cm^3
# Si number density = 28.154318 Si / 1000 Ang^3
#
#
#
# Elastic Constant Matrix: (Units=GPa)
#
#
# Indices 1 2 3 4 5 6 
#
# 1 295.1716 58.4069 10.7036 0.0000 0.0000 0.0000
# 2 58.4069 125.0861 18.6765 0.0000 0.0000 0.0000
# 3 10.7036 18.6765 54.3635 0.0000 0.0000 0.0000
# 4 0.0000 0.0000 0.0000 8.1889 0.0000 0.0000
# 5 0.0000 0.0000 0.0000 0.0000 18.7284 0.0000
# 6 0.0000 0.0000 0.0000 0.0000 0.0000 40.6243
#
#
#
# Elastic Compliance Matrix: (Units=1/GPa)
#
#
# Indices 1 2 3 4 5 6 
#
# 1 0.003734 -0.001722 -0.000144 0.000000 0.000000 0.000000
# 2 -0.001722 0.009221 -0.002829 0.000000 0.000000 0.000000
# 3 -0.000144 -0.002829 0.019395 0.000000 0.000000 0.000000
# 4 0.000000 0.000000 0.000000 0.122116 0.000000 0.000000
# 5 0.000000 0.000000 0.000000 0.000000 0.053395 0.000000
# 6 0.000000 0.000000 0.000000 0.000000 0.000000 0.024616
#
#
# Mechanical properties :
#
#
# Convention : Reuss Voigt Hill
#
# Bulk Modulus (GPa) = 43.55247 72.24392 57.89820
# Shear Modulus (GPa) = 20.03858 39.29728 29.66793
#
# Velocity S-wave (km/s) = 2.67074 3.74007 3.24969
# Velocity P-wave (km/s) = 5.00133 6.66082 5.88981
#
# Compressibility (1/GPa) = 0.02296081
#
# Stress axis : x y z
#
# Youngs Moduli (GPa) = 267.82316 108.44906 51.56028
#
# Poissons Ratio (x) = 0.18675 0.00740
# Poissons Ratio (y) = 0.46119 0.14585
# Poissons Ratio (z) = 0.03845 0.30678
#
# Static dielectric constant tensor:
#      x y z
#    x 2.369700 0.000000 0.000000 
#    y 0.000000 2.153770 0.000000 
#    z 0.000000 0.000000 2.205490 
# 
# From -- ./inp_files/9045.got.cif
#   From: 2010.05.17/outbox.cif.g08.bks.cpg/sg36_5_cif.got.tgz:9045.got - 2010.06.03 17:41:39.
