data_PCOD9350970
_publ_section_title
;
Structure prediction by ZEFSAII (Michael W. Deem and Ramdas Pophale) SiO2 
 PCOD9350970
Probable space group: C M C 21
;
_chemical_formula_sum "Si O2"
_cell_formula_units_Z 64
_cell_length_a 17.944082
_cell_length_b 8.207021
_cell_length_c 21.349889
_cell_angle_alpha 90.000000
_cell_angle_beta 90.000000
_cell_angle_gamma 90.000000
_cell_volume 3144.143877
_symmetry_space_group_name_H-M "C M C 21"
_symmetry_group_IT_number 36
_symmetry_cell_setting 'orthorhombic'
loop_
_space_group_symop_operation_xyz
x,y,z
-x,-y,1/2+z
x,-y,1/2+z
-x,y,z
1/2+x,1/2+y,z
1/2-x,1/2-y,1/2+z
1/2+x,1/2-y,1/2+z
1/2-x,1/2+y,z
loop_
_atom_site_type_symbol
_atom_site_label
_atom_site_fract_x
_atom_site_fract_y
_atom_site_fract_z
Si Si1 0.857021 0.821244 0.587920
Si Si2 0.141138 0.190641 0.225741
Si Si3 0.081918 0.676790 0.987881
Si Si4 0.690488 0.855746 0.854695
Si Si5 0.194715 0.816562 0.226892
Si Si6 0.306527 0.694619 0.589570
Si Si7 0.856660 0.266119 0.357776
Si Si8 0.418404 0.790647 0.960550
O O1 0.892558 0.786602 0.656415
O O2 0.781782 0.714787 0.580792
O O3 0.905930 0.795723 0.526778
O O4 0.828079 0.005891 0.588619
O O5 0.215459 0.302902 0.227419
O O6 0.102791 0.227781 0.292000
O O7 0.168768 0.003068 0.229206
O O8 0.097311 0.759969 0.920850
O O9 0.082220 0.483469 0.975784
O O10 0.000000 0.724369 0.011900
O O11 0.146770 0.718311 0.036079
O O12 0.668351 0.779773 0.787783
O O13 0.779397 0.834872 0.860989
O O14 0.647110 0.764097 0.910536
O O15 0.667977 0.044354 0.857143
O O16 0.173211 0.742883 0.159421
O O17 0.500000 0.749449 0.934295
#
# Coordination Sequence:
#
# PCOD9350970 Si02
#       8
#     8   8   8   8   8   8   8   8
#     4  10  20  34  55  81 106 135 172 213 257 307
#     4   9  17  30  50  77 105 130 163 208 255 303
#     4  10  22  38  53  73 104 140 177 216 257 304
#     4  10  19  32  53  78 103 132 169 211 255 305
#     4   9  17  30  50  77 105 130 163 208 255 303
#     4  10  20  34  55  81 106 135 172 213 257 307
#     4  10  19  32  53  78 103 132 169 211 255 305
#     4  10  22  38  53  73 104 140 177 216 257 304
#
# _framework density 20.355302999999999
#
# number of rings (size 3 to 8) (size 9 to 14) (size 15 to 20)
#    0.000    2.250    0.000    4.500    0.000    7.500 
#    0.000    1.250    0.000    4.500    0.000    0.000 
#    0.000    0.000    0.000    0.000    0.000    0.000 
#
# Total GULP energy -178542.471602 kJ/mol
# GULP energy per Si atom -5579.452238 kJ/mol
# Density = 2.030897 g / cm^3
# Si number density = 20.355303 Si / 1000 Ang^3
#
#
#
# Elastic Constant Matrix: (Units=GPa)
#
#
# Indices 1 2 3 4 5 6 
#
# 1 32.2770 -4.3719 15.8126 0.0000 0.0000 0.0000
# 2 -4.3719 22.4800 -4.7109 0.0000 0.0000 0.0000
# 3 15.8126 -4.7109 108.6794 0.0000 0.0000 0.0000
# 4 0.0000 0.0000 0.0000 30.5611 0.0000 0.0000
# 5 0.0000 0.0000 0.0000 0.0000 -4.7748 0.0000
# 6 0.0000 0.0000 0.0000 0.0000 0.0000 8.6200
#
#
#
# Elastic Compliance Matrix: (Units=1/GPa)
#
#
# Indices 1 2 3 4 5 6 
#
# 1 0.034053 0.005635 -0.004710 0.000000 0.000000 0.000000
# 2 0.005635 0.045824 0.001166 0.000000 0.000000 0.000000
# 3 -0.004710 0.001166 0.009937 0.000000 0.000000 0.000000
# 4 0.000000 0.000000 0.000000 0.032721 0.000000 0.000000
# 5 0.000000 0.000000 0.000000 0.000000 -0.209432 0.000000
# 6 0.000000 0.000000 0.000000 0.000000 0.000000 0.116010
#
#
# Mechanical properties :
#
#
# Convention : Reuss Voigt Hill
#
# Bulk Modulus (GPa) = 10.63858 19.65510 15.14684
# Shear Modulus (GPa) = 88.86922 17.32836 53.09879
#
# Velocity S-wave (km/s) = 6.61466 2.92086 5.11298
# Velocity P-wave (km/s) = 7.97347 4.58827 6.50494
#
# Compressibility (1/GPa) = 0.09399751
#
# Stress axis : x y z
#
# Youngs Moduli (GPa) = 29.36624 21.82245 100.63125
#
# Poissons Ratio (x) = -0.12298 0.47400
# Poissons Ratio (y) = -0.16549 -0.11738
# Poissons Ratio (z) = 0.13832 -0.02545
#
# Static dielectric constant tensor:
#      x y z
#    x 1.705960 0.000000 0.000000 
#    y 0.000000 1.724490 0.000000 
#    z 0.000000 0.000000 1.778140 
# 
# From -- ./inp_files/16245.got.cif
#   From: 2010.05.17/outbox.cif.g08.bks.cpg/sg36_9_cif.got.tgz:16245.got - 2010.06.03 17:41:39.
