data_PCOD9350456
_publ_section_title
;
Structure prediction by ZEFSAII (Michael W. Deem and Ramdas Pophale) SiO2 
 PCOD9350456
Probable space group: C M M 2
;
_chemical_formula_sum "Si O2"
_cell_formula_units_Z 58
_cell_length_a 7.833460
_cell_length_b 27.676172
_cell_length_c 14.881380
_cell_angle_alpha 90.000000
_cell_angle_beta 90.000000
_cell_angle_gamma 90.000000
_cell_volume 3226.285957
_symmetry_space_group_name_H-M "C M M 2"
_symmetry_group_IT_number 35
_symmetry_cell_setting 'orthorhombic'
loop_
_space_group_symop_operation_xyz
x,y,z
-x,-y,z
-x,y,z
x,-y,z
1/2+x,1/2+y,z
1/2-x,1/2-y,z
1/2-x,1/2+y,z
1/2+x,1/2-y,z
loop_
_atom_site_type_symbol
_atom_site_label
_atom_site_fract_x
_atom_site_fract_y
_atom_site_fract_z
Si Si1 0.797185 0.943793 0.191080
Si Si2 0.699775 0.053068 0.746141
Si Si3 0.191257 0.578057 0.002729
Si Si4 0.194712 0.144086 0.856010
Si Si5 0.205166 0.804245 0.683940
Si Si6 0.703006 0.397156 0.574276
Si Si7 0.296306 0.055348 0.391304
Si Si8 0.500000 0.500000 0.969977
O O1 0.710943 0.915624 0.109857
O O2 0.762225 0.928112 0.292657
O O3 0.000000 0.943872 0.175637
O O4 0.738944 0.000000 0.184341
O O5 0.500000 0.056304 0.769998
O O6 0.799806 0.095101 0.795864
O O7 0.716480 0.062992 0.640290
O O8 0.765538 0.000000 0.769281
O O9 0.000000 0.558952 0.984490
O O10 0.212480 0.627313 0.946029
O O11 0.346499 0.542165 0.975857
O O12 0.269901 0.182368 0.784548
O O13 0.000000 0.157086 0.877230
O O14 0.250000 0.750000 0.658520
O O15 0.263570 0.845315 0.613307
O O16 0.000000 0.808072 0.688640
O O17 0.500000 0.399392 0.586403
O O18 0.742121 0.410165 0.472176
O O19 0.500000 0.053172 0.390633
O O20 0.230833 0.000000 0.405050
#
# Coordination Sequence:
#
# PCOD9350456 Si02
#       8
#     8   8   8   8   8   8   8   2
#     4  10  18  32  48  70 101 141 182 221 256 296
#     4  10  20  30  43  65  95 131 169 204 243 299
#     4  12  22  34  52  74 105 147 189 225 262 307
#     4  10  21  36  49  73 104 133 168 215 261 313
#     4   9  20  37  58  77 100 128 166 215 271 326
#     4  10  20  34  48  70  97 129 165 209 260 312
#     4  10  20  31  47  72 103 139 178 215 250 299
#     4  12  22  36  48  74 108 150 186 228 264 294
#
# _framework density 17.977328
#
# number of rings (size 3 to 8) (size 9 to 14) (size 15 to 20)
#    0.000    1.793    2.069    3.517    0.966    7.448 
#    0.000    0.000    0.000    0.000    0.000    0.966 
#    0.000    0.000    0.000    0.000    0.000    0.000 
#
# Total GULP energy -161526.275415 kJ/mol
# GULP energy per Si atom -5569.871566 kJ/mol
# Density = 1.793641 g / cm^3
# Si number density = 17.977328 Si / 1000 Ang^3
#
#
#
# Elastic Constant Matrix: (Units=GPa)
#
#
# Indices 1 2 3 4 5 6 
#
# 1 79.9091 5.6188 10.6567 0.0000 0.0000 0.0000
# 2 5.6188 60.5219 31.8398 0.0000 0.0000 0.0000
# 3 10.6567 31.8398 141.6517 0.0000 0.0000 0.0000
# 4 0.0000 0.0000 0.0000 3.5741 0.0000 0.0000
# 5 0.0000 0.0000 0.0000 0.0000 -150.9817 0.0000
# 6 0.0000 0.0000 0.0000 0.0000 0.0000 15.5656
#
#
#
# Elastic Compliance Matrix: (Units=1/GPa)
#
#
# Indices 1 2 3 4 5 6 
#
# 1 0.012672 -0.000765 -0.000781 0.000000 0.000000 0.000000
# 2 -0.000765 0.018785 -0.004165 0.000000 0.000000 0.000000
# 3 -0.000781 -0.004165 0.008054 0.000000 0.000000 0.000000
# 4 0.000000 0.000000 0.000000 0.279794 0.000000 0.000000
# 5 0.000000 0.000000 0.000000 0.000000 -0.006623 0.000000
# 6 0.000000 0.000000 0.000000 0.000000 0.000000 0.064244
#
#
# Mechanical properties :
#
#
# Convention : Reuss Voigt Hill
#
# Bulk Modulus (GPa) = 35.60155 42.03479 38.81817
# Shear Modulus (GPa) = 12.57190 -10.77058 0.90066
#
# Velocity S-wave (km/s) = 2.64733 -2.45035 0.70858
# Velocity P-wave (km/s) = 5.40288 3.92776 4.72326
#
# Compressibility (1/GPa) = 0.02808867
#
# Stress axis : x y z
#
# Youngs Moduli (GPa) = 78.91266 53.23376 124.15423
#
# Poissons Ratio (x) = 0.04075 0.09700
# Poissons Ratio (y) = 0.06040 0.51708
# Poissons Ratio (z) = 0.06165 0.22171
#
# Static dielectric constant tensor:
#      x y z
#    x 1.672260 0.000000 0.000000 
#    y 0.000000 1.612520 0.000000 
#    z 0.000000 0.000000 1.675810 
# 
# From -- ./inp_files/16024.got.cif
#   From: 2010.05.17/outbox.cif.g08.bks.cpg/sg35_9_cif.got.tgz:16024.got - 2010.06.03 17:29:28.
