data_PCOD9350165
_publ_section_title
;
Structure prediction by ZEFSAII (Michael W. Deem and Ramdas Pophale) SiO2 
 PCOD9350165
Probable space group: C M M 2
;
_chemical_formula_sum "Si O2"
_cell_formula_units_Z 32
_cell_length_a 30.000000
_cell_length_b 9.000000
_cell_length_c 12.000000
_cell_angle_alpha 90.000000
_cell_angle_beta 90.000000
_cell_angle_gamma 90.000000
_cell_volume 3240.000000
_symmetry_space_group_name_H-M "C M M 2"
_symmetry_group_IT_number 35
_symmetry_cell_setting 'orthorhombic'
loop_
_space_group_symop_operation_xyz
x,y,z
-x,-y,z
-x,y,z
x,-y,z
1/2+x,1/2+y,z
1/2-x,1/2-y,z
1/2-x,1/2+y,z
1/2+x,1/2-y,z
loop_
_atom_site_type_symbol
_atom_site_label
_atom_site_fract_x
_atom_site_fract_y
_atom_site_fract_z
Si Si1 0.884715 0.177557 0.523190
Si Si2 0.175653 0.326991 0.209550
Si Si3 0.546239 0.319210 0.351200
Si Si4 0.295807 0.825076 0.957956
Si Si5 0.086355 0.823202 0.139158
Si Si6 0.389795 0.319553 0.898444
Si Si7 0.295744 0.176694 0.460110
Si Si8 0.447374 0.177993 0.704041
O O1 0.907931 0.223186 0.407682
O O2 0.837331 0.256196 0.527150
O O3 0.922290 0.235523 0.606114
O O4 0.879425 0.000000 0.531396
O O5 0.161488 0.500000 0.217627
O O6 0.133877 0.222506 0.187877
O O7 0.198090 0.288957 0.327408
O O8 0.202766 0.314922 0.093773
O O9 0.500000 0.265534 0.403378
O O10 0.545572 0.500000 0.356623
O O11 0.549449 0.268931 0.224162
O O12 0.250000 0.750000 0.919399
O O13 0.339183 0.740389 0.909943
O O14 0.297892 0.000000 0.929859
O O15 0.083328 0.000000 0.137280
O O16 0.086112 0.774438 0.013279
O O17 0.389535 0.500000 0.885109
O O18 0.418694 0.237365 0.806946
O O19 0.250000 0.250000 0.497789
O O20 0.294498 0.000000 0.471993
O O21 0.500000 0.213523 0.711747
O O22 0.443177 0.000000 0.691149
#
# Coordination Sequence:
#
# PCOD9350165 Si02
#       8
#     8   8   8   8   8   8   8   8
#     4  11  22  39  63  88 118 155 198 249 299 353
#     4   9  18  31  50  78 117 161 201 243 287 341
#     4   9  17  30  52  84 118 151 187 232 290 351
#     4  10  19  33  54  84 122 164 205 246 293 348
#     4   9  17  31  53  82 118 156 193 239 291 347
#     4  10  21  37  60  89 119 155 200 249 298 353
#     4  11  22  36  56  85 121 161 203 245 294 352
#     4  11  25  45  67  89 116 153 198 249 303 357
#
# _framework density 9.8765429999999999
#
# number of rings (size 3 to 8) (size 9 to 14) (size 15 to 20)
#    0.000    2.000    1.250    2.625    0.000    3.500 
#    0.000    1.875    0.000    1.125    0.000    0.000 
#    0.000    0.000    0.000    0.000    0.000    0.000 
#
# Total GULP energy -178245.660950 kJ/mol
# GULP energy per Si atom -5570.176905 kJ/mol
# Density = 0.985406 g / cm^3
# Si number density = 9.876543 Si / 1000 Ang^3
#
#
#
# Elastic Constant Matrix: (Units=GPa)
#
#
# Indices 1 2 3 4 5 6 
#
# 1 91.9681 26.4247 8.5303 0.0000 0.0000 0.0000
# 2 26.4247 35.0411 13.3858 0.0000 0.0000 0.0000
# 3 8.5303 13.3858 29.0710 0.0000 0.0000 0.0000
# 4 0.0000 0.0000 0.0000 19.5502 0.0000 0.0000
# 5 0.0000 0.0000 0.0000 0.0000 2.7620 0.0000
# 6 0.0000 0.0000 0.0000 0.0000 0.0000 27.0482
#
#
#
# Elastic Compliance Matrix: (Units=1/GPa)
#
#
# Indices 1 2 3 4 5 6 
#
# 1 0.013901 -0.010829 0.000907 0.000000 0.000000 0.000000
# 2 -0.010829 0.043065 -0.016652 0.000000 0.000000 0.000000
# 3 0.000907 -0.016652 0.041800 0.000000 0.000000 0.000000
# 4 0.000000 0.000000 0.000000 0.051150 0.000000 0.000000
# 5 0.000000 0.000000 0.000000 0.000000 0.362056 0.000000
# 6 0.000000 0.000000 0.000000 0.000000 0.000000 0.036971
#
#
# Mechanical properties :
#
#
# Convention : Reuss Voigt Hill
#
# Bulk Modulus (GPa) = 21.92098 28.08464 25.00281
# Shear Modulus (GPa) = 8.09983 17.05470 12.57727
#
# Velocity S-wave (km/s) = 2.02718 2.94155 2.52608
# Velocity P-wave (km/s) = 4.07441 5.07796 4.60361
#
# Compressibility (1/GPa) = 0.04561840
#
# Stress axis : x y z
#
# Youngs Moduli (GPa) = 71.93897 23.22051 23.92361
#
# Poissons Ratio (x) = 0.25146 -0.02171
# Poissons Ratio (y) = 0.77904 0.39837
# Poissons Ratio (z) = -0.06528 0.38667
#
# Static dielectric constant tensor:
#      x y z
#    x 1.691030 0.000000 0.000000 
#    y 0.000000 1.649030 0.000000 
#    z 0.000000 0.000000 1.863560 
# 
# From -- ./inp_files/14534.got.cif
#   From: 2010.05.17/outbox.ucp.g08.bks.cvg/sg35_8_cif.got.tgz:14534.got - 2010.06.11 10:36:28.
