data_PCOD9350520
_publ_section_title
;
Structure prediction by ZEFSAII (Michael W. Deem and Ramdas Pophale) SiO2 
 PCOD9350520
Probable space group: C M C 21
;
_chemical_formula_sum "Si O2"
_cell_formula_units_Z 64
_cell_length_a 17.395400
_cell_length_b 17.396098
_cell_length_c 12.050658
_cell_angle_alpha 90.000000
_cell_angle_beta 90.000000
_cell_angle_gamma 90.000000
_cell_volume 3646.674721
_symmetry_space_group_name_H-M "C M C 21"
_symmetry_group_IT_number 36
_symmetry_cell_setting 'orthorhombic'
loop_
_space_group_symop_operation_xyz
x,y,z
-x,-y,1/2+z
x,-y,1/2+z
-x,y,z
1/2+x,1/2+y,z
1/2-x,1/2-y,1/2+z
1/2+x,1/2-y,1/2+z
1/2-x,1/2+y,z
loop_
_atom_site_type_symbol
_atom_site_label
_atom_site_fract_x
_atom_site_fract_y
_atom_site_fract_z
Si Si1 0.281963 0.523202 0.518280
Si Si2 0.339483 0.276036 0.446478
Si Si3 0.910843 0.699708 0.827440
Si Si4 0.089764 0.908375 0.599024
Si Si5 0.663598 0.641383 0.329828
Si Si6 0.296834 0.160397 0.627229
Si Si7 0.185299 0.628602 0.997766
Si Si8 0.686131 0.215604 0.220556
O O1 0.355747 0.478859 0.565832
O O2 0.314029 0.577589 0.419913
O O3 0.235845 0.576519 0.604547
O O4 0.222358 0.455425 0.488064
O O5 0.390386 0.336978 0.516125
O O6 0.332153 0.198280 0.517077
O O7 0.254585 0.316337 0.450257
O O8 0.362917 0.251755 0.321833
O O9 0.882863 0.783607 0.870391
O O10 0.859061 0.674498 0.722917
O O11 0.888832 0.640171 0.922866
O O12 0.000000 0.702303 0.799393
O O13 0.115148 0.887223 0.723861
O O14 0.000000 0.925476 0.593102
O O15 0.743794 0.672617 0.281747
O O16 0.223380 0.211916 0.658599
O O17 0.164036 0.657121 0.122019
#
# Coordination Sequence:
#
# PCOD9350520 Si02
#       8
#     8   8   8   8   8   8   8   8
#     4  11  23  35  58  90 121 156 199 243 303 369
#     4  10  17  36  58  84 109 150 204 243 276 341
#     4  11  22  38  62  85 112 152 199 248 299 353
#     4  11  24  38  55  87 130 163 190 242 310 370
#     4  11  19  36  60  84 117 153 198 247 294 355
#     4  10  19  33  59  85 108 145 202 247 279 342
#     4  10  20  35  55  86 117 150 192 246 296 357
#     4  10  17  35  59  85 109 149 206 250 280 335
#
# _framework density 17.550236000000002
#
# number of rings (size 3 to 8) (size 9 to 14) (size 15 to 20)
#    0.000    1.500    8.750    1.125    1.750    1.000 
#    0.000    1.250    0.000    0.000    0.000    0.000 
#    0.000    0.000    0.000    0.000    0.000    0.000 
#
# Total GULP energy -178237.456551 kJ/mol
# GULP energy per Si atom -5569.920517 kJ/mol
# Density = 1.751029 g / cm^3
# Si number density = 17.550236 Si / 1000 Ang^3
#
#
#
# Elastic Constant Matrix: (Units=GPa)
#
#
# Indices 1 2 3 4 5 6 
#
# 1 45.1875 45.4380 27.2834 0.0000 0.0000 0.0000
# 2 45.4380 103.2258 39.8693 0.0000 0.0000 0.0000
# 3 27.2834 39.8693 82.2482 0.0000 0.0000 0.0000
# 4 0.0000 0.0000 0.0000 30.3276 0.0000 0.0000
# 5 0.0000 0.0000 0.0000 0.0000 12.2354 0.0000
# 6 0.0000 0.0000 0.0000 0.0000 0.0000 11.1072
#
#
#
# Elastic Compliance Matrix: (Units=1/GPa)
#
#
# Indices 1 2 3 4 5 6 
#
# 1 0.042071 -0.016153 -0.006126 0.000000 0.000000 0.000000
# 2 -0.016153 0.018121 -0.003426 0.000000 0.000000 0.000000
# 3 -0.006126 -0.003426 0.015851 0.000000 0.000000 0.000000
# 4 0.000000 0.000000 0.000000 0.032973 0.000000 0.000000
# 5 0.000000 0.000000 0.000000 0.000000 0.081730 0.000000
# 6 0.000000 0.000000 0.000000 0.000000 0.000000 0.090032
#
#
# Mechanical properties :
#
#
# Convention : Reuss Voigt Hill
#
# Bulk Modulus (GPa) = 40.59425 50.64921 45.62173
# Shear Modulus (GPa) = 14.68868 18.60543 16.64705
#
# Velocity S-wave (km/s) = 2.89615 3.25949 3.08317
# Velocity P-wave (km/s) = 5.86209 6.56414 6.22302
#
# Compressibility (1/GPa) = 0.02463403
#
# Stress axis : x y z
#
# Youngs Moduli (GPa) = 23.76927 55.18515 63.08758
#
# Poissons Ratio (x) = 0.89140 0.38647
# Poissons Ratio (y) = 0.38394 0.21612
# Poissons Ratio (z) = 0.14561 0.18905
#
# Static dielectric constant tensor:
#      x y z
#    x 1.586720 0.000000 0.000000 
#    y 0.000000 1.624450 0.000000 
#    z 0.000000 0.000000 1.668600 
# 
# From -- ./inp_files/9060.got.cif
#   From: 2010.05.17/outbox.cif.g08.bks.cpg/sg36_5_cif.got.tgz:9060.got - 2010.06.03 17:41:39.
