data_PCOD9350855
_publ_section_title
;
Structure prediction by ZEFSAII (Michael W. Deem and Ramdas Pophale) SiO2 
 PCOD9350855
Probable space group: C M C 21
;
_chemical_formula_sum "Si O2"
_cell_formula_units_Z 52
_cell_length_a 21.776455
_cell_length_b 21.105788
_cell_length_c 5.408167
_cell_angle_alpha 90.000000
_cell_angle_beta 90.000000
_cell_angle_gamma 90.000000
_cell_volume 2485.643539
_symmetry_space_group_name_H-M "C M C 21"
_symmetry_group_IT_number 36
_symmetry_cell_setting 'orthorhombic'
loop_
_space_group_symop_operation_xyz
x,y,z
-x,-y,1/2+z
x,-y,1/2+z
-x,y,z
1/2+x,1/2+y,z
1/2-x,1/2-y,1/2+z
1/2+x,1/2-y,1/2+z
1/2-x,1/2+y,z
loop_
_atom_site_type_symbol
_atom_site_label
_atom_site_fract_x
_atom_site_fract_y
_atom_site_fract_z
Si Si1 0.363139 0.846161 0.570010
Si Si2 0.874189 0.037670 0.120737
Si Si3 0.927291 0.315316 0.069585
Si Si4 0.267715 0.959914 0.567762
Si Si5 0.500000 0.458110 0.495855
Si Si6 0.793274 0.210766 0.568164
Si Si7 0.829780 0.787808 0.567567
O O1 0.402416 0.848589 0.318500
O O2 0.311420 0.899317 0.573927
O O3 0.329914 0.777466 0.569631
O O4 0.403524 0.848343 0.818577
O O5 0.804266 0.943192 0.578484
O O6 0.880143 0.982457 0.908338
O O7 0.935349 0.077520 0.048208
O O8 0.895050 0.245919 0.067978
O O9 0.000000 0.311180 0.072476
O O10 0.279404 0.997761 0.312576
O O11 0.500000 0.511964 0.718183
O O12 0.814732 0.177353 0.320841
O O13 0.721810 0.230006 0.567903
O O14 0.813850 0.177046 0.815936
#
# Coordination Sequence:
#
# PCOD9350855 Si02
#       7
#     8   8   8   8   4   8   8
#     4  10  19  31  48  67  90 120 153 195 236 270
#     4   8  14  23  37  57  79 102 132 172 215 260
#     4  10  19  31  48  69  92 118 151 189 233 279
#     4  10  19  31  46  64  87 117 158 202 242 273
#     4   8  12  20  34  54  78  98 120 156 206 254
#     4   8  14  25  42  65  88 109 135 170 213 264
#     4   8  14  25  42  65  90 109 133 168 212 266
#
# _framework density 20.920134999999998
#
# number of rings (size 3 to 8) (size 9 to 14) (size 15 to 20)
#    0.000    3.077    0.000    1.385    0.000    0.000 
#    0.000    0.000    0.000    9.231    2.000    0.000 
#    0.000    0.000    4.000    0.000    0.000    0.000 
#
# Total GULP energy -144918.328692 kJ/mol
# GULP energy per Si atom -5573.781873 kJ/mol
# Density = 2.087252 g / cm^3
# Si number density = 20.920135 Si / 1000 Ang^3
#
#
#
# Elastic Constant Matrix: (Units=GPa)
#
#
# Indices 1 2 3 4 5 6 
#
# 1 159.5736 15.5867 46.9330 0.0000 0.0000 0.0000
# 2 15.5867 47.3828 27.6711 0.0000 0.0000 0.0000
# 3 46.9330 27.6711 207.9484 0.0000 0.0000 0.0000
# 4 0.0000 0.0000 0.0000 13.5416 0.0000 0.0000
# 5 0.0000 0.0000 0.0000 0.0000 28.4161 0.0000
# 6 0.0000 0.0000 0.0000 0.0000 0.0000 14.3606
#
#
#
# Elastic Compliance Matrix: (Units=1/GPa)
#
#
# Indices 1 2 3 4 5 6 
#
# 1 0.006803 -0.001454 -0.001342 0.000000 0.000000 0.000000
# 2 -0.001454 0.023194 -0.002758 0.000000 0.000000 0.000000
# 3 -0.001342 -0.002758 0.005479 0.000000 0.000000 0.000000
# 4 0.000000 0.000000 0.000000 0.073847 0.000000 0.000000
# 5 0.000000 0.000000 0.000000 0.000000 0.035191 0.000000
# 6 0.000000 0.000000 0.000000 0.000000 0.000000 0.069635
#
#
# Mechanical properties :
#
#
# Convention : Reuss Voigt Hill
#
# Bulk Modulus (GPa) = 41.03873 66.14295 53.59084
# Shear Modulus (GPa) = 21.42427 32.91125 27.16776
#
# Velocity S-wave (km/s) = 3.20362 3.97064 3.60758
# Velocity P-wave (km/s) = 5.77440 7.25995 6.55937
#
# Compressibility (1/GPa) = 0.02436722
#
# Stress axis : x y z
#
# Youngs Moduli (GPa) = 146.98425 43.11498 182.52237
#
# Poissons Ratio (x) = 0.06270 0.24494
# Poissons Ratio (y) = 0.21376 0.50342
# Poissons Ratio (z) = 0.19725 0.11892
#
# Static dielectric constant tensor:
#      x y z
#    x 1.762900 0.000000 0.000000 
#    y 0.000000 1.724370 0.000000 
#    z 0.000000 0.000000 1.869430 
# 
# From -- ./inp_files/1173.got.cif
#   From: 2010.05.17/outbox.cif.g08.bks.cpg/sg36_1_cif.got.tgz:1173.got - 2010.06.03 17:41:39.
