data_PCOD9350377
_publ_section_title
;
Structure prediction by ZEFSAII (Michael W. Deem and Ramdas Pophale) SiO2 
 PCOD9350377
Probable space group: C M M 2
;
_chemical_formula_sum "Si O2"
_cell_formula_units_Z 48
_cell_length_a 17.660927
_cell_length_b 20.409257
_cell_length_c 7.670162
_cell_angle_alpha 90.000000
_cell_angle_beta 90.000000
_cell_angle_gamma 90.000000
_cell_volume 2764.682265
_symmetry_space_group_name_H-M "C M M 2"
_symmetry_group_IT_number 35
_symmetry_cell_setting 'orthorhombic'
loop_
_space_group_symop_operation_xyz
x,y,z
-x,-y,z
-x,y,z
x,-y,z
1/2+x,1/2+y,z
1/2-x,1/2-y,z
1/2-x,1/2+y,z
1/2+x,1/2-y,z
loop_
_atom_site_type_symbol
_atom_site_label
_atom_site_fract_x
_atom_site_fract_y
_atom_site_fract_z
Si Si1 0.414208 0.763462 0.865470
Si Si2 0.234796 0.324494 0.336899
Si Si3 0.292359 0.320883 0.707423
Si Si4 0.588462 0.000000 0.493647
Si Si5 0.187562 0.373504 0.995831
Si Si6 0.085882 0.643082 0.529068
Si Si7 0.089656 0.500000 0.071673
O O1 0.500000 0.752159 0.926208
O O2 0.371907 0.698360 0.796144
O O3 0.417476 0.812603 0.699423
O O4 0.362761 0.806483 0.995324
O O5 0.250000 0.250000 0.284127
O O6 0.287131 0.341222 0.504851
O O7 0.237952 0.371270 0.170771
O O8 0.148210 0.327412 0.403346
O O9 0.250000 0.250000 0.707579
O O10 0.242840 0.367630 0.830343
O O11 0.615437 0.930586 0.564617
O O12 0.596601 0.000000 0.283467
O O13 0.500000 0.000000 0.537928
O O14 0.131753 0.435300 0.001970
O O15 0.000000 0.638815 0.456078
O O16 0.000000 0.500000 0.029056
#
# Coordination Sequence:
#
# PCOD9350377 Si02
#       7
#     8   8   8   4   8   8   4
#     4  10  19  34  53  75 104 135 171 220 261 302
#     4  11  18  32  51  69  96 136 172 210 259 301
#     4   9  18  35  49  72 100 129 172 216 257 303
#     4   9  18  31  45  71 106 139 173 203 235 295
#     4  11  21  33  51  72 103 141 172 205 254 305
#     4  10  18  30  49  70 100 138 170 203 249 296
#     4  11  22  33  47  73 107 141 177 207 232 297
#
# _framework density 17.361848999999999
#
# number of rings (size 3 to 8) (size 9 to 14) (size 15 to 20)
#    0.000    1.833    6.667    2.000    0.000    1.333 
#    0.000    2.500    0.000    1.000    0.000    0.583 
#    0.000    0.000    0.000    0.917    0.000    0.000 
#
# Total GULP energy -133710.001426 kJ/mol
# GULP energy per Si atom -5571.250059 kJ/mol
# Density = 1.732233 g / cm^3
# Si number density = 17.361849 Si / 1000 Ang^3
#
#
#
# Elastic Constant Matrix: (Units=GPa)
#
#
# Indices 1 2 3 4 5 6 
#
# 1 71.4750 42.6232 16.1168 0.0000 0.0000 0.0000
# 2 42.6232 72.5880 28.5064 0.0000 0.0000 0.0000
# 3 16.1168 28.5064 74.7045 0.0000 0.0000 0.0000
# 4 0.0000 0.0000 0.0000 15.7133 0.0000 0.0000
# 5 0.0000 0.0000 0.0000 0.0000 -6.7891 0.0000
# 6 0.0000 0.0000 0.0000 0.0000 0.0000 31.6601
#
#
#
# Elastic Compliance Matrix: (Units=1/GPa)
#
#
# Indices 1 2 3 4 5 6 
#
# 1 0.021533 -0.012727 0.000211 0.000000 0.000000 0.000000
# 2 -0.012727 0.023727 -0.006308 0.000000 0.000000 0.000000
# 3 0.000211 -0.006308 0.015748 0.000000 0.000000 0.000000
# 4 0.000000 0.000000 0.000000 0.063640 0.000000 0.000000
# 5 0.000000 0.000000 0.000000 0.000000 -0.147295 0.000000
# 6 0.000000 0.000000 0.000000 0.000000 0.000000 0.031586
#
#
# Mechanical properties :
#
#
# Convention : Reuss Voigt Hill
#
# Bulk Modulus (GPa) = 42.80973 43.69558 43.25265
# Shear Modulus (GPa) = 91.95853 16.88494 54.42174
#
# Velocity S-wave (km/s) = 7.28566 3.12193 5.60479
# Velocity P-wave (km/s) = 9.77166 6.18203 8.17627
#
# Compressibility (1/GPa) = 0.02335918
#
# Stress axis : x y z
#
# Youngs Moduli (GPa) = 46.44093 42.14661 63.50128
#
# Poissons Ratio (x) = 0.53639 -0.01339
# Poissons Ratio (y) = 0.59104 0.40058
# Poissons Ratio (z) = -0.00979 0.26587
#
# Static dielectric constant tensor:
#      x y z
#    x 1.734940 0.000000 0.000000 
#    y 0.000000 1.619620 0.000000 
#    z 0.000000 0.000000 1.671750 
# 
# From -- ./inp_files/9354.got.cif
#   From: 2010.05.17/outbox.cif.g08.bks.cpg/sg35_5_cif.got.tgz:9354.got - 2010.06.03 17:29:28.
