data_PCOD9350669
_publ_section_title
;
Structure prediction by ZEFSAII (Michael W. Deem and Ramdas Pophale) SiO2 
 PCOD9350669
Probable space group: C M C 21
;
_chemical_formula_sum "Si O2"
_cell_formula_units_Z 36
_cell_length_a 8.328753
_cell_length_b 13.453116
_cell_length_c 13.007283
_cell_angle_alpha 90.000000
_cell_angle_beta 90.000000
_cell_angle_gamma 90.000000
_cell_volume 1457.435886
_symmetry_space_group_name_H-M "C M C 21"
_symmetry_group_IT_number 36
_symmetry_cell_setting 'orthorhombic'
loop_
_space_group_symop_operation_xyz
x,y,z
-x,-y,1/2+z
x,-y,1/2+z
-x,y,z
1/2+x,1/2+y,z
1/2-x,1/2-y,1/2+z
1/2+x,1/2-y,1/2+z
1/2-x,1/2+y,z
loop_
_atom_site_type_symbol
_atom_site_label
_atom_site_fract_x
_atom_site_fract_y
_atom_site_fract_z
Si Si1 0.168636 0.313186 0.616630
Si Si2 0.000000 0.166431 0.136030
Si Si3 0.313171 0.049356 0.572569
Si Si4 0.817093 0.815813 0.911378
Si Si5 0.500000 0.438364 0.200753
Si Si6 0.500000 0.700309 0.885985
O O1 0.334377 0.285698 0.669717
O O2 0.180034 0.431203 0.591872
O O3 0.163720 0.256458 0.509569
O O4 0.000000 0.294560 0.669827
O O5 0.000000 0.171637 0.009404
O O6 0.000000 0.055773 0.180078
O O7 0.500000 0.085115 0.584287
O O8 0.248661 0.080393 0.459700
O O9 0.169987 0.090310 0.646265
O O10 0.660346 0.764337 0.863065
O O11 0.000000 0.826131 0.870014
O O12 0.500000 0.397403 0.315418
#
# Coordination Sequence:
#
# PCOD9350669 Si02
#       6
#     8   4   8   8   4   4
#     4   8  16  28  48  78 102 138 184 216 274 340
#     4   8  16  32  52  76 106 146 184 234 290 336
#     4  10  18  32  54  82 106 149 190 233 287 345
#     4  10  18  32  54  82 106 149 190 233 287 345
#     4  10  20  34  56  85 115 151 198 244 293 351
#     4  10  20  34  56  85 115 151 198 244 293 351
#
# _framework density 24.700914999999998
#
# number of rings (size 3 to 8) (size 9 to 14) (size 15 to 20)
#    0.000    2.667    2.222    0.000    0.000    0.889 
#    0.000    0.000    0.000   24.000    0.000    0.000 
#    0.000    0.000    0.000    0.000    0.000    0.000 
#
# Total GULP energy -100362.102638 kJ/mol
# GULP energy per Si atom -5575.672369 kJ/mol
# Density = 2.464469 g / cm^3
# Si number density = 24.700915 Si / 1000 Ang^3
#
#
#
# Elastic Constant Matrix: (Units=GPa)
#
#
# Indices 1 2 3 4 5 6 
#
# 1 314.8886 51.2893 60.5113 0.0000 0.0000 0.0000
# 2 51.2893 45.7306 22.6210 0.0000 0.0000 0.0000
# 3 60.5113 22.6210 94.0151 0.0000 0.0000 0.0000
# 4 0.0000 0.0000 0.0000 26.1730 0.0000 0.0000
# 5 0.0000 0.0000 0.0000 0.0000 49.8267 0.0000
# 6 0.0000 0.0000 0.0000 0.0000 0.0000 42.4357
#
#
#
# Elastic Compliance Matrix: (Units=1/GPa)
#
#
# Indices 1 2 3 4 5 6 
#
# 1 0.004124 -0.003760 -0.001750 0.000000 0.000000 0.000000
# 2 -0.003760 0.028250 -0.004377 0.000000 0.000000 0.000000
# 3 -0.001750 -0.004377 0.012816 0.000000 0.000000 0.000000
# 4 0.000000 0.000000 0.000000 0.038207 0.000000 0.000000
# 5 0.000000 0.000000 0.000000 0.000000 0.020070 0.000000
# 6 0.000000 0.000000 0.000000 0.000000 0.000000 0.023565
#
#
# Mechanical properties :
#
#
# Convention : Reuss Voigt Hill
#
# Bulk Modulus (GPa) = 39.34536 80.38638 59.86587
# Shear Modulus (GPa) = 32.20030 45.03459 38.61745
#
# Velocity S-wave (km/s) = 3.61447 4.27452 3.95828
# Velocity P-wave (km/s) = 5.77776 7.54828 6.72157
#
# Compressibility (1/GPa) = 0.02541596
#
# Stress axis : x y z
#
# Youngs Moduli (GPa) = 242.45566 35.39878 78.02734
#
# Poissons Ratio (x) = 0.13311 0.13654
# Poissons Ratio (y) = 0.91168 0.34152
# Poissons Ratio (z) = 0.42427 0.15494
#
# Static dielectric constant tensor:
#      x y z
#    x 2.051740 0.000000 0.000000 
#    y 0.000000 1.993090 0.000000 
#    z 0.000000 0.000000 1.948840 
# 
# From -- ./inp_files/10073.got.cif
#   From: 2010.05.17/outbox.cif.g08.bks.cpg/sg36_6_cif.got.tgz:10073.got - 2010.06.03 17:41:39.
