data_PCOD9350728
_publ_section_title
;
Structure prediction by ZEFSAII (Michael W. Deem and Ramdas Pophale) SiO2 
 PCOD9350728
Probable space group: C M C 21
;
_chemical_formula_sum "Si O2"
_cell_formula_units_Z 48
_cell_length_a 13.729764
_cell_length_b 17.474501
_cell_length_c 7.838691
_cell_angle_alpha 90.000000
_cell_angle_beta 90.000000
_cell_angle_gamma 90.000000
_cell_volume 1880.664818
_symmetry_space_group_name_H-M "C M C 21"
_symmetry_group_IT_number 36
_symmetry_cell_setting 'orthorhombic'
loop_
_space_group_symop_operation_xyz
x,y,z
-x,-y,1/2+z
x,-y,1/2+z
-x,y,z
1/2+x,1/2+y,z
1/2-x,1/2-y,1/2+z
1/2+x,1/2-y,1/2+z
1/2-x,1/2+y,z
loop_
_atom_site_type_symbol
_atom_site_label
_atom_site_fract_x
_atom_site_fract_y
_atom_site_fract_z
Si Si1 0.386690 0.989595 0.870960
Si Si2 0.607497 0.280597 0.565488
Si Si3 0.888443 0.877518 0.051213
Si Si4 0.104029 0.280753 0.686021
Si Si5 0.225065 0.100365 0.212099
Si Si6 0.681874 0.883844 0.186900
O O1 0.500000 0.983022 0.824597
O O2 0.304427 0.965789 0.731540
O O3 0.362813 0.080975 0.861925
O O4 0.368446 0.929288 0.025012
O O5 0.500000 0.284090 0.643344
O O6 0.599211 0.261455 0.367407
O O7 0.652842 0.365730 0.572948
O O8 0.658851 0.206039 0.653044
O O9 0.846064 0.908145 0.873778
O O10 0.000000 0.901277 0.088606
O O11 0.888291 0.784949 0.044863
O O12 0.798406 0.895499 0.176568
O O13 0.198476 0.330281 0.709065
O O14 0.000000 0.322164 0.663959
#
# Coordination Sequence:
#
# PCOD9350728 Si02
#       6
#     8   8   8   8   8   8
#     4  11  23  41  63  87 120 161 198 247 303 357
#     4  11  21  37  61  88 121 157 193 244 300 355
#     4  10  21  38  60  88 121 157 197 247 300 356
#     4  10  18  33  58  85 117 152 190 237 295 347
#     4  11  20  37  59  90 120 151 198 248 297 351
#     4  11  23  42  61  86 123 158 202 245 297 358
#
# _framework density 25.52289
#
# number of rings (size 3 to 8) (size 9 to 14) (size 15 to 20)
#    0.000    1.333    5.000    2.500    0.000    1.333 
#    3.000    4.167    0.000    0.000    0.000    0.000 
#    0.000    0.000    0.000    0.000    0.000    0.000 
#
# Total GULP energy -133692.261099 kJ/mol
# GULP energy per Si atom -5570.510879 kJ/mol
# Density = 2.546480 g / cm^3
# Si number density = 25.522890 Si / 1000 Ang^3
#
#
#
# Elastic Constant Matrix: (Units=GPa)
#
#
# Indices 1 2 3 4 5 6 
#
# 1 219.0644 38.4592 17.0584 0.0000 0.0000 0.0000
# 2 38.4592 54.1413 20.1123 0.0000 0.0000 0.0000
# 3 17.0584 20.1123 50.7249 0.0000 0.0000 0.0000
# 4 0.0000 0.0000 0.0000 34.2381 0.0000 0.0000
# 5 0.0000 0.0000 0.0000 0.0000 21.1459 0.0000
# 6 0.0000 0.0000 0.0000 0.0000 0.0000 26.2421
#
#
#
# Elastic Compliance Matrix: (Units=1/GPa)
#
#
# Indices 1 2 3 4 5 6 
#
# 1 0.005220 -0.003584 -0.000335 0.000000 0.000000 0.000000
# 2 -0.003584 0.024121 -0.008359 0.000000 0.000000 0.000000
# 3 -0.000335 -0.008359 0.023141 0.000000 0.000000 0.000000
# 4 0.000000 0.000000 0.000000 0.029207 0.000000 0.000000
# 5 0.000000 0.000000 0.000000 0.000000 0.047291 0.000000
# 6 0.000000 0.000000 0.000000 0.000000 0.000000 0.038107
#
#
# Mechanical properties :
#
#
# Convention : Reuss Voigt Hill
#
# Bulk Modulus (GPa) = 35.80646 52.79895 44.30270
# Shear Modulus (GPa) = 24.88181 32.87858 28.88019
#
# Velocity S-wave (km/s) = 3.12570 3.59304 3.36749
# Velocity P-wave (km/s) = 5.20445 6.15996 5.70225
#
# Compressibility (1/GPa) = 0.02792792
#
# Stress axis : x y z
#
# Youngs Moduli (GPa) = 191.56735 41.45759 43.21354
#
# Poissons Ratio (x) = 0.14858 0.01446
# Poissons Ratio (y) = 0.68654 0.36121
# Poissons Ratio (z) = 0.06408 0.34653
#
# Static dielectric constant tensor:
#      x y z
#    x 2.070970 0.000000 0.000000 
#    y 0.000000 2.127350 0.000000 
#    z 0.000000 0.000000 2.136060 
# 
# From -- ./inp_files/3998.got.cif
#   From: 2010.05.17/outbox.cif.g08.bks.cpg/sg36_2_cif.got.tgz:3998.got - 2010.06.03 17:41:39.
