data_PCOD9350362
_publ_section_title
;
Structure prediction by ZEFSAII (Michael W. Deem and Ramdas Pophale) SiO2 
 PCOD9350362
Probable space group: C M M 2
;
_chemical_formula_sum "Si O2"
_cell_formula_units_Z 64
_cell_length_a 15.756005
_cell_length_b 15.980720
_cell_length_c 12.142815
_cell_angle_alpha 90.000000
_cell_angle_beta 90.000000
_cell_angle_gamma 90.000000
_cell_volume 3057.467369
_symmetry_space_group_name_H-M "C M M 2"
_symmetry_group_IT_number 35
_symmetry_cell_setting 'orthorhombic'
loop_
_space_group_symop_operation_xyz
x,y,z
-x,-y,z
-x,y,z
x,-y,z
1/2+x,1/2+y,z
1/2-x,1/2-y,z
1/2-x,1/2+y,z
1/2+x,1/2-y,z
loop_
_atom_site_type_symbol
_atom_site_label
_atom_site_fract_x
_atom_site_fract_y
_atom_site_fract_z
Si Si1 0.148521 0.090042 0.588050
Si Si2 0.094756 0.869777 0.344677
Si Si3 0.848204 0.594544 0.572461
Si Si4 0.645714 0.247084 0.972389
Si Si5 0.151796 0.594544 0.116893
Si Si6 0.354286 0.752916 0.716965
Si Si7 0.148521 0.090042 0.101305
Si Si8 0.337725 0.194577 0.344677
O O1 0.137686 0.101256 0.457179
O O2 0.249405 0.087325 0.606720
O O3 0.114792 0.170978 0.651353
O O4 0.111962 0.000000 0.621271
O O5 0.137686 0.898744 0.232176
O O6 0.095224 0.769295 0.344677
O O7 0.000000 0.902233 0.344677
O O8 0.883575 0.500000 0.571470
O O9 0.885093 0.662956 0.656474
O O10 0.846834 0.637634 0.452330
O O11 0.750000 0.250000 0.978664
O O12 0.622577 0.249213 0.844677
O O13 0.614907 0.162956 0.032880
O O14 0.614792 0.329022 0.038002
O O15 0.116425 0.500000 0.117884
O O16 0.250595 0.587325 0.082634
O O17 0.153166 0.637634 0.237024
O O18 0.250000 0.750000 0.710691
O O19 0.111962 0.000000 0.068084
O O20 0.250000 0.250000 0.344678
#
# Coordination Sequence:
#
# PCOD9350362 Si02
#       8
#     8   8   8   8   8   8   8   8
#     4  10  19  32  50  76 107 141 176 209 257 316
#     4  12  23  34  53  79 109 141 176 221 269 315
#     4  10  18  29  52  80 104 136 175 216 260 314
#     4   9  17  30  48  75 109 139 172 221 266 302
#     4  10  18  29  52  80 104 136 175 216 260 314
#     4   9  17  30  48  75 109 139 172 221 266 302
#     4  10  19  32  50  76 107 141 176 209 257 316
#     4  12  17  33  55  74 106 139 174 218 266 322
#
# _framework density 20.932357
#
# number of rings (size 3 to 8) (size 9 to 14) (size 15 to 20)
#    0.000    1.750    5.000    1.500    0.000    4.000 
#    0.000    5.000    0.000    2.250    0.000    1.750 
#    0.000    2.000    0.000    0.000    0.000    0.000 
#
# Total GULP energy -178554.979288 kJ/mol
# GULP energy per Si atom -5579.843103 kJ/mol
# Density = 2.088471 g / cm^3
# Si number density = 20.932357 Si / 1000 Ang^3
#
#
#
# Elastic Constant Matrix: (Units=GPa)
#
#
# Indices 1 2 3 4 5 6 
#
# 1 26.9659 4.2801 -6.5197 0.0000 0.0000 0.0000
# 2 4.2801 246.9775 107.2178 0.0000 0.0000 0.0000
# 3 -6.5197 107.2178 152.6859 0.0000 0.0000 0.0000
# 4 0.0000 0.0000 0.0000 5.7735 0.0000 0.0000
# 5 0.0000 0.0000 0.0000 0.0000 -11.0843 0.0000
# 6 0.0000 0.0000 0.0000 0.0000 0.0000 -6.8739
#
#
#
# Elastic Compliance Matrix: (Units=1/GPa)
#
#
# Indices 1 2 3 4 5 6 
#
# 1 0.038124 -0.001967 0.003009 0.000000 0.000000 0.000000
# 2 -0.001967 0.005926 -0.004245 0.000000 0.000000 0.000000
# 3 0.003009 -0.004245 0.009659 0.000000 0.000000 0.000000
# 4 0.000000 0.000000 0.000000 0.173204 0.000000 0.000000
# 5 0.000000 0.000000 0.000000 0.000000 -0.090218 0.000000
# 6 0.000000 0.000000 0.000000 0.000000 0.000000 -0.145478
#
#
# Mechanical properties :
#
#
# Convention : Reuss Voigt Hill
#
# Bulk Modulus (GPa) = 21.14063 70.73174 45.93619
# Shear Modulus (GPa) = 373.37714 19.00647 196.19181
#
# Velocity S-wave (km/s) = 13.37013 3.01656 9.69175
# Velocity P-wave (km/s) = 15.76289 6.78210 12.13395
#
# Compressibility (1/GPa) = 0.04730228
#
# Stress axis : x y z
#
# Youngs Moduli (GPa) = 26.23046 168.74751 103.53051
#
# Poissons Ratio (x) = 0.33193 -0.31154
# Poissons Ratio (y) = 0.05160 0.43952
# Poissons Ratio (z) = -0.07893 0.71639
#
# Static dielectric constant tensor:
#      x y z
#    x 1.770840 0.000000 0.000000 
#    y 0.000000 1.792410 0.000000 
#    z 0.000000 0.000000 1.716500 
# 
# From -- ./inp_files/13582.got.cif
#   From: 2010.05.17/outbox.cif.g08.bks.cpg/sg35_7_cif.got.tgz:13582.got - 2010.06.03 17:29:28.
