data_PCOD9350376
_publ_section_title
;
Structure prediction by ZEFSAII (Michael W. Deem and Ramdas Pophale) SiO2 
 PCOD9350376
Probable space group: C M M 2
;
_chemical_formula_sum "Si O2"
_cell_formula_units_Z 56
_cell_length_a 14.364753
_cell_length_b 19.341043
_cell_length_c 12.605313
_cell_angle_alpha 90.000000
_cell_angle_beta 90.000000
_cell_angle_gamma 90.000000
_cell_volume 3502.125356
_symmetry_space_group_name_H-M "C M M 2"
_symmetry_group_IT_number 35
_symmetry_cell_setting 'orthorhombic'
loop_
_space_group_symop_operation_xyz
x,y,z
-x,-y,z
-x,y,z
x,-y,z
1/2+x,1/2+y,z
1/2-x,1/2-y,z
1/2-x,1/2+y,z
1/2+x,1/2-y,z
loop_
_atom_site_type_symbol
_atom_site_label
_atom_site_fract_x
_atom_site_fract_y
_atom_site_fract_z
Si Si1 0.109459 0.203401 0.000000
Si Si2 0.394171 0.138664 0.923556
Si Si3 0.888814 0.079450 0.375779
Si Si4 0.776613 0.172954 0.214421
Si Si5 0.110239 0.081454 0.625497
Si Si6 0.776662 0.829844 0.792177
Si Si7 0.392902 0.920832 0.145974
O O1 0.118167 0.286071 0.980254
O O2 0.155246 0.171302 0.894716
O O3 0.000000 0.187156 0.009918
O O4 0.166369 0.180971 0.103802
O O5 0.500000 0.135588 0.883594
O O6 0.317911 0.134194 0.832558
O O7 0.382045 0.084819 0.018577
O O8 0.837740 0.132739 0.300060
O O9 0.870149 0.091518 0.500485
O O10 0.000000 0.084488 0.361431
O O11 0.861700 0.000000 0.350810
O O12 0.750000 0.250000 0.249067
O O13 0.683104 0.129212 0.195456
O O14 0.172774 0.130365 0.697995
O O15 0.000000 0.095313 0.642687
O O16 0.125654 0.000000 0.649359
O O17 0.750000 0.750000 0.766915
O O18 0.500000 0.899816 0.168728
O O19 0.379947 0.000000 0.179660
#
# Coordination Sequence:
#
# PCOD9350376 Si02
#       7
#     8   8   8   8   8   8   8
#     4  10  18  30  48  76 110 137 161 202 260 310
#     4   9  17  31  47  69 104 140 169 197 239 298
#     4   9  20  38  56  74  99 135 173 211 261 312
#     4  12  20  32  52  79 106 132 171 215 257 301
#     4   9  19  37  57  75 100 134 171 211 259 314
#     4  10  18  31  51  78 105 133 169 208 255 301
#     4  10  20  33  48  68 101 142 176 203 239 300
#
# _framework density 15.990290999999999
#
# number of rings (size 3 to 8) (size 9 to 14) (size 15 to 20)
#    0.000    2.143    2.857    2.571    0.000    2.286 
#    0.000    0.000    0.000    3.429    0.000    2.000 
#    0.000    0.000    0.000    0.000    0.000    0.000 
#
# Total GULP energy -156149.245984 kJ/mol
# GULP energy per Si atom -5576.758785 kJ/mol
# Density = 1.595390 g / cm^3
# Si number density = 15.990291 Si / 1000 Ang^3
#
#
#
# Elastic Constant Matrix: (Units=GPa)
#
#
# Indices 1 2 3 4 5 6 
#
# 1 104.8234 65.3140 59.3052 0.0000 0.0000 0.0000
# 2 65.3140 90.0150 66.3545 0.0000 0.0000 0.0000
# 3 59.3052 66.3545 89.3845 0.0000 0.0000 0.0000
# 4 0.0000 0.0000 0.0000 11.7773 0.0000 0.0000
# 5 0.0000 0.0000 0.0000 0.0000 31.9696 0.0000
# 6 0.0000 0.0000 0.0000 0.0000 0.0000 28.4097
#
#
#
# Elastic Compliance Matrix: (Units=1/GPa)
#
#
# Indices 1 2 3 4 5 6 
#
# 1 0.018397 -0.009610 -0.005073 0.000000 0.000000 0.000000
# 2 -0.009610 0.029555 -0.015564 0.000000 0.000000 0.000000
# 3 -0.005073 -0.015564 0.026108 0.000000 0.000000 0.000000
# 4 0.000000 0.000000 0.000000 0.084909 0.000000 0.000000
# 5 0.000000 0.000000 0.000000 0.000000 0.031280 0.000000
# 6 0.000000 0.000000 0.000000 0.000000 0.000000 0.035199
#
#
# Mechanical properties :
#
#
# Convention : Reuss Voigt Hill
#
# Bulk Modulus (GPa) = 73.71039 74.01894 73.86467
# Shear Modulus (GPa) = 17.21383 20.64793 18.93088
#
# Velocity S-wave (km/s) = 3.28459 3.59734 3.44452
# Velocity P-wave (km/s) = 7.78343 7.97777 7.88120
#
# Compressibility (1/GPa) = 0.01356661
#
# Stress axis : x y z
#
# Youngs Moduli (GPa) = 54.35535 33.83488 38.30311
#
# Poissons Ratio (x) = 0.32514 0.19430
# Poissons Ratio (y) = 0.52234 0.59617
# Poissons Ratio (z) = 0.27573 0.52662
#
# Static dielectric constant tensor:
#      x y z
#    x 1.541240 0.000000 0.000000 
#    y 0.000000 1.539450 0.000000 
#    z 0.000000 0.000000 1.508010 
# 
# From -- ./inp_files/7670.got.cif
#   From: 2010.05.17/outbox.cif.g08.bks.cpg/sg35_4_cif.got.tgz:7670.got - 2010.06.03 17:29:28.
