data_PCOD9350198
_publ_section_title
;
Structure prediction by ZEFSAII (Michael W. Deem and Ramdas Pophale) SiO2 
 PCOD9350198
Probable space group: C M M 2
;
_chemical_formula_sum "Si O2"
_cell_formula_units_Z 32
_cell_length_a 9.000000
_cell_length_b 30.000000
_cell_length_c 12.000000
_cell_angle_alpha 90.000000
_cell_angle_beta 90.000000
_cell_angle_gamma 90.000000
_cell_volume 3240.000000
_symmetry_space_group_name_H-M "C M M 2"
_symmetry_group_IT_number 35
_symmetry_cell_setting 'orthorhombic'
loop_
_space_group_symop_operation_xyz
x,y,z
-x,-y,z
-x,y,z
x,-y,z
1/2+x,1/2+y,z
1/2-x,1/2-y,z
1/2-x,1/2+y,z
1/2+x,1/2-y,z
loop_
_atom_site_type_symbol
_atom_site_label
_atom_site_fract_x
_atom_site_fract_y
_atom_site_fract_z
Si Si1 0.329889 0.566372 0.223260
Si Si2 0.671376 0.668093 0.293665
Si Si3 0.324963 0.949659 0.990818
Si Si4 0.179206 0.048996 0.477446
Si Si5 0.673469 0.291680 0.076492
Si Si6 0.175306 0.641514 0.516883
Si Si7 0.173166 0.134776 0.896046
Si Si8 0.676128 0.798192 0.726314
O O1 0.500000 0.551465 0.204218
O O2 0.333540 0.619544 0.236544
O O3 0.280175 0.550129 0.345497
O O4 0.231576 0.553396 0.118428
O O5 0.500000 0.679535 0.322155
O O6 0.734033 0.700726 0.200279
O O7 0.768671 0.661945 0.401563
O O8 0.500000 0.940130 0.987913
O O9 0.239103 0.913609 0.917575
O O10 0.299145 0.000000 0.951504
O O11 0.246972 0.093261 0.532088
O O12 0.000000 0.052862 0.481250
O O13 0.221413 0.000000 0.522236
O O14 0.500000 0.281834 0.085297
O O15 0.750000 0.250000 0.018795
O O16 0.687314 0.337145 0.009701
O O17 0.209389 0.678494 0.608658
O O18 0.000000 0.633653 0.515505
O O19 0.261989 0.165329 0.811246
O O20 0.000000 0.132426 0.865463
O O21 0.500000 0.793148 0.739920
O O22 0.750000 0.750000 0.737348
#
# Coordination Sequence:
#
# PCOD9350198 Si02
#       8
#     8   8   8   8   8   8   8   8
#     4   9  16  31  53  78 114 159 202 243 285 340
#     4   9  18  35  55  79 118 159 195 237 288 347
#     4  11  23  36  54  85 123 160 198 243 296 353
#     4   9  18  33  55  84 119 160 203 243 287 346
#     4  10  21  36  55  84 117 150 188 234 290 351
#     4  10  22  38  58  87 120 152 194 246 297 348
#     4  11  23  42  65  87 116 153 199 249 299 355
#     4  11  25  45  67  91 117 150 197 250 303 357
#
# _framework density 9.8765429999999999
#
# number of rings (size 3 to 8) (size 9 to 14) (size 15 to 20)
#    0.000    2.000    1.250    3.000    0.000    8.750 
#    0.000    3.125    0.000    0.750    0.000    0.000 
#    0.000    0.000    0.000    0.000    0.000    0.000 
#
# Total GULP energy -178495.543177 kJ/mol
# GULP energy per Si atom -5577.985724 kJ/mol
# Density = 0.985406 g / cm^3
# Si number density = 9.876543 Si / 1000 Ang^3
#
#
#
# Elastic Constant Matrix: (Units=GPa)
#
#
# Indices 1 2 3 4 5 6 
#
# 1 -142.6973 12.4256 0.9198 0.0000 0.0000 0.0000
# 2 12.4256 74.3533 15.3544 0.0000 0.0000 0.0000
# 3 0.9198 15.3544 31.9273 0.0000 0.0000 0.0000
# 4 0.0000 0.0000 0.0000 -184.7603 0.0000 0.0000
# 5 0.0000 0.0000 0.0000 0.0000 23.8373 0.0000
# 6 0.0000 0.0000 0.0000 0.0000 0.0000 -17.0997
#
#
#
# Elastic Compliance Matrix: (Units=1/GPa)
#
#
# Indices 1 2 3 4 5 6 
#
# 1 -0.006903 0.001235 -0.000395 0.000000 0.000000 0.000000
# 2 0.001235 0.014711 -0.007110 0.000000 0.000000 0.000000
# 3 -0.000395 -0.007110 0.034752 0.000000 0.000000 0.000000
# 4 0.000000 0.000000 0.000000 -0.005412 0.000000 0.000000
# 5 0.000000 0.000000 0.000000 0.000000 0.041951 0.000000
# 6 0.000000 0.000000 0.000000 0.000000 0.000000 -0.058481
#
#
# Mechanical properties :
#
#
# Convention : Reuss Voigt Hill
#
# Bulk Modulus (GPa) = 33.31165 2.33144 17.82155
# Shear Modulus (GPa) = 115.83188 -39.94563 37.94313
#
# Velocity S-wave (km/s) = 7.66598 -4.50182 4.38753
# Velocity P-wave (km/s) = 9.75996 5.08321 5.89143
#
# Compressibility (1/GPa) = 0.03001953
#
# Stress axis : x y z
#
# Youngs Moduli (GPa) = -144.86801 67.97522 28.77526
#
# Poissons Ratio (x) = -0.08396 0.01137
# Poissons Ratio (y) = 0.17894 0.20461
# Poissons Ratio (z) = -0.05725 0.48334
#
# Static dielectric constant tensor:
#      x y z
#    x 1.662780 0.000000 0.000000 
#    y 0.000000 1.791430 0.000000 
#    z 0.000000 0.000000 1.746430 
# 
# From -- ./inp_files/11929.got.cif
#   From: 2010.05.17/outbox.ucp.g08.bks.cvg/sg35_6_cif.got.tgz:11929.got - 2010.06.11 10:36:28.
