data_PCOD9350962
_publ_section_title
;
Structure prediction by ZEFSAII (Michael W. Deem and Ramdas Pophale) SiO2 
 PCOD9350962
Probable space group: C M C 21
;
_chemical_formula_sum "Si O2"
_cell_formula_units_Z 64
_cell_length_a 8.114763
_cell_length_b 29.325761
_cell_length_c 14.665512
_cell_angle_alpha 90.000000
_cell_angle_beta 90.000000
_cell_angle_gamma 90.000000
_cell_volume 3489.975360
_symmetry_space_group_name_H-M "C M C 21"
_symmetry_group_IT_number 36
_symmetry_cell_setting 'orthorhombic'
loop_
_space_group_symop_operation_xyz
x,y,z
-x,-y,1/2+z
x,-y,1/2+z
-x,y,z
1/2+x,1/2+y,z
1/2-x,1/2-y,1/2+z
1/2+x,1/2-y,1/2+z
1/2-x,1/2+y,z
loop_
_atom_site_type_symbol
_atom_site_label
_atom_site_fract_x
_atom_site_fract_y
_atom_site_fract_z
Si Si1 0.198610 0.124511 0.568500
Si Si2 0.698264 0.124016 0.777037
Si Si3 0.298901 0.124371 0.069611
Si Si4 0.802518 0.801329 0.926555
Si Si5 0.695742 0.127352 0.276912
Si Si6 0.800828 0.550649 0.923425
Si Si7 0.798545 0.697993 0.921100
Si Si8 0.803563 0.946371 0.918198
O O1 0.251014 0.123292 0.672633
O O2 0.258570 0.169006 0.512733
O O3 0.253890 0.080989 0.508566
O O4 0.000000 0.125074 0.566644
O O5 0.500000 0.123994 0.780647
O O6 0.754143 0.080114 0.835563
O O7 0.754428 0.168794 0.832870
O O8 0.500000 0.123791 0.071139
O O9 0.240268 0.125717 0.173440
O O10 0.247788 0.079716 0.012199
O O11 0.250524 0.168385 0.009675
O O12 0.766245 0.831322 0.837169
O O13 0.738292 0.749827 0.922138
O O14 0.000000 0.798389 0.935328
O O15 0.500000 0.133516 0.273229
O O16 0.732744 0.080947 0.331811
O O17 0.741346 0.499115 0.921475
O O18 0.000000 0.550072 0.923306
O O19 0.000000 0.698841 0.920056
O O20 0.000000 0.941692 0.913445
#
# Coordination Sequence:
#
# PCOD9350962 Si02
#       8
#     8   8   8   8   8   8   8   8
#     4   9  19  33  48  69  98 130 162 198 241 288
#     4   9  18  32  52  75  97 126 163 201 241 285
#     4   8  16  31  51  74  98 126 162 201 240 286
#     4   9  18  33  51  71  99 134 165 195 238 289
#     4  10  19  32  52  76  99 125 161 204 244 281
#     4   9  18  34  53  73  97 125 161 202 242 286
#     4   8  15  31  52  72  98 131 163 196 239 290
#     4  10  21  36  51  70  98 131 163 195 241 295
#
# _framework density 18.338238
#
# number of rings (size 3 to 8) (size 9 to 14) (size 15 to 20)
#    0.000    3.000    0.000    3.000    0.000    5.000 
#    0.000    6.875    0.000    3.750    0.000    0.000 
#    0.000    0.000    0.000    0.000    0.000    0.000 
#
# Total GULP energy -178376.514925 kJ/mol
# GULP energy per Si atom -5574.266091 kJ/mol
# Density = 1.829650 g / cm^3
# Si number density = 18.338238 Si / 1000 Ang^3
#
#
#
# Elastic Constant Matrix: (Units=GPa)
#
#
# Indices 1 2 3 4 5 6 
#
# 1 3.5112 0.9445 0.2758 0.0000 0.0000 0.0000
# 2 0.9445 173.7530 89.6073 0.0000 0.0000 0.0000
# 3 0.2758 89.6073 186.5441 0.0000 0.0000 0.0000
# 4 0.0000 0.0000 0.0000 6.9426 0.0000 0.0000
# 5 0.0000 0.0000 0.0000 0.0000 -4.2307 0.0000
# 6 0.0000 0.0000 0.0000 0.0000 0.0000 19.2957
#
#
#
# Elastic Compliance Matrix: (Units=1/GPa)
#
#
# Indices 1 2 3 4 5 6 
#
# 1 0.285242 -0.001772 0.000430 0.000000 0.000000 0.000000
# 2 -0.001772 0.007662 -0.003678 0.000000 0.000000 0.000000
# 3 0.000430 -0.003678 0.007127 0.000000 0.000000 0.000000
# 4 0.000000 0.000000 0.000000 0.144038 0.000000 0.000000
# 5 0.000000 0.000000 0.000000 0.000000 -0.236370 0.000000
# 6 0.000000 0.000000 0.000000 0.000000 0.000000 0.051825
#
#
# Mechanical properties :
#
#
# Convention : Reuss Voigt Hill
#
# Bulk Modulus (GPa) = 3.44839 60.60706 32.02773
# Shear Modulus (GPa) = 13.65272 22.60026 18.12649
#
# Velocity S-wave (km/s) = 2.73150 3.51438 3.14738
# Velocity P-wave (km/s) = 3.43986 7.04195 5.54174
#
# Compressibility (1/GPa) = 0.28999015
#
# Stress axis : x y z
#
# Youngs Moduli (GPa) = 3.50579 130.52195 140.31940
#
# Poissons Ratio (x) = 0.23129 -0.06027
# Poissons Ratio (y) = 0.00621 0.51604
# Poissons Ratio (z) = -0.00151 0.48001
#
# Static dielectric constant tensor:
#      x y z
#    x 1.656620 0.000000 0.000000 
#    y 0.000000 1.620030 0.000000 
#    z 0.000000 0.000000 1.618580 
# 
# From -- ./inp_files/11222.got.cif
#   From: 2010.05.17/outbox.cif.g08.bks.cpg/sg36_6_cif.got.tgz:11222.got - 2010.06.03 17:41:39.
