data_PCOD9350482
_publ_section_title
;
Structure prediction by ZEFSAII (Michael W. Deem and Ramdas Pophale) SiO2 
 PCOD9350482
Probable space group: C M C 21
;
_chemical_formula_sum "Si O2"
_cell_formula_units_Z 64
_cell_length_a 8.528220
_cell_length_b 13.583380
_cell_length_c 22.127399
_cell_angle_alpha 90.000000
_cell_angle_beta 90.000000
_cell_angle_gamma 90.000000
_cell_volume 2563.283327
_symmetry_space_group_name_H-M "C M C 21"
_symmetry_group_IT_number 36
_symmetry_cell_setting 'orthorhombic'
loop_
_space_group_symop_operation_xyz
x,y,z
-x,-y,1/2+z
x,-y,1/2+z
-x,y,z
1/2+x,1/2+y,z
1/2-x,1/2-y,1/2+z
1/2+x,1/2-y,1/2+z
1/2-x,1/2+y,z
loop_
_atom_site_type_symbol
_atom_site_label
_atom_site_fract_x
_atom_site_fract_y
_atom_site_fract_z
Si Si1 0.189921 0.458049 0.687160
Si Si2 0.177096 0.935655 0.435150
Si Si3 0.684028 0.241587 0.722500
Si Si4 0.815006 0.701953 0.342642
Si Si5 0.827169 0.583204 0.061829
Si Si6 0.187958 0.986917 0.309233
Si Si7 0.321830 0.309533 0.099474
Si Si8 0.320525 0.332929 0.966545
O O1 0.272313 0.354550 0.704245
O O2 0.242684 0.479851 0.617769
O O3 0.233343 0.526103 0.744088
O O4 0.000000 0.447801 0.685830
O O5 0.251250 0.929625 0.368515
O O6 0.171518 0.053490 0.447139
O O7 0.000000 0.898426 0.429770
O O8 0.247372 0.900397 0.497819
O O9 0.500000 0.232366 0.733991
O O10 0.776948 0.227804 0.785594
O O11 0.730016 0.181702 0.662136
O O12 0.723705 0.601293 0.326101
O O13 0.763235 0.724179 0.411710
O O14 0.000000 0.683322 0.342519
O O15 0.837577 0.691441 0.090205
O O16 0.000000 0.543297 0.048990
O O17 0.000000 0.973830 0.305055
O O18 0.500000 0.349047 0.104972
O O19 0.250483 0.337386 0.034128
O O20 0.500000 0.295216 0.972072
#
# Coordination Sequence:
#
# PCOD9350482 Si02
#       8
#     8   8   8   8   8   8   8   8
#     4   9  16  27  43  65  90 117 152 190 229 268
#     4   9  18  30  46  69  94 121 151 185 227 272
#     4  10  17  26  43  67  93 119 151 190 230 271
#     4  10  17  26  43  67  93 119 151 190 230 271
#     4   9  18  30  46  69  94 121 151 185 227 272
#     4   9  16  27  43  65  90 117 152 190 229 268
#     4   9  18  33  50  68  93 123 155 191 230 272
#     4   9  18  33  50  68  93 123 155 191 230 272
#
# _framework density 24.967976
#
# number of rings (size 3 to 8) (size 9 to 14) (size 15 to 20)
#    0.000    2.750    0.000    6.000    0.000    5.500 
#    0.000    0.000    0.000    1.500    0.000    3.500 
#    0.000    0.000    0.000    0.000    0.000    0.000 
#
# Total GULP energy -178634.126402 kJ/mol
# GULP energy per Si atom -5582.316450 kJ/mol
# Density = 2.491115 g / cm^3
# Si number density = 24.967976 Si / 1000 Ang^3
#
#
#
# Elastic Constant Matrix: (Units=GPa)
#
#
# Indices 1 2 3 4 5 6 
#
# 1 72.9170 -7.7835 45.6725 0.0000 0.0000 0.0000
# 2 -7.7835 46.2868 27.2947 0.0000 0.0000 0.0000
# 3 45.6725 27.2947 270.0949 0.0000 0.0000 0.0000
# 4 0.0000 0.0000 0.0000 60.6478 0.0000 0.0000
# 5 0.0000 0.0000 0.0000 0.0000 45.3600 0.0000
# 6 0.0000 0.0000 0.0000 0.0000 0.0000 10.7031
#
#
#
# Elastic Compliance Matrix: (Units=1/GPa)
#
#
# Indices 1 2 3 4 5 6 
#
# 1 0.016217 0.004619 -0.003209 0.000000 0.000000 0.000000
# 2 0.004619 0.024289 -0.003236 0.000000 0.000000 0.000000
# 3 -0.003209 -0.003236 0.004572 0.000000 0.000000 0.000000
# 4 0.000000 0.000000 0.000000 0.016489 0.000000 0.000000
# 5 0.000000 0.000000 0.000000 0.000000 0.022046 0.000000
# 6 0.000000 0.000000 0.000000 0.000000 0.000000 0.093431
#
#
# Mechanical properties :
#
#
# Convention : Reuss Voigt Hill
#
# Bulk Modulus (GPa) = 24.13827 57.74066 40.93946
# Shear Modulus (GPa) = 25.70637 44.94986 35.32811
#
# Velocity S-wave (km/s) = 3.21218 4.24760 3.76565
# Velocity P-wave (km/s) = 4.84212 6.87257 5.94468
#
# Compressibility (1/GPa) = 0.04142800
#
# Stress axis : x y z
#
# Youngs Moduli (GPa) = 61.66205 41.17043 218.72013
#
# Poissons Ratio (x) = -0.19019 0.70191
# Poissons Ratio (y) = -0.28485 0.70772
# Poissons Ratio (z) = 0.19788 0.13322
#
# Static dielectric constant tensor:
#      x y z
#    x 1.888570 0.000000 0.000000 
#    y 0.000000 2.159870 0.000000 
#    z 0.000000 0.000000 2.050430 
# 
# From -- ./inp_files/15778.got.cif
#   From: 2010.05.17/outbox.cif.g08.bks.cpg/sg36_8_cif.got.tgz:15778.got - 2010.06.03 17:41:39.
