data_PCOD9350817
_publ_section_title
;
Structure prediction by ZEFSAII (Michael W. Deem and Ramdas Pophale) SiO2 
 PCOD9350817
Probable space group: C M C 21
;
_chemical_formula_sum "Si O2"
_cell_formula_units_Z 64
_cell_length_a 24.174989
_cell_length_b 13.680253
_cell_length_c 6.985461
_cell_angle_alpha 90.000000
_cell_angle_beta 90.000000
_cell_angle_gamma 90.000000
_cell_volume 2310.231423
_symmetry_space_group_name_H-M "C M C 21"
_symmetry_group_IT_number 36
_symmetry_cell_setting 'orthorhombic'
loop_
_space_group_symop_operation_xyz
x,y,z
-x,-y,1/2+z
x,-y,1/2+z
-x,y,z
1/2+x,1/2+y,z
1/2-x,1/2-y,1/2+z
1/2+x,1/2-y,1/2+z
1/2-x,1/2+y,z
loop_
_atom_site_type_symbol
_atom_site_label
_atom_site_fract_x
_atom_site_fract_y
_atom_site_fract_z
Si Si1 0.797241 0.330662 0.503830
Si Si2 0.416885 0.866585 0.507143
Si Si3 0.915017 0.423044 0.066332
Si Si4 0.560117 0.709479 0.007290
Si Si5 0.440875 0.360120 0.080912
Si Si6 0.294622 0.886567 0.051174
Si Si7 0.319820 0.330285 0.502622
Si Si8 0.678185 0.395311 0.077609
O O1 0.854562 0.367857 0.587531
O O2 0.793673 0.361055 0.279668
O O3 0.738534 0.356643 0.600998
O O4 0.808872 0.215245 0.513465
O O5 0.416240 0.881346 0.279574
O O6 0.438248 0.756202 0.530983
O O7 0.442046 0.970189 0.573012
O O8 0.936475 0.326433 0.955315
O O9 0.851447 0.440272 0.006841
O O10 0.500000 0.695224 0.103978
O O11 0.619543 0.678538 0.099044
O O12 0.559329 0.648372 0.811483
O O13 0.500000 0.401880 0.018104
O O14 0.384864 0.415386 0.015897
O O15 0.304902 0.781918 0.950315
O O16 0.236797 0.940754 0.014345
O O17 0.324644 0.392116 0.308794
#
# Coordination Sequence:
#
# PCOD9350817 Si02
#       8
#     8   8   8   8   8   8   8   8
#     4   8  14  24  38  55  72  91 117 150 188 224
#     4  10  19  29  40  54  74 101 131 160 187 216
#     4  10  19  29  40  54  74 101 131 160 187 216
#     4   9  17  28  41  57  77 101 127 153 182 218
#     4   9  17  28  41  57  77 101 127 153 182 218
#     4   8  14  24  38  55  72  91 117 150 188 224
#     4   8  13  23  39  56  73  92 115 147 186 224
#     4   8  13  23  39  56  73  92 115 147 186 224
#
# _framework density 27.702852
#
# number of rings (size 3 to 8) (size 9 to 14) (size 15 to 20)
#    0.000    3.250    0.000    0.750    0.000    2.000 
#    0.000    0.000    0.000    0.000    0.000    0.000 
#    0.000    1.000    0.000    0.750    0.000    4.250 
#
# Total GULP energy -178400.966931 kJ/mol
# GULP energy per Si atom -5575.030217 kJ/mol
# Density = 2.763980 g / cm^3
# Si number density = 27.702852 Si / 1000 Ang^3
#
#
#
# Elastic Constant Matrix: (Units=GPa)
#
#
# Indices 1 2 3 4 5 6 
#
# 1 308.7037 3.6978 9.8543 0.0000 0.0000 0.0000
# 2 3.6978 75.4779 0.8221 0.0000 0.0000 0.0000
# 3 9.8543 0.8221 81.2233 0.0000 0.0000 0.0000
# 4 0.0000 0.0000 0.0000 1.1755 0.0000 0.0000
# 5 0.0000 0.0000 0.0000 0.0000 4.9688 0.0000
# 6 0.0000 0.0000 0.0000 0.0000 0.0000 -32.7596
#
#
#
# Elastic Compliance Matrix: (Units=1/GPa)
#
#
# Indices 1 2 3 4 5 6 
#
# 1 0.003254 -0.000155 -0.000393 0.000000 0.000000 0.000000
# 2 -0.000155 0.013258 -0.000115 0.000000 0.000000 0.000000
# 3 -0.000393 -0.000115 0.012361 0.000000 0.000000 0.000000
# 4 0.000000 0.000000 0.000000 0.850697 0.000000 0.000000
# 5 0.000000 0.000000 0.000000 0.000000 0.201255 0.000000
# 6 0.000000 0.000000 0.000000 0.000000 0.000000 -0.030525
#
#
# Mechanical properties :
#
#
# Convention : Reuss Voigt Hill
#
# Bulk Modulus (GPa) = 36.30451 54.90592 45.60521
# Shear Modulus (GPa) = 4.71339 24.74565 14.72952
#
# Velocity S-wave (km/s) = 1.30580 2.99198 2.30836
# Velocity P-wave (km/s) = 3.92516 5.63902 4.85826
#
# Compressibility (1/GPa) = 0.02754479
#
# Stress axis : x y z
#
# Youngs Moduli (GPa) = 307.33660 75.42748 80.90214
#
# Poissons Ratio (x) = 0.01170 0.03181
# Poissons Ratio (y) = 0.04768 0.00933
# Poissons Ratio (z) = 0.12084 0.00870
#
# Static dielectric constant tensor:
#      x y z
#    x 2.245220 0.000000 0.000000 
#    y 0.000000 2.154650 0.000000 
#    z 0.000000 0.000000 2.163600 
# 
# From -- ./inp_files/5385.got.cif
#   From: 2010.05.17/outbox.cif.g08.bks.cpg/sg36_3_cif.got.tgz:5385.got - 2010.06.03 17:41:39.
