data_PCOD9350666
_publ_section_title
;
Structure prediction by ZEFSAII (Michael W. Deem and Ramdas Pophale) SiO2 
 PCOD9350666
Probable space group: C M C 21
;
_chemical_formula_sum "Si O2"
_cell_formula_units_Z 64
_cell_length_a 7.506154
_cell_length_b 29.926038
_cell_length_c 12.925631
_cell_angle_alpha 90.000000
_cell_angle_beta 90.000000
_cell_angle_gamma 90.000000
_cell_volume 2903.477380
_symmetry_space_group_name_H-M "C M C 21"
_symmetry_group_IT_number 36
_symmetry_cell_setting 'orthorhombic'
loop_
_space_group_symop_operation_xyz
x,y,z
-x,-y,1/2+z
x,-y,1/2+z
-x,y,z
1/2+x,1/2+y,z
1/2-x,1/2-y,1/2+z
1/2+x,1/2-y,1/2+z
1/2-x,1/2+y,z
loop_
_atom_site_type_symbol
_atom_site_label
_atom_site_fract_x
_atom_site_fract_y
_atom_site_fract_z
Si Si1 0.207943 0.332266 0.461320
Si Si2 0.784832 0.218556 0.764663
Si Si3 0.718411 0.086952 0.255389
Si Si4 0.782709 0.684789 0.193726
Si Si5 0.212633 0.434913 0.983804
Si Si6 0.285953 0.374392 0.166284
Si Si7 0.705474 0.974400 0.565752
Si Si8 0.800918 0.076705 0.862617
O O1 0.229977 0.292355 0.381289
O O2 0.269119 0.319967 0.574447
O O3 0.308321 0.374321 0.414304
O O4 0.000000 0.345464 0.467529
O O5 0.719657 0.267413 0.733791
O O6 0.723350 0.175427 0.697332
O O7 0.000000 0.218834 0.758035
O O8 0.500000 0.087186 0.253347
O O9 0.774162 0.138769 0.247445
O O10 0.777581 0.067764 0.365944
O O11 0.779158 0.058266 0.155165
O O12 0.000000 0.685628 0.198544
O O13 0.000000 0.441402 0.975969
O O14 0.242819 0.390747 0.051758
O O15 0.287814 0.476843 0.048400
O O16 0.500000 0.374374 0.178126
O O17 0.218230 0.411000 0.250979
O O18 0.500000 0.980628 0.596287
O O19 0.710027 0.952601 0.451113
O O20 0.000000 0.058454 0.847761
#
# Coordination Sequence:
#
# PCOD9350666 Si02
#       8
#     8   8   8   8   8   8   8   8
#     4  10  18  32  54  80 105 140 186 230 276 328
#     4   9  19  35  54  78 108 148 187 226 281 332
#     4   9  18  35  54  81 114 142 181 227 281 333
#     4   9  17  32  56  78 106 147 181 219 277 336
#     4  10  22  35  56  84 111 146 187 228 274 334
#     4   9  20  37  53  74 111 147 180 225 277 328
#     4  10  20  35  57  83 110 142 181 230 277 329
#     4  10  20  35  56  80 107 142 183 231 279 330
#
# _framework density 22.042534
#
# number of rings (size 3 to 8) (size 9 to 14) (size 15 to 20)
#    0.000    2.500    1.250    1.500    1.750    4.000 
#    0.000    1.875    0.000    0.000    0.000    0.000 
#    0.000    0.000    0.000    0.000    0.000    0.000 
#
# Total GULP energy -178539.940688 kJ/mol
# GULP energy per Si atom -5579.373146 kJ/mol
# Density = 2.199236 g / cm^3
# Si number density = 22.042534 Si / 1000 Ang^3
#
#
#
# Elastic Constant Matrix: (Units=GPa)
#
#
# Indices 1 2 3 4 5 6 
#
# 1 59.5326 1.7466 -0.3227 0.0000 0.0000 0.0000
# 2 1.7466 114.3731 55.9759 0.0000 0.0000 0.0000
# 3 -0.3227 55.9759 97.8895 0.0000 0.0000 0.0000
# 4 0.0000 0.0000 0.0000 23.7092 0.0000 0.0000
# 5 0.0000 0.0000 0.0000 0.0000 32.8269 0.0000
# 6 0.0000 0.0000 0.0000 0.0000 0.0000 11.2027
#
#
#
# Elastic Compliance Matrix: (Units=1/GPa)
#
#
# Indices 1 2 3 4 5 6 
#
# 1 0.016811 -0.000394 0.000281 0.000000 0.000000 0.000000
# 2 -0.000394 0.012150 -0.006949 0.000000 0.000000 0.000000
# 3 0.000281 -0.006949 0.014190 0.000000 0.000000 0.000000
# 4 0.000000 0.000000 0.000000 0.042178 0.000000 0.000000
# 5 0.000000 0.000000 0.000000 0.000000 0.030463 0.000000
# 6 0.000000 0.000000 0.000000 0.000000 0.000000 0.089264
#
#
# Mechanical properties :
#
#
# Convention : Reuss Voigt Hill
#
# Bulk Modulus (GPa) = 34.45173 42.95499 38.70336
# Shear Modulus (GPa) = 21.84774 27.84078 24.84426
#
# Velocity S-wave (km/s) = 3.15169 3.55779 3.36088
# Velocity P-wave (km/s) = 5.37660 6.03381 5.71466
#
# Compressibility (1/GPa) = 0.02902612
#
# Stress axis : x y z
#
# Youngs Moduli (GPa) = 59.48630 82.30189 70.47078
#
# Poissons Ratio (x) = 0.03244 -0.01979
# Poissons Ratio (y) = 0.02345 0.48972
# Poissons Ratio (z) = -0.01670 0.57193
#
# Static dielectric constant tensor:
#      x y z
#    x 1.834390 0.000000 0.000000 
#    y 0.000000 1.814360 0.000000 
#    z 0.000000 0.000000 1.806090 
# 
# From -- ./inp_files/7174.got.cif
#   From: 2010.05.17/outbox.cif.g08.bks.cpg/sg36_4_cif.got.tgz:7174.got - 2010.06.03 17:41:39.
