data_PCOD9350512
_publ_section_title
;
Structure prediction by ZEFSAII (Michael W. Deem and Ramdas Pophale) SiO2 
 PCOD9350512
Probable space group: C M C 21
;
_chemical_formula_sum "Si O2"
_cell_formula_units_Z 40
_cell_length_a 9.743876
_cell_length_b 15.743073
_cell_length_c 11.845878
_cell_angle_alpha 90.000000
_cell_angle_beta 90.000000
_cell_angle_gamma 90.000000
_cell_volume 1817.140523
_symmetry_space_group_name_H-M "C M C 21"
_symmetry_group_IT_number 36
_symmetry_cell_setting 'orthorhombic'
loop_
_space_group_symop_operation_xyz
x,y,z
-x,-y,1/2+z
x,-y,1/2+z
-x,y,z
1/2+x,1/2+y,z
1/2-x,1/2-y,1/2+z
1/2+x,1/2-y,1/2+z
1/2-x,1/2+y,z
loop_
_atom_site_type_symbol
_atom_site_label
_atom_site_fract_x
_atom_site_fract_y
_atom_site_fract_z
Si Si1 0.228892 0.711206 0.479140
Si Si2 0.500000 0.306082 0.115271
Si Si3 0.225962 0.423376 0.781177
Si Si4 0.500000 0.941079 0.357166
Si Si5 0.500000 0.479652 0.230674
Si Si6 0.000000 0.380701 0.122754
Si Si7 0.500000 0.915547 0.605467
Si Si8 0.500000 0.322049 0.373725
O O1 0.368051 0.723514 0.546686
O O2 0.252489 0.650602 0.370911
O O3 0.130891 0.659903 0.564702
O O4 0.136316 0.790351 0.437646
O O5 0.500000 0.409619 0.130348
O O6 0.500000 0.105426 0.975299
O O7 0.131646 0.496847 0.840138
O O8 0.364075 0.464453 0.734007
O O9 0.132906 0.391663 0.677635
O O10 0.500000 0.872916 0.256946
O O11 0.500000 0.421189 0.344128
O O12 0.000000 0.481290 0.102965
O O13 0.500000 0.719445 0.747651
#
# Coordination Sequence:
#
# PCOD9350512 Si02
#       8
#     8   4   8   4   4   4   4   4
#     4  11  19  42  67  87 125 174 214 258 319 389
#     4  10  22  39  72  86 126 174 213 247 333 387
#     4  10  20  34  63  91 129 162 212 261 318 370
#     4  10  18  29  56  93 123 164 212 261 304 371
#     4  10  22  41  59  97 132 156 209 263 318 377
#     4   9  17  31  58  90 118 172 212 252 308 386
#     4  10  17  33  52  96 127 167 209 267 301 376
#     4   9  24  41  65  90 128 171 217 254 308 389
#
# _framework density 22.012606999999999
#
# number of rings (size 3 to 8) (size 9 to 14) (size 15 to 20)
#    0.600    1.600    2.000    4.800    0.000    0.000 
#    0.000    8.000    0.000    0.000    0.000    0.000 
#    0.000    0.000    0.000    0.000    0.000    0.000 
#
# Total GULP energy -111797.254172 kJ/mol
# GULP energy per Si atom -5589.862709 kJ/mol
# Density = 2.196251 g / cm^3
# Si number density = 22.012607 Si / 1000 Ang^3
#
#
#
# Elastic Constant Matrix: (Units=GPa)
#
#
# Indices 1 2 3 4 5 6 
#
# 1 152.9728 21.9666 28.4344 0.0000 0.0000 0.0000
# 2 21.9666 48.1995 12.5614 0.0000 0.0000 0.0000
# 3 28.4344 12.5614 134.1916 0.0000 0.0000 0.0000
# 4 0.0000 0.0000 0.0000 34.5762 0.0000 0.0000
# 5 0.0000 0.0000 0.0000 0.0000 8.8878 0.0000
# 6 0.0000 0.0000 0.0000 0.0000 0.0000 -1.6347
#
#
#
# Elastic Compliance Matrix: (Units=1/GPa)
#
#
# Indices 1 2 3 4 5 6 
#
# 1 0.007193 -0.002953 -0.001248 0.000000 0.000000 0.000000
# 2 -0.002953 0.022478 -0.001478 0.000000 0.000000 0.000000
# 3 -0.001248 -0.001478 0.007855 0.000000 0.000000 0.000000
# 4 0.000000 0.000000 0.000000 0.028922 0.000000 0.000000
# 5 0.000000 0.000000 0.000000 0.000000 0.112514 0.000000
# 6 0.000000 0.000000 0.000000 0.000000 0.000000 -0.611728
#
#
# Mechanical properties :
#
#
# Convention : Reuss Voigt Hill
#
# Bulk Modulus (GPa) = 38.21498 51.25430 44.73464
# Shear Modulus (GPa) = -12.11577 26.52596 7.20510
#
# Velocity S-wave (km/s) = -2.34861 3.47513 1.81115
# Velocity P-wave (km/s) = 3.16916 6.27986 4.97394
#
# Compressibility (1/GPa) = 0.02616775
#
# Stress axis : x y z
#
# Youngs Moduli (GPa) = 139.02237 44.48752 127.31050
#
# Poissons Ratio (x) = 0.13137 0.15885
# Poissons Ratio (y) = 0.41054 0.18822
# Poissons Ratio (z) = 0.17346 0.06577
#
# Static dielectric constant tensor:
#      x y z
#    x 1.782290 0.000000 0.000000 
#    y 0.000000 1.815400 0.000000 
#    z 0.000000 0.000000 1.824640 
# 
# From -- ./inp_files/10164.got.cif
#   From: 2010.05.17/outbox.cif.g08.bks.cpg/sg36_6_cif.got.tgz:10164.got - 2010.06.03 17:41:39.
