data_PCOD9350821
_publ_section_title
;
Structure prediction by ZEFSAII (Michael W. Deem and Ramdas Pophale) SiO2 
 PCOD9350821
Probable space group: C M C 21
;
_chemical_formula_sum "Si O2"
_cell_formula_units_Z 48
_cell_length_a 9.291517
_cell_length_b 13.955565
_cell_length_c 16.290309
_cell_angle_alpha 90.000000
_cell_angle_beta 90.000000
_cell_angle_gamma 90.000000
_cell_volume 2112.337806
_symmetry_space_group_name_H-M "C M C 21"
_symmetry_group_IT_number 36
_symmetry_cell_setting 'orthorhombic'
loop_
_space_group_symop_operation_xyz
x,y,z
-x,-y,1/2+z
x,-y,1/2+z
-x,y,z
1/2+x,1/2+y,z
1/2-x,1/2-y,1/2+z
1/2+x,1/2-y,1/2+z
1/2-x,1/2+y,z
loop_
_atom_site_type_symbol
_atom_site_label
_atom_site_fract_x
_atom_site_fract_y
_atom_site_fract_z
Si Si1 0.837009 0.809091 0.369160
Si Si2 0.663455 0.055417 0.497013
Si Si3 0.331045 0.996811 0.172965
Si Si4 0.168877 0.268461 0.215442
Si Si5 0.164720 0.779060 0.544425
Si Si6 0.838218 0.967710 0.830870
O O1 0.746980 0.752591 0.301609
O O2 0.768547 0.816093 0.459816
O O3 0.849578 0.916998 0.338055
O O4 0.000000 0.768992 0.376296
O O5 0.500000 0.022364 0.480259
O O6 0.720312 0.998167 0.577645
O O7 0.655477 0.165222 0.526865
O O8 0.752903 0.057385 0.413609
O O9 0.500000 0.023685 0.175441
O O10 0.324667 0.883061 0.196471
O O11 0.240934 0.048227 0.244219
O O12 0.232198 0.216106 0.134654
O O13 0.000000 0.246129 0.220285
O O14 0.000000 0.817479 0.548807
O O15 0.000000 0.928616 0.832130
#
# Coordination Sequence:
#
# PCOD9350821 Si02
#       6
#     8   8   8   8   8   8
#     4   9  17  30  47  67  92 120 147 178 222 272
#     4   9  17  31  51  69  86 116 157 194 223 257
#     4   8  15  29  48  66  85 117 159 192 217 256
#     4   8  14  27  47  67  86 114 153 188 216 255
#     4   8  15  30  50  67  86 117 153 185 220 262
#     4  10  19  29  45  70  97 122 145 179 230 278
#
# _framework density 22.723638000000001
#
# number of rings (size 3 to 8) (size 9 to 14) (size 15 to 20)
#    0.000    3.333    0.000    2.500    0.000    1.333 
#    0.000    5.833    0.000    4.000    0.000    0.000 
#    0.000    0.000    0.000    0.000    0.000    0.000 
#
# Total GULP energy -133834.626482 kJ/mol
# GULP energy per Si atom -5576.442770 kJ/mol
# Density = 2.267192 g / cm^3
# Si number density = 22.723638 Si / 1000 Ang^3
#
#
#
# Elastic Constant Matrix: (Units=GPa)
#
#
# Indices 1 2 3 4 5 6 
#
# 1 69.9179 0.9497 91.7982 0.0000 0.0000 0.0000
# 2 0.9497 38.7841 27.4212 0.0000 0.0000 0.0000
# 3 91.7982 27.4212 261.0426 0.0000 0.0000 0.0000
# 4 0.0000 0.0000 0.0000 46.7184 0.0000 0.0000
# 5 0.0000 0.0000 0.0000 0.0000 37.0850 0.0000
# 6 0.0000 0.0000 0.0000 0.0000 0.0000 3.1457
#
#
#
# Elastic Compliance Matrix: (Units=1/GPa)
#
#
# Indices 1 2 3 4 5 6 
#
# 1 0.028144 0.006814 -0.010613 0.000000 0.000000 0.000000
# 2 0.006814 0.029502 -0.005495 0.000000 0.000000 0.000000
# 3 -0.010613 -0.005495 0.008140 0.000000 0.000000 0.000000
# 4 0.000000 0.000000 0.000000 0.021405 0.000000 0.000000
# 5 0.000000 0.000000 0.000000 0.000000 0.026965 0.000000
# 6 0.000000 0.000000 0.000000 0.000000 0.000000 0.317897
#
#
# Mechanical properties :
#
#
# Convention : Reuss Voigt Hill
#
# Bulk Modulus (GPa) = 21.18697 67.78695 44.48696
# Shear Modulus (GPa) = 10.72101 34.02819 22.37460
#
# Velocity S-wave (km/s) = 2.17445 3.87393 3.14130
# Velocity P-wave (km/s) = 3.95580 7.06438 5.72511
#
# Compressibility (1/GPa) = 0.04719882
#
# Stress axis : x y z
#
# Youngs Moduli (GPa) = 35.53131 33.89562 122.84669
#
# Poissons Ratio (x) = -0.23098 1.30377
# Poissons Ratio (y) = -0.24213 0.67510
# Poissons Ratio (z) = 0.37709 0.18627
#
# Static dielectric constant tensor:
#      x y z
#    x 1.821230 0.000000 0.000000 
#    y 0.000000 1.939780 0.000000 
#    z 0.000000 0.000000 1.892370 
# 
# From -- ./inp_files/6724.got.cif
#   From: 2010.05.17/outbox.cif.g08.bks.cpg/sg36_4_cif.got.tgz:6724.got - 2010.06.03 17:41:39.
