data_PCOD9350051
_publ_section_title
;
Structure prediction by ZEFSAII (Michael W. Deem and Ramdas Pophale) SiO2 
 PCOD9350051
Probable space group: C M M 2
;
_chemical_formula_sum "Si O2"
_cell_formula_units_Z 56
_cell_length_a 13.902259
_cell_length_b 19.203005
_cell_length_c 11.498539
_cell_angle_alpha 90.000000
_cell_angle_beta 90.000000
_cell_angle_gamma 90.000000
_cell_volume 3069.709178
_symmetry_space_group_name_H-M "C M M 2"
_symmetry_group_IT_number 35
_symmetry_cell_setting 'orthorhombic'
loop_
_space_group_symop_operation_xyz
x,y,z
-x,-y,z
-x,y,z
x,-y,z
1/2+x,1/2+y,z
1/2-x,1/2-y,z
1/2-x,1/2+y,z
1/2+x,1/2-y,z
loop_
_atom_site_type_symbol
_atom_site_label
_atom_site_fract_x
_atom_site_fract_y
_atom_site_fract_z
Si Si1 0.891790 0.794313 0.112970
Si Si2 0.615410 0.136410 0.112130
Si Si3 0.287680 0.419778 0.716584
Si Si4 0.108210 0.205687 0.835171
Si Si5 0.388479 0.416268 0.474070
Si Si6 0.884590 0.363591 0.836011
Si Si7 0.712320 0.419778 0.231557
O O1 0.857921 0.716515 0.144277
O O2 0.834872 0.862113 0.149436
O O3 0.000000 0.801637 0.159530
O O4 0.895346 0.792348 0.974070
O O5 0.500000 0.129562 0.122465
O O6 0.675435 0.087892 0.198693
O O7 0.638236 0.124675 0.974070
O O8 0.317032 0.500000 0.737590
O O9 0.334871 0.362113 0.798705
O O10 0.326323 0.399407 0.588718
O O11 0.175435 0.412108 0.749448
O O12 0.142079 0.283485 0.803864
O O13 0.000000 0.198363 0.788610
O O14 0.500000 0.389611 0.474070
O O15 0.396584 0.500000 0.474070
O O16 0.326323 0.399407 0.359423
O O17 0.000000 0.370439 0.825676
O O18 0.682968 0.500000 0.210552
#
# Coordination Sequence:
#
# PCOD9350051 Si02
#       7
#     8   8   8   8   8   8   8
#     4   9  18  33  53  77 106 138 169 207 261 319
#     4   9  19  36  55  76 108 146 174 202 252 315
#     4  11  21  33  53  78 102 134 177 220 260 305
#     4   9  18  33  53  77 106 138 169 207 261 319
#     4   9  20  38  54  71 103 143 175 210 266 322
#     4   9  19  36  55  76 108 146 174 202 252 315
#     4  11  21  33  53  78 102 134 177 220 260 305
#
# _framework density 18.24277
#
# number of rings (size 3 to 8) (size 9 to 14) (size 15 to 20)
#    0.000    2.429    0.000    4.286    0.000    6.857 
#    0.000    6.429    0.000    6.000    0.000    0.000 
#    0.000    0.000    0.000    0.000    0.000    0.000 
#
# Total GULP energy -155880.619701 kJ/mol
# GULP energy per Si atom -5567.164989 kJ/mol
# Density = 1.820125 g / cm^3
# Si number density = 18.242770 Si / 1000 Ang^3
#
#
#
# Elastic Constant Matrix: (Units=GPa)
#
#
# Indices 1 2 3 4 5 6 
#
# 1 84.0134 30.6541 41.1864 0.0000 0.0000 0.0000
# 2 30.6541 69.5804 24.8209 0.0000 0.0000 0.0000
# 3 41.1864 24.8209 47.9892 0.0000 0.0000 0.0000
# 4 0.0000 0.0000 0.0000 851.0224 0.0000 0.0000
# 5 0.0000 0.0000 0.0000 0.0000 9.2764 0.0000
# 6 0.0000 0.0000 0.0000 0.0000 0.0000 31.0294
#
#
#
# Elastic Compliance Matrix: (Units=1/GPa)
#
#
# Indices 1 2 3 4 5 6 
#
# 1 0.021221 -0.003497 -0.016403 0.000000 0.000000 0.000000
# 2 -0.003497 0.018200 -0.006412 0.000000 0.000000 0.000000
# 3 -0.016403 -0.006412 0.038232 0.000000 0.000000 0.000000
# 4 0.000000 0.000000 0.000000 0.001175 0.000000 0.000000
# 5 0.000000 0.000000 0.000000 0.000000 0.107801 0.000000
# 6 0.000000 0.000000 0.000000 0.000000 0.000000 0.032228
#
#
# Mechanical properties :
#
#
# Convention : Reuss Voigt Hill
#
# Bulk Modulus (GPa) = 39.95566 43.87842 41.91704
# Shear Modulus (GPa) = 17.86838 185.26040 101.56439
#
# Velocity S-wave (km/s) = 3.13306 10.08827 7.46958
# Velocity P-wave (km/s) = 5.91927 12.64130 9.87016
#
# Compressibility (1/GPa) = 0.02502774
#
# Stress axis : x y z
#
# Youngs Moduli (GPa) = 47.12424 54.94551 26.15585
#
# Poissons Ratio (x) = 0.19217 0.42905
# Poissons Ratio (y) = 0.16481 0.16770
# Poissons Ratio (z) = 0.77300 0.35229
#
# Static dielectric constant tensor:
#      x y z
#    x 1.721700 0.000000 0.000000 
#    y 0.000000 1.624220 0.000000 
#    z 0.000000 0.000000 1.613900 
# 
# From -- ./inp_files/7619.got.cif
#   From: 2010.05.17/outbox.cif.g08.bks.cpg/sg35_4_cif.got.tgz:7619.got - 2010.06.03 17:29:28.
