data_PCOD9350812
_publ_section_title
;
Structure prediction by ZEFSAII (Michael W. Deem and Ramdas Pophale) SiO2 
 PCOD9350812
Probable space group: C M C 21
;
_chemical_formula_sum "Si O2"
_cell_formula_units_Z 56
_cell_length_a 30.903238
_cell_length_b 18.438307
_cell_length_c 5.179143
_cell_angle_alpha 90.000000
_cell_angle_beta 90.000000
_cell_angle_gamma 90.000000
_cell_volume 2951.093236
_symmetry_space_group_name_H-M "C M C 21"
_symmetry_group_IT_number 36
_symmetry_cell_setting 'orthorhombic'
loop_
_space_group_symop_operation_xyz
x,y,z
-x,-y,1/2+z
x,-y,1/2+z
-x,y,z
1/2+x,1/2+y,z
1/2-x,1/2-y,1/2+z
1/2+x,1/2-y,1/2+z
1/2-x,1/2+y,z
loop_
_atom_site_type_symbol
_atom_site_label
_atom_site_fract_x
_atom_site_fract_y
_atom_site_fract_z
Si Si1 0.547374 0.735585 0.200010
Si Si2 0.685878 0.545680 0.220342
Si Si3 0.450557 0.973903 0.955504
Si Si4 0.147818 0.794550 0.738896
Si Si5 0.209741 0.453116 0.720295
Si Si6 0.162398 0.299762 0.727333
Si Si7 0.437286 0.822864 0.691792
O O1 0.500000 0.698194 0.231861
O O2 0.594909 0.701525 0.256826
O O3 0.546617 0.801238 0.409063
O O4 0.550240 0.762555 0.904634
O O5 0.672965 0.504532 0.480789
O O6 0.665745 0.625085 0.203688
O O7 0.738042 0.551950 0.218704
O O8 0.500000 0.996824 0.012283
O O9 0.451993 0.897143 0.817933
O O10 0.429434 0.025224 0.738057
O O11 0.160955 0.743821 0.496851
O O12 0.168332 0.757186 0.993415
O O13 0.196416 0.499089 0.468211
O O14 0.192081 0.370999 0.726876
O O15 0.114067 0.328225 0.680984
#
# Coordination Sequence:
#
# PCOD9350812 Si02
#       7
#     8   8   8   8   8   8   8
#     4  10  19  33  53  73  98 131 168 215 264 315
#     4  10  21  38  59  82 110 144 176 214 271 334
#     4  10  19  28  39  57  82 116 160 204 245 294
#     4  10  21  36  56  83 109 138 181 225 270 320
#     4  10  21  36  55  80 112 150 186 218 263 320
#     4  10  21  35  53  80 109 139 181 228 264 306
#     4  10  20  32  47  69  96 130 170 212 265 311
#
# _framework density 18.976019999999998
#
# number of rings (size 3 to 8) (size 9 to 14) (size 15 to 20)
#    0.000    2.000    0.000    3.857    0.000    3.429 
#    0.000    0.000    0.000    0.857    0.000    0.000 
#    0.000    0.000    0.000    0.000    0.000    0.000 
#
# Total GULP energy -156079.588418 kJ/mol
# GULP energy per Si atom -5574.271015 kJ/mol
# Density = 1.893283 g / cm^3
# Si number density = 18.976020 Si / 1000 Ang^3
#
#
#
# Elastic Constant Matrix: (Units=GPa)
#
#
# Indices 1 2 3 4 5 6 
#
# 1 39.4470 35.9840 15.8141 0.0000 0.0000 0.0000
# 2 35.9840 87.5289 8.7574 0.0000 0.0000 0.0000
# 3 15.8141 8.7574 79.2472 0.0000 0.0000 0.0000
# 4 0.0000 0.0000 0.0000 24.8106 0.0000 0.0000
# 5 0.0000 0.0000 0.0000 0.0000 2.9596 0.0000
# 6 0.0000 0.0000 0.0000 0.0000 0.0000 11.5758
#
#
#
# Elastic Compliance Matrix: (Units=1/GPa)
#
#
# Indices 1 2 3 4 5 6 
#
# 1 0.043956 -0.017385 -0.006850 0.000000 0.000000 0.000000
# 2 -0.017385 0.018429 0.001433 0.000000 0.000000 0.000000
# 3 -0.006850 0.001433 0.013827 0.000000 0.000000 0.000000
# 4 0.000000 0.000000 0.000000 0.040305 0.000000 0.000000
# 5 0.000000 0.000000 0.000000 0.000000 0.337884 0.000000
# 6 0.000000 0.000000 0.000000 0.000000 0.000000 0.086387
#
#
# Mechanical properties :
#
#
# Convention : Reuss Voigt Hill
#
# Bulk Modulus (GPa) = 32.67308 36.37046 34.52177
# Shear Modulus (GPa) = 8.38088 17.58038 12.98063
#
# Velocity S-wave (km/s) = 2.10384 3.04707 2.61828
# Velocity P-wave (km/s) = 4.81217 5.62029 5.23186
#
# Compressibility (1/GPa) = 0.03060623
#
# Stress axis : x y z
#
# Youngs Moduli (GPa) = 22.75011 54.26313 72.32003
#
# Poissons Ratio (x) = 0.94338 0.49542
# Poissons Ratio (y) = 0.39552 -0.10362
# Poissons Ratio (z) = 0.15585 -0.07775
#
# Static dielectric constant tensor:
#      x y z
#    x 1.687530 0.000000 0.000000 
#    y 0.000000 1.627340 0.000000 
#    z 0.000000 0.000000 1.725780 
# 
# From -- ./inp_files/1860.got.cif
#   From: 2010.05.17/outbox.cif.g08.bks.cpg/sg36_1_cif.got.tgz:1860.got - 2010.06.03 17:41:39.
