data_PCOD9350480
_publ_section_title
;
Structure prediction by ZEFSAII (Michael W. Deem and Ramdas Pophale) SiO2 
 PCOD9350480
Probable space group: C M C 21
;
_chemical_formula_sum "Si O2"
_cell_formula_units_Z 64
_cell_length_a 9.033236
_cell_length_b 23.711090
_cell_length_c 17.672427
_cell_angle_alpha 90.000000
_cell_angle_beta 90.000000
_cell_angle_gamma 90.000000
_cell_volume 3785.219528
_symmetry_space_group_name_H-M "C M C 21"
_symmetry_group_IT_number 36
_symmetry_cell_setting 'orthorhombic'
loop_
_space_group_symop_operation_xyz
x,y,z
-x,-y,1/2+z
x,-y,1/2+z
-x,y,z
1/2+x,1/2+y,z
1/2-x,1/2-y,1/2+z
1/2+x,1/2-y,1/2+z
1/2-x,1/2+y,z
loop_
_atom_site_type_symbol
_atom_site_label
_atom_site_fract_x
_atom_site_fract_y
_atom_site_fract_z
Si Si1 0.325748 0.192516 0.140800
Si Si2 0.823896 0.574371 0.084218
Si Si3 0.322615 0.808996 0.102590
Si Si4 0.824438 0.631023 0.301144
Si Si5 0.174946 0.859947 0.953378
Si Si6 0.332384 0.966543 0.006769
Si Si7 0.825339 0.025972 0.232964
Si Si8 0.169688 0.579965 0.680140
O O1 0.500000 0.207221 0.136963
O O2 0.298929 0.141164 0.081704
O O3 0.229331 0.247127 0.125246
O O4 0.297049 0.165761 0.223760
O O5 0.720009 0.551050 0.150762
O O6 0.000000 0.567431 0.105922
O O7 0.800762 0.533224 0.012984
O O8 0.500000 0.812723 0.094793
O O9 0.279318 0.856037 0.165638
O O10 0.248146 0.827187 0.023605
O O11 0.744994 0.657432 0.373551
O O12 0.760267 0.568160 0.288571
O O13 0.000000 0.628454 0.312420
O O14 0.219535 0.925693 0.965372
O O15 0.000000 0.852938 0.954094
O O16 0.500000 0.957625 0.977894
O O17 0.332065 0.945652 0.094539
O O18 0.000000 0.028792 0.244955
O O19 0.767246 0.961833 0.230399
O O20 0.000000 0.579225 0.707261
#
# Coordination Sequence:
#
# PCOD9350480 Si02
#       8
#     8   8   8   8   8   8   8   8
#     4   9  18  32  51  74  98 128 169 213 249 288
#     4   8  15  28  45  66  94 126 155 187 233 287
#     4  10  20  33  50  72 100 135 172 207 248 299
#     4  10  20  35  52  70  98 133 164 199 253 312
#     4  11  21  32  49  74 101 127 163 210 254 297
#     4   8  14  27  46  67  93 124 155 187 233 291
#     4  10  17  25  43  71  96 118 150 193 238 280
#     4   8  15  28  44  64  92 125 156 186 228 284
#
# _framework density 16.907869999999999
#
# number of rings (size 3 to 8) (size 9 to 14) (size 15 to 20)
#    0.000    2.750    0.000    5.250    0.000    7.500 
#    0.000    0.000    0.000    1.500    0.000    8.750 
#    0.000    0.000    0.000    0.000    0.000    0.000 
#
# Total GULP energy -178194.530829 kJ/mol
# GULP energy per Si atom -5568.579088 kJ/mol
# Density = 1.686939 g / cm^3
# Si number density = 16.907870 Si / 1000 Ang^3
#
#
#
# Elastic Constant Matrix: (Units=GPa)
#
#
# Indices 1 2 3 4 5 6 
#
# 1 88.9048 50.5678 31.2158 0.0000 0.0000 0.0000
# 2 50.5678 117.6012 24.2157 0.0000 0.0000 0.0000
# 3 31.2158 24.2157 41.1260 0.0000 0.0000 0.0000
# 4 0.0000 0.0000 0.0000 11.9066 0.0000 0.0000
# 5 0.0000 0.0000 0.0000 0.0000 18.5666 0.0000
# 6 0.0000 0.0000 0.0000 0.0000 0.0000 29.7273
#
#
#
# Elastic Compliance Matrix: (Units=1/GPa)
#
#
# Indices 1 2 3 4 5 6 
#
# 1 0.018121 -0.005644 -0.010431 0.000000 0.000000 0.000000
# 2 -0.005644 0.011434 -0.002449 0.000000 0.000000 0.000000
# 3 -0.010431 -0.002449 0.033675 0.000000 0.000000 0.000000
# 4 0.000000 0.000000 0.000000 0.083987 0.000000 0.000000
# 5 0.000000 0.000000 0.000000 0.000000 0.053860 0.000000
# 6 0.000000 0.000000 0.000000 0.000000 0.000000 0.033639
#
#
# Mechanical properties :
#
#
# Convention : Reuss Voigt Hill
#
# Bulk Modulus (GPa) = 38.19341 51.07008 44.63174
# Shear Modulus (GPa) = 17.82588 21.48226 19.65407
#
# Velocity S-wave (km/s) = 3.25051 3.56834 3.41313
# Velocity P-wave (km/s) = 6.06019 6.87371 6.47973
#
# Compressibility (1/GPa) = 0.02618253
#
# Stress axis : x y z
#
# Youngs Moduli (GPa) = 55.18591 87.45528 29.69583
#
# Poissons Ratio (x) = 0.49359 0.30975
# Poissons Ratio (y) = 0.31146 0.07272
# Poissons Ratio (z) = 0.57563 0.21417
#
# Static dielectric constant tensor:
#      x y z
#    x 1.562210 0.000000 0.000000 
#    y 0.000000 1.610250 0.000000 
#    z 0.000000 0.000000 1.587540 
# 
# From -- ./inp_files/14063.got.cif
#   From: 2010.05.17/outbox.cif.g08.bks.cpg/sg36_8_cif.got.tgz:14063.got - 2010.06.03 17:41:39.
