data_PCOD9350015
_publ_section_title
;
Structure prediction by ZEFSAII (Michael W. Deem and Ramdas Pophale) SiO2 
 PCOD9350015
Probable space group: C M M 2
;
_chemical_formula_sum "Si O2"
_cell_formula_units_Z 48
_cell_length_a 17.053950
_cell_length_b 9.778272
_cell_length_c 14.022046
_cell_angle_alpha 90.000000
_cell_angle_beta 90.000000
_cell_angle_gamma 90.000000
_cell_volume 2338.290615
_symmetry_space_group_name_H-M "C M M 2"
_symmetry_group_IT_number 35
_symmetry_cell_setting 'orthorhombic'
loop_
_space_group_symop_operation_xyz
x,y,z
-x,-y,z
-x,y,z
x,-y,z
1/2+x,1/2+y,z
1/2-x,1/2-y,z
1/2-x,1/2+y,z
1/2+x,1/2-y,z
loop_
_atom_site_type_symbol
_atom_site_label
_atom_site_fract_x
_atom_site_fract_y
_atom_site_fract_z
Si Si1 0.309047 0.000000 0.356771
Si Si2 0.094378 0.657096 0.920958
Si Si3 0.671028 0.336132 0.082596
Si Si4 0.087883 0.260776 0.270883
Si Si5 0.090652 0.286346 0.701395
Si Si6 0.869196 0.000000 0.615257
Si Si7 0.816128 0.500000 0.581434
Si Si8 0.377713 0.500000 0.390876
O O1 0.347688 0.869911 0.305356
O O2 0.214669 0.000000 0.359994
O O3 0.330091 0.000000 0.468658
O O4 0.116780 0.500000 0.946382
O O5 0.114207 0.683550 0.810286
O O6 0.000000 0.667221 0.930265
O O7 0.134684 0.769070 0.987516
O O8 0.683563 0.500000 0.075956
O O9 0.750000 0.250000 0.101514
O O10 0.612811 0.302079 0.169606
O O11 0.000000 0.320262 0.265724
O O12 0.088389 0.136662 0.345308
O O13 0.100214 0.130510 0.671660
O O14 0.143681 0.370247 0.629154
O O15 0.000000 0.328554 0.692076
O O16 0.774990 0.000000 0.608064
O O17 0.892083 0.000000 0.503826
#
# Coordination Sequence:
#
# PCOD9350015 Si02
#       8
#     4   8   8   8   8   4   4   4
#     4  11  25  43  66  97 132 181 225 274 332 403
#     4  10  23  45  70  97 134 178 224 278 339 401
#     4  12  27  46  71 101 135 176 222 275 339 407
#     4  12  26  43  68 100 133 172 222 279 332 394
#     4  11  23  42  67  97 135 178 223 276 333 393
#     4  11  25  39  64 101 134 179 223 280 332 395
#     4  11  23  43  66  93 134 179 229 274 336 393
#     4  11  23  45  66  91 138 179 225 274 340 391
#
# _framework density 20.527816999999999
#
# number of rings (size 3 to 8) (size 9 to 14) (size 15 to 20)
#    0.000    0.833    1.667    5.000    3.500    9.000 
#    0.000    0.000    0.000    0.000    0.000    0.000 
#    0.000    0.000    0.000    0.000    0.000    0.000 
#
# Total GULP energy -134288.726483 kJ/mol
# GULP energy per Si atom -5595.363603 kJ/mol
# Density = 2.048109 g / cm^3
# Si number density = 20.527817 Si / 1000 Ang^3
#
#
#
# Elastic Constant Matrix: (Units=GPa)
#
#
# Indices 1 2 3 4 5 6 
#
# 1 72.0213 26.4976 41.4795 0.0000 0.0000 0.0000
# 2 26.4976 135.0839 37.1682 0.0000 0.0000 0.0000
# 3 41.4795 37.1682 93.9764 0.0000 0.0000 0.0000
# 4 0.0000 0.0000 0.0000 39.0409 0.0000 0.0000
# 5 0.0000 0.0000 0.0000 0.0000 35.5254 0.0000
# 6 0.0000 0.0000 0.0000 0.0000 0.0000 32.7525
#
#
#
# Elastic Compliance Matrix: (Units=1/GPa)
#
#
# Indices 1 2 3 4 5 6 
#
# 1 0.018915 -0.001586 -0.007722 0.000000 0.000000 0.000000
# 2 -0.001586 0.008440 -0.002638 0.000000 0.000000 0.000000
# 3 -0.007722 -0.002638 0.015093 0.000000 0.000000 0.000000
# 4 0.000000 0.000000 0.000000 0.025614 0.000000 0.000000
# 5 0.000000 0.000000 0.000000 0.000000 0.028149 0.000000
# 6 0.000000 0.000000 0.000000 0.000000 0.000000 0.030532
#
#
# Mechanical properties :
#
#
# Convention : Reuss Voigt Hill
#
# Bulk Modulus (GPa) = 53.88910 56.81913 55.35412
# Shear Modulus (GPa) = 31.88381 34.52618 33.20500
#
# Velocity S-wave (km/s) = 3.94534 4.10557 4.02625
# Velocity P-wave (km/s) = 6.86025 7.08615 6.97411
#
# Compressibility (1/GPa) = 0.01855663
#
# Stress axis : x y z
#
# Youngs Moduli (GPa) = 52.86693 118.48747 66.25772
#
# Poissons Ratio (x) = 0.18789 0.51163
# Poissons Ratio (y) = 0.08383 0.17479
# Poissons Ratio (z) = 0.40823 0.31257
#
# Static dielectric constant tensor:
#      x y z
#    x 1.729510 0.000000 0.000000 
#    y 0.000000 1.686610 0.000000 
#    z 0.000000 0.000000 1.694300 
# 
# From -- ./inp_files/15359.got.cif
#   From: 2010.05.17/outbox.cif.g08.bks.cpg/sg35_8_cif.got.tgz:15359.got - 2010.06.03 17:29:28.
