data_PCOD9350621
_publ_section_title
;
Structure prediction by ZEFSAII (Michael W. Deem and Ramdas Pophale) SiO2 
 PCOD9350621
Probable space group: C M C 21
;
_chemical_formula_sum "Si O2"
_cell_formula_units_Z 48
_cell_length_a 8.693944
_cell_length_b 14.582571
_cell_length_c 16.058596
_cell_angle_alpha 90.000000
_cell_angle_beta 90.000000
_cell_angle_gamma 90.000000
_cell_volume 2035.909695
_symmetry_space_group_name_H-M "C M C 21"
_symmetry_group_IT_number 36
_symmetry_cell_setting 'orthorhombic'
loop_
_space_group_symop_operation_xyz
x,y,z
-x,-y,1/2+z
x,-y,1/2+z
-x,y,z
1/2+x,1/2+y,z
1/2-x,1/2-y,1/2+z
1/2+x,1/2-y,1/2+z
1/2-x,1/2+y,z
loop_
_atom_site_type_symbol
_atom_site_label
_atom_site_fract_x
_atom_site_fract_y
_atom_site_fract_z
Si Si1 0.828152 0.181707 0.294330
Si Si2 0.817838 0.724984 0.127869
Si Si3 0.326722 0.468143 0.249888
Si Si4 0.314271 0.475367 0.575597
Si Si5 0.180001 0.419939 0.418254
Si Si6 0.820866 0.274088 0.962891
O O1 0.754488 0.240375 0.219251
O O2 0.839752 0.077933 0.262105
O O3 0.734201 0.176609 0.379387
O O4 0.000000 0.216373 0.312704
O O5 0.759417 0.622964 0.101362
O O6 0.000000 0.725581 0.135387
O O7 0.767611 0.787301 0.049837
O O8 0.500000 0.429683 0.262705
O O9 0.280648 0.458173 0.153558
O O10 0.211596 0.439327 0.321922
O O11 0.500000 0.467941 0.569904
O O12 0.242425 0.494621 0.484987
O O13 0.281869 0.330868 0.437729
O O14 0.000000 0.404711 0.434088
O O15 0.000000 0.287421 0.977461
#
# Coordination Sequence:
#
# PCOD9350621 Si02
#       6
#     8   8   8   8   8   8
#     4  10  20  36  56  79 106 136 174 217 262 310
#     4  10  18  31  52  77 104 136 174 211 254 310
#     4   9  19  35  55  77 103 136 171 211 258 308
#     4   9  17  32  53  74 100 136 175 212 253 305
#     4  11  21  33  53  79 107 137 172 215 258 306
#     4  11  21  35  55  78 106 139 176 216 259 307
#
# _framework density 23.576684
#
# number of rings (size 3 to 8) (size 9 to 14) (size 15 to 20)
#    0.000    2.000    0.000    8.500    0.000    4.000 
#    0.000    1.667    0.000    6.000    0.000    0.000 
#    0.000    0.000    0.000    0.000    0.000    0.000 
#
# Total GULP energy -134102.518307 kJ/mol
# GULP energy per Si atom -5587.604929 kJ/mol
# Density = 2.352302 g / cm^3
# Si number density = 23.576684 Si / 1000 Ang^3
#
#
#
# Elastic Constant Matrix: (Units=GPa)
#
#
# Indices 1 2 3 4 5 6 
#
# 1 101.4064 -3.7353 40.3666 0.0000 0.0000 0.0000
# 2 -3.7353 21.0704 39.4186 0.0000 0.0000 0.0000
# 3 40.3666 39.4186 157.2642 0.0000 0.0000 0.0000
# 4 0.0000 0.0000 0.0000 37.0477 0.0000 0.0000
# 5 0.0000 0.0000 0.0000 0.0000 -161.9015 0.0000
# 6 0.0000 0.0000 0.0000 0.0000 0.0000 10.4203
#
#
#
# Elastic Compliance Matrix: (Units=1/GPa)
#
#
# Indices 1 2 3 4 5 6 
#
# 1 0.013533 0.016754 -0.007673 0.000000 0.000000 0.000000
# 2 0.016754 0.110107 -0.031899 0.000000 0.000000 0.000000
# 3 -0.007673 -0.031899 0.016324 0.000000 0.000000 0.000000
# 4 0.000000 0.000000 0.000000 0.026992 0.000000 0.000000
# 5 0.000000 0.000000 0.000000 0.000000 -0.006177 0.000000
# 6 0.000000 0.000000 0.000000 0.000000 0.000000 0.095966
#
#
# Mechanical properties :
#
#
# Convention : Reuss Voigt Hill
#
# Bulk Modulus (GPa) = 10.60139 47.98232 29.29185
# Shear Modulus (GPa) = 14.97794 -9.30730 2.83532
#
# Velocity S-wave (km/s) = 2.52322 -1.98903 1.09782
# Velocity P-wave (km/s) = 3.60488 3.88855 3.74940
#
# Compressibility (1/GPa) = 0.09432725
#
# Stress axis : x y z
#
# Youngs Moduli (GPa) = 73.89453 9.08208 61.26038
#
# Poissons Ratio (x) = -0.15216 0.47005
# Poissons Ratio (y) = -1.23801 1.95414
# Poissons Ratio (z) = 0.56699 0.28971
#
# Static dielectric constant tensor:
#      x y z
#    x 1.906300 0.000000 0.000000 
#    y 0.000000 2.020540 0.000000 
#    z 0.000000 0.000000 1.966660 
# 
# From -- ./inp_files/6765.got.cif
#   From: 2010.05.17/outbox.cif.g08.bks.cpg/sg36_4_cif.got.tgz:6765.got - 2010.06.03 17:41:39.
