data_PCOD9350403
_publ_section_title
;
Structure prediction by ZEFSAII (Michael W. Deem and Ramdas Pophale) SiO2 
 PCOD9350403
Probable space group: C M M 2
;
_chemical_formula_sum "Si O2"
_cell_formula_units_Z 64
_cell_length_a 30.284260
_cell_length_b 8.296001
_cell_length_c 12.624303
_cell_angle_alpha 90.000000
_cell_angle_beta 90.000000
_cell_angle_gamma 90.000000
_cell_volume 3171.707809
_symmetry_space_group_name_H-M "C M M 2"
_symmetry_group_IT_number 35
_symmetry_cell_setting 'orthorhombic'
loop_
_space_group_symop_operation_xyz
x,y,z
-x,-y,z
-x,y,z
x,-y,z
1/2+x,1/2+y,z
1/2-x,1/2-y,z
1/2-x,1/2+y,z
1/2+x,1/2-y,z
loop_
_atom_site_type_symbol
_atom_site_label
_atom_site_fract_x
_atom_site_fract_y
_atom_site_fract_z
Si Si1 0.800630 0.806781 0.308950
Si Si2 0.077457 0.309118 0.799377
Si Si3 0.452125 0.193725 0.563796
Si Si4 0.646574 0.806202 0.514707
Si Si5 0.861531 0.809972 0.118595
Si Si6 0.203131 0.686224 0.951471
Si Si7 0.328230 0.314441 0.742712
Si Si8 0.451412 0.304628 0.027312
O O1 0.750000 0.750000 0.304621
O O2 0.825568 0.754837 0.415684
O O3 0.830670 0.742409 0.211654
O O4 0.799597 0.000000 0.303509
O O5 0.088843 0.500000 0.802007
O O6 0.050836 0.281360 0.690864
O O7 0.121896 0.207657 0.785254
O O8 0.054426 0.261840 0.908329
O O9 0.500000 0.256900 0.525877
O O10 0.405012 0.251897 0.517007
O O11 0.452367 0.000000 0.547496
O O12 0.669562 0.748264 0.623145
O O13 0.645692 0.000000 0.515289
O O14 0.866076 0.000000 0.139367
O O15 0.835103 0.783893 0.009874
O O16 0.910747 0.744856 0.099126
O O17 0.197584 0.500000 0.976876
O O18 0.250000 0.750000 0.990597
O O19 0.200045 0.713116 0.825834
O O20 0.314603 0.500000 0.746517
O O21 0.500000 0.260576 0.067330
O O22 0.448825 0.500000 0.021340
#
# Coordination Sequence:
#
# PCOD9350403 Si02
#       8
#     8   8   8   8   8   8   8   8
#     4  11  24  43  66  89 113 150 200 253 308 364
#     4  10  18  30  51  82 118 161 205 247 291 344
#     4   8  15  29  51  81 118 157 195 236 284 339
#     4  10  21  38  61  89 120 154 198 248 300 355
#     4  10  22  41  62  86 120 157 198 249 300 355
#     4  12  24  38  59  88 120 156 196 241 299 365
#     4  11  21  36  57  84 122 161 196 241 296 357
#     4  10  20  34  55  84 120 163 205 244 293 353
#
# _framework density 20.178404
#
# number of rings (size 3 to 8) (size 9 to 14) (size 15 to 20)
#    0.000    1.750    1.250    4.875    0.000    3.250 
#    0.000    3.125    0.000    8.250    0.000    0.000 
#    0.000    0.000    0.000    0.000    0.000    0.000 
#
# Total GULP energy -178625.309149 kJ/mol
# GULP energy per Si atom -5582.040911 kJ/mol
# Density = 2.013248 g / cm^3
# Si number density = 20.178404 Si / 1000 Ang^3
#
#
#
# Elastic Constant Matrix: (Units=GPa)
#
#
# Indices 1 2 3 4 5 6 
#
# 1 140.7099 7.0260 61.5219 0.0000 0.0000 0.0000
# 2 7.0260 32.3564 2.7037 0.0000 0.0000 0.0000
# 3 61.5219 2.7037 104.7830 0.0000 0.0000 0.0000
# 4 0.0000 0.0000 0.0000 16.6511 0.0000 0.0000
# 5 0.0000 0.0000 0.0000 0.0000 10.0035 0.0000
# 6 0.0000 0.0000 0.0000 0.0000 0.0000 4.1671
#
#
#
# Elastic Compliance Matrix: (Units=1/GPa)
#
#
# Indices 1 2 3 4 5 6 
#
# 1 0.009646 -0.001625 -0.005621 0.000000 0.000000 0.000000
# 2 -0.001625 0.031246 0.000148 0.000000 0.000000 0.000000
# 3 -0.005621 0.000148 0.012840 0.000000 0.000000 0.000000
# 4 0.000000 0.000000 0.000000 0.060056 0.000000 0.000000
# 5 0.000000 0.000000 0.000000 0.000000 0.099965 0.000000
# 6 0.000000 0.000000 0.000000 0.000000 0.000000 0.239977
#
#
# Mechanical properties :
#
#
# Convention : Reuss Voigt Hill
#
# Bulk Modulus (GPa) = 25.29387 46.70582 35.99984
# Shear Modulus (GPa) = 10.39272 19.93750 15.16511
#
# Velocity S-wave (km/s) = 2.27192 3.14675 2.74442
# Velocity P-wave (km/s) = 4.40959 6.03319 5.28412
#
# Compressibility (1/GPa) = 0.03953528
#
# Stress axis : x y z
#
# Youngs Moduli (GPa) = 103.67205 32.00383 77.87982
#
# Poissons Ratio (x) = 0.05200 0.43780
# Poissons Ratio (y) = 0.16845 -0.01151
# Poissons Ratio (z) = 0.58279 -0.00473
#
# Static dielectric constant tensor:
#      x y z
#    x 1.751220 0.000000 0.000000 
#    y 0.000000 1.694090 0.000000 
#    z 0.000000 0.000000 1.699770 
# 
# From -- ./inp_files/12023.got.cif
#   From: 2010.05.17/outbox.cif.g08.bks.cpg/sg35_7_cif.got.tgz:12023.got - 2010.06.03 17:29:28.
