data_PCOD9350948
_publ_section_title
;
Structure prediction by ZEFSAII (Michael W. Deem and Ramdas Pophale) SiO2 
 PCOD9350948
Probable space group: C M C 21
;
_chemical_formula_sum "Si O2"
_cell_formula_units_Z 48
_cell_length_a 9.065686
_cell_length_b 18.477838
_cell_length_c 16.919385
_cell_angle_alpha 90.000000
_cell_angle_beta 90.000000
_cell_angle_gamma 90.000000
_cell_volume 2834.238550
_symmetry_space_group_name_H-M "C M C 21"
_symmetry_group_IT_number 36
_symmetry_cell_setting 'orthorhombic'
loop_
_space_group_symop_operation_xyz
x,y,z
-x,-y,1/2+z
x,-y,1/2+z
-x,y,z
1/2+x,1/2+y,z
1/2-x,1/2-y,1/2+z
1/2+x,1/2-y,1/2+z
1/2-x,1/2+y,z
loop_
_atom_site_type_symbol
_atom_site_label
_atom_site_fract_x
_atom_site_fract_y
_atom_site_fract_z
Si Si1 0.823934 0.580181 0.460370
Si Si2 0.331225 0.296799 0.867884
Si Si3 0.824753 0.074544 0.939968
Si Si4 0.176039 0.169320 0.785563
Si Si5 0.177215 0.840849 0.107962
Si Si6 0.668021 0.802074 0.526472
O O1 0.761015 0.632800 0.391845
O O2 0.761127 0.500100 0.448608
O O3 0.761871 0.612355 0.542965
O O4 0.000000 0.581335 0.460440
O O5 0.500000 0.315398 0.848634
O O6 0.257940 0.244460 0.803800
O O7 0.332902 0.247681 0.947521
O O8 0.789844 0.113085 0.855900
O O9 0.000000 0.062692 0.944129
O O10 0.773031 0.131195 0.007196
O O11 0.212202 0.140746 0.698356
O O12 0.000000 0.182441 0.788280
O O13 0.211474 0.755738 0.093180
O O14 0.000000 0.848729 0.094809
O O15 0.500000 0.827211 0.540175
#
# Coordination Sequence:
#
# PCOD9350948 Si02
#       6
#     8   8   8   8   8   8
#     4  11  21  33  51  74 101 134 173 210 249 300
#     4   9  17  31  51  73  98 128 163 202 244 293
#     4  10  19  32  51  74 101 132 167 205 248 299
#     4   9  18  33  54  78 102 130 165 208 255 303
#     4   9  18  34  54  76 103 131 163 208 258 302
#     4   8  15  29  49  71  95 125 159 195 238 291
#
# _framework density 16.935766000000001
#
# number of rings (size 3 to 8) (size 9 to 14) (size 15 to 20)
#    0.000    2.667    0.000    3.500    0.000    5.333 
#    0.000    1.667    0.000    0.000    0.000    0.000 
#    0.000    0.000    0.000    0.000    0.000    0.000 
#
# Total GULP energy -133745.970816 kJ/mol
# GULP energy per Si atom -5572.748784 kJ/mol
# Density = 1.689722 g / cm^3
# Si number density = 16.935766 Si / 1000 Ang^3
#
#
#
# Elastic Constant Matrix: (Units=GPa)
#
#
# Indices 1 2 3 4 5 6 
#
# 1 99.3594 76.6654 44.8990 0.0000 0.0000 0.0000
# 2 76.6654 114.1215 37.3203 0.0000 0.0000 0.0000
# 3 44.8990 37.3203 71.7878 0.0000 0.0000 0.0000
# 4 0.0000 0.0000 0.0000 14.6213 0.0000 0.0000
# 5 0.0000 0.0000 0.0000 0.0000 19.5888 0.0000
# 6 0.0000 0.0000 0.0000 0.0000 0.0000 28.8893
#
#
#
# Elastic Compliance Matrix: (Units=1/GPa)
#
#
# Indices 1 2 3 4 5 6 
#
# 1 0.024238 -0.013645 -0.008066 0.000000 0.000000 0.000000
# 2 -0.013645 0.018239 -0.000948 0.000000 0.000000 0.000000
# 3 -0.008066 -0.000948 0.019467 0.000000 0.000000 0.000000
# 4 0.000000 0.000000 0.000000 0.068393 0.000000 0.000000
# 5 0.000000 0.000000 0.000000 0.000000 0.051050 0.000000
# 6 0.000000 0.000000 0.000000 0.000000 0.000000 0.034615
#
#
# Mechanical properties :
#
#
# Convention : Reuss Voigt Hill
#
# Bulk Modulus (GPa) = 60.14246 67.00424 63.57335
# Shear Modulus (GPa) = 18.73638 21.04548 19.89093
#
# Velocity S-wave (km/s) = 3.32975 3.52897 3.43081
# Velocity P-wave (km/s) = 7.09733 7.50030 7.30160
#
# Compressibility (1/GPa) = 0.01662719
#
# Stress axis : x y z
#
# Youngs Moduli (GPa) = 41.25835 54.82756 51.36826
#
# Poissons Ratio (x) = 0.74811 0.41431
# Poissons Ratio (y) = 0.56296 0.04869
# Poissons Ratio (z) = 0.33277 0.05197
#
# Static dielectric constant tensor:
#      x y z
#    x 1.569180 0.000000 0.000000 
#    y 0.000000 1.557860 0.000000 
#    z 0.000000 0.000000 1.587270 
# 
# From -- ./inp_files/10408.got.cif
#   From: 2010.05.17/outbox.cif.g08.bks.cpg/sg36_6_cif.got.tgz:10408.got - 2010.06.03 17:41:39.
