data_PCOD9350368
_publ_section_title
;
Structure prediction by ZEFSAII (Michael W. Deem and Ramdas Pophale) SiO2 
 PCOD9350368
Probable space group: C M M 2
;
_chemical_formula_sum "Si O2"
_cell_formula_units_Z 58
_cell_length_a 13.958712
_cell_length_b 19.726700
_cell_length_c 8.457968
_cell_angle_alpha 90.000000
_cell_angle_beta 90.000000
_cell_angle_gamma 90.000000
_cell_volume 2328.980351
_symmetry_space_group_name_H-M "C M M 2"
_symmetry_group_IT_number 35
_symmetry_cell_setting 'orthorhombic'
loop_
_space_group_symop_operation_xyz
x,y,z
-x,-y,z
-x,y,z
x,-y,z
1/2+x,1/2+y,z
1/2-x,1/2-y,z
1/2-x,1/2+y,z
1/2+x,1/2-y,z
loop_
_atom_site_type_symbol
_atom_site_label
_atom_site_fract_x
_atom_site_fract_y
_atom_site_fract_z
Si Si1 0.691532 0.096920 0.437710
Si Si2 0.111288 0.151587 0.430568
Si Si3 0.114405 0.761823 0.113792
Si Si4 0.105586 0.113858 0.901735
Si Si5 0.886195 0.717297 0.612024
Si Si6 0.500000 0.500000 0.066238
Si Si7 0.305449 0.900938 0.779643
Si Si8 0.885606 0.607834 0.109446
O O1 0.806377 0.096087 0.433617
O O2 0.653441 0.174554 0.462325
O O3 0.660527 0.070178 0.610498
O O4 0.650958 0.074606 0.271207
O O5 0.129995 0.196733 0.274761
O O6 0.128121 0.204028 0.575918
O O7 0.000000 0.129680 0.428018
O O8 0.153892 0.685890 0.110400
O O9 0.000000 0.752422 0.104383
O O10 0.134813 0.813962 0.972509
O O11 0.192497 0.088156 0.797884
O O12 0.000000 0.117564 0.821596
O O13 0.082250 0.060289 0.042241
O O14 0.833895 0.678750 0.753948
O O15 0.000000 0.706643 0.626979
O O16 0.352109 0.922603 0.943247
O O17 0.000000 0.607401 0.113749
#
# Coordination Sequence:
#
# PCOD9350368 Si02
#       8
#     8   8   8   8   8   2   8   8
#     4  10  21  31  48  72 108 160 201 228 281 338
#     4  10  18  30  46  69 110 160 197 245 277 335
#     4   9  17  29  48  75 111 151 199 232 283 357
#     4   9  19  36  56  84 111 152 202 264 324 367
#     4   9  18  31  44  66 107 151 190 226 279 328
#     4   8  20  40  64  80 120 156 204 286 348 350
#     4  10  22  32  53  80 111 147 200 234 288 372
#     4  11  21  33  51  78 121 164 189 236 285 354
#
# _framework density 24.903601999999999
#
# number of rings (size 3 to 8) (size 9 to 14) (size 15 to 20)
#    1.241    1.103    1.379    2.069    0.000    4.414 
#    0.000    2.759    0.000    0.000    0.000    9.655 
#    0.000    0.000    0.000    0.000    0.000    0.000 
#
# Total GULP energy -161541.285398 kJ/mol
# GULP energy per Si atom -5570.389152 kJ/mol
# Density = 2.484692 g / cm^3
# Si number density = 24.903602 Si / 1000 Ang^3
#
#
#
# Elastic Constant Matrix: (Units=GPa)
#
#
# Indices 1 2 3 4 5 6 
#
# 1 145.0499 11.2161 50.8138 0.0000 0.0000 0.0000
# 2 11.2161 87.9558 19.9052 0.0000 0.0000 0.0000
# 3 50.8138 19.9052 195.7320 0.0000 0.0000 0.0000
# 4 0.0000 0.0000 0.0000 -57.8613 0.0000 0.0000
# 5 0.0000 0.0000 0.0000 0.0000 25.8215 0.0000
# 6 0.0000 0.0000 0.0000 0.0000 0.0000 -27.5303
#
#
#
# Elastic Compliance Matrix: (Units=1/GPa)
#
#
# Indices 1 2 3 4 5 6 
#
# 1 0.007608 -0.000536 -0.001921 0.000000 0.000000 0.000000
# 2 -0.000536 0.011675 -0.001048 0.000000 0.000000 0.000000
# 3 -0.001921 -0.001048 0.005714 0.000000 0.000000 0.000000
# 4 0.000000 0.000000 0.000000 -0.017283 0.000000 0.000000
# 5 0.000000 0.000000 0.000000 0.000000 0.038727 0.000000
# 6 0.000000 0.000000 0.000000 0.000000 0.000000 -0.036324
#
#
# Mechanical properties :
#
#
# Convention : Reuss Voigt Hill
#
# Bulk Modulus (GPa) = 55.59111 65.84533 60.71822
# Shear Modulus (GPa) = 216.22567 11.20616 113.71591
#
# Velocity S-wave (km/s) = 9.32811 2.12358 6.76473
# Velocity P-wave (km/s) = 11.76389 5.70178 9.24390
#
# Compressibility (1/GPa) = 0.01798849
#
# Stress axis : x y z
#
# Youngs Moduli (GPa) = 131.43238 85.65408 175.00021
#
# Poissons Ratio (x) = 0.04587 0.33613
# Poissons Ratio (y) = 0.07039 0.18345
# Poissons Ratio (z) = 0.25245 0.08979
#
# Static dielectric constant tensor:
#      x y z
#    x 1.925510 0.000000 0.000000 
#    y 0.000000 1.994820 0.000000 
#    z 0.000000 0.000000 2.023850 
# 
# From -- ./inp_files/7957.got.cif
#   From: 2010.05.17/outbox.cif.g08.bks.cpg/sg35_4_cif.got.tgz:7957.got - 2010.06.03 17:29:28.
