data_PCOD9350499
_publ_section_title
;
Structure prediction by ZEFSAII (Michael W. Deem and Ramdas Pophale) SiO2 
 PCOD9350499
Probable space group: C M C 21
;
_chemical_formula_sum "Si O2"
_cell_formula_units_Z 64
_cell_length_a 7.532820
_cell_length_b 21.063104
_cell_length_c 20.414994
_cell_angle_alpha 90.000000
_cell_angle_beta 90.000000
_cell_angle_gamma 90.000000
_cell_volume 3239.136266
_symmetry_space_group_name_H-M "C M C 21"
_symmetry_group_IT_number 36
_symmetry_cell_setting 'orthorhombic'
loop_
_space_group_symop_operation_xyz
x,y,z
-x,-y,1/2+z
x,-y,1/2+z
-x,y,z
1/2+x,1/2+y,z
1/2-x,1/2-y,1/2+z
1/2+x,1/2-y,1/2+z
1/2-x,1/2+y,z
loop_
_atom_site_type_symbol
_atom_site_label
_atom_site_fract_x
_atom_site_fract_y
_atom_site_fract_z
Si Si1 0.287401 0.334270 0.004080
Si Si2 0.205517 0.953373 0.925214
Si Si3 0.787005 0.772674 0.398051
Si Si4 0.286677 0.553350 0.738098
Si Si5 0.291031 0.917030 0.777970
Si Si6 0.283151 0.776698 0.755559
Si Si7 0.717497 0.586675 0.885916
Si Si8 0.282430 0.670574 0.652296
O O1 0.500000 0.341316 0.008531
O O2 0.221868 0.323488 0.077604
O O3 0.215057 0.398447 0.970263
O O4 0.255598 0.276042 0.955315
O O5 0.209102 0.930416 0.849469
O O6 0.000000 0.959884 0.944659
O O7 0.282005 0.024442 0.924369
O O8 0.724678 0.747453 0.327271
O O9 0.723804 0.844483 0.409734
O O10 0.000000 0.775660 0.393131
O O11 0.500000 0.555115 0.737954
O O12 0.235911 0.479526 0.734045
O O13 0.229268 0.577612 0.809992
O O14 0.225743 0.603510 0.684076
O O15 0.500000 0.910469 0.790440
O O16 0.227791 0.850143 0.748857
O O17 0.500000 0.775158 0.754790
O O18 0.224832 0.728194 0.699299
O O19 0.500000 0.585131 0.886832
O O20 0.500000 0.671191 0.652744
#
# Coordination Sequence:
#
# PCOD9350499 Si02
#       8
#     8   8   8   8   8   8   8   8
#     4  10  20  32  49  74 102 129 160 204 252 292
#     4   9  17  30  47  70  97 125 158 198 243 288
#     4  10  17  30  51  72  94 127 167 201 237 291
#     4   9  16  30  51  72  94 123 160 202 242 285
#     4  10  18  28  47  74  98 120 155 203 246 284
#     4   9  16  28  49  73  94 125 169 201 231 288
#     4   8  14  26  48  70  88 117 161 199 228 274
#     4   9  17  32  52  71  95 132 172 200 235 296
#
# _framework density 19.758354000000001
#
# number of rings (size 3 to 8) (size 9 to 14) (size 15 to 20)
#    0.000    2.750    2.500    1.125    0.000    0.000 
#    0.000    4.375    0.000    5.250    0.000    0.000 
#    0.000    0.000    0.000    0.000    0.000    0.000 
#
# Total GULP energy -178459.105144 kJ/mol
# GULP energy per Si atom -5576.847036 kJ/mol
# Density = 1.971338 g / cm^3
# Si number density = 19.758354 Si / 1000 Ang^3
#
#
#
# Elastic Constant Matrix: (Units=GPa)
#
#
# Indices 1 2 3 4 5 6 
#
# 1 47.7227 3.0045 -0.4894 0.0000 0.0000 0.0000
# 2 3.0045 222.2393 110.0155 0.0000 0.0000 0.0000
# 3 -0.4894 110.0155 134.2880 0.0000 0.0000 0.0000
# 4 0.0000 0.0000 0.0000 26.0699 0.0000 0.0000
# 5 0.0000 0.0000 0.0000 0.0000 8.8311 0.0000
# 6 0.0000 0.0000 0.0000 0.0000 0.0000 14.5976
#
#
#
# Elastic Compliance Matrix: (Units=1/GPa)
#
#
# Indices 1 2 3 4 5 6 
#
# 1 0.020994 -0.000541 0.000520 0.000000 0.000000 0.000000
# 2 -0.000541 0.007583 -0.006215 0.000000 0.000000 0.000000
# 3 0.000520 -0.006215 0.012540 0.000000 0.000000 0.000000
# 4 0.000000 0.000000 0.000000 0.038358 0.000000 0.000000
# 5 0.000000 0.000000 0.000000 0.000000 0.113236 0.000000
# 6 0.000000 0.000000 0.000000 0.000000 0.000000 0.068504
#
#
# Mechanical properties :
#
#
# Convention : Reuss Voigt Hill
#
# Bulk Modulus (GPa) = 34.90991 69.92347 52.41669
# Shear Modulus (GPa) = 17.65310 29.34770 23.50040
#
# Velocity S-wave (km/s) = 2.99231 3.85818 3.45250
# Velocity P-wave (km/s) = 5.44475 7.43731 6.51762
#
# Compressibility (1/GPa) = 0.02864516
#
# Stress axis : x y z
#
# Youngs Moduli (GPa) = 47.63317 131.86611 79.74493
#
# Poissons Ratio (x) = 0.07136 -0.04146
# Poissons Ratio (y) = 0.02578 0.49559
# Poissons Ratio (z) = -0.02476 0.81951
#
# Static dielectric constant tensor:
#      x y z
#    x 1.765250 0.000000 0.000000 
#    y 0.000000 1.720250 0.000000 
#    z 0.000000 0.000000 1.652700 
# 
# From -- ./inp_files/15820.got.cif
#   From: 2010.05.17/outbox.cif.g08.bks.cpg/sg36_8_cif.got.tgz:15820.got - 2010.06.03 17:41:39.
