data_PCOD9350504
_publ_section_title
;
Structure prediction by ZEFSAII (Michael W. Deem and Ramdas Pophale) SiO2 
 PCOD9350504
Probable space group: C M C 21
;
_chemical_formula_sum "Si O2"
_cell_formula_units_Z 64
_cell_length_a 7.620725
_cell_length_b 21.037660
_cell_length_c 20.082119
_cell_angle_alpha 90.000000
_cell_angle_beta 90.000000
_cell_angle_gamma 90.000000
_cell_volume 3219.609931
_symmetry_space_group_name_H-M "C M C 21"
_symmetry_group_IT_number 36
_symmetry_cell_setting 'orthorhombic'
loop_
_space_group_symop_operation_xyz
x,y,z
-x,-y,1/2+z
x,-y,1/2+z
-x,y,z
1/2+x,1/2+y,z
1/2-x,1/2-y,1/2+z
1/2+x,1/2-y,1/2+z
1/2-x,1/2+y,z
loop_
_atom_site_type_symbol
_atom_site_label
_atom_site_fract_x
_atom_site_fract_y
_atom_site_fract_z
Si Si1 0.784010 0.259438 0.690540
Si Si2 0.713876 0.200756 0.901928
Si Si3 0.290348 0.071880 0.832969
Si Si4 0.202782 0.263790 0.543987
Si Si5 0.284653 0.945355 0.906145
Si Si6 0.206400 0.326727 0.820063
Si Si7 0.291336 0.386641 0.190167
Si Si8 0.294167 0.882554 0.041043
O O1 0.721811 0.277490 0.616757
O O2 0.721617 0.306115 0.748309
O O3 0.728360 0.186176 0.702847
O O4 0.000000 0.259034 0.690990
O O5 0.500000 0.201419 0.901935
O O6 0.776232 0.138294 0.863327
O O7 0.773307 0.264490 0.865408
O O8 0.777936 0.204473 0.978044
O O9 0.500000 0.072635 0.841094
O O10 0.256098 0.071419 0.753948
O O11 0.224188 0.011469 0.874306
O O12 0.208116 0.187147 0.536151
O O13 0.000000 0.283593 0.546855
O O14 0.500000 0.946331 0.905869
O O15 0.223235 0.887514 0.859072
O O16 0.231856 0.928619 0.981908
O O17 0.000000 0.339289 0.810582
O O18 0.500000 0.383928 0.186000
O O19 0.228230 0.406493 0.116717
O O20 0.500000 0.871199 0.029802
#
# Coordination Sequence:
#
# PCOD9350504 Si02
#       8
#     8   8   8   8   8   8   8   8
#     4   8  15  27  47  71  96 123 162 210 253 299
#     4  10  19  30  49  74 103 133 167 214 257 297
#     4  10  20  35  51  75 108 140 173 211 256 307
#     4   9  17  30  46  72 103 131 165 209 260 308
#     4   9  19  33  51  76 106 137 172 212 254 307
#     4  10  17  31  52  73  98 130 172 215 254 305
#     4  10  19  33  52  76 102 133 173 217 258 307
#     4  10  18  31  52  77 102 133 170 212 258 308
#
# _framework density 19.878184999999998
#
# number of rings (size 3 to 8) (size 9 to 14) (size 15 to 20)
#    0.000    2.500    2.500    1.500    0.000    0.000 
#    0.000    3.125    0.000    6.000    0.000    3.500 
#    0.000    0.000    0.000    0.000    0.000    0.000 
#
# Total GULP energy -178470.672906 kJ/mol
# GULP energy per Si atom -5577.208528 kJ/mol
# Density = 1.983294 g / cm^3
# Si number density = 19.878185 Si / 1000 Ang^3
#
#
#
# Elastic Constant Matrix: (Units=GPa)
#
#
# Indices 1 2 3 4 5 6 
#
# 1 37.4286 -9.8289 -11.7765 0.0000 0.0000 0.0000
# 2 -9.8289 67.4113 41.4699 0.0000 0.0000 0.0000
# 3 -11.7765 41.4699 160.8622 0.0000 0.0000 0.0000
# 4 0.0000 0.0000 0.0000 30.5814 0.0000 0.0000
# 5 0.0000 0.0000 0.0000 0.0000 13.8775 0.0000
# 6 0.0000 0.0000 0.0000 0.0000 0.0000 10.3413
#
#
#
# Elastic Compliance Matrix: (Units=1/GPa)
#
#
# Indices 1 2 3 4 5 6 
#
# 1 0.027970 0.003350 0.001184 0.000000 0.000000 0.000000
# 2 0.003350 0.018031 -0.004403 0.000000 0.000000 0.000000
# 3 0.001184 -0.004403 0.007438 0.000000 0.000000 0.000000
# 4 0.000000 0.000000 0.000000 0.032700 0.000000 0.000000
# 5 0.000000 0.000000 0.000000 0.000000 0.072059 0.000000
# 6 0.000000 0.000000 0.000000 0.000000 0.000000 0.096700
#
#
# Mechanical properties :
#
#
# Convention : Reuss Voigt Hill
#
# Bulk Modulus (GPa) = 18.62175 33.93678 26.27927
# Shear Modulus (GPa) = 18.34610 27.34920 22.84765
#
# Velocity S-wave (km/s) = 3.04127 3.71326 3.39393
# Velocity P-wave (km/s) = 4.66054 5.95767 5.34857
#
# Compressibility (1/GPa) = 0.05370065
#
# Stress axis : x y z
#
# Youngs Moduli (GPa) = 35.75293 55.45854 134.43875
#
# Poissons Ratio (x) = -0.18577 -0.15919
# Poissons Ratio (y) = -0.11976 0.59197
# Poissons Ratio (z) = -0.04233 0.24420
#
# Static dielectric constant tensor:
#      x y z
#    x 1.755040 0.000000 0.000000 
#    y 0.000000 1.663280 0.000000 
#    z 0.000000 0.000000 1.736470 
# 
# From -- ./inp_files/15611.got.cif
#   From: 2010.05.17/outbox.cif.g08.bks.cpg/sg36_8_cif.got.tgz:15611.got - 2010.06.03 17:41:39.
