data_PCOD9350143
_publ_section_title
;
Structure prediction by ZEFSAII (Michael W. Deem and Ramdas Pophale) SiO2 
 PCOD9350143
Probable space group: C M M 2
;
_chemical_formula_sum "Si O2"
_cell_formula_units_Z 32
_cell_length_a 30.000000
_cell_length_b 9.000000
_cell_length_c 15.000000
_cell_angle_alpha 90.000000
_cell_angle_beta 90.000000
_cell_angle_gamma 90.000000
_cell_volume 4050.000000
_symmetry_space_group_name_H-M "C M M 2"
_symmetry_group_IT_number 35
_symmetry_cell_setting 'orthorhombic'
loop_
_space_group_symop_operation_xyz
x,y,z
-x,-y,z
-x,y,z
x,-y,z
1/2+x,1/2+y,z
1/2-x,1/2-y,z
1/2-x,1/2+y,z
1/2+x,1/2-y,z
loop_
_atom_site_type_symbol
_atom_site_label
_atom_site_fract_x
_atom_site_fract_y
_atom_site_fract_z
Si Si1 0.390492 0.819419 0.734260
Si Si2 0.295611 0.322216 0.458119
Si Si3 0.449137 0.818928 0.566563
Si Si4 0.616867 0.826509 0.410704
Si Si5 0.446087 0.335281 0.071352
Si Si6 0.050942 0.322257 0.893897
Si Si7 0.703898 0.180231 0.655207
Si Si8 0.948491 0.330070 0.244653
O O1 0.425737 0.775830 0.658275
O O2 0.412342 0.765490 0.825242
O O3 0.340192 0.776380 0.710246
O O4 0.389794 0.000000 0.735034
O O5 0.291892 0.500000 0.464712
O O6 0.250000 0.250000 0.422171
O O7 0.338966 0.270674 0.404352
O O8 0.301642 0.248691 0.556262
O O9 0.500000 0.766724 0.557066
O O10 0.414916 0.772177 0.490368
O O11 0.450784 0.000000 0.562958
O O12 0.585074 0.822583 0.325814
O O13 0.629313 0.000000 0.428166
O O14 0.500000 0.338688 0.075116
O O15 0.429742 0.500000 0.052085
O O16 0.432430 0.276886 0.167057
O O17 0.435344 0.224615 0.992266
O O18 0.049249 0.500000 0.886846
O O19 0.000000 0.268462 0.875982
O O20 0.750000 0.250000 0.690584
O O21 0.706856 0.000000 0.649815
O O22 0.949067 0.500000 0.210661
O O23 0.000000 0.296101 0.270880
#
# Coordination Sequence:
#
# PCOD9350143 Si02
#       8
#     8   8   8   8   8   8   8   8
#     4   9  16  26  43  68  93 118 152 192 231 268
#     4  11  21  33  49  67  89 120 157 197 238 277
#     4   9  15  24  41  65  93 124 156 186 217 261
#     4  10  18  30  47  70  96 122 154 192 232 274
#     4   9  17  29  44  63  90 124 156 190 234 276
#     4   9  16  27  45  68  91 117 153 193 228 269
#     4  10  18  31  48  67  90 118 153 196 238 277
#     4   9  17  29  47  71  96 124 159 195 228 268
#
# _framework density 7.9012349999999998
#
# number of rings (size 3 to 8) (size 9 to 14) (size 15 to 20)
#    0.000    2.500    1.250    3.375    0.000    5.000 
#    0.000    1.250    0.000    1.125    0.000    0.875 
#    0.000    2.000    0.000    0.000    0.000    0.000 
#
# Total GULP energy -178155.433501 kJ/mol
# GULP energy per Si atom -5567.357297 kJ/mol
# Density = 0.788325 g / cm^3
# Si number density = 7.901235 Si / 1000 Ang^3
#
#
#
# Elastic Constant Matrix: (Units=GPa)
#
#
# Indices 1 2 3 4 5 6 
#
# 1 96.9980 29.0095 18.8571 0.0000 0.0000 0.0000
# 2 29.0095 37.6412 10.7062 0.0000 0.0000 0.0000
# 3 18.8571 10.7062 35.6658 0.0000 0.0000 0.0000
# 4 0.0000 0.0000 0.0000 1.4591 0.0000 0.0000
# 5 0.0000 0.0000 0.0000 0.0000 -748.9882 0.0000
# 6 0.0000 0.0000 0.0000 0.0000 0.0000 17.6987
#
#
#
# Elastic Compliance Matrix: (Units=1/GPa)
#
#
# Indices 1 2 3 4 5 6 
#
# 1 0.014046 -0.009526 -0.004567 0.000000 0.000000 0.000000
# 2 -0.009526 0.035508 -0.005622 0.000000 0.000000 0.000000
# 3 -0.004567 -0.005622 0.032140 0.000000 0.000000 0.000000
# 4 0.000000 0.000000 0.000000 0.685367 0.000000 0.000000
# 5 0.000000 0.000000 0.000000 0.000000 -0.001335 0.000000
# 6 0.000000 0.000000 0.000000 0.000000 0.000000 0.056501
#
#
# Mechanical properties :
#
#
# Convention : Reuss Voigt Hill
#
# Bulk Modulus (GPa) = 23.66097 31.93895 27.79996
# Shear Modulus (GPa) = 5.70942 -138.51726 -66.40392
#
# Velocity S-wave (km/s) = 1.90285 -9.37261 -6.48941
# Velocity P-wave (km/s) = 4.45345 9.84238 6.20642
#
# Compressibility (1/GPa) = 0.04226370
#
# Stress axis : x y z
#
# Youngs Moduli (GPa) = 71.19253 28.16306 31.11363
#
# Poissons Ratio (x) = 0.26829 0.14209
# Poissons Ratio (y) = 0.67821 0.17492
# Poissons Ratio (z) = 0.32513 0.15833
#
# Static dielectric constant tensor:
#      x y z
#    x 1.604920 0.000000 0.000000 
#    y 0.000000 1.546740 0.000000 
#    z 0.000000 0.000000 1.534330 
# 
# From -- ./inp_files/16129.got.cif
#   From: 2010.05.17/outbox.ucp.g08.bks.cvg/sg35_9_cif.got.tgz:16129.got - 2010.06.11 10:36:28.
