data_PCOD9350291
_publ_section_title
;
Structure prediction by ZEFSAII (Michael W. Deem and Ramdas Pophale) SiO2 
 PCOD9350291
Probable space group: C M M 2
;
_chemical_formula_sum "Si O2"
_cell_formula_units_Z 64
_cell_length_a 16.230625
_cell_length_b 18.453175
_cell_length_c 11.970880
_cell_angle_alpha 90.000000
_cell_angle_beta 90.000000
_cell_angle_gamma 90.000000
_cell_volume 3585.357131
_symmetry_space_group_name_H-M "C M M 2"
_symmetry_group_IT_number 35
_symmetry_cell_setting 'orthorhombic'
loop_
_space_group_symop_operation_xyz
x,y,z
-x,-y,z
-x,y,z
x,-y,z
1/2+x,1/2+y,z
1/2-x,1/2-y,z
1/2-x,1/2+y,z
1/2+x,1/2-y,z
loop_
_atom_site_type_symbol
_atom_site_label
_atom_site_fract_x
_atom_site_fract_y
_atom_site_fract_z
Si Si1 0.341845 0.213880 0.228740
Si Si2 0.256513 0.418099 0.243340
Si Si3 0.671846 0.580958 0.996509
Si Si4 0.093115 0.321346 0.760411
Si Si5 0.350264 0.256711 0.984200
Si Si6 0.906105 0.840733 0.367612
Si Si7 0.831388 0.796201 0.600151
Si Si8 0.251309 0.082320 0.752636
O O1 0.250000 0.250000 0.228123
O O2 0.320477 0.133639 0.268190
O O3 0.397294 0.262552 0.307784
O O4 0.371790 0.219499 0.101622
O O5 0.240129 0.500000 0.274708
O O6 0.339406 0.390619 0.304315
O O7 0.274870 0.413865 0.110074
O O8 0.631196 0.500000 0.000414
O O9 0.625105 0.658163 0.992437
O O10 0.723875 0.582492 0.882295
O O11 0.110614 0.282646 0.878979
O O12 0.113122 0.260442 0.667961
O O13 0.156899 0.386639 0.746375
O O14 0.000000 0.345633 0.753209
O O15 0.250000 0.250000 0.970672
O O16 0.876778 0.829357 0.494061
O O17 0.000000 0.866751 0.359847
O O18 0.750000 0.750000 0.565069
O O19 0.802945 0.860207 0.683397
O O20 0.243390 0.000000 0.711214
#
# Coordination Sequence:
#
# PCOD9350291 Si02
#       8
#     8   8   8   8   8   8   8   8
#     4   9  17  32  53  77 103 136 182 217 246 299
#     4  10  19  33  55  79 105 139 177 215 255 303
#     4  10  17  30  55  80 105 134 174 220 251 292
#     4  11  21  32  52  81 111 137 166 213 267 315
#     4  11  15  32  53  77 105 137 184 215 242 301
#     4  11  22  35  53  78 108 136 167 218 272 316
#     4  10  20  37  57  75  97 134 183 221 252 304
#     4  10  20  35  57  79 102 137 177 216 257 304
#
# _framework density 17.850383999999998
#
# number of rings (size 3 to 8) (size 9 to 14) (size 15 to 20)
#    0.000    1.750    6.250    1.875    0.000    1.500 
#    0.000    0.000    0.000    2.625    0.000    0.000 
#    0.000    0.000    0.000    0.000    0.000    0.000 
#
# Total GULP energy -178407.752728 kJ/mol
# GULP energy per Si atom -5575.242273 kJ/mol
# Density = 1.780976 g / cm^3
# Si number density = 17.850384 Si / 1000 Ang^3
#
#
#
# Elastic Constant Matrix: (Units=GPa)
#
#
# Indices 1 2 3 4 5 6 
#
# 1 32.0536 1.2419 18.3969 0.0000 0.0000 0.0000
# 2 1.2419 101.7494 1.6884 0.0000 0.0000 0.0000
# 3 18.3969 1.6884 67.0134 0.0000 0.0000 0.0000
# 4 0.0000 0.0000 0.0000 -8.0863 0.0000 0.0000
# 5 0.0000 0.0000 0.0000 0.0000 3.2882 0.0000
# 6 0.0000 0.0000 0.0000 0.0000 0.0000 8.4664
#
#
#
# Elastic Compliance Matrix: (Units=1/GPa)
#
#
# Indices 1 2 3 4 5 6 
#
# 1 0.037041 -0.000284 -0.010161 0.000000 0.000000 0.000000
# 2 -0.000284 0.009834 -0.000170 0.000000 0.000000 0.000000
# 3 -0.010161 -0.000170 0.017716 0.000000 0.000000 0.000000
# 4 0.000000 0.000000 0.000000 -0.123666 0.000000 0.000000
# 5 0.000000 0.000000 0.000000 0.000000 0.304116 0.000000
# 6 0.000000 0.000000 0.000000 0.000000 0.000000 0.118114
#
#
# Mechanical properties :
#
#
# Convention : Reuss Voigt Hill
#
# Bulk Modulus (GPa) = 23.06191 27.05231 25.05711
# Shear Modulus (GPa) = 12.53639 12.69962 12.61800
#
# Velocity S-wave (km/s) = 2.65298 2.67019 2.66160
# Velocity P-wave (km/s) = 4.72567 4.96936 4.84905
#
# Compressibility (1/GPa) = 0.04336153
#
# Stress axis : x y z
#
# Youngs Moduli (GPa) = 26.99724 101.68440 56.44534
#
# Poissons Ratio (x) = 0.02883 0.57357
# Poissons Ratio (y) = 0.00765 0.00959
# Poissons Ratio (z) = 0.27433 0.01728
#
# Static dielectric constant tensor:
#      x y z
#    x 1.598320 0.000000 0.000000 
#    y 0.000000 1.643470 0.000000 
#    z 0.000000 0.000000 1.606240 
# 
# From -- ./inp_files/13692.got.cif
#   From: 2010.05.17/outbox.cif.g08.bks.cpg/sg35_7_cif.got.tgz:13692.got - 2010.06.03 17:29:28.
