data_PCOD9350866
_publ_section_title
;
Structure prediction by ZEFSAII (Michael W. Deem and Ramdas Pophale) SiO2 
 PCOD9350866
Probable space group: C M C 21
;
_chemical_formula_sum "Si O2"
_cell_formula_units_Z 64
_cell_length_a 28.855780
_cell_length_b 14.712825
_cell_length_c 7.447268
_cell_angle_alpha 90.000000
_cell_angle_beta 90.000000
_cell_angle_gamma 90.000000
_cell_volume 3161.737938
_symmetry_space_group_name_H-M "C M C 21"
_symmetry_group_IT_number 36
_symmetry_cell_setting 'orthorhombic'
loop_
_space_group_symop_operation_xyz
x,y,z
-x,-y,1/2+z
x,-y,1/2+z
-x,y,z
1/2+x,1/2+y,z
1/2-x,1/2-y,1/2+z
1/2+x,1/2-y,1/2+z
1/2-x,1/2+y,z
loop_
_atom_site_type_symbol
_atom_site_label
_atom_site_fract_x
_atom_site_fract_y
_atom_site_fract_z
Si Si1 0.138523 0.243007 0.760670
Si Si2 0.447916 0.430199 0.594244
Si Si3 0.278645 0.426510 0.641464
Si Si4 0.774953 0.130329 0.723611
Si Si5 0.174771 0.574997 0.176605
Si Si6 0.552664 0.632483 0.678778
Si Si7 0.634471 0.686289 0.173898
Si Si8 0.171187 0.372314 0.262929
O O1 0.186672 0.205058 0.678450
O O2 0.143528 0.351270 0.776608
O O3 0.093237 0.206468 0.657983
O O4 0.136752 0.199824 0.958351
O O5 0.500000 0.426178 0.669853
O O6 0.449209 0.392110 0.391804
O O7 0.434473 0.536079 0.589798
O O8 0.411600 0.371216 0.706131
O O9 0.288223 0.534109 0.635657
O O10 0.275021 0.389825 0.438065
O O11 0.228630 0.419625 0.738112
O O12 0.320326 0.371096 0.730581
O O13 0.721670 0.155594 0.682473
O O14 0.159224 0.470562 0.181453
O O15 0.175395 0.606189 0.971901
O O16 0.500000 0.658959 0.625826
O O17 0.637046 0.788195 0.244786
#
# Coordination Sequence:
#
# PCOD9350866 Si02
#       8
#     8   8   8   8   8   8   8   8
#     4  10  19  31  48  70  96 125 158 194 232 275
#     4   9  18  32  50  73 100 127 154 188 231 277
#     4   9  18  30  45  68  97 127 157 191 230 274
#     4   9  18  30  45  68  97 127 157 191 230 274
#     4  10  20  33  48  67  93 125 160 196 234 275
#     4   9  18  32  50  73 100 127 154 188 231 277
#     4  10  19  31  48  70  96 125 158 194 232 275
#     4  10  20  33  48  67  93 125 160 196 234 275
#
# _framework density 20.242031999999998
#
# number of rings (size 3 to 8) (size 9 to 14) (size 15 to 20)
#    0.000    2.500    0.000    2.250    0.000    3.000 
#    0.000    0.000    0.000    0.750    0.000    0.000 
#    0.000    0.000    0.000    0.000    0.000    0.000 
#
# Total GULP energy -178673.108851 kJ/mol
# GULP energy per Si atom -5583.534652 kJ/mol
# Density = 2.019596 g / cm^3
# Si number density = 20.242032 Si / 1000 Ang^3
#
#
#
# Elastic Constant Matrix: (Units=GPa)
#
#
# Indices 1 2 3 4 5 6 
#
# 1 72.5565 72.0603 10.4028 0.0000 0.0000 0.0000
# 2 72.0603 116.1623 3.6951 0.0000 0.0000 0.0000
# 3 10.4028 3.6951 21.3669 0.0000 0.0000 0.0000
# 4 0.0000 0.0000 0.0000 29.0694 0.0000 0.0000
# 5 0.0000 0.0000 0.0000 0.0000 6.2050 0.0000
# 6 0.0000 0.0000 0.0000 0.0000 0.0000 32.7599
#
#
#
# Elastic Compliance Matrix: (Units=1/GPa)
#
#
# Indices 1 2 3 4 5 6 
#
# 1 0.040390 -0.024565 -0.015416 0.000000 0.000000 0.000000
# 2 -0.024565 0.023597 0.007879 0.000000 0.000000 0.000000
# 3 -0.015416 0.007879 0.052944 0.000000 0.000000 0.000000
# 4 0.000000 0.000000 0.000000 0.034400 0.000000 0.000000
# 5 0.000000 0.000000 0.000000 0.000000 0.161159 0.000000
# 6 0.000000 0.000000 0.000000 0.000000 0.000000 0.030525
#
#
# Mechanical properties :
#
#
# Convention : Reuss Voigt Hill
#
# Bulk Modulus (GPa) = 18.96575 42.48913 30.72744
# Shear Modulus (GPa) = 11.77039 21.86872 16.81955
#
# Velocity S-wave (km/s) = 2.41401 3.29045 2.88570
# Velocity P-wave (km/s) = 4.14243 5.95586 5.12991
#
# Compressibility (1/GPa) = 0.05272663
#
# Stress axis : x y z
#
# Youngs Moduli (GPa) = 24.75888 42.37889 18.88776
#
# Poissons Ratio (x) = 1.04103 0.29118
# Poissons Ratio (y) = 0.60820 -0.14882
# Poissons Ratio (z) = 0.38169 -0.33391
#
# Static dielectric constant tensor:
#      x y z
#    x 1.739830 0.000000 0.000000 
#    y 0.000000 1.717930 0.000000 
#    z 0.000000 0.000000 1.783820 
# 
# From -- ./inp_files/6098.got.cif
#   From: 2010.05.17/outbox.cif.g08.bks.cpg/sg36_4_cif.got.tgz:6098.got - 2010.06.03 17:41:39.
