data_PCOD9350428
_publ_section_title
;
Structure prediction by ZEFSAII (Michael W. Deem and Ramdas Pophale) SiO2 
 PCOD9350428
Probable space group: C M M 2
;
_chemical_formula_sum "Si O2"
_cell_formula_units_Z 64
_cell_length_a 8.311230
_cell_length_b 30.120098
_cell_length_c 12.843081
_cell_angle_alpha 90.000000
_cell_angle_beta 90.000000
_cell_angle_gamma 90.000000
_cell_volume 3215.073480
_symmetry_space_group_name_H-M "C M M 2"
_symmetry_group_IT_number 35
_symmetry_cell_setting 'orthorhombic'
loop_
_space_group_symop_operation_xyz
x,y,z
-x,-y,z
-x,y,z
x,-y,z
1/2+x,1/2+y,z
1/2-x,1/2-y,z
1/2-x,1/2+y,z
1/2+x,1/2-y,z
loop_
_atom_site_type_symbol
_atom_site_label
_atom_site_fract_x
_atom_site_fract_y
_atom_site_fract_z
Si Si1 0.314630 0.930780 0.597300
Si Si2 0.186345 0.672184 0.659077
Si Si3 0.692565 0.301050 0.082691
Si Si4 0.809368 0.048687 0.823354
Si Si5 0.305638 0.451010 0.365341
Si Si6 0.306401 0.203701 0.447687
Si Si7 0.807026 0.861027 0.274043
Si Si8 0.693230 0.854415 0.881063
O O1 0.500000 0.945481 0.601531
O O2 0.313708 0.877724 0.613333
O O3 0.224857 0.948776 0.699251
O O4 0.243485 0.942835 0.485459
O O5 0.259207 0.700525 0.565862
O O6 0.257679 0.668227 0.774032
O O7 0.000000 0.686259 0.671585
O O8 0.500000 0.299732 0.088776
O O9 0.750000 0.250000 0.084424
O O10 0.755654 0.330934 0.179265
O O11 0.742253 0.327448 0.978900
O O12 0.736855 0.093245 0.874348
O O13 0.000000 0.050425 0.840241
O O14 0.749644 0.000000 0.859789
O O15 0.500000 0.450461 0.362220
O O16 0.249282 0.500000 0.334238
O O17 0.246553 0.411190 0.291332
O O18 0.500000 0.200740 0.448705
O O19 0.250000 0.250000 0.400239
O O20 0.236076 0.164398 0.379566
O O21 0.000000 0.863151 0.262599
O O22 0.500000 0.851882 0.879564
#
# Coordination Sequence:
#
# PCOD9350428 Si02
#       8
#     8   8   8   8   8   8   8   8
#     4  10  18  31  51  79 116 159 201 241 285 338
#     4   8  17  33  52  78 114 151 184 228 283 342
#     4  11  24  43  65  88 113 147 197 250 301 358
#     4  10  20  34  54  84 122 163 204 242 286 344
#     4  10  20  34  54  82 116 153 194 240 291 349
#     4  11  21  35  55  82 115 149 187 232 290 354
#     4  10  22  40  60  84 115 152 196 243 293 349
#     4  10  21  39  62  88 119 152 195 247 300 353
#
# _framework density 19.906231999999999
#
# number of rings (size 3 to 8) (size 9 to 14) (size 15 to 20)
#    0.000    2.000    1.250    3.375    0.000    5.250 
#    0.000    3.750    0.000    2.250    0.000    0.000 
#    0.000    0.000    0.000    0.000    0.000    0.000 
#
# Total GULP energy -178505.030801 kJ/mol
# GULP energy per Si atom -5578.282213 kJ/mol
# Density = 1.986092 g / cm^3
# Si number density = 19.906232 Si / 1000 Ang^3
#
#
#
# Elastic Constant Matrix: (Units=GPa)
#
#
# Indices 1 2 3 4 5 6 
#
# 1 20.4055 14.2098 8.7174 0.0000 0.0000 0.0000
# 2 14.2098 151.3741 76.6873 0.0000 0.0000 0.0000
# 3 8.7174 76.6873 119.9473 0.0000 0.0000 0.0000
# 4 0.0000 0.0000 0.0000 15.6725 0.0000 0.0000
# 5 0.0000 0.0000 0.0000 0.0000 18.9615 0.0000
# 6 0.0000 0.0000 0.0000 0.0000 0.0000 20.2123
#
#
#
# Elastic Compliance Matrix: (Units=1/GPa)
#
#
# Indices 1 2 3 4 5 6 
#
# 1 0.052512 -0.004431 -0.000983 0.000000 0.000000 0.000000
# 2 -0.004431 0.010145 -0.006164 0.000000 0.000000 0.000000
# 3 -0.000983 -0.006164 0.012349 0.000000 0.000000 0.000000
# 4 0.000000 0.000000 0.000000 0.063806 0.000000 0.000000
# 5 0.000000 0.000000 0.000000 0.000000 0.052738 0.000000
# 6 0.000000 0.000000 0.000000 0.000000 0.000000 0.049475
#
#
# Mechanical properties :
#
#
# Convention : Reuss Voigt Hill
#
# Bulk Modulus (GPa) = 19.28665 54.55065 36.91865
# Shear Modulus (GPa) = 17.76413 23.77676 20.77045
#
# Velocity S-wave (km/s) = 2.99053 3.45981 3.23370
# Velocity P-wave (km/s) = 4.65125 6.58967 5.70341
#
# Compressibility (1/GPa) = 0.05184935
#
# Stress axis : x y z
#
# Youngs Moduli (GPa) = 19.04315 98.57235 80.97599
#
# Poissons Ratio (x) = 0.43680 0.07963
# Poissons Ratio (y) = 0.08439 0.49913
# Poissons Ratio (z) = 0.01873 0.60760
#
# Static dielectric constant tensor:
#      x y z
#    x 1.690330 0.000000 0.000000 
#    y 0.000000 1.608580 0.000000 
#    z 0.000000 0.000000 1.701410 
# 
# From -- ./inp_files/11945.got.cif
#   From: 2010.05.17/outbox.cif.g08.bks.cpg/sg35_6_cif.got.tgz:11945.got - 2010.06.03 17:29:28.
