data_PCOD9350364
_publ_section_title
;
Structure prediction by ZEFSAII (Michael W. Deem and Ramdas Pophale) SiO2 
 PCOD9350364
Probable space group: C M M 2
;
_chemical_formula_sum "Si O2"
_cell_formula_units_Z 64
_cell_length_a 8.112248
_cell_length_b 29.638383
_cell_length_c 16.194383
_cell_angle_alpha 90.000000
_cell_angle_beta 90.000000
_cell_angle_gamma 90.000000
_cell_volume 3893.678877
_symmetry_space_group_name_H-M "C M M 2"
_symmetry_group_IT_number 35
_symmetry_cell_setting 'orthorhombic'
loop_
_space_group_symop_operation_xyz
x,y,z
-x,-y,z
-x,y,z
x,-y,z
1/2+x,1/2+y,z
1/2-x,1/2-y,z
1/2-x,1/2+y,z
1/2+x,1/2-y,z
loop_
_atom_site_type_symbol
_atom_site_label
_atom_site_fract_x
_atom_site_fract_y
_atom_site_fract_z
Si Si1 0.696429 0.299444 0.513400
Si Si2 0.202132 0.947543 0.933077
Si Si3 0.198455 0.606451 0.449845
Si Si4 0.198666 0.893189 0.773718
Si Si5 0.300458 0.947959 0.611704
Si Si6 0.192398 0.945389 0.113918
Si Si7 0.303124 0.051513 0.292593
Si Si8 0.801193 0.799599 0.703388
O O1 0.500000 0.300765 0.516329
O O2 0.750000 0.250000 0.484148
O O3 0.756487 0.341436 0.460243
O O4 0.758840 0.304741 0.608322
O O5 0.258934 0.916788 0.857433
O O6 0.000000 0.947340 0.934783
O O7 0.250354 0.000000 0.920640
O O8 0.258132 0.931302 0.023966
O O9 0.257794 0.579296 0.530919
O O10 0.260797 0.582833 0.366305
O O11 0.000000 0.603312 0.449730
O O12 0.243027 0.923319 0.694517
O O13 0.258135 0.842298 0.756082
O O14 0.000000 0.891632 0.779163
O O15 0.500000 0.947730 0.610898
O O16 0.245905 0.000000 0.609376
O O17 0.270561 0.930871 0.200172
O O18 0.000000 0.933603 0.117772
O O19 0.205174 0.000000 0.112151
O O20 0.500000 0.048662 0.302186
O O21 0.237563 0.000000 0.299387
O O22 0.750000 0.750000 0.732721
O O23 0.000000 0.801025 0.701589
#
# Coordination Sequence:
#
# PCOD9350364 Si02
#       8
#     8   8   8   8   8   8   8   8
#     4  10  19  32  48  67  89 114 149 190 230 269
#     4   8  14  25  43  65  89 117 146 179 222 268
#     4  10  19  31  46  64  89 122 154 184 221 265
#     4  10  18  30  46  66  88 116 153 188 220 261
#     4  10  20  31  42  60  90 125 154 179 212 258
#     4   8  14  26  43  63  86 113 147 186 226 265
#     4   9  17  29  45  65  90 121 154 186 223 267
#     4   9  18  30  45  64  86 112 146 186 225 263
#
# _framework density 16.436896999999998
#
# number of rings (size 3 to 8) (size 9 to 14) (size 15 to 20)
#    0.000    2.750    1.250    1.875    0.000    3.750 
#    0.000    0.625    0.000    4.500    0.000    0.875 
#    0.000    4.000    0.000    0.000    0.000    0.000 
#
# Total GULP energy -178308.322004 kJ/mol
# GULP energy per Si atom -5572.135063 kJ/mol
# Density = 1.639949 g / cm^3
# Si number density = 16.436897 Si / 1000 Ang^3
#
#
#
# Elastic Constant Matrix: (Units=GPa)
#
#
# Indices 1 2 3 4 5 6 
#
# 1 4.9417 5.8844 13.2228 0.0000 0.0000 0.0000
# 2 5.8844 124.7368 85.5550 0.0000 0.0000 0.0000
# 3 13.2228 85.5550 149.3482 0.0000 0.0000 0.0000
# 4 0.0000 0.0000 0.0000 8.5325 0.0000 0.0000
# 5 0.0000 0.0000 0.0000 0.0000 16.6382 0.0000
# 6 0.0000 0.0000 0.0000 0.0000 0.0000 15.5580
#
#
#
# Elastic Compliance Matrix: (Units=1/GPa)
#
#
# Indices 1 2 3 4 5 6 
#
# 1 0.267865 0.005979 -0.027141 0.000000 0.000000 0.000000
# 2 0.005979 0.013339 -0.008171 0.000000 0.000000 0.000000
# 3 -0.027141 -0.008171 0.013779 0.000000 0.000000 0.000000
# 4 0.000000 0.000000 0.000000 0.117199 0.000000 0.000000
# 5 0.000000 0.000000 0.000000 0.000000 0.060103 0.000000
# 6 0.000000 0.000000 0.000000 0.000000 0.000000 0.064276
#
#
# Mechanical properties :
#
#
# Convention : Reuss Voigt Hill
#
# Bulk Modulus (GPa) = 4.23159 54.26124 29.24642
# Shear Modulus (GPa) = 7.41843 19.77005 13.59424
#
# Velocity S-wave (km/s) = 2.12675 3.47188 2.87898
# Velocity P-wave (km/s) = 2.93442 7.01110 5.37430
#
# Compressibility (1/GPa) = 0.23631778
#
# Stress axis : x y z
#
# Youngs Moduli (GPa) = 3.73323 74.96837 72.57232
#
# Poissons Ratio (x) = -0.44825 1.96969
# Poissons Ratio (y) = -0.02232 0.59297
# Poissons Ratio (z) = 0.10132 0.61254
#
# Static dielectric constant tensor:
#      x y z
#    x 1.593090 0.000000 0.000000 
#    y 0.000000 1.543080 0.000000 
#    z 0.000000 0.000000 1.563970 
# 
# From -- ./inp_files/16147.got.cif
#   From: 2010.05.17/outbox.cif.g08.bks.cpg/sg35_9_cif.got.tgz:16147.got - 2010.06.03 17:29:28.
