data_PCOD9350360
_publ_section_title
;
Structure prediction by ZEFSAII (Michael W. Deem and Ramdas Pophale) SiO2 
 PCOD9350360
Probable space group: C M M 2
;
_chemical_formula_sum "Si O2"
_cell_formula_units_Z 64
_cell_length_a 23.963519
_cell_length_b 14.372503
_cell_length_c 10.261182
_cell_angle_alpha 90.000000
_cell_angle_beta 90.000000
_cell_angle_gamma 90.000000
_cell_volume 3534.112681
_symmetry_space_group_name_H-M "C M M 2"
_symmetry_group_IT_number 35
_symmetry_cell_setting 'orthorhombic'
loop_
_space_group_symop_operation_xyz
x,y,z
-x,-y,z
-x,y,z
x,-y,z
1/2+x,1/2+y,z
1/2-x,1/2-y,z
1/2-x,1/2+y,z
1/2+x,1/2-y,z
loop_
_atom_site_type_symbol
_atom_site_label
_atom_site_fract_x
_atom_site_fract_y
_atom_site_fract_z
Si Si1 0.566629 0.106102 0.833990
Si Si2 0.776902 0.891590 0.320051
Si Si3 0.063504 0.896053 0.675031
Si Si4 0.840593 0.701722 0.353737
Si Si5 0.133546 0.707029 0.054759
Si Si6 0.064987 0.297479 0.559080
Si Si7 0.637739 0.395362 0.928720
Si Si8 0.744210 0.105176 0.017762
O O1 0.500000 0.108357 0.846788
O O2 0.579584 0.162722 0.702221
O O3 0.585081 0.000000 0.816692
O O4 0.592999 0.148065 0.963815
O O5 0.819512 0.809880 0.362677
O O6 0.715347 0.860389 0.369031
O O7 0.771090 0.885034 0.162205
O O8 0.789366 0.000000 0.352467
O O9 0.068058 0.814144 0.572221
O O10 0.106559 0.882663 0.792477
O O11 0.000000 0.889948 0.728918
O O12 0.071006 0.000000 0.621531
O O13 0.864281 0.687316 0.207731
O O14 0.888767 0.675357 0.454584
O O15 0.195682 0.679764 0.005256
O O16 0.120238 0.814188 0.025890
O O17 0.000000 0.323378 0.530603
O O18 0.625575 0.500000 0.976249
O O19 0.704746 0.388298 0.918028
O O20 0.720452 0.000000 0.011304
#
# Coordination Sequence:
#
# PCOD9350360 Si02
#       8
#     8   8   8   8   8   8   8   8
#     4  10  22  40  60  80 106 145 187 225 275 331
#     4   9  18  35  55  77 114 154 186 224 273 331
#     4   9  18  34  55  78 106 145 188 224 267 327
#     4  10  21  34  57  89 112 145 189 227 276 333
#     4  11  19  33  56  84 114 141 180 230 272 323
#     4  10  21  39  57  79 112 149 185 229 280 333
#     4  10  18  29  51  82 111 144 182 221 268 322
#     4   9  17  30  50  78 111 146 179 218 275 329
#
# _framework density 18.109211999999999
#
# number of rings (size 3 to 8) (size 9 to 14) (size 15 to 20)
#    0.000    2.250    2.500    0.750    0.000    2.000 
#    0.000    2.500    0.000    3.000    0.000    0.000 
#    0.000    0.000    0.000    0.000    0.000    0.000 
#
# Total GULP energy -178325.135060 kJ/mol
# GULP energy per Si atom -5572.660471 kJ/mol
# Density = 1.806799 g / cm^3
# Si number density = 18.109212 Si / 1000 Ang^3
#
#
#
# Elastic Constant Matrix: (Units=GPa)
#
#
# Indices 1 2 3 4 5 6 
#
# 1 63.4098 14.8508 42.3023 0.0000 0.0000 0.0000
# 2 14.8508 78.7858 13.7661 0.0000 0.0000 0.0000
# 3 42.3023 13.7661 52.5995 0.0000 0.0000 0.0000
# 4 0.0000 0.0000 0.0000 12.7114 0.0000 0.0000
# 5 0.0000 0.0000 0.0000 0.0000 64.1984 0.0000
# 6 0.0000 0.0000 0.0000 0.0000 0.0000 24.3000
#
#
#
# Elastic Compliance Matrix: (Units=1/GPa)
#
#
# Indices 1 2 3 4 5 6 
#
# 1 0.034248 -0.001722 -0.027093 0.000000 0.000000 0.000000
# 2 -0.001722 0.013387 -0.002119 0.000000 0.000000 0.000000
# 3 -0.027093 -0.002119 0.041355 0.000000 0.000000 0.000000
# 4 0.000000 0.000000 0.000000 0.078669 0.000000 0.000000
# 5 0.000000 0.000000 0.000000 0.000000 0.015577 0.000000
# 6 0.000000 0.000000 0.000000 0.000000 0.000000 0.041152
#
#
# Mechanical properties :
#
#
# Convention : Reuss Voigt Hill
#
# Bulk Modulus (GPa) = 36.86848 37.40372 37.13610
# Shear Modulus (GPa) = 16.93211 28.50036 22.71623
#
# Velocity S-wave (km/s) = 3.06109 3.97142 3.54560
# Velocity P-wave (km/s) = 5.73558 6.45980 6.10843
#
# Compressibility (1/GPa) = 0.02712344
#
# Stress axis : x y z
#
# Youngs Moduli (GPa) = 29.19884 74.69693 24.18083
#
# Poissons Ratio (x) = 0.12861 0.65513
# Poissons Ratio (y) = 0.05027 0.05124
# Poissons Ratio (z) = 0.79108 0.15828
#
# Static dielectric constant tensor:
#      x y z
#    x 1.589380 0.000000 0.000000 
#    y 0.000000 1.679110 0.000000 
#    z 0.000000 0.000000 1.584110 
# 
# From -- ./inp_files/9910.got.cif
#   From: 2010.05.17/outbox.cif.g08.bks.cpg/sg35_5_cif.got.tgz:9910.got - 2010.06.03 17:29:28.
