data_PCOD9350641
_publ_section_title
;
Structure prediction by ZEFSAII (Michael W. Deem and Ramdas Pophale) SiO2 
 PCOD9350641
Probable space group: C M C 21
;
_chemical_formula_sum "Si O2"
_cell_formula_units_Z 48
_cell_length_a 28.226579
_cell_length_b 13.226911
_cell_length_c 5.303461
_cell_angle_alpha 90.000000
_cell_angle_beta 90.000000
_cell_angle_gamma 90.000000
_cell_volume 1980.049542
_symmetry_space_group_name_H-M "C M C 21"
_symmetry_group_IT_number 36
_symmetry_cell_setting 'orthorhombic'
loop_
_space_group_symop_operation_xyz
x,y,z
-x,-y,1/2+z
x,-y,1/2+z
-x,y,z
1/2+x,1/2+y,z
1/2-x,1/2-y,1/2+z
1/2+x,1/2-y,1/2+z
1/2-x,1/2+y,z
loop_
_atom_site_type_symbol
_atom_site_label
_atom_site_fract_x
_atom_site_fract_y
_atom_site_fract_z
Si Si1 0.398551 0.432793 0.347400
Si Si2 0.641087 0.099694 0.341153
Si Si3 0.203836 0.847943 0.432811
Si Si4 0.397778 0.123141 0.843354
Si Si5 0.500000 0.929383 0.400769
Si Si6 0.000000 0.932726 0.442047
Si Si7 0.257930 0.881750 0.933414
O O1 0.397774 0.519248 0.566869
O O2 0.350935 0.370337 0.389497
O O3 0.449587 0.379238 0.392319
O O4 0.621649 0.160951 0.578808
O O5 0.693569 0.058144 0.391200
O O6 0.609137 0.998843 0.318534
O O7 0.634580 0.156092 0.076928
O O8 0.221747 0.887862 0.702343
O O9 0.219209 0.731055 0.427567
O O10 0.232692 0.895429 0.199137
O O11 0.452734 0.137865 0.894105
O O12 0.500000 0.000218 0.150178
O O13 0.000000 0.978584 0.725570
#
# Coordination Sequence:
#
# PCOD9350641 Si02
#       7
#     8   8   8   8   4   4   8
#     4  10  19  35  55  84 109 133 171 221 269 313
#     4  10  18  32  45  70  95 130 169 210 251 300
#     4  10  21  38  54  77 102 143 180 203 253 318
#     4  10  19  30  48  72  99 126 173 208 268 285
#     4  12  16  30  48  67  97 138 166 216 250 322
#     4   8  16  30  54  77 107 136 158 204 276 328
#     4  10  21  37  55  70 106 149 177 205 252 312
#
# _framework density 24.241820000000001
#
# number of rings (size 3 to 8) (size 9 to 14) (size 15 to 20)
#    0.000    2.000    3.333    2.000    0.000    0.000 
#   18.000    0.000    0.000    3.000    0.000    2.333 
#    0.000    0.000    0.000    0.000    0.000    0.000 
#
# Total GULP energy -134158.292985 kJ/mol
# GULP energy per Si atom -5589.928874 kJ/mol
# Density = 2.418664 g / cm^3
# Si number density = 24.241820 Si / 1000 Ang^3
#
#
#
# Elastic Constant Matrix: (Units=GPa)
#
#
# Indices 1 2 3 4 5 6 
#
# 1 146.8332 24.2228 -38.6998 0.0000 0.0000 0.0000
# 2 24.2228 43.0870 12.7996 0.0000 0.0000 0.0000
# 3 -38.6998 12.7996 99.9457 0.0000 0.0000 0.0000
# 4 0.0000 0.0000 0.0000 -25.6188 0.0000 0.0000
# 5 0.0000 0.0000 0.0000 0.0000 42.3313 0.0000
# 6 0.0000 0.0000 0.0000 0.0000 0.0000 15.0164
#
#
#
# Elastic Compliance Matrix: (Units=1/GPa)
#
#
# Indices 1 2 3 4 5 6 
#
# 1 0.008984 -0.006325 0.004289 0.000000 0.000000 0.000000
# 2 -0.006325 0.028579 -0.006109 0.000000 0.000000 0.000000
# 3 0.004289 -0.006109 0.012448 0.000000 0.000000 0.000000
# 4 0.000000 0.000000 0.000000 -0.039034 0.000000 0.000000
# 5 0.000000 0.000000 0.000000 0.000000 0.023623 0.000000
# 6 0.000000 0.000000 0.000000 0.000000 0.000000 0.066594
#
#
# Mechanical properties :
#
#
# Convention : Reuss Voigt Hill
#
# Bulk Modulus (GPa) = 29.65446 31.83457 30.74451
# Shear Modulus (GPa) = 38.84220 25.78200 32.31210
#
# Velocity S-wave (km/s) = 4.00719 3.26472 3.65486
# Velocity P-wave (km/s) = 5.80254 5.23181 5.52455
#
# Compressibility (1/GPa) = 0.03372175
#
# Stress axis : x y z
#
# Youngs Moduli (GPa) = 111.30651 34.99032 80.33141
#
# Poissons Ratio (x) = 0.22131 -0.34452
# Poissons Ratio (y) = 0.70399 0.49075
# Poissons Ratio (z) = -0.47737 0.21376
#
# Static dielectric constant tensor:
#      x y z
#    x 1.941480 0.000000 0.000000 
#    y 0.000000 2.005510 0.000000 
#    z 0.000000 0.000000 1.996890 
# 
# From -- ./inp_files/1756.got.cif
#   From: 2010.05.17/outbox.cif.g08.bks.cpg/sg36_1_cif.got.tgz:1756.got - 2010.06.03 17:41:39.
