data_PCOD9350985
_publ_section_title
;
Structure prediction by ZEFSAII (Michael W. Deem and Ramdas Pophale) SiO2 
 PCOD9350985
Probable space group: C M C 21
;
_chemical_formula_sum "Si O2"
_cell_formula_units_Z 64
_cell_length_a 11.425922
_cell_length_b 23.614753
_cell_length_c 12.976953
_cell_angle_alpha 90.000000
_cell_angle_beta 90.000000
_cell_angle_gamma 90.000000
_cell_volume 3501.445687
_symmetry_space_group_name_H-M "C M C 21"
_symmetry_group_IT_number 36
_symmetry_cell_setting 'orthorhombic'
loop_
_space_group_symop_operation_xyz
x,y,z
-x,-y,1/2+z
x,-y,1/2+z
-x,y,z
1/2+x,1/2+y,z
1/2-x,1/2-y,1/2+z
1/2+x,1/2-y,1/2+z
1/2-x,1/2+y,z
loop_
_atom_site_type_symbol
_atom_site_label
_atom_site_fract_x
_atom_site_fract_y
_atom_site_fract_z
Si Si1 0.258107 0.644470 0.984350
Si Si2 0.869244 0.829455 0.266882
Si Si3 0.867087 0.073044 0.161066
Si Si4 0.132205 0.426070 0.998703
Si Si5 0.364663 0.119240 0.279487
Si Si6 0.700865 0.446160 0.185399
Si Si7 0.865146 0.726997 0.139653
Si Si8 0.868819 0.544990 0.880773
O O1 0.307715 0.666674 0.876780
O O2 0.159667 0.598684 0.952356
O O3 0.347625 0.607586 0.054465
O O4 0.208011 0.695788 0.051408
O O5 0.873491 0.892422 0.220854
O O6 0.816067 0.785658 0.184451
O O7 0.000000 0.807884 0.284621
O O8 0.749286 0.089768 0.226541
O O9 0.000000 0.086448 0.200182
O O10 0.859464 0.004863 0.152610
O O11 0.152089 0.384902 0.901784
O O12 0.140700 0.488623 0.948591
O O13 0.000000 0.417859 0.036640
O O14 0.221401 0.424204 0.091182
O O15 0.500000 0.096076 0.259013
O O16 0.365428 0.181911 0.233304
O O17 0.780929 0.458485 0.285477
O O18 0.000000 0.734611 0.104445
O O19 0.000000 0.549178 0.840185
#
# Coordination Sequence:
#
# PCOD9350985 Si02
#       8
#     8   8   8   8   8   8   8   8
#     4  10  20  36  59  82 111 150 190 237 294 347
#     4  10  22  39  57  79 113 155 196 236 283 346
#     4  11  21  34  54  84 117 148 189 233 285 348
#     4  10  19  32  53  82 115 146 182 235 293 345
#     4   9  19  36  58  84 110 142 190 241 289 340
#     4  11  21  34  51  81 118 155 185 230 287 347
#     4   9  19  37  61  83 104 141 196 246 285 337
#     4  10  19  32  53  83 114 145 185 236 288 346
#
# _framework density 18.278164
#
# number of rings (size 3 to 8) (size 9 to 14) (size 15 to 20)
#    0.000    2.000    2.500    1.500    0.000    2.000 
#    0.000    2.500    0.000   23.250    0.000    0.000 
#    0.000    0.000    0.000    0.000    0.000    0.000 
#
# Total GULP energy -178221.686656 kJ/mol
# GULP energy per Si atom -5569.427708 kJ/mol
# Density = 1.823656 g / cm^3
# Si number density = 18.278164 Si / 1000 Ang^3
#
#
#
# Elastic Constant Matrix: (Units=GPa)
#
#
# Indices 1 2 3 4 5 6 
#
# 1 89.3400 25.3567 35.3645 0.0000 0.0000 0.0000
# 2 25.3567 74.4468 26.8915 0.0000 0.0000 0.0000
# 3 35.3645 26.8915 75.0529 0.0000 0.0000 0.0000
# 4 0.0000 0.0000 0.0000 27.7962 0.0000 0.0000
# 5 0.0000 0.0000 0.0000 0.0000 4.5025 0.0000
# 6 0.0000 0.0000 0.0000 0.0000 0.0000 16.1486
#
#
#
# Elastic Compliance Matrix: (Units=1/GPa)
#
#
# Indices 1 2 3 4 5 6 
#
# 1 0.014246 -0.002788 -0.005714 0.000000 0.000000 0.000000
# 2 -0.002788 0.015975 -0.004410 0.000000 0.000000 0.000000
# 3 -0.005714 -0.004410 0.017596 0.000000 0.000000 0.000000
# 4 0.000000 0.000000 0.000000 0.035976 0.000000 0.000000
# 5 0.000000 0.000000 0.000000 0.000000 0.222100 0.000000
# 6 0.000000 0.000000 0.000000 0.000000 0.000000 0.061925
#
#
# Mechanical properties :
#
#
# Convention : Reuss Voigt Hill
#
# Bulk Modulus (GPa) = 45.46796 46.00722 45.73759
# Shear Modulus (GPa) = 12.46963 19.77126 16.12044
#
# Velocity S-wave (km/s) = 2.61476 3.29247 2.97299
# Velocity P-wave (km/s) = 5.83485 6.29913 6.07143
#
# Compressibility (1/GPa) = 0.02199351
#
# Stress axis : x y z
#
# Youngs Moduli (GPa) = 70.19347 62.59730 56.83012
#
# Poissons Ratio (x) = 0.17455 0.32471
# Poissons Ratio (y) = 0.19573 0.25062
# Poissons Ratio (z) = 0.40106 0.27605
#
# Static dielectric constant tensor:
#      x y z
#    x 1.644590 0.000000 0.000000 
#    y 0.000000 1.645060 0.000000 
#    z 0.000000 0.000000 1.611180 
# 
# From -- ./inp_files/8067.got.cif
#   From: 2010.05.17/outbox.cif.g08.bks.cpg/sg36_5_cif.got.tgz:8067.got - 2010.06.03 17:41:39.
