data_PCOD9350977
_publ_section_title
;
Structure prediction by ZEFSAII (Michael W. Deem and Ramdas Pophale) SiO2 
 PCOD9350977
Probable space group: C M C 21
;
_chemical_formula_sum "Si O2"
_cell_formula_units_Z 64
_cell_length_a 9.001628
_cell_length_b 20.734705
_cell_length_c 20.179585
_cell_angle_alpha 90.000000
_cell_angle_beta 90.000000
_cell_angle_gamma 90.000000
_cell_volume 3766.440862
_symmetry_space_group_name_H-M "C M C 21"
_symmetry_group_IT_number 36
_symmetry_cell_setting 'orthorhombic'
loop_
_space_group_symop_operation_xyz
x,y,z
-x,-y,1/2+z
x,-y,1/2+z
-x,y,z
1/2+x,1/2+y,z
1/2-x,1/2-y,1/2+z
1/2+x,1/2-y,1/2+z
1/2-x,1/2+y,z
loop_
_atom_site_type_symbol
_atom_site_label
_atom_site_fract_x
_atom_site_fract_y
_atom_site_fract_z
Si Si1 0.677617 0.701751 0.793730
Si Si2 0.823277 0.805071 0.975907
Si Si3 0.822197 0.416181 0.058793
Si Si4 0.178508 0.666499 0.933703
Si Si5 0.820857 0.021106 0.312255
Si Si6 0.821205 0.083775 0.701788
Si Si7 0.323055 0.666981 0.320635
Si Si8 0.821282 0.478130 0.450848
O O1 0.500000 0.703117 0.799181
O O2 0.744866 0.674732 0.862402
O O3 0.718265 0.652204 0.735564
O O4 0.739850 0.773853 0.786253
O O5 0.782567 0.729360 0.976914
O O6 0.794934 0.827336 0.899896
O O7 0.000000 0.811620 0.988032
O O8 0.735356 0.850234 0.025655
O O9 0.754383 0.424330 0.131243
O O10 0.000000 0.415974 0.062245
O O11 0.774662 0.474014 0.009435
O O12 0.216364 0.596860 0.963036
O O13 0.000000 0.669507 0.923502
O O14 0.778670 0.972249 0.253807
O O15 0.750163 0.999396 0.381524
O O16 0.000000 0.018891 0.319353
O O17 0.779377 0.095379 0.298426
O O18 0.000000 0.081840 0.694293
O O19 0.500000 0.675199 0.311543
O O20 0.000000 0.482591 0.444635
#
# Coordination Sequence:
#
# PCOD9350977 Si02
#       8
#     8   8   8   8   8   8   8   8
#     4  10  19  32  53  80 107 135 176 226 266 313
#     4   9  17  32  54  77 104 141 177 214 264 322
#     4  11  23  36  53  79 110 145 182 225 275 326
#     4   9  18  33  54  79 108 140 173 216 272 322
#     4  10  19  35  57  81 108 142 183 223 267 324
#     4  10  22  38  55  77 107 146 186 223 269 327
#     4   9  18  32  54  81 109 139 172 216 271 323
#     4  10  20  34  54  82 111 140 179 227 274 319
#
# _framework density 16.992169000000001
#
# number of rings (size 3 to 8) (size 9 to 14) (size 15 to 20)
#    0.000    2.250    2.500    1.500    0.000    4.500 
#    0.000    1.250    0.000    4.500    0.000    0.000 
#    0.000    0.000    0.000    0.000    0.000    0.000 
#
# Total GULP energy -178502.134840 kJ/mol
# GULP energy per Si atom -5578.191714 kJ/mol
# Density = 1.695349 g / cm^3
# Si number density = 16.992169 Si / 1000 Ang^3
#
#
#
# Elastic Constant Matrix: (Units=GPa)
#
#
# Indices 1 2 3 4 5 6 
#
# 1 24.4890 46.7782 43.5056 0.0000 0.0000 0.0000
# 2 46.7782 176.7468 89.7590 0.0000 0.0000 0.0000
# 3 43.5056 89.7590 120.5295 0.0000 0.0000 0.0000
# 4 0.0000 0.0000 0.0000 23.7861 0.0000 0.0000
# 5 0.0000 0.0000 0.0000 0.0000 27.5957 0.0000
# 6 0.0000 0.0000 0.0000 0.0000 0.0000 25.5203
#
#
#
# Elastic Compliance Matrix: (Units=1/GPa)
#
#
# Indices 1 2 3 4 5 6 
#
# 1 0.144840 -0.018950 -0.038168 0.000000 0.000000 0.000000
# 2 -0.018950 0.011578 -0.001782 0.000000 0.000000 0.000000
# 3 -0.038168 -0.001782 0.023401 0.000000 0.000000 0.000000
# 4 0.000000 0.000000 0.000000 0.042041 0.000000 0.000000
# 5 0.000000 0.000000 0.000000 0.000000 0.036238 0.000000
# 6 0.000000 0.000000 0.000000 0.000000 0.000000 0.039184
#
#
# Mechanical properties :
#
#
# Convention : Reuss Voigt Hill
#
# Bulk Modulus (GPa) = 16.12442 75.76120 45.94281
# Shear Modulus (GPa) = 11.47431 24.82859 18.15145
#
# Velocity S-wave (km/s) = 2.60142 3.82668 3.27192
# Velocity P-wave (km/s) = 4.30501 8.01295 6.43197
#
# Compressibility (1/GPa) = 0.06201773
#
# Stress axis : x y z
#
# Youngs Moduli (GPa) = 6.90418 86.36788 42.73356
#
# Poissons Ratio (x) = 1.63671 1.63105
# Poissons Ratio (y) = 0.13084 0.07616
# Poissons Ratio (z) = 0.26352 0.15393
#
# Static dielectric constant tensor:
#      x y z
#    x 1.568910 0.000000 0.000000 
#    y 0.000000 1.600590 0.000000 
#    z 0.000000 0.000000 1.532830 
# 
# From -- ./inp_files/15806.got.cif
#   From: 2010.05.17/outbox.cif.g08.bks.cpg/sg36_8_cif.got.tgz:15806.got - 2010.06.03 17:41:39.
