data_PCOD9350762
_publ_section_title
;
Structure prediction by ZEFSAII (Michael W. Deem and Ramdas Pophale) SiO2 
 PCOD9350762
Probable space group: C M C 21
;
_chemical_formula_sum "Si O2"
_cell_formula_units_Z 64
_cell_length_a 14.709243
_cell_length_b 17.719381
_cell_length_c 11.973840
_cell_angle_alpha 90.000000
_cell_angle_beta 90.000000
_cell_angle_gamma 90.000000
_cell_volume 3120.845863
_symmetry_space_group_name_H-M "C M C 21"
_symmetry_group_IT_number 36
_symmetry_cell_setting 'orthorhombic'
loop_
_space_group_symop_operation_xyz
x,y,z
-x,-y,1/2+z
x,-y,1/2+z
-x,y,z
1/2+x,1/2+y,z
1/2-x,1/2-y,1/2+z
1/2+x,1/2-y,1/2+z
1/2-x,1/2+y,z
loop_
_atom_site_type_symbol
_atom_site_label
_atom_site_fract_x
_atom_site_fract_y
_atom_site_fract_z
Si Si1 0.399423 0.866670 0.724400
Si Si2 0.327925 0.742981 0.405355
Si Si3 0.598273 0.271903 0.668014
Si Si4 0.901431 0.102433 0.990507
Si Si5 0.250067 0.345583 0.094816
Si Si6 0.852414 0.792884 0.292370
Si Si7 0.192684 0.408316 0.505763
Si Si8 0.895394 0.559731 0.467984
O O1 0.500000 0.892147 0.687113
O O2 0.399615 0.775272 0.726770
O O3 0.326372 0.898441 0.637705
O O4 0.386221 0.897423 0.849745
O O5 0.392230 0.726019 0.301289
O O6 0.321001 0.680220 0.500311
O O7 0.228165 0.747109 0.351711
O O8 0.336141 0.827063 0.455344
O O9 0.500000 0.237400 0.638364
O O10 0.600872 0.352084 0.607179
O O11 0.681951 0.224497 0.619387
O O12 0.903476 0.163946 0.890217
O O13 0.000000 0.060980 0.985598
O O14 0.798531 0.070625 0.981939
O O15 0.306798 0.353294 0.208539
O O16 0.181303 0.409206 0.052834
O O17 0.128477 0.472145 0.455199
O O18 0.000000 0.569709 0.505390
#
# Coordination Sequence:
#
# PCOD9350762 Si02
#       8
#     8   8   8   8   8   8   8   8
#     4  11  21  35  59  89 127 167 205 250 305 373
#     4  10  19  34  58  84 117 156 201 251 306 352
#     4  10  19  32  57  89 116 143 197 262 302 344
#     4  10  20  37  62  88 113 154 212 262 307 360
#     4  11  19  36  60  85 118 159 204 247 301 356
#     4  10  18  34  60  91 116 154 206 259 303 348
#     4  11  22  40  58  88 127 166 207 249 312 374
#     4  11  25  40  60  92 130 169 203 244 307 383
#
# _framework density 20.507259999999999
#
# number of rings (size 3 to 8) (size 9 to 14) (size 15 to 20)
#    0.000    1.500    5.000    1.875    0.000    6.000 
#    0.000    1.250    0.000    4.500    0.000    0.000 
#    0.000    0.000    0.000    0.000    0.000    0.000 
#
# Total GULP energy -178316.018459 kJ/mol
# GULP energy per Si atom -5572.375577 kJ/mol
# Density = 2.046058 g / cm^3
# Si number density = 20.507260 Si / 1000 Ang^3
#
#
#
# Elastic Constant Matrix: (Units=GPa)
#
#
# Indices 1 2 3 4 5 6 
#
# 1 81.9906 25.7672 37.7717 0.0000 0.0000 0.0000
# 2 25.7672 46.5011 11.6062 0.0000 0.0000 0.0000
# 3 37.7717 11.6062 74.0960 0.0000 0.0000 0.0000
# 4 0.0000 0.0000 0.0000 14.7074 0.0000 0.0000
# 5 0.0000 0.0000 0.0000 0.0000 -15.4698 0.0000
# 6 0.0000 0.0000 0.0000 0.0000 0.0000 2.4623
#
#
#
# Elastic Compliance Matrix: (Units=1/GPa)
#
#
# Indices 1 2 3 4 5 6 
#
# 1 0.018547 -0.008240 -0.008164 0.000000 0.000000 0.000000
# 2 -0.008240 0.026040 0.000121 0.000000 0.000000 0.000000
# 3 -0.008164 0.000121 0.017639 0.000000 0.000000 0.000000
# 4 0.000000 0.000000 0.000000 0.067993 0.000000 0.000000
# 5 0.000000 0.000000 0.000000 0.000000 -0.064642 0.000000
# 6 0.000000 0.000000 0.000000 0.000000 0.000000 0.406122
#
#
# Mechanical properties :
#
#
# Convention : Reuss Voigt Hill
#
# Bulk Modulus (GPa) = 33.71364 39.20865 36.46115
# Shear Modulus (GPa) = 9.72478 8.83616 9.28047
#
# Velocity S-wave (km/s) = 2.18000 2.07802 2.12962
# Velocity P-wave (km/s) = 4.77620 4.99184 4.88521
#
# Compressibility (1/GPa) = 0.02966158
#
# Stress axis : x y z
#
# Youngs Moduli (GPa) = 53.91698 38.40199 56.69341
#
# Poissons Ratio (x) = 0.31642 0.46285
# Poissons Ratio (y) = 0.44426 -0.00688
# Poissons Ratio (z) = 0.44018 -0.00466
#
# Static dielectric constant tensor:
#      x y z
#    x 1.765250 0.000000 0.000000 
#    y 0.000000 1.722650 0.000000 
#    z 0.000000 0.000000 1.771690 
# 
# From -- ./inp_files/8648.got.cif
#   From: 2010.05.17/outbox.cif.g08.bks.cpg/sg36_5_cif.got.tgz:8648.got - 2010.06.03 17:41:39.
