data_PCOD9350625
_publ_section_title
;
Structure prediction by ZEFSAII (Michael W. Deem and Ramdas Pophale) SiO2 
 PCOD9350625
Probable space group: C M C 21
;
_chemical_formula_sum "Si O2"
_cell_formula_units_Z 64
_cell_length_a 8.915396
_cell_length_b 18.864856
_cell_length_c 21.487972
_cell_angle_alpha 90.000000
_cell_angle_beta 90.000000
_cell_angle_gamma 90.000000
_cell_volume 3614.011766
_symmetry_space_group_name_H-M "C M C 21"
_symmetry_group_IT_number 36
_symmetry_cell_setting 'orthorhombic'
loop_
_space_group_symop_operation_xyz
x,y,z
-x,-y,1/2+z
x,-y,1/2+z
-x,y,z
1/2+x,1/2+y,z
1/2-x,1/2-y,1/2+z
1/2+x,1/2-y,1/2+z
1/2-x,1/2+y,z
loop_
_atom_site_type_symbol
_atom_site_label
_atom_site_fract_x
_atom_site_fract_y
_atom_site_fract_z
Si Si1 0.319958 0.417929 0.829150
Si Si2 0.326550 0.914397 0.459570
Si Si3 0.817322 0.830046 0.709418
Si Si4 0.681547 0.924359 0.093137
Si Si5 0.819665 0.919715 0.589075
Si Si6 0.827450 0.586865 0.457080
Si Si7 0.680985 0.166617 0.714717
Si Si8 0.679763 0.583578 0.829935
O O1 0.500000 0.415912 0.829797
O O2 0.265565 0.372004 0.770814
O O3 0.262294 0.391430 0.895959
O O4 0.276061 0.500584 0.821496
O O5 0.500000 0.892652 0.459677
O O6 0.244849 0.893165 0.523184
O O7 0.245104 0.891769 0.396306
O O8 0.322732 0.000716 0.459099
O O9 0.772375 0.870516 0.646633
O O10 0.771252 0.748359 0.710548
O O11 0.000000 0.831219 0.710208
O O12 0.500000 0.933788 0.090486
O O13 0.718461 0.874990 0.151307
O O14 0.757070 0.001082 0.100060
O O15 0.726949 0.892038 0.025951
O O16 0.000000 0.922171 0.586001
O O17 0.000000 0.608847 0.449821
O O18 0.500000 0.164415 0.721597
O O19 0.754719 0.128323 0.773385
O O20 0.500000 0.587141 0.831020
#
# Coordination Sequence:
#
# PCOD9350625 Si02
#       8
#     8   8   8   8   8   8   8   8
#     4   9  17  31  51  73  97 126 161 201 246 297
#     4   9  17  31  51  76 104 130 160 201 248 301
#     4   9  19  34  50  70  99 135 169 201 245 297
#     4   9  18  32  51  74  98 128 167 206 246 297
#     4  10  18  31  53  77 101 130 165 208 253 295
#     4   8  15  28  46  71  99 123 155 200 244 288
#     4  10  20  35  52  69  97 137 173 205 245 296
#     4  10  19  32  52  78 103 127 162 208 253 297
#
# _framework density 17.708853000000001
#
# number of rings (size 3 to 8) (size 9 to 14) (size 15 to 20)
#    0.000    2.750    0.000    2.625    0.000    5.000 
#    0.000    4.375    0.000    1.500    0.000    0.000 
#    0.000    0.000    0.000    0.000    0.000    0.000 
#
# Total GULP energy -178393.180700 kJ/mol
# GULP energy per Si atom -5574.786897 kJ/mol
# Density = 1.766855 g / cm^3
# Si number density = 17.708853 Si / 1000 Ang^3
#
#
#
# Elastic Constant Matrix: (Units=GPa)
#
#
# Indices 1 2 3 4 5 6 
#
# 1 35.3246 33.0828 55.9819 0.0000 0.0000 0.0000
# 2 33.0828 80.0264 90.8651 0.0000 0.0000 0.0000
# 3 55.9819 90.8651 222.0752 0.0000 0.0000 0.0000
# 4 0.0000 0.0000 0.0000 -4.1225 0.0000 0.0000
# 5 0.0000 0.0000 0.0000 0.0000 33.4334 0.0000
# 6 0.0000 0.0000 0.0000 0.0000 0.0000 13.2579
#
#
#
# Elastic Compliance Matrix: (Units=1/GPa)
#
#
# Indices 1 2 3 4 5 6 
#
# 1 0.053205 -0.012637 -0.008242 0.000000 0.000000 0.000000
# 2 -0.012637 0.026340 -0.007592 0.000000 0.000000 0.000000
# 3 -0.008242 -0.007592 0.009687 0.000000 0.000000 0.000000
# 4 0.000000 0.000000 0.000000 -0.242572 0.000000 0.000000
# 5 0.000000 0.000000 0.000000 0.000000 0.029910 0.000000
# 6 0.000000 0.000000 0.000000 0.000000 0.000000 0.075427
#
#
# Mechanical properties :
#
#
# Convention : Reuss Voigt Hill
#
# Bulk Modulus (GPa) = 30.96827 77.47621 54.22224
# Shear Modulus (GPa) = 253.78671 19.01354 136.40012
#
# Velocity S-wave (km/s) = 11.98423 3.28025 8.78584
# Velocity P-wave (km/s) = 14.45756 7.62835 11.55882
#
# Compressibility (1/GPa) = 0.03229111
#
# Stress axis : x y z
#
# Youngs Moduli (GPa) = 18.79517 37.96512 103.23291
#
# Poissons Ratio (x) = 0.47977 0.85081
# Poissons Ratio (y) = 0.23752 0.78372
# Poissons Ratio (z) = 0.15490 0.28822
#
# Static dielectric constant tensor:
#      x y z
#    x 1.598610 0.000000 0.000000 
#    y 0.000000 1.580580 0.000000 
#    z 0.000000 0.000000 1.609270 
# 
# From -- ./inp_files/16713.got.cif
#   From: 2010.05.17/outbox.cif.g08.bks.cpg/sg36_9_cif.got.tgz:16713.got - 2010.06.03 17:41:39.
