data_PCOD9350067
_publ_section_title
;
Structure prediction by ZEFSAII (Michael W. Deem and Ramdas Pophale) SiO2 
 PCOD9350067
Probable space group: C M M 2
;
_chemical_formula_sum "Si O2"
_cell_formula_units_Z 40
_cell_length_a 7.763806
_cell_length_b 15.701779
_cell_length_c 16.774616
_cell_angle_alpha 90.000000
_cell_angle_beta 90.000000
_cell_angle_gamma 90.000000
_cell_volume 2044.919058
_symmetry_space_group_name_H-M "C M M 2"
_symmetry_group_IT_number 35
_symmetry_cell_setting 'orthorhombic'
loop_
_space_group_symop_operation_xyz
x,y,z
-x,-y,z
-x,y,z
x,-y,z
1/2+x,1/2+y,z
1/2-x,1/2-y,z
1/2-x,1/2+y,z
1/2+x,1/2-y,z
loop_
_atom_site_type_symbol
_atom_site_label
_atom_site_fract_x
_atom_site_fract_y
_atom_site_fract_z
Si Si1 0.206816 0.500000 0.287200
Si Si2 0.000000 0.103371 0.705827
Si Si3 0.798819 0.848343 0.170490
Si Si4 0.195060 0.651770 0.998188
Si Si5 0.708182 0.000000 0.468395
Si Si6 0.206197 0.345720 0.584767
Si Si7 0.000000 0.901808 0.883928
O O1 0.263790 0.415234 0.240273
O O2 0.272678 0.500000 0.377985
O O3 0.000000 0.500000 0.288315
O O4 0.171119 0.135075 0.660058
O O5 0.000000 0.139182 0.796281
O O6 0.000000 0.000000 0.701671
O O7 0.750000 0.750000 0.189383
O O8 0.000000 0.847874 0.151296
O O9 0.707780 0.879847 0.089256
O O10 0.250000 0.750000 0.005590
O O11 0.332804 0.615205 0.937323
O O12 0.000000 0.643005 0.969632
O O13 0.754615 0.084010 0.518437
O O14 0.500000 0.000000 0.464206
O O15 0.250000 0.250000 0.557734
O O16 0.000000 0.352624 0.601078
O O17 0.000000 0.000000 0.865285
#
# Coordination Sequence:
#
# PCOD9350067 Si02
#       7
#     4   4   8   8   4   8   4
#     4  11  23  41  63  97 126 167 210 263 324 370
#     4  11  24  44  66  93 131 170 205 270 324 374
#     4  11  22  40  62  91 128 170 218 263 311 377
#     4  11  21  41  65  89 125 175 212 260 318 371
#     4   9  22  42  66  92 132 161 208 271 312 376
#     4  11  22  42  68  98 126 170 215 255 319 391
#     4  11  26  42  62  96 132 159 214 274 312 371
#
# _framework density 19.560676000000001
#
# number of rings (size 3 to 8) (size 9 to 14) (size 15 to 20)
#    0.000    1.200    4.000    3.300    1.400    2.800 
#    3.600    4.000    0.000    0.000    0.000    0.000 
#    0.000    0.000    0.000    0.000    0.000    0.000 
#
# Total GULP energy -111667.041766 kJ/mol
# GULP energy per Si atom -5583.352088 kJ/mol
# Density = 1.951616 g / cm^3
# Si number density = 19.560676 Si / 1000 Ang^3
#
#
#
# Elastic Constant Matrix: (Units=GPa)
#
#
# Indices 1 2 3 4 5 6 
#
# 1 146.9333 24.4757 53.8157 0.0000 0.0000 0.0000
# 2 24.4757 112.8579 65.6677 0.0000 0.0000 0.0000
# 3 53.8157 65.6677 163.9816 0.0000 0.0000 0.0000
# 4 0.0000 0.0000 0.0000 -3.0835 0.0000 0.0000
# 5 0.0000 0.0000 0.0000 0.0000 23.6825 0.0000
# 6 0.0000 0.0000 0.0000 0.0000 0.0000 18.6443
#
#
#
# Elastic Compliance Matrix: (Units=1/GPa)
#
#
# Indices 1 2 3 4 5 6 
#
# 1 0.007742 -0.000262 -0.002436 0.000000 0.000000 0.000000
# 2 -0.000262 0.011561 -0.004544 0.000000 0.000000 0.000000
# 3 -0.002436 -0.004544 0.008717 0.000000 0.000000 0.000000
# 4 0.000000 0.000000 0.000000 -0.324302 0.000000 0.000000
# 5 0.000000 0.000000 0.000000 0.000000 0.042225 0.000000
# 6 0.000000 0.000000 0.000000 0.000000 0.000000 0.053636
#
#
# Mechanical properties :
#
#
# Convention : Reuss Voigt Hill
#
# Bulk Modulus (GPa) = 73.86964 79.07677 76.47321
# Shear Modulus (GPa) = -27.55955 26.50292 -0.52832
#
# Velocity S-wave (km/s) = -3.75764 3.68490 -0.52027
# Velocity P-wave (km/s) = 4.36118 7.65629 6.23052
#
# Compressibility (1/GPa) = 0.01353736
#
# Stress axis : x y z
#
# Youngs Moduli (GPa) = 129.17321 86.49456 114.71391
#
# Poissons Ratio (x) = 0.02263 0.27943
# Poissons Ratio (y) = 0.03379 0.52126
# Poissons Ratio (z) = 0.31465 0.39303
#
# Static dielectric constant tensor:
#      x y z
#    x 1.691520 0.000000 0.000000 
#    y 0.000000 1.659140 0.000000 
#    z 0.000000 0.000000 1.721450 
# 
# From -- ./inp_files/14862.got.cif
#   From: 2010.05.17/outbox.cif.g08.bks.cpg/sg35_8_cif.got.tgz:14862.got - 2010.06.03 17:29:28.
