data_PCOD9350993
_publ_section_title
;
Structure prediction by ZEFSAII (Michael W. Deem and Ramdas Pophale) SiO2 
 PCOD9350993
Probable space group: C M C 21
;
_chemical_formula_sum "Si O2"
_cell_formula_units_Z 64
_cell_length_a 7.438409
_cell_length_b 14.863544
_cell_length_c 23.740555
_cell_angle_alpha 90.000000
_cell_angle_beta 90.000000
_cell_angle_gamma 90.000000
_cell_volume 2624.782337
_symmetry_space_group_name_H-M "C M C 21"
_symmetry_group_IT_number 36
_symmetry_cell_setting 'orthorhombic'
loop_
_space_group_symop_operation_xyz
x,y,z
-x,-y,1/2+z
x,-y,1/2+z
-x,y,z
1/2+x,1/2+y,z
1/2-x,1/2-y,1/2+z
1/2+x,1/2-y,1/2+z
1/2-x,1/2+y,z
loop_
_atom_site_type_symbol
_atom_site_label
_atom_site_fract_x
_atom_site_fract_y
_atom_site_fract_z
Si Si1 0.282968 0.984722 0.816910
Si Si2 0.216900 0.581293 0.438771
Si Si3 0.213931 0.308654 0.283283
Si Si4 0.779848 0.595142 0.990396
Si Si5 0.778902 0.697470 0.102116
Si Si6 0.207466 0.434490 0.698531
Si Si7 0.795582 0.133877 0.662820
Si Si8 0.790139 0.268717 0.400013
O O1 0.500000 0.976120 0.817646
O O2 0.250011 0.089983 0.805746
O O3 0.211823 0.934494 0.761218
O O4 0.218439 0.952366 0.877282
O O5 0.275038 0.508803 0.485065
O O6 0.275923 0.683768 0.440976
O O7 0.000000 0.581487 0.438487
O O8 0.294364 0.308025 0.221010
O O9 0.281894 0.250887 0.336821
O O10 0.000000 0.296323 0.274673
O O11 0.721412 0.651061 0.044370
O O12 0.000000 0.596526 0.990542
O O13 0.717582 0.646691 0.934216
O O14 0.715944 0.632124 0.152343
O O15 0.719764 0.799157 0.115617
O O16 0.000000 0.698995 0.102005
O O17 0.208616 0.537795 0.676303
O O18 0.000000 0.408405 0.705156
O O19 0.000000 0.112175 0.648218
O O20 0.000000 0.288208 0.390319
#
# Coordination Sequence:
#
# PCOD9350993 Si02
#       8
#     8   8   8   8   8   8   8   8
#     4   8  14  28  51  73  97 132 170 203 242 300
#     4  10  19  32  54  79 102 134 175 216 254 304
#     4   9  17  33  54  75 105 143 175 206 257 321
#     4   9  18  36  56  74 102 141 182 213 248 313
#     4   9  19  34  55  78 101 139 183 214 248 310
#     4   9  18  34  54  75 104 139 173 208 254 314
#     4  10  20  33  52  81 109 134 171 221 265 301
#     4  10  20  34  54  79 106 138 173 215 266 313
#
# _framework density 24.382971999999999
#
# number of rings (size 3 to 8) (size 9 to 14) (size 15 to 20)
#    0.000    2.750    1.250    1.125    1.750    1.500 
#    0.000    4.375    0.000    3.000    0.000    0.000 
#    0.000    0.000    0.000    0.000    0.000    0.000 
#
# Total GULP energy -178697.123590 kJ/mol
# GULP energy per Si atom -5584.285112 kJ/mol
# Density = 2.432748 g / cm^3
# Si number density = 24.382972 Si / 1000 Ang^3
#
#
#
# Elastic Constant Matrix: (Units=GPa)
#
#
# Indices 1 2 3 4 5 6 
#
# 1 73.8889 -8.3587 -1.9967 0.0000 0.0000 0.0000
# 2 -8.3587 62.7513 -4.5426 0.0000 0.0000 0.0000
# 3 -1.9967 -4.5426 25.4277 0.0000 0.0000 0.0000
# 4 0.0000 0.0000 0.0000 32.0400 0.0000 0.0000
# 5 0.0000 0.0000 0.0000 0.0000 4.3099 0.0000
# 6 0.0000 0.0000 0.0000 0.0000 0.0000 4.2254
#
#
#
# Elastic Compliance Matrix: (Units=1/GPa)
#
#
# Indices 1 2 3 4 5 6 
#
# 1 0.013792 0.001941 0.001430 0.000000 0.000000 0.000000
# 2 0.001941 0.016418 0.003085 0.000000 0.000000 0.000000
# 3 0.001430 0.003085 0.039991 0.000000 0.000000 0.000000
# 4 0.000000 0.000000 0.000000 0.031211 0.000000 0.000000
# 5 0.000000 0.000000 0.000000 0.000000 0.232023 0.000000
# 6 0.000000 0.000000 0.000000 0.000000 0.000000 0.236666
#
#
# Mechanical properties :
#
#
# Convention : Reuss Voigt Hill
#
# Bulk Modulus (GPa) = 12.03199 14.69689 13.36444
# Shear Modulus (GPa) = 8.54859 19.91279 14.23069
#
# Velocity S-wave (km/s) = 1.87445 2.86084 2.41847
# Velocity P-wave (km/s) = 3.10324 4.11742 3.64577
#
# Compressibility (1/GPa) = 0.08311178
#
# Stress axis : x y z
#
# Youngs Moduli (GPa) = 72.50576 60.90960 25.00588
#
# Poissons Ratio (x) = -0.11820 -0.03575
# Poissons Ratio (y) = -0.14071 -0.07715
# Poissons Ratio (z) = -0.10366 -0.18793
#
# Static dielectric constant tensor:
#      x y z
#    x 1.927060 0.000000 0.000000 
#    y 0.000000 1.942540 0.000000 
#    z 0.000000 0.000000 1.954510 
# 
# From -- ./inp_files/16618.got.cif
#   From: 2010.05.17/outbox.cif.g08.bks.cpg/sg36_9_cif.got.tgz:16618.got - 2010.06.03 17:41:39.
