data_PCOD9350074
_publ_section_title
;
Structure prediction by ZEFSAII (Michael W. Deem and Ramdas Pophale) SiO2 
 PCOD9350074
Probable space group: C M M 2
;
_chemical_formula_sum "Si O2"
_cell_formula_units_Z 56
_cell_length_a 8.742457
_cell_length_b 22.161464
_cell_length_c 14.669375
_cell_angle_alpha 90.000000
_cell_angle_beta 90.000000
_cell_angle_gamma 90.000000
_cell_volume 2842.127537
_symmetry_space_group_name_H-M "C M M 2"
_symmetry_group_IT_number 35
_symmetry_cell_setting 'orthorhombic'
loop_
_space_group_symop_operation_xyz
x,y,z
-x,-y,z
-x,y,z
x,-y,z
1/2+x,1/2+y,z
1/2-x,1/2-y,z
1/2-x,1/2+y,z
1/2+x,1/2-y,z
loop_
_atom_site_type_symbol
_atom_site_label
_atom_site_fract_x
_atom_site_fract_y
_atom_site_fract_z
Si Si1 0.679244 0.500000 0.144331
Si Si2 0.321649 0.107130 0.029870
Si Si3 0.181236 0.125931 0.365881
Si Si4 0.184351 0.930484 0.638603
Si Si5 0.182233 0.314173 0.534557
Si Si6 0.681870 0.000000 0.345755
Si Si7 0.679639 0.814844 0.196874
Si Si8 0.182432 0.069645 0.853030
O O1 0.500000 0.500000 0.167726
O O2 0.722868 0.556994 0.082326
O O3 0.774530 0.500000 0.238190
O O4 0.500000 0.089319 0.033358
O O5 0.303903 0.166192 0.091764
O O6 0.267626 0.110738 0.926073
O O7 0.259222 0.174422 0.431717
O O8 0.245043 0.059787 0.388357
O O9 0.231222 0.139795 0.262875
O O10 0.000000 0.127811 0.376029
O O11 0.258906 0.874102 0.586941
O O12 0.216566 0.921711 0.746545
O O13 0.000000 0.927958 0.625832
O O14 0.231761 0.000000 0.615011
O O15 0.250000 0.250000 0.567600
O O16 0.000000 0.311542 0.537727
O O17 0.500000 0.000000 0.355877
O O18 0.500000 0.817199 0.219986
O O19 0.750000 0.750000 0.212989
O O20 0.000000 0.076069 0.864325
O O21 0.222775 0.000000 0.874943
#
# Coordination Sequence:
#
# PCOD9350074 Si02
#       8
#     4   8   8   8   8   4   8   8
#     4  12  22  34  56  85 118 159 200 240 296 354
#     4  11  22  35  56  86 122 159 200 253 300 352
#     4  12  25  42  65  91 123 164 205 249 310 376
#     4   9  20  41  67  96 130 165 206 259 320 384
#     4  12  26  45  68  94 126 165 213 264 317 382
#     4  12  24  40  60  91 128 161 204 256 308 362
#     4  11  24  41  59  82 118 161 209 259 305 359
#     4   9  18  34  59  90 123 159 199 245 303 373
#
# _framework density 19.703548999999999
#
# number of rings (size 3 to 8) (size 9 to 14) (size 15 to 20)
#    0.000    1.143    2.143    6.000    1.000    2.571 
#    0.000    2.143    0.000    1.714    0.000    0.000 
#    0.000    0.000    0.000    0.000    0.000    0.000 
#
# Total GULP energy -156495.979617 kJ/mol
# GULP energy per Si atom -5589.142129 kJ/mol
# Density = 1.965870 g / cm^3
# Si number density = 19.703549 Si / 1000 Ang^3
#
#
#
# Elastic Constant Matrix: (Units=GPa)
#
#
# Indices 1 2 3 4 5 6 
#
# 1 109.8656 51.7154 35.6772 0.0000 0.0000 0.0000
# 2 51.7154 118.6996 33.7317 0.0000 0.0000 0.0000
# 3 35.6772 33.7317 79.3730 0.0000 0.0000 0.0000
# 4 0.0000 0.0000 0.0000 23.9511 0.0000 0.0000
# 5 0.0000 0.0000 0.0000 0.0000 33.5657 0.0000
# 6 0.0000 0.0000 0.0000 0.0000 0.0000 24.3236
#
#
#
# Elastic Compliance Matrix: (Units=1/GPa)
#
#
# Indices 1 2 3 4 5 6 
#
# 1 0.012342 -0.004323 -0.003710 0.000000 0.000000 0.000000
# 2 -0.004323 0.011096 -0.002772 0.000000 0.000000 0.000000
# 3 -0.003710 -0.002772 0.015445 0.000000 0.000000 0.000000
# 4 0.000000 0.000000 0.000000 0.041752 0.000000 0.000000
# 5 0.000000 0.000000 0.000000 0.000000 0.029792 0.000000
# 6 0.000000 0.000000 0.000000 0.000000 0.000000 0.041112
#
#
# Mechanical properties :
#
#
# Convention : Reuss Voigt Hill
#
# Bulk Modulus (GPa) = 57.89996 61.13186 59.51591
# Shear Modulus (GPa) = 27.94753 28.82235 28.38494
#
# Velocity S-wave (km/s) = 3.77025 3.82881 3.79964
# Velocity P-wave (km/s) = 6.95718 7.11614 7.03711
#
# Compressibility (1/GPa) = 0.01727117
#
# Stress axis : x y z
#
# Youngs Moduli (GPa) = 81.02633 90.12416 64.74690
#
# Poissons Ratio (x) = 0.38957 0.24024
# Poissons Ratio (y) = 0.35025 0.17951
# Poissons Ratio (z) = 0.30064 0.24987
#
# Static dielectric constant tensor:
#      x y z
#    x 1.656870 0.000000 0.000000 
#    y 0.000000 1.668020 0.000000 
#    z 0.000000 0.000000 1.709030 
# 
# From -- ./inp_files/15713.got.cif
#   From: 2010.05.17/outbox.cif.g08.bks.cpg/sg35_8_cif.got.tgz:15713.got - 2010.06.03 17:29:28.
