data_PCOD9350483
_publ_section_title
;
Structure prediction by ZEFSAII (Michael W. Deem and Ramdas Pophale) SiO2 
 PCOD9350483
Probable space group: C M C 21
;
_chemical_formula_sum "Si O2"
_cell_formula_units_Z 64
_cell_length_a 8.888001
_cell_length_b 13.703726
_cell_length_c 21.956031
_cell_angle_alpha 90.000000
_cell_angle_beta 90.000000
_cell_angle_gamma 90.000000
_cell_volume 2674.216700
_symmetry_space_group_name_H-M "C M C 21"
_symmetry_group_IT_number 36
_symmetry_cell_setting 'orthorhombic'
loop_
_space_group_symop_operation_xyz
x,y,z
-x,-y,1/2+z
x,-y,1/2+z
-x,y,z
1/2+x,1/2+y,z
1/2-x,1/2-y,1/2+z
1/2+x,1/2-y,1/2+z
1/2-x,1/2+y,z
loop_
_atom_site_type_symbol
_atom_site_label
_atom_site_fract_x
_atom_site_fract_y
_atom_site_fract_z
Si Si1 0.669172 0.923746 0.525750
Si Si2 0.832688 0.803667 0.057410
Si Si3 0.328848 0.444971 0.396871
Si Si4 0.171445 0.173076 0.429448
Si Si5 0.174740 0.032522 0.148357
Si Si6 0.814730 0.208842 0.302980
Si Si7 0.172764 0.732524 0.675813
Si Si8 0.820728 0.503944 0.774053
O O1 0.500000 0.963626 0.520019
O O2 0.657843 0.813230 0.549947
O O3 0.760600 0.978166 0.579580
O O4 0.745107 0.915309 0.459338
O O5 0.763114 0.819347 0.122864
O O6 0.000000 0.846548 0.056019
O O7 0.749585 0.831458 0.994726
O O8 0.500000 0.407304 0.394826
O O9 0.339049 0.562589 0.406904
O O10 0.246896 0.436903 0.331633
O O11 0.232816 0.233219 0.372138
O O12 0.000000 0.210446 0.439444
O O13 0.500000 0.505567 0.151906
O O14 0.179368 0.150300 0.162162
O O15 0.263222 0.983392 0.204642
O O16 0.777792 0.276874 0.245782
O O17 0.733539 0.106970 0.288112
O O18 0.000000 0.197782 0.302730
O O19 0.000000 0.702716 0.671315
O O20 0.000000 0.513059 0.775694
#
# Coordination Sequence:
#
# PCOD9350483 Si02
#       8
#     8   8   8   8   8   8   8   8
#     4  10  19  30  46  71  98 121 151 193 238 276
#     4   9  17  29  46  67  91 118 147 185 231 274
#     4  10  19  32  49  67  91 125 161 191 225 277
#     4   8  15  29  48  67  86 116 156 189 221 267
#     4   9  16  28  45  65  90 121 155 187 225 275
#     4   8  14  26  43  62  86 116 151 186 220 266
#     4   8  14  24  40  63  88 113 144 183 222 263
#     4  10  17  26  43  68  94 116 147 194 238 270
#
# _framework density 23.932241999999999
#
# number of rings (size 3 to 8) (size 9 to 14) (size 15 to 20)
#    0.000    3.000    0.000    3.750    0.000    3.500 
#    0.000    3.125    0.000    1.500    0.000    5.250 
#    0.000    0.000    0.000    0.000    0.000    0.000 
#
# Total GULP energy -178623.317803 kJ/mol
# GULP energy per Si atom -5581.978681 kJ/mol
# Density = 2.387777 g / cm^3
# Si number density = 23.932242 Si / 1000 Ang^3
#
#
#
# Elastic Constant Matrix: (Units=GPa)
#
#
# Indices 1 2 3 4 5 6 
#
# 1 117.0014 9.5731 103.5512 0.0000 0.0000 0.0000
# 2 9.5731 52.4488 33.1915 0.0000 0.0000 0.0000
# 3 103.5512 33.1915 301.0458 0.0000 0.0000 0.0000
# 4 0.0000 0.0000 0.0000 55.4921 0.0000 0.0000
# 5 0.0000 0.0000 0.0000 0.0000 41.2922 0.0000
# 6 0.0000 0.0000 0.0000 0.0000 0.0000 5.5242
#
#
#
# Elastic Compliance Matrix: (Units=1/GPa)
#
#
# Indices 1 2 3 4 5 6 
#
# 1 0.012298 0.000465 -0.004281 0.000000 0.000000 0.000000
# 2 0.000465 0.020514 -0.002422 0.000000 0.000000 0.000000
# 3 -0.004281 -0.002422 0.005061 0.000000 0.000000 0.000000
# 4 0.000000 0.000000 0.000000 0.018021 0.000000 0.000000
# 5 0.000000 0.000000 0.000000 0.000000 0.024218 0.000000
# 6 0.000000 0.000000 0.000000 0.000000 0.000000 0.181021
#
#
# Mechanical properties :
#
#
# Convention : Reuss Voigt Hill
#
# Bulk Modulus (GPa) = 39.37492 84.79197 62.08344
# Shear Modulus (GPa) = 17.72582 42.07371 29.89976
#
# Velocity S-wave (km/s) = 2.72447 4.19744 3.53845
# Velocity P-wave (km/s) = 5.13667 7.68103 6.53390
#
# Compressibility (1/GPa) = 0.02539688
#
# Stress axis : x y z
#
# Youngs Moduli (GPa) = 81.31304 48.74749 197.57205
#
# Poissons Ratio (x) = -0.02266 0.84590
# Poissons Ratio (y) = -0.03779 0.47844
# Poissons Ratio (z) = 0.34814 0.11805
#
# Static dielectric constant tensor:
#      x y z
#    x 1.848500 0.000000 0.000000 
#    y 0.000000 2.049850 0.000000 
#    z 0.000000 0.000000 1.970370 
# 
# From -- ./inp_files/14050.got.cif
#   From: 2010.05.17/outbox.cif.g08.bks.cpg/sg36_8_cif.got.tgz:14050.got - 2010.06.03 17:41:39.
