data_PCOD9350755
_publ_section_title
;
Structure prediction by ZEFSAII (Michael W. Deem and Ramdas Pophale) SiO2 
 PCOD9350755
Probable space group: C M C 21
;
_chemical_formula_sum "Si O2"
_cell_formula_units_Z 64
_cell_length_a 7.615896
_cell_length_b 15.802691
_cell_length_c 24.769246
_cell_angle_alpha 90.000000
_cell_angle_beta 90.000000
_cell_angle_gamma 90.000000
_cell_volume 2981.019654
_symmetry_space_group_name_H-M "C M C 21"
_symmetry_group_IT_number 36
_symmetry_cell_setting 'orthorhombic'
loop_
_space_group_symop_operation_xyz
x,y,z
-x,-y,1/2+z
x,-y,1/2+z
-x,y,z
1/2+x,1/2+y,z
1/2-x,1/2-y,1/2+z
1/2+x,1/2-y,1/2+z
1/2-x,1/2+y,z
loop_
_atom_site_type_symbol
_atom_site_label
_atom_site_fract_x
_atom_site_fract_y
_atom_site_fract_z
Si Si1 0.215861 0.840604 0.861130
Si Si2 0.703720 0.923156 0.471787
Si Si3 0.707337 0.641673 0.085065
Si Si4 0.709178 0.491902 0.784727
Si Si5 0.211712 0.170583 0.595714
Si Si6 0.284563 0.490532 0.162670
Si Si7 0.788615 0.348840 0.358527
Si Si8 0.798000 0.114448 0.480113
O O1 0.277467 0.914372 0.821100
O O2 0.270496 0.746062 0.845186
O O3 0.276975 0.858477 0.922391
O O4 0.000000 0.844184 0.861589
O O5 0.500000 0.943687 0.462050
O O6 0.715549 0.866176 0.525038
O O7 0.773344 0.877771 0.418091
O O8 0.795146 0.012677 0.482618
O O9 0.500000 0.629883 0.078820
O O10 0.741655 0.733659 0.109496
O O11 0.772735 0.566314 0.123303
O O12 0.500000 0.479394 0.780697
O O13 0.777249 0.496215 0.723747
O O14 0.738852 0.579517 0.816015
O O15 0.281005 0.149778 0.535441
O O16 0.000000 0.164042 0.593861
O O17 0.272080 0.098678 0.637103
O O18 0.500000 0.491075 0.163229
O O19 0.000000 0.345443 0.360887
O O20 0.000000 0.144120 0.479266
#
# Coordination Sequence:
#
# PCOD9350755 Si02
#       8
#     8   8   8   8   8   8   8   8
#     4   9  18  33  56  81 108 144 186 223 272 335
#     4  11  21  34  56  85 117 148 184 232 287 339
#     4  11  22  38  59  85 114 149 191 232 277 339
#     4  10  20  37  60  82 106 146 197 236 269 326
#     4  10  20  37  58  81 114 150 182 229 290 341
#     4   9  20  38  58  80 111 149 188 233 283 330
#     4  10  21  37  56  82 115 149 182 229 287 337
#     4  10  18  34  59  82 109 151 190 224 281 345
#
# _framework density 21.469163000000002
#
# number of rings (size 3 to 8) (size 9 to 14) (size 15 to 20)
#    0.000    2.000    2.500    1.500    0.000    4.000 
#    0.000    4.375    0.000    0.000    0.000    0.000 
#    0.000    0.000    0.000    0.000    0.000    0.000 
#
# Total GULP energy -178800.596636 kJ/mol
# GULP energy per Si atom -5587.518645 kJ/mol
# Density = 2.142030 g / cm^3
# Si number density = 21.469163 Si / 1000 Ang^3
#
#
#
# Elastic Constant Matrix: (Units=GPa)
#
#
# Indices 1 2 3 4 5 6 
#
# 1 43.6145 -7.0029 5.5155 0.0000 0.0000 0.0000
# 2 -7.0029 124.2900 37.6916 0.0000 0.0000 0.0000
# 3 5.5155 37.6916 120.3781 0.0000 0.0000 0.0000
# 4 0.0000 0.0000 0.0000 3.5743 0.0000 0.0000
# 5 0.0000 0.0000 0.0000 0.0000 20.2048 0.0000
# 6 0.0000 0.0000 0.0000 0.0000 0.0000 20.7866
#
#
#
# Elastic Compliance Matrix: (Units=1/GPa)
#
#
# Indices 1 2 3 4 5 6 
#
# 1 0.023428 0.001818 -0.001643 0.000000 0.000000 0.000000
# 2 0.001818 0.009031 -0.002911 0.000000 0.000000 0.000000
# 3 -0.001643 -0.002911 0.009294 0.000000 0.000000 0.000000
# 4 0.000000 0.000000 0.000000 0.279777 0.000000 0.000000
# 5 0.000000 0.000000 0.000000 0.000000 0.049493 0.000000
# 6 0.000000 0.000000 0.000000 0.000000 0.000000 0.048108
#
#
# Mechanical properties :
#
#
# Convention : Reuss Voigt Hill
#
# Bulk Modulus (GPa) = 27.56219 40.07677 33.81948
# Shear Modulus (GPa) = 11.44962 25.71835 18.58399
#
# Velocity S-wave (km/s) = 2.31185 3.46485 2.94532
# Velocity P-wave (km/s) = 4.47125 5.89191 5.23004
#
# Compressibility (1/GPa) = 0.03628158
#
# Stress axis : x y z
#
# Youngs Moduli (GPa) = 42.68425 110.73082 107.59765
#
# Poissons Ratio (x) = -0.20133 0.17675
# Poissons Ratio (y) = -0.07761 0.31321
# Poissons Ratio (z) = 0.07012 0.32233
#
# Static dielectric constant tensor:
#      x y z
#    x 1.811210 0.000000 0.000000 
#    y 0.000000 1.752100 0.000000 
#    z 0.000000 0.000000 1.758220 
# 
# From -- ./inp_files/16552.got.cif
#   From: 2010.05.17/outbox.cif.g08.bks.cpg/sg36_9_cif.got.tgz:16552.got - 2010.06.03 17:41:39.
