data_PCOD9350719
_publ_section_title
;
Structure prediction by ZEFSAII (Michael W. Deem and Ramdas Pophale) SiO2 
 PCOD9350719
Probable space group: C M C 21
;
_chemical_formula_sum "Si O2"
_cell_formula_units_Z 64
_cell_length_a 8.205736
_cell_length_b 21.088655
_cell_length_c 19.850568
_cell_angle_alpha 90.000000
_cell_angle_beta 90.000000
_cell_angle_gamma 90.000000
_cell_volume 3435.099811
_symmetry_space_group_name_H-M "C M C 21"
_symmetry_group_IT_number 36
_symmetry_cell_setting 'orthorhombic'
loop_
_space_group_symop_operation_xyz
x,y,z
-x,-y,1/2+z
x,-y,1/2+z
-x,y,z
1/2+x,1/2+y,z
1/2-x,1/2-y,1/2+z
1/2+x,1/2-y,1/2+z
1/2-x,1/2+y,z
loop_
_atom_site_type_symbol
_atom_site_label
_atom_site_fract_x
_atom_site_fract_y
_atom_site_fract_z
Si Si1 0.803317 0.680243 0.908190
Si Si2 0.800942 0.990577 0.050029
Si Si3 0.308462 0.866518 0.697291
Si Si4 0.691419 0.049636 0.840636
Si Si5 0.802039 0.806968 0.832217
Si Si6 0.192236 0.990105 0.201189
Si Si7 0.194919 0.137095 0.049442
Si Si8 0.692925 0.426882 0.917247
O O1 0.747689 0.615164 0.872616
O O2 0.748453 0.741550 0.866525
O O3 0.000000 0.680419 0.907313
O O4 0.748185 0.678093 0.985640
O O5 0.750793 0.973499 0.125749
O O6 0.000000 0.990407 0.049154
O O7 0.751297 0.063701 0.036911
O O8 0.740937 0.944709 0.991075
O O9 0.500000 0.878946 0.701495
O O10 0.257413 0.819175 0.756506
O O11 0.265036 0.843800 0.622050
O O12 0.218957 0.934049 0.708251
O O13 0.500000 0.043221 0.855862
O O14 0.717810 0.045819 0.760825
O O15 0.781056 0.989451 0.872624
O O16 0.741859 0.865888 0.878045
O O17 0.000000 0.807988 0.830864
O O18 0.000000 0.977487 0.206680
O O19 0.000000 0.137048 0.054476
O O20 0.500000 0.416111 0.925027
#
# Coordination Sequence:
#
# PCOD9350719 Si02
#       8
#     8   8   8   8   8   8   8   8
#     4  10  22  38  54  80 117 153 189 230 279 330
#     4   8  16  30  51  80 105 131 176 230 274 322
#     4  11  21  34  55  83 113 143 185 234 279 329
#     4  11  21  33  52  80 112 143 182 232 281 325
#     4  10  21  37  57  80 113 154 189 225 277 337
#     4  10  19  33  53  79 111 145 184 228 279 339
#     4  10  19  34  57  82 109 144 188 230 277 336
#     4  10  18  33  57  80 104 139 185 231 276 330
#
# _framework density 18.631191999999999
#
# number of rings (size 3 to 8) (size 9 to 14) (size 15 to 20)
#    0.000    2.000    2.500    3.000    0.000    1.000 
#    0.000    1.875    0.000    1.500    0.000    0.000 
#    0.000    0.000    0.000    0.000    0.000    0.000 
#
# Total GULP energy -178594.852862 kJ/mol
# GULP energy per Si atom -5581.089152 kJ/mol
# Density = 1.858879 g / cm^3
# Si number density = 18.631192 Si / 1000 Ang^3
#
#
#
# Elastic Constant Matrix: (Units=GPa)
#
#
# Indices 1 2 3 4 5 6 
#
# 1 10.6398 -2.2441 -5.5156 0.0000 0.0000 0.0000
# 2 -2.2441 78.7945 49.9068 0.0000 0.0000 0.0000
# 3 -5.5156 49.9068 145.6980 0.0000 0.0000 0.0000
# 4 0.0000 0.0000 0.0000 29.5240 0.0000 0.0000
# 5 0.0000 0.0000 0.0000 0.0000 25.5566 0.0000
# 6 0.0000 0.0000 0.0000 0.0000 0.0000 13.0492
#
#
#
# Elastic Compliance Matrix: (Units=1/GPa)
#
#
# Indices 1 2 3 4 5 6 
#
# 1 0.095887 0.000551 0.003441 0.000000 0.000000 0.000000
# 2 0.000551 0.016211 -0.005532 0.000000 0.000000 0.000000
# 3 0.003441 -0.005532 0.008889 0.000000 0.000000 0.000000
# 4 0.000000 0.000000 0.000000 0.033871 0.000000 0.000000
# 5 0.000000 0.000000 0.000000 0.000000 0.039129 0.000000
# 6 0.000000 0.000000 0.000000 0.000000 0.000000 0.076633
#
#
# Mechanical properties :
#
#
# Convention : Reuss Voigt Hill
#
# Bulk Modulus (GPa) = 8.48122 35.49183 21.98653
# Shear Modulus (GPa) = 15.97443 26.49165 21.23304
#
# Velocity S-wave (km/s) = 2.93132 3.77490 3.37953
# Velocity P-wave (km/s) = 4.00236 6.17178 5.20143
#
# Compressibility (1/GPa) = 0.11790750
#
# Stress axis : x y z
#
# Youngs Moduli (GPa) = 10.42894 61.68754 112.50304
#
# Poissons Ratio (x) = -0.03401 -0.38713
# Poissons Ratio (y) = -0.00575 0.62235
# Poissons Ratio (z) = -0.03589 0.34125
#
# Static dielectric constant tensor:
#      x y z
#    x 1.645000 0.000000 0.000000 
#    y 0.000000 1.624350 0.000000 
#    z 0.000000 0.000000 1.660480 
# 
# From -- ./inp_files/15619.got.cif
#   From: 2010.05.17/outbox.cif.g08.bks.cpg/sg36_8_cif.got.tgz:15619.got - 2010.06.03 17:41:39.
