data_PCOD9350519
_publ_section_title
;
Structure prediction by ZEFSAII (Michael W. Deem and Ramdas Pophale) SiO2 
 PCOD9350519
Probable space group: C M C 21
;
_chemical_formula_sum "Si O2"
_cell_formula_units_Z 48
_cell_length_a 18.869960
_cell_length_b 13.878570
_cell_length_c 7.533516
_cell_angle_alpha 90.000000
_cell_angle_beta 90.000000
_cell_angle_gamma 90.000000
_cell_volume 1972.937896
_symmetry_space_group_name_H-M "C M C 21"
_symmetry_group_IT_number 36
_symmetry_cell_setting 'orthorhombic'
loop_
_space_group_symop_operation_xyz
x,y,z
-x,-y,1/2+z
x,-y,1/2+z
-x,y,z
1/2+x,1/2+y,z
1/2-x,1/2-y,1/2+z
1/2+x,1/2-y,1/2+z
1/2-x,1/2+y,z
loop_
_atom_site_type_symbol
_atom_site_label
_atom_site_fract_x
_atom_site_fract_y
_atom_site_fract_z
Si Si1 0.309561 0.891347 0.845400
Si Si2 0.808081 0.184414 0.709322
Si Si3 0.320958 0.856709 0.448164
Si Si4 0.580774 0.628901 0.131896
Si Si5 0.581487 0.861407 0.138518
Si Si6 0.653035 0.539540 0.463060
O O1 0.317702 0.774435 0.839519
O O2 0.314639 0.913717 0.634408
O O3 0.233916 0.934875 0.905530
O O4 0.371763 0.911195 0.984921
O O5 0.736537 0.138762 0.789087
O O6 0.812561 0.248157 0.526172
O O7 0.856306 0.095744 0.650311
O O8 0.391150 0.880190 0.338458
O O9 0.500000 0.603993 0.082265
O O10 0.587302 0.743934 0.127177
O O11 0.599618 0.588230 0.325593
O O12 0.636436 0.571381 0.009009
O O13 0.500000 0.887765 0.116469
#
# Coordination Sequence:
#
# PCOD9350519 Si02
#       6
#     8   8   8   8   8   8
#     4  10  21  37  65  94 119 167 239 287 331 373
#     4  10  17  34  63  85 115 162 225 288 325 364
#     4  10  18  35  60  91 120 158 221 292 335 368
#     4  11  26  43  55  90 146 191 218 253 335 429
#     4  11  22  41  64  94 139 180 220 276 342 409
#     4  12  23  38  63  88 128 182 231 274 321 397
#
# _framework density 24.329198000000002
#
# number of rings (size 3 to 8) (size 9 to 14) (size 15 to 20)
#    1.000    0.333    5.000    0.500    4.667    0.667 
#    0.000    0.833    0.000    0.000    0.000    1.167 
#    0.000    2.667    0.000    0.000    0.000    0.000 
#
# Total GULP energy -133704.241305 kJ/mol
# GULP energy per Si atom -5571.010054 kJ/mol
# Density = 2.427382 g / cm^3
# Si number density = 24.329198 Si / 1000 Ang^3
#
#
#
# Elastic Constant Matrix: (Units=GPa)
#
#
# Indices 1 2 3 4 5 6 
#
# 1 118.6895 39.2434 76.4443 0.0000 0.0000 0.0000
# 2 39.2434 114.0401 23.5592 0.0000 0.0000 0.0000
# 3 76.4443 23.5592 125.4497 0.0000 0.0000 0.0000
# 4 0.0000 0.0000 0.0000 22.3546 0.0000 0.0000
# 5 0.0000 0.0000 0.0000 0.0000 29.4322 0.0000
# 6 0.0000 0.0000 0.0000 0.0000 0.0000 17.2674
#
#
#
# Elastic Compliance Matrix: (Units=1/GPa)
#
#
# Indices 1 2 3 4 5 6 
#
# 1 0.015047 -0.003416 -0.008528 0.000000 0.000000 0.000000
# 2 -0.003416 0.009898 0.000223 0.000000 0.000000 0.000000
# 3 -0.008528 0.000223 0.013126 0.000000 0.000000 0.000000
# 4 0.000000 0.000000 0.000000 0.044734 0.000000 0.000000
# 5 0.000000 0.000000 0.000000 0.000000 0.033976 0.000000
# 6 0.000000 0.000000 0.000000 0.000000 0.000000 0.057913
#
#
# Mechanical properties :
#
#
# Convention : Reuss Voigt Hill
#
# Bulk Modulus (GPa) = 68.35564 70.74146 69.54855
# Shear Modulus (GPa) = 24.62895 28.40632 26.51764
#
# Velocity S-wave (km/s) = 3.18515 3.42070 3.30502
# Velocity P-wave (km/s) = 6.45632 6.68890 6.57364
#
# Compressibility (1/GPa) = 0.01462937
#
# Stress axis : x y z
#
# Youngs Moduli (GPa) = 66.45669 101.02598 76.18501
#
# Poissons Ratio (x) = 0.34514 0.64969
# Poissons Ratio (y) = 0.22704 -0.01698
# Poissons Ratio (z) = 0.56672 -0.02252
#
# Static dielectric constant tensor:
#      x y z
#    x 1.917070 0.000000 0.000000 
#    y 0.000000 2.060050 0.000000 
#    z 0.000000 0.000000 1.986140 
# 
# From -- ./inp_files/5265.got.cif
#   From: 2010.05.17/outbox.cif.g08.bks.cpg/sg36_3_cif.got.tgz:5265.got - 2010.06.03 17:41:39.
