data_PCOD9350127
_publ_section_title
;
Structure prediction by ZEFSAII (Michael W. Deem and Ramdas Pophale) SiO2 
 PCOD9350127
Probable space group: C M M 2
;
_chemical_formula_sum "Si O2"
_cell_formula_units_Z 56
_cell_length_a 19.932610
_cell_length_b 13.891018
_cell_length_c 9.759237
_cell_angle_alpha 90.000000
_cell_angle_beta 90.000000
_cell_angle_gamma 90.000000
_cell_volume 2702.178962
_symmetry_space_group_name_H-M "C M M 2"
_symmetry_group_IT_number 35
_symmetry_cell_setting 'orthorhombic'
loop_
_space_group_symop_operation_xyz
x,y,z
-x,-y,z
-x,y,z
x,-y,z
1/2+x,1/2+y,z
1/2-x,1/2-y,z
1/2-x,1/2+y,z
1/2+x,1/2-y,z
loop_
_atom_site_type_symbol
_atom_site_label
_atom_site_fract_x
_atom_site_fract_y
_atom_site_fract_z
Si Si1 0.177540 0.221343 0.032870
Si Si2 0.715891 0.116809 0.570534
Si Si3 0.073888 0.615030 0.677730
Si Si4 0.157097 0.884449 0.760795
Si Si5 0.577667 0.888118 0.007411
Si Si6 0.073854 0.883018 0.504590
Si Si7 0.697781 0.383926 0.317124
O O1 0.250000 0.250000 0.975929
O O2 0.194338 0.161958 0.168770
O O3 0.146325 0.160702 0.908947
O O4 0.130545 0.312371 0.065615
O O5 0.641910 0.152637 0.608548
O O6 0.773982 0.143279 0.680281
O O7 0.740923 0.142401 0.418283
O O8 0.714419 0.000000 0.575361
O O9 0.072381 0.500000 0.649509
O O10 0.081027 0.623123 0.842078
O O11 0.000000 0.652840 0.637940
O O12 0.097015 0.858402 0.657796
O O13 0.159617 0.000000 0.774545
O O14 0.500000 0.870558 0.047679
O O15 0.593782 0.000000 0.038980
O O16 0.131002 0.853672 0.398975
O O17 0.000000 0.848700 0.469655
O O18 0.073671 0.000000 0.500569
O O19 0.698278 0.500000 0.304745
#
# Coordination Sequence:
#
# PCOD9350127 Si02
#       7
#     8   8   8   8   8   8   8
#     4  12  24  35  54  87 117 151 198 248 297 344
#     4   8  14  29  53  79 112 153 189 228 285 352
#     4   8  13  25  51  83 108 137 186 244 293 336
#     4   9  18  33  55  84 116 147 182 229 288 352
#     4   9  20  39  59  81 115 158 202 250 301 348
#     4   8  15  32  58  84 111 146 182 215 266 342
#     4   9  19  35  54  80 119 159 187 222 283 353
#
# _framework density 20.724015000000001
#
# number of rings (size 3 to 8) (size 9 to 14) (size 15 to 20)
#    0.000    3.000    0.000    3.857    0.000    3.429 
#    0.000    5.714    0.000    5.143    0.000    6.000 
#    0.000   10.286    0.000    0.000    0.000    0.000 
#
# Total GULP energy -156314.872505 kJ/mol
# GULP energy per Si atom -5582.674018 kJ/mol
# Density = 2.067685 g / cm^3
# Si number density = 20.724015 Si / 1000 Ang^3
#
#
#
# Elastic Constant Matrix: (Units=GPa)
#
#
# Indices 1 2 3 4 5 6 
#
# 1 106.5784 16.0945 -1.9112 0.0000 0.0000 0.0000
# 2 16.0945 83.0903 5.8326 0.0000 0.0000 0.0000
# 3 -1.9112 5.8326 60.1235 0.0000 0.0000 0.0000
# 4 0.0000 0.0000 0.0000 -0.5158 0.0000 0.0000
# 5 0.0000 0.0000 0.0000 0.0000 15.0808 0.0000
# 6 0.0000 0.0000 0.0000 0.0000 0.0000 22.8025
#
#
#
# Elastic Compliance Matrix: (Units=1/GPa)
#
#
# Indices 1 2 3 4 5 6 
#
# 1 0.009680 -0.001910 0.000493 0.000000 0.000000 0.000000
# 2 -0.001910 0.012494 -0.001273 0.000000 0.000000 0.000000
# 3 0.000493 -0.001273 0.016772 0.000000 0.000000 0.000000
# 4 0.000000 0.000000 0.000000 -1.938690 0.000000 0.000000
# 5 0.000000 0.000000 0.000000 0.000000 0.066309 0.000000
# 6 0.000000 0.000000 0.000000 0.000000 0.000000 0.043855
#
#
# Mechanical properties :
#
#
# Convention : Reuss Voigt Hill
#
# Bulk Modulus (GPa) = 29.79112 32.20264 30.99688
# Shear Modulus (GPa) = -2.82006 22.79192 9.98593
#
# Velocity S-wave (km/s) = -1.16779 3.31990 2.19750
# Velocity P-wave (km/s) = 3.54797 5.50165 4.62905
#
# Compressibility (1/GPa) = 0.03356705
#
# Stress axis : x y z
#
# Youngs Moduli (GPa) = 103.30602 80.03628 59.62470
#
# Poissons Ratio (x) = 0.15284 -0.02939
# Poissons Ratio (y) = 0.19727 0.07589
# Poissons Ratio (z) = -0.05093 0.10187
#
# Static dielectric constant tensor:
#      x y z
#    x 1.724900 0.000000 0.000000 
#    y 0.000000 1.779030 0.000000 
#    z 0.000000 0.000000 1.694370 
# 
# From -- ./inp_files/9281.got.cif
#   From: 2010.05.17/outbox.cif.g08.bks.cpg/sg35_5_cif.got.tgz:9281.got - 2010.06.03 17:29:28.
