data_PCOD9350657
_publ_section_title
;
Structure prediction by ZEFSAII (Michael W. Deem and Ramdas Pophale) SiO2 
 PCOD9350657
Probable space group: C M C 21
;
_chemical_formula_sum "Si O2"
_cell_formula_units_Z 48
_cell_length_a 16.930935
_cell_length_b 17.900953
_cell_length_c 7.742031
_cell_angle_alpha 90.000000
_cell_angle_beta 90.000000
_cell_angle_gamma 90.000000
_cell_volume 2346.453762
_symmetry_space_group_name_H-M "C M C 21"
_symmetry_group_IT_number 36
_symmetry_cell_setting 'orthorhombic'
loop_
_space_group_symop_operation_xyz
x,y,z
-x,-y,1/2+z
x,-y,1/2+z
-x,y,z
1/2+x,1/2+y,z
1/2-x,1/2-y,1/2+z
1/2+x,1/2-y,1/2+z
1/2-x,1/2+y,z
loop_
_atom_site_type_symbol
_atom_site_label
_atom_site_fract_x
_atom_site_fract_y
_atom_site_fract_z
Si Si1 0.905617 0.221268 0.351070
Si Si2 0.408688 0.318737 0.224322
Si Si3 0.092166 0.543056 0.505361
Si Si4 0.196520 0.190423 0.026889
Si Si5 0.908862 0.389040 0.387782
Si Si6 0.673176 0.826904 0.805177
O O1 0.889238 0.172149 0.521920
O O2 0.872268 0.194494 0.169709
O O3 0.874545 0.306164 0.376125
O O4 0.000000 0.225140 0.337799
O O5 0.500000 0.340054 0.257543
O O6 0.342689 0.349365 0.358572
O O7 0.398906 0.228664 0.253378
O O8 0.093463 0.577656 0.695179
O O9 0.122078 0.457922 0.500791
O O10 0.141890 0.597700 0.385525
O O11 0.000000 0.542275 0.447217
O O12 0.268443 0.162997 0.144471
O O13 0.214018 0.273724 0.951115
O O14 0.000000 0.378918 0.442647
#
# Coordination Sequence:
#
# PCOD9350657 Si02
#       6
#     8   8   8   8   8   8
#     4  10  18  32  52  74  99 134 175 216 255 298
#     4   9  19  31  49  68  89 127 169 208 253 300
#     4  10  19  31  48  71 100 138 178 214 248 296
#     4  10  20  32  47  69  97 132 174 215 256 302
#     4   9  18  30  47  74 101 130 177 219 246 290
#     4  10  20  32  47  64  99 133 173 210 261 296
#
# _framework density 20.456401
#
# number of rings (size 3 to 8) (size 9 to 14) (size 15 to 20)
#    1.000    1.333    1.667    2.000    2.333    0.000 
#    0.000    0.000    0.000    0.000    0.000    0.000 
#    0.000    0.000    0.000   18.000    1.667    6.833 
#
# Total GULP energy -133653.268151 kJ/mol
# GULP energy per Si atom -5568.886173 kJ/mol
# Density = 2.040984 g / cm^3
# Si number density = 20.456401 Si / 1000 Ang^3
#
#
#
# Elastic Constant Matrix: (Units=GPa)
#
#
# Indices 1 2 3 4 5 6 
#
# 1 68.7359 10.5407 42.7910 0.0000 0.0000 0.0000
# 2 10.5407 26.3298 21.9809 0.0000 0.0000 0.0000
# 3 42.7910 21.9809 113.7573 0.0000 0.0000 0.0000
# 4 0.0000 0.0000 0.0000 25.4135 0.0000 0.0000
# 5 0.0000 0.0000 0.0000 0.0000 40.7635 0.0000
# 6 0.0000 0.0000 0.0000 0.0000 0.0000 16.6127
#
#
#
# Elastic Compliance Matrix: (Units=1/GPa)
#
#
# Indices 1 2 3 4 5 6 
#
# 1 0.019082 -0.001964 -0.006798 0.000000 0.000000 0.000000
# 2 -0.001964 0.045487 -0.008051 0.000000 0.000000 0.000000
# 3 -0.006798 -0.008051 0.012904 0.000000 0.000000 0.000000
# 4 0.000000 0.000000 0.000000 0.039349 0.000000 0.000000
# 5 0.000000 0.000000 0.000000 0.000000 0.024532 0.000000
# 6 0.000000 0.000000 0.000000 0.000000 0.000000 0.060195
#
#
# Mechanical properties :
#
#
# Convention : Reuss Voigt Hill
#
# Bulk Modulus (GPa) = 22.80664 39.93870 31.37267
# Shear Modulus (GPa) = 20.01689 25.45862 22.73776
#
# Velocity S-wave (km/s) = 3.13152 3.53162 3.33757
# Velocity P-wave (km/s) = 4.92426 6.01631 5.49747
#
# Compressibility (1/GPa) = 0.04384687
#
# Stress axis : x y z
#
# Youngs Moduli (GPa) = 52.40581 21.98444 77.49812
#
# Poissons Ratio (x) = 0.04317 0.52687
# Poissons Ratio (y) = 0.10290 0.62391
# Poissons Ratio (z) = 0.35628 0.17699
#
# Static dielectric constant tensor:
#      x y z
#    x 1.835210 0.000000 0.000000 
#    y 0.000000 1.708460 0.000000 
#    z 0.000000 0.000000 1.800130 
# 
# From -- ./inp_files/4740.got.cif
#   From: 2010.05.17/outbox.cif.g08.bks.cpg/sg36_3_cif.got.tgz:4740.got - 2010.06.03 17:41:39.
