data_PCOD9350267
_publ_section_title
;
Structure prediction by ZEFSAII (Michael W. Deem and Ramdas Pophale) SiO2 
 PCOD9350267
Probable space group: C M M 2
;
_chemical_formula_sum "Si O2"
_cell_formula_units_Z 44
_cell_length_a 13.383842
_cell_length_b 21.612965
_cell_length_c 10.049424
_cell_angle_alpha 90.000000
_cell_angle_beta 90.000000
_cell_angle_gamma 90.000000
_cell_volume 2906.941696
_symmetry_space_group_name_H-M "C M M 2"
_symmetry_group_IT_number 35
_symmetry_cell_setting 'orthorhombic'
loop_
_space_group_symop_operation_xyz
x,y,z
-x,-y,z
-x,y,z
x,-y,z
1/2+x,1/2+y,z
1/2-x,1/2-y,z
1/2-x,1/2+y,z
1/2+x,1/2-y,z
loop_
_atom_site_type_symbol
_atom_site_label
_atom_site_fract_x
_atom_site_fract_y
_atom_site_fract_z
Si Si1 0.384859 0.147748 0.894890
Si Si2 0.880514 0.426578 0.623085
Si Si3 0.617359 0.724684 0.286461
Si Si4 0.388889 0.073012 0.163135
Si Si5 0.712422 0.147883 0.380459
Si Si6 0.750000 0.250000 0.032233
O O1 0.500000 0.171870 0.886352
O O2 0.362515 0.110687 0.759959
O O3 0.383600 0.098730 0.015048
O O4 0.306717 0.200216 0.940145
O O5 0.855417 0.500000 0.631378
O O6 0.821357 0.390617 0.507926
O O7 0.000000 0.423426 0.595685
O O8 0.500000 0.716551 0.279080
O O9 0.645180 0.790902 0.352696
O O10 0.675291 0.673577 0.373508
O O11 0.667470 0.724751 0.138700
O O12 0.500000 0.089629 0.216355
O O13 0.307505 0.104733 0.254052
O O14 0.379936 0.000000 0.165271
#
# Coordination Sequence:
#
# PCOD9350267 Si02
#       6
#     8   8   8   8   8   4
#     4  10  19  32  48  74 105 131 162 200 246 297
#     4  10  20  33  50  75 106 133 158 200 252 299
#     4  10  19  32  51  75 101 128 164 213 251 285
#     4  10  17  27  47  72  97 127 163 201 244 293
#     4  10  19  31  50  75  99 130 163 203 248 296
#     4  10  18  30  52  74 100 134 162 204 248 290
#
# _framework density 15.136182
#
# number of rings (size 3 to 8) (size 9 to 14) (size 15 to 20)
#    0.000    2.182    3.636    3.273    0.000    5.091 
#    0.000    0.000    0.000    3.273    0.000    0.000 
#    0.000    0.000    0.000    0.000    0.000    0.000 
#
# Total GULP energy -122549.491525 kJ/mol
# GULP energy per Si atom -5570.431433 kJ/mol
# Density = 1.510173 g / cm^3
# Si number density = 15.136182 Si / 1000 Ang^3
#
#
#
# Elastic Constant Matrix: (Units=GPa)
#
#
# Indices 1 2 3 4 5 6 
#
# 1 113.2922 56.5909 48.3951 0.0000 0.0000 0.0000
# 2 56.5909 91.0433 51.3032 0.0000 0.0000 0.0000
# 3 48.3951 51.3032 102.6298 0.0000 0.0000 0.0000
# 4 0.0000 0.0000 0.0000 919.1478 0.0000 0.0000
# 5 0.0000 0.0000 0.0000 0.0000 -187.0344 0.0000
# 6 0.0000 0.0000 0.0000 0.0000 0.0000 23.0975
#
#
#
# Elastic Compliance Matrix: (Units=1/GPa)
#
#
# Indices 1 2 3 4 5 6 
#
# 1 0.013437 -0.006657 -0.003009 0.000000 0.000000 0.000000
# 2 -0.006657 0.018589 -0.006153 0.000000 0.000000 0.000000
# 3 -0.003009 -0.006153 0.014238 0.000000 0.000000 0.000000
# 4 0.000000 0.000000 0.000000 0.001088 0.000000 0.000000
# 5 0.000000 0.000000 0.000000 0.000000 -0.005347 0.000000
# 6 0.000000 0.000000 0.000000 0.000000 0.000000 0.043295
#
#
# Mechanical properties :
#
#
# Convention : Reuss Voigt Hill
#
# Bulk Modulus (GPa) = 68.36709 68.83817 68.60263
# Shear Modulus (GPa) = 41.04622 161.08726 101.06674
#
# Velocity S-wave (km/s) = 5.21314 10.32746 8.18026
# Velocity P-wave (km/s) = 9.02783 13.70352 11.60362
#
# Compressibility (1/GPa) = 0.01462692
#
# Stress axis : x y z
#
# Youngs Moduli (GPa) = 74.42072 53.79522 70.23257
#
# Poissons Ratio (x) = 0.35811 0.21130
# Poissons Ratio (y) = 0.49541 0.43216
# Poissons Ratio (z) = 0.22390 0.33102
#
# Static dielectric constant tensor:
#      x y z
#    x 1.514630 0.000000 0.000000 
#    y 0.000000 1.380430 0.000000 
#    z 0.000000 0.000000 1.506120 
# 
# From -- ./inp_files/7469.got.cif
#   From: 2010.05.17/outbox.cif.g08.bks.cpg/sg35_4_cif.got.tgz:7469.got - 2010.06.03 17:29:28.
