data_PCOD9350025
_publ_section_title
;
Structure prediction by ZEFSAII (Michael W. Deem and Ramdas Pophale) SiO2 
 PCOD9350025
Probable space group: C M M 2
;
_chemical_formula_sum "Si O2"
_cell_formula_units_Z 48
_cell_length_a 24.975896
_cell_length_b 14.814427
_cell_length_c 5.697828
_cell_angle_alpha 90.000000
_cell_angle_beta 90.000000
_cell_angle_gamma 90.000000
_cell_volume 2108.216804
_symmetry_space_group_name_H-M "C M M 2"
_symmetry_group_IT_number 35
_symmetry_cell_setting 'orthorhombic'
loop_
_space_group_symop_operation_xyz
x,y,z
-x,-y,z
-x,y,z
x,-y,z
1/2+x,1/2+y,z
1/2-x,1/2-y,z
1/2-x,1/2+y,z
1/2+x,1/2-y,z
loop_
_atom_site_type_symbol
_atom_site_label
_atom_site_fract_x
_atom_site_fract_y
_atom_site_fract_z
Si Si1 0.810730 0.598984 0.202840
Si Si2 0.290653 0.598534 0.541354
Si Si3 0.500000 0.190604 0.711967
Si Si4 0.611432 0.896836 0.593184
Si Si5 0.323910 0.254474 0.864822
Si Si6 0.613264 0.394759 0.166594
Si Si7 0.000000 0.197895 0.219024
O O1 0.807096 0.500000 0.083194
O O2 0.763224 0.596671 0.391291
O O3 0.869776 0.605624 0.320767
O O4 0.801546 0.690463 0.065362
O O5 0.296429 0.500000 0.656058
O O6 0.286694 0.678374 0.723126
O O7 0.342838 0.612821 0.376502
O O8 0.447541 0.129262 0.675487
O O9 0.500000 0.250418 0.470869
O O10 0.500000 0.242724 0.969336
O O11 0.647675 0.818979 0.702463
O O12 0.622864 0.000000 0.663967
O O13 0.366501 0.324974 0.971628
O O14 0.613217 0.500000 0.095482
O O15 0.553628 0.362399 0.224974
#
# Coordination Sequence:
#
# PCOD9350025 Si02
#       7
#     8   8   4   8   8   8   4
#     4  10  24  45  69 102 143 187 243 304 372 446
#     4  10  24  45  69 102 143 187 243 304 372 446
#     4  12  25  48  75 109 143 195 252 308 375 449
#     4  11  25  44  68 104 145 187 238 303 369 444
#     4  12  22  42  70 100 134 187 242 293 372 438
#     4  11  25  44  68 104 145 187 238 303 369 444
#     4  12  25  48  75 109 143 195 252 308 375 449
#
# _framework density 22.768056000000001
#
# number of rings (size 3 to 8) (size 9 to 14) (size 15 to 20)
#    0.000    1.000    1.667    4.500    0.000    5.333 
#    0.000    6.667    0.000    3.000    0.000    0.000 
#    0.000    0.000    0.000    0.000    0.000    0.000 
#
# Total GULP energy -134103.972056 kJ/mol
# GULP energy per Si atom -5587.665502 kJ/mol
# Density = 2.271623 g / cm^3
# Si number density = 22.768056 Si / 1000 Ang^3
#
#
#
# Elastic Constant Matrix: (Units=GPa)
#
#
# Indices 1 2 3 4 5 6 
#
# 1 69.1109 3.1152 10.4618 0.0000 0.0000 0.0000
# 2 3.1152 192.2322 56.9772 0.0000 0.0000 0.0000
# 3 10.4618 56.9772 62.1551 0.0000 0.0000 0.0000
# 4 0.0000 0.0000 0.0000 65.1662 0.0000 0.0000
# 5 0.0000 0.0000 0.0000 0.0000 28.4881 0.0000
# 6 0.0000 0.0000 0.0000 0.0000 0.0000 34.4330
#
#
#
# Elastic Compliance Matrix: (Units=1/GPa)
#
#
# Indices 1 2 3 4 5 6 
#
# 1 0.014914 0.000690 -0.003143 0.000000 0.000000 0.000000
# 2 0.000690 0.007175 -0.006693 0.000000 0.000000 0.000000
# 3 -0.003143 -0.006693 0.022753 0.000000 0.000000 0.000000
# 4 0.000000 0.000000 0.000000 0.015345 0.000000 0.000000
# 5 0.000000 0.000000 0.000000 0.000000 0.035102 0.000000
# 6 0.000000 0.000000 0.000000 0.000000 0.000000 0.029042
#
#
# Mechanical properties :
#
#
# Convention : Reuss Voigt Hill
#
# Bulk Modulus (GPa) = 37.66449 51.62294 44.64371
# Shear Modulus (GPa) = 33.00904 42.48039 37.74471
#
# Velocity S-wave (km/s) = 3.81175 4.32416 4.07602
# Velocity P-wave (km/s) = 5.99593 6.90317 6.46549
#
# Compressibility (1/GPa) = 0.02655021
#
# Stress axis : x y z
#
# Youngs Moduli (GPa) = 67.05052 139.37900 43.94972
#
# Poissons Ratio (x) = -0.09614 0.13812
# Poissons Ratio (y) = -0.04625 0.29416
# Poissons Ratio (z) = 0.21071 0.93288
#
# Static dielectric constant tensor:
#      x y z
#    x 1.842260 0.000000 0.000000 
#    y 0.000000 1.795440 0.000000 
#    z 0.000000 0.000000 1.926370 
# 
# From -- ./inp_files/3705.got.cif
#   From: 2010.05.17/outbox.cif.g08.bks.cpg/sg35_2_cif.got.tgz:3705.got - 2010.06.03 17:29:28.
