data_PCOD9350247
_publ_section_title
;
Structure prediction by ZEFSAII (Michael W. Deem and Ramdas Pophale) SiO2 
 PCOD9350247
Probable space group: C M M 2
;
_chemical_formula_sum "Si O2"
_cell_formula_units_Z 48
_cell_length_a 32.261258
_cell_length_b 8.760687
_cell_length_c 9.903315
_cell_angle_alpha 90.000000
_cell_angle_beta 90.000000
_cell_angle_gamma 90.000000
_cell_volume 2798.981678
_symmetry_space_group_name_H-M "C M M 2"
_symmetry_group_IT_number 35
_symmetry_cell_setting 'orthorhombic'
loop_
_space_group_symop_operation_xyz
x,y,z
-x,-y,z
-x,y,z
x,-y,z
1/2+x,1/2+y,z
1/2-x,1/2-y,z
1/2-x,1/2+y,z
1/2+x,1/2-y,z
loop_
_atom_site_type_symbol
_atom_site_label
_atom_site_fract_x
_atom_site_fract_y
_atom_site_fract_z
Si Si1 0.621451 0.684319 0.595450
Si Si2 0.952988 0.815904 0.790960
Si Si3 0.452798 0.817661 0.087243
Si Si4 0.116539 0.816951 0.279265
Si Si5 0.208395 0.183089 0.285850
Si Si6 0.207760 0.317855 0.590243
O O1 0.626122 0.500000 0.599940
O O2 0.582013 0.730096 0.684387
O O3 0.614715 0.725956 0.437945
O O4 0.664103 0.758877 0.647522
O O5 0.000000 0.770095 0.752152
O O6 0.952204 0.000000 0.798950
O O7 0.944361 0.749684 0.938881
O O8 0.500000 0.771187 0.124378
O O9 0.419228 0.759058 0.192928
O O10 0.451475 0.000000 0.080374
O O11 0.163100 0.779600 0.227020
O O12 0.111997 0.000000 0.272147
O O13 0.250000 0.250000 0.219508
O O14 0.207180 0.253399 0.436623
O O15 0.211777 0.000000 0.296452
O O16 0.209667 0.500000 0.589006
O O17 0.250000 0.250000 0.652863
#
# Coordination Sequence:
#
# PCOD9350247 Si02
#       6
#     8   8   8   8   8   8
#     4   9  18  32  50  75 102 125 158 204 246 285
#     4   9  18  34  55  74  94 126 164 199 241 293
#     4  10  21  35  50  70  97 129 165 202 240 287
#     4   9  18  31  49  74 101 128 160 199 241 285
#     4   9  16  27  44  68  97 127 160 197 238 284
#     4  10  17  26  43  67  97 131 163 195 236 284
#
# _framework density 17.149094000000002
#
# number of rings (size 3 to 8) (size 9 to 14) (size 15 to 20)
#    0.000    2.667    0.000    4.500    0.000    5.667 
#    0.000    1.667    0.000    3.000    0.000    4.667 
#    0.000    0.000    0.000    0.000    0.000    0.000 
#
# Total GULP energy -133702.024084 kJ/mol
# GULP energy per Si atom -5570.917670 kJ/mol
# Density = 1.711006 g / cm^3
# Si number density = 17.149094 Si / 1000 Ang^3
#
#
#
# Elastic Constant Matrix: (Units=GPa)
#
#
# Indices 1 2 3 4 5 6 
#
# 1 192.8979 57.6054 81.4774 0.0000 0.0000 0.0000
# 2 57.6054 48.4839 25.0305 0.0000 0.0000 0.0000
# 3 81.4774 25.0305 50.3109 0.0000 0.0000 0.0000
# 4 0.0000 0.0000 0.0000 13.1803 0.0000 0.0000
# 5 0.0000 0.0000 0.0000 0.0000 -7.9243 0.0000
# 6 0.0000 0.0000 0.0000 0.0000 0.0000 29.4537
#
#
#
# Elastic Compliance Matrix: (Units=1/GPa)
#
#
# Indices 1 2 3 4 5 6 
#
# 1 0.018918 -0.008962 -0.026178 0.000000 0.000000 0.000000
# 2 -0.008962 0.032000 -0.001407 0.000000 0.000000 0.000000
# 3 -0.026178 -0.001407 0.062971 0.000000 0.000000 0.000000
# 4 0.000000 0.000000 0.000000 0.075871 0.000000 0.000000
# 5 0.000000 0.000000 0.000000 0.000000 -0.126194 0.000000
# 6 0.000000 0.000000 0.000000 0.000000 0.000000 0.033952
#
#
# Mechanical properties :
#
#
# Convention : Reuss Voigt Hill
#
# Bulk Modulus (GPa) = 24.51278 68.87991 46.69634
# Shear Modulus (GPa) = 27.14324 15.44724 21.29524
#
# Velocity S-wave (km/s) = 3.98273 3.00452 3.52770
# Velocity P-wave (km/s) = 5.95605 7.23110 6.62432
#
# Compressibility (1/GPa) = 0.04079505
#
# Stress axis : x y z
#
# Youngs Moduli (GPa) = 52.86073 31.25039 15.88035
#
# Poissons Ratio (x) = 0.28007 0.41572
# Poissons Ratio (y) = 0.47374 0.02234
# Poissons Ratio (z) = 1.38379 0.04396
#
# Static dielectric constant tensor:
#      x y z
#    x 1.635020 0.000000 0.000000 
#    y 0.000000 1.573480 0.000000 
#    z 0.000000 0.000000 1.546470 
# 
# From -- ./inp_files/5339.got.cif
#   From: 2010.05.17/outbox.cif.g08.bks.cpg/sg35_3_cif.got.tgz:5339.got - 2010.06.03 17:29:28.
