data_PCOD9350204
_publ_section_title
;
Structure prediction by ZEFSAII (Michael W. Deem and Ramdas Pophale) SiO2 
 PCOD9350204
Probable space group: C M M 2
;
_chemical_formula_sum "Si O2"
_cell_formula_units_Z 24
_cell_length_a 15.000000
_cell_length_b 18.000000
_cell_length_c 9.000000
_cell_angle_alpha 90.000000
_cell_angle_beta 90.000000
_cell_angle_gamma 90.000000
_cell_volume 2430.000000
_symmetry_space_group_name_H-M "C M M 2"
_symmetry_group_IT_number 35
_symmetry_cell_setting 'orthorhombic'
loop_
_space_group_symop_operation_xyz
x,y,z
-x,-y,z
-x,y,z
x,-y,z
1/2+x,1/2+y,z
1/2-x,1/2-y,z
1/2-x,1/2+y,z
1/2+x,1/2-y,z
loop_
_atom_site_type_symbol
_atom_site_label
_atom_site_fract_x
_atom_site_fract_y
_atom_site_fract_z
Si Si1 0.904311 0.088083 0.873400
Si Si2 0.396685 0.700473 0.128098
Si Si3 0.895240 0.663455 0.909041
Si Si4 0.747408 0.669582 0.384075
Si Si5 0.232604 0.411527 0.682650
Si Si6 0.895100 0.584693 0.207293
O O1 0.821440 0.107484 0.773338
O O2 0.000000 0.112047 0.808358
O O3 0.904375 0.000000 0.888960
O O4 0.896551 0.125809 0.032040
O O5 0.500000 0.718031 0.171006
O O6 0.331947 0.683513 0.265503
O O7 0.367960 0.763901 0.007341
O O8 0.842817 0.638833 0.762142
O O9 0.000000 0.672991 0.875820
O O10 0.884240 0.598031 0.031150
O O11 0.750000 0.750000 0.461383
O O12 0.744966 0.609095 0.513433
O O13 0.834282 0.644482 0.290670
O O14 0.212424 0.500000 0.695486
O O15 0.870186 0.500000 0.245575
O O16 0.000000 0.595039 0.241199
#
# Coordination Sequence:
#
# PCOD9350204 Si02
#       6
#     8   8   8   8   8   8
#     4   9  20  39  62  88 119 160 210 263 319 382
#     4  10  22  41  65  93 124 164 218 273 323 383
#     4  10  21  40  66  94 124 163 218 275 327 382
#     4  12  25  39  60  92 132 173 211 261 322 398
#     4  11  25  40  60  93 131 169 210 258 324 396
#     4  10  21  40  66  93 126 169 218 273 328 387
#
# _framework density 9.8765429999999999
#
# number of rings (size 3 to 8) (size 9 to 14) (size 15 to 20)
#    0.000    1.667    1.667    2.000    2.333    5.000 
#    0.000    0.000    0.000    0.000    0.000    0.000 
#    0.000    0.000    0.000    0.000    0.000    0.000 
#
# Total GULP energy -133802.038370 kJ/mol
# GULP energy per Si atom -5575.084932 kJ/mol
# Density = 0.985406 g / cm^3
# Si number density = 9.876543 Si / 1000 Ang^3
#
#
#
# Elastic Constant Matrix: (Units=GPa)
#
#
# Indices 1 2 3 4 5 6 
#
# 1 85.6694 49.3712 48.8929 0.0000 0.0000 0.0000
# 2 49.3712 -10.7499 26.4358 0.0000 0.0000 0.0000
# 3 48.8929 26.4358 79.7345 0.0000 0.0000 0.0000
# 4 0.0000 0.0000 0.0000 37.0608 0.0000 0.0000
# 5 0.0000 0.0000 0.0000 0.0000 -42.0205 0.0000
# 6 0.0000 0.0000 0.0000 0.0000 0.0000 25.4363
#
#
#
# Elastic Compliance Matrix: (Units=1/GPa)
#
#
# Indices 1 2 3 4 5 6 
#
# 1 0.008926 0.015167 -0.010502 0.000000 0.000000 0.000000
# 2 0.015167 -0.025471 -0.000856 0.000000 0.000000 0.000000
# 3 -0.010502 -0.000856 0.019265 0.000000 0.000000 0.000000
# 4 0.000000 0.000000 0.000000 0.026983 0.000000 0.000000
# 5 0.000000 0.000000 0.000000 0.000000 -0.023798 0.000000
# 6 0.000000 0.000000 0.000000 0.000000 0.000000 0.039314
#
#
# Mechanical properties :
#
#
# Convention : Reuss Voigt Hill
#
# Bulk Modulus (GPa) = 96.71919 44.89488 70.80703
# Shear Modulus (GPa) = 121.81590 6.09226 63.95408
#
# Velocity S-wave (km/s) = 7.86150 1.75810 5.69623
# Velocity P-wave (km/s) = 11.46624 5.18638 8.89869
#
# Compressibility (1/GPa) = 0.01033921
#
# Stress axis : x y z
#
# Youngs Moduli (GPa) = 112.03814 -39.26096 51.90784
#
# Poissons Ratio (x) = 0.59547 0.54512
# Poissons Ratio (y) = -1.69928 0.04441
# Poissons Ratio (z) = 1.17659 -0.03359
#
# Static dielectric constant tensor:
#      x y z
#    x 1.743610 0.000000 0.000000 
#    y 0.000000 1.720180 0.000000 
#    z 0.000000 0.000000 1.687190 
# 
# From -- ./inp_files/7322.got.cif
#   From: 2010.05.17/outbox.ucp.g08.bks.cvg/sg35_4_cif.got.tgz:7322.got - 2010.06.11 10:36:28.
