data_PCOD9350921
_publ_section_title
;
Structure prediction by ZEFSAII (Michael W. Deem and Ramdas Pophale) SiO2 
 PCOD9350921
Probable space group: C M C 21
;
_chemical_formula_sum "Si O2"
_cell_formula_units_Z 64
_cell_length_a 7.544806
_cell_length_b 15.091546
_cell_length_c 23.935851
_cell_angle_alpha 90.000000
_cell_angle_beta 90.000000
_cell_angle_gamma 90.000000
_cell_volume 2725.402700
_symmetry_space_group_name_H-M "C M C 21"
_symmetry_group_IT_number 36
_symmetry_cell_setting 'orthorhombic'
loop_
_space_group_symop_operation_xyz
x,y,z
-x,-y,1/2+z
x,-y,1/2+z
-x,y,z
1/2+x,1/2+y,z
1/2-x,1/2-y,1/2+z
1/2+x,1/2-y,1/2+z
1/2-x,1/2+y,z
loop_
_atom_site_type_symbol
_atom_site_label
_atom_site_fract_x
_atom_site_fract_y
_atom_site_fract_z
Si Si1 0.712354 0.351416 0.924890
Si Si2 0.285854 0.450547 0.397941
Si Si3 0.287321 0.312516 0.489297
Si Si4 0.712419 0.069253 0.660154
Si Si5 0.200725 0.204648 0.309147
Si Si6 0.782449 0.242970 0.190598
Si Si7 0.210565 0.103578 0.103632
Si Si8 0.209122 0.492344 0.778540
O O1 0.500000 0.355570 0.918202
O O2 0.774133 0.453032 0.921708
O O3 0.749562 0.290415 0.977870
O O4 0.785732 0.299060 0.870267
O O5 0.500000 0.449717 0.398967
O O6 0.220163 0.372583 0.437873
O O7 0.232271 0.446303 0.333093
O O8 0.500000 0.321542 0.490121
O O9 0.218493 0.353325 0.547077
O O10 0.500000 0.070800 0.662462
O O11 0.770251 0.170571 0.655893
O O12 0.761821 0.000319 0.612370
O O13 0.774704 0.032969 0.720522
O O14 0.281965 0.249115 0.254390
O O15 0.197013 0.100353 0.292283
O O16 0.000000 0.238972 0.314975
O O17 0.720877 0.155876 0.158080
O O18 0.000000 0.240180 0.194268
O O19 0.000000 0.118267 0.103121
O O20 0.000000 0.473787 0.773006
#
# Coordination Sequence:
#
# PCOD9350921 Si02
#       8
#     8   8   8   8   8   8   8   8
#     4   9  19  34  55  80 106 143 182 216 267 330
#     4   9  20  38  55  76 111 149 179 216 274 333
#     4  10  22  38  57  81 109 144 187 231 268 316
#     4  10  21  35  54  82 112 142 180 229 275 321
#     4   9  17  33  57  79 110 150 182 213 270 339
#     4   9  18  34  56  79 107 145 181 217 271 333
#     4  10  21  39  59  78 107 148 189 224 268 328
#     4  10  19  31  53  83 114 139 176 230 273 314
#
# _framework density 23.482768
#
# number of rings (size 3 to 8) (size 9 to 14) (size 15 to 20)
#    0.000    2.500    1.250    1.125    1.750    4.500 
#    0.000    1.250    0.000    0.000    0.000    0.000 
#    0.000    0.000    0.000    0.000    0.000    0.000 
#
# Total GULP energy -178717.544558 kJ/mol
# GULP energy per Si atom -5584.923267 kJ/mol
# Density = 2.342932 g / cm^3
# Si number density = 23.482768 Si / 1000 Ang^3
#
#
#
# Elastic Constant Matrix: (Units=GPa)
#
#
# Indices 1 2 3 4 5 6 
#
# 1 63.3931 -2.3835 2.8608 0.0000 0.0000 0.0000
# 2 -2.3835 62.3722 -2.3669 0.0000 0.0000 0.0000
# 3 2.8608 -2.3669 17.1841 0.0000 0.0000 0.0000
# 4 0.0000 0.0000 0.0000 26.7867 0.0000 0.0000
# 5 0.0000 0.0000 0.0000 0.0000 12.6063 0.0000
# 6 0.0000 0.0000 0.0000 0.0000 0.0000 7.7194
#
#
#
# Elastic Compliance Matrix: (Units=1/GPa)
#
#
# Indices 1 2 3 4 5 6 
#
# 1 0.015910 0.000510 -0.002578 0.000000 0.000000 0.000000
# 2 0.000510 0.016133 0.002137 0.000000 0.000000 0.000000
# 3 -0.002578 0.002137 0.058917 0.000000 0.000000 0.000000
# 4 0.000000 0.000000 0.000000 0.037332 0.000000 0.000000
# 5 0.000000 0.000000 0.000000 0.000000 0.079326 0.000000
# 6 0.000000 0.000000 0.000000 0.000000 0.000000 0.129543
#
#
# Mechanical properties :
#
#
# Convention : Reuss Voigt Hill
#
# Bulk Modulus (GPa) = 10.97716 15.46336 13.22026
# Shear Modulus (GPa) = 13.60955 19.07842 16.34399
#
# Velocity S-wave (km/s) = 2.41001 2.85343 2.64104
# Velocity P-wave (km/s) = 3.52546 4.17796 3.86550
#
# Compressibility (1/GPa) = 0.09109828
#
# Stress axis : x y z
#
# Youngs Moduli (GPa) = 62.85307 61.98325 16.97309
#
# Poissons Ratio (x) = -0.03162 0.04376
# Poissons Ratio (y) = -0.03206 -0.03628
# Poissons Ratio (z) = 0.16206 -0.13247
#
# Static dielectric constant tensor:
#      x y z
#    x 1.901150 0.000000 0.000000 
#    y 0.000000 1.878040 0.000000 
#    z 0.000000 0.000000 1.901790 
# 
# From -- ./inp_files/16670.got.cif
#   From: 2010.05.17/outbox.cif.g08.bks.cpg/sg36_9_cif.got.tgz:16670.got - 2010.06.03 17:41:39.
