data_PCOD9350706
_publ_section_title
;
Structure prediction by ZEFSAII (Michael W. Deem and Ramdas Pophale) SiO2 
 PCOD9350706
Probable space group: C M C 21
;
_chemical_formula_sum "Si O2"
_cell_formula_units_Z 48
_cell_length_a 18.727497
_cell_length_b 5.492393
_cell_length_c 21.705780
_cell_angle_alpha 90.000000
_cell_angle_beta 90.000000
_cell_angle_gamma 90.000000
_cell_volume 2232.629907
_symmetry_space_group_name_H-M "C M C 21"
_symmetry_group_IT_number 36
_symmetry_cell_setting 'orthorhombic'
loop_
_space_group_symop_operation_xyz
x,y,z
-x,-y,1/2+z
x,-y,1/2+z
-x,y,z
1/2+x,1/2+y,z
1/2-x,1/2-y,1/2+z
1/2+x,1/2-y,1/2+z
1/2-x,1/2+y,z
loop_
_atom_site_type_symbol
_atom_site_label
_atom_site_fract_x
_atom_site_fract_y
_atom_site_fract_z
Si Si1 0.296494 0.484950 0.126500
Si Si2 0.657677 0.895562 0.452900
Si Si3 0.500000 0.862829 0.413820
Si Si4 0.665499 0.444694 0.765184
Si Si5 0.500000 0.364570 0.418463
Si Si6 0.828935 0.554923 0.313339
Si Si7 0.357126 0.395770 0.500372
O O1 0.256247 0.222605 0.123023
O O2 0.333967 0.502124 0.192892
O O3 0.352057 0.515383 0.070412
O O4 0.571502 0.865671 0.453946
O O5 0.676171 0.987750 0.384851
O O6 0.682297 0.618827 0.464680
O O7 0.673967 0.121314 0.497598
O O8 0.500000 0.609306 0.379287
O O9 0.500000 0.118237 0.379837
O O10 0.749123 0.422285 0.785547
O O11 0.634796 0.179823 0.781812
O O12 0.637282 0.680277 0.801799
O O13 0.431667 0.368589 0.463883
#
# Coordination Sequence:
#
# PCOD9350706 Si02
#       7
#     8   8   4   8   4   8   8
#     4  12  21  38  54  74 107 142 179 212 258 315
#     4  10  19  35  52  82 105 135 167 214 267 307
#     4   8  16  30  54  72 104 134 168 202 256 322
#     4  10  19  35  51  70  90 146 178 200 243 302
#     4   8  16  34  54  72 104 136 174 202 256 322
#     4  10  18  33  53  69 100 130 179 201 245 305
#     4  10  21  35  54  82 106 138 168 217 267 309
#
# _framework density 21.499310999999999
#
# number of rings (size 3 to 8) (size 9 to 14) (size 15 to 20)
#    0.000    2.000    3.333    2.000    0.000    0.000 
#   18.000    0.000    0.000    2.000    0.000    0.000 
#    0.000    0.000    0.000    0.000    0.000    0.000 
#
# Total GULP energy -133689.348481 kJ/mol
# GULP energy per Si atom -5570.389520 kJ/mol
# Density = 2.145038 g / cm^3
# Si number density = 21.499311 Si / 1000 Ang^3
#
#
#
# Elastic Constant Matrix: (Units=GPa)
#
#
# Indices 1 2 3 4 5 6 
#
# 1 59.5907 -9.5226 -12.3702 0.0000 0.0000 0.0000
# 2 -9.5226 216.2605 -9.9899 0.0000 0.0000 0.0000
# 3 -12.3702 -9.9899 77.6679 0.0000 0.0000 0.0000
# 4 0.0000 0.0000 0.0000 35.8471 0.0000 0.0000
# 5 0.0000 0.0000 0.0000 0.0000 -2.9851 0.0000
# 6 0.0000 0.0000 0.0000 0.0000 0.0000 -25.5470
#
#
#
# Elastic Compliance Matrix: (Units=1/GPa)
#
#
# Indices 1 2 3 4 5 6 
#
# 1 0.017530 0.000906 0.002909 0.000000 0.000000 0.000000
# 2 0.000906 0.004699 0.000749 0.000000 0.000000 0.000000
# 3 0.002909 0.000749 0.013435 0.000000 0.000000 0.000000
# 4 0.000000 0.000000 0.000000 0.027896 0.000000 0.000000
# 5 0.000000 0.000000 0.000000 0.000000 -0.335002 0.000000
# 6 0.000000 0.000000 0.000000 0.000000 0.000000 -0.039144
#
#
# Mechanical properties :
#
#
# Convention : Reuss Voigt Hill
#
# Bulk Modulus (GPa) = 22.32639 32.19486 27.26063
# Shear Modulus (GPa) = -16.40511 27.15645 5.37567
#
# Velocity S-wave (km/s) = -2.76534 3.55791 1.58298
# Velocity P-wave (km/s) = 0.45948 5.64674 4.00604
#
# Compressibility (1/GPa) = 0.04479004
#
# Stress axis : x y z
#
# Youngs Moduli (GPa) = 57.04595 212.83201 74.43314
#
# Poissons Ratio (x) = -0.19288 -0.21649
# Poissons Ratio (y) = -0.05170 -0.05573
# Poissons Ratio (z) = -0.16592 -0.15934
#
# Static dielectric constant tensor:
#      x y z
#    x 1.838440 0.000000 0.000000 
#    y 0.000000 1.931050 0.000000 
#    z 0.000000 0.000000 1.743060 
# 
# From -- ./inp_files/13076.got.cif
#   From: 2010.05.17/outbox.cif.g08.bks.cpg/sg36_7_cif.got.tgz:13076.got - 2010.06.03 17:41:39.
