data_PCOD9350882
_publ_section_title
;
Structure prediction by ZEFSAII (Michael W. Deem and Ramdas Pophale) SiO2 
 PCOD9350882
Probable space group: C M C 21
;
_chemical_formula_sum "Si O2"
_cell_formula_units_Z 60
_cell_length_a 28.086415
_cell_length_b 25.034129
_cell_length_c 4.993249
_cell_angle_alpha 90.000000
_cell_angle_beta 90.000000
_cell_angle_gamma 90.000000
_cell_volume 3510.847925
_symmetry_space_group_name_H-M "C M C 21"
_symmetry_group_IT_number 36
_symmetry_cell_setting 'orthorhombic'
loop_
_space_group_symop_operation_xyz
x,y,z
-x,-y,1/2+z
x,-y,1/2+z
-x,y,z
1/2+x,1/2+y,z
1/2-x,1/2-y,1/2+z
1/2+x,1/2-y,1/2+z
1/2-x,1/2+y,z
loop_
_atom_site_type_symbol
_atom_site_label
_atom_site_fract_x
_atom_site_fract_y
_atom_site_fract_z
Si Si1 0.500000 0.035950 0.646340
Si Si2 0.945280 0.792874 0.985484
Si Si3 0.082357 0.383786 0.222067
Si Si4 0.555994 0.182619 0.233040
Si Si5 0.055019 0.865280 0.507827
Si Si6 0.376227 0.537300 0.895056
Si Si7 0.667160 0.039325 0.866288
Si Si8 0.729050 0.464729 0.476225
O O1 0.453703 0.071992 0.605858
O O2 0.500000 0.986795 0.444907
O O3 0.925296 0.738092 0.106934
O O4 0.945855 0.834882 0.226226
O O5 0.000000 0.778826 0.908629
O O6 0.925141 0.823687 0.728805
O O7 0.060123 0.359451 0.491805
O O8 0.130588 0.413689 0.303379
O O9 0.083943 0.338591 0.992569
O O10 0.500000 0.189232 0.309862
O O11 0.085974 0.918074 0.473081
O O12 0.000000 0.878242 0.582756
O O13 0.381061 0.512272 0.600769
O O14 0.322380 0.560189 0.921062
O O15 0.721342 0.061451 0.888872
O O16 0.660605 0.994005 0.639140
O O17 0.729666 0.482223 0.786272
#
# Coordination Sequence:
#
# PCOD9350882 Si02
#       8
#     4   8   8   8   8   8   8   8
#     4  12  22  32  42  62  98 130 156 188 242 312
#     4   9  19  33  51  67  93 129 165 208 242 272
#     4  12  21  32  48  69  92 127 166 204 250 297
#     4  11  20  35  49  68  92 123 167 215 249 287
#     4  10  19  32  48  74 102 132 165 191 234 294
#     4  10  19  31  49  75 105 133 159 191 231 285
#     4  10  19  33  48  67  95 126 161 200 242 292
#     4   8  16  30  48  67  92 125 161 197 229 269
#
# _framework density 17.089887999999998
#
# number of rings (size 3 to 8) (size 9 to 14) (size 15 to 20)
#    0.000    1.867    1.333    4.000    0.000    2.667 
#    0.000    0.000    0.000    0.000    0.000    3.733 
#    0.000    0.000    0.000    0.000    0.000    0.000 
#
# Total GULP energy -167215.063312 kJ/mol
# GULP energy per Si atom -5573.835444 kJ/mol
# Density = 1.705099 g / cm^3
# Si number density = 17.089888 Si / 1000 Ang^3
#
#
#
# Elastic Constant Matrix: (Units=GPa)
#
#
# Indices 1 2 3 4 5 6 
#
# 1 82.2717 33.6145 -2.7071 0.0000 0.0000 0.0000
# 2 33.6145 44.3970 -2.2990 0.0000 0.0000 0.0000
# 3 -2.7071 -2.2990 66.3107 0.0000 0.0000 0.0000
# 4 0.0000 0.0000 0.0000 28.2276 0.0000 0.0000
# 5 0.0000 0.0000 0.0000 0.0000 16.7113 0.0000
# 6 0.0000 0.0000 0.0000 0.0000 0.0000 2.8065
#
#
#
# Elastic Compliance Matrix: (Units=1/GPa)
#
#
# Indices 1 2 3 4 5 6 
#
# 1 0.017604 -0.013315 0.000257 0.000000 0.000000 0.000000
# 2 -0.013315 0.032636 0.000588 0.000000 0.000000 0.000000
# 3 0.000257 0.000588 0.015111 0.000000 0.000000 0.000000
# 4 0.000000 0.000000 0.000000 0.035426 0.000000 0.000000
# 5 0.000000 0.000000 0.000000 0.000000 0.059840 0.000000
# 6 0.000000 0.000000 0.000000 0.000000 0.000000 0.356321
#
#
# Mechanical properties :
#
#
# Convention : Reuss Voigt Hill
#
# Bulk Modulus (GPa) = 24.74596 27.79957 26.27276
# Shear Modulus (GPa) = 9.00337 20.50714 14.75525
#
# Velocity S-wave (km/s) = 2.29776 3.46780 2.94154
# Velocity P-wave (km/s) = 4.64229 5.68649 5.19072
#
# Compressibility (1/GPa) = 0.04041064
#
# Stress axis : x y z
#
# Youngs Moduli (GPa) = 56.80685 30.64131 66.17516
#
# Poissons Ratio (x) = 0.40799 -0.01701
# Poissons Ratio (y) = 0.75638 -0.03891
# Poissons Ratio (z) = -0.01460 -0.01801
#
# Static dielectric constant tensor:
#      x y z
#    x 1.606670 0.000000 0.000000 
#    y 0.000000 1.568780 0.000000 
#    z 0.000000 0.000000 1.594550 
# 
# From -- ./inp_files/1627.got.cif
#   From: 2010.05.17/outbox.cif.g08.bks.cpg/sg36_1_cif.got.tgz:1627.got - 2010.06.03 17:41:39.
