data_PCOD9350952
_publ_section_title
;
Structure prediction by ZEFSAII (Michael W. Deem and Ramdas Pophale) SiO2 
 PCOD9350952
Probable space group: C M C 21
;
_chemical_formula_sum "Si O2"
_cell_formula_units_Z 64
_cell_length_a 9.253078
_cell_length_b 14.863390
_cell_length_c 21.650933
_cell_angle_alpha 90.000000
_cell_angle_beta 90.000000
_cell_angle_gamma 90.000000
_cell_volume 2977.698434
_symmetry_space_group_name_H-M "C M C 21"
_symmetry_group_IT_number 36
_symmetry_cell_setting 'orthorhombic'
loop_
_space_group_symop_operation_xyz
x,y,z
-x,-y,1/2+z
x,-y,1/2+z
-x,y,z
1/2+x,1/2+y,z
1/2-x,1/2-y,1/2+z
1/2+x,1/2-y,1/2+z
1/2-x,1/2+y,z
loop_
_atom_site_type_symbol
_atom_site_label
_atom_site_fract_x
_atom_site_fract_y
_atom_site_fract_z
Si Si1 0.666296 0.735219 0.552310
Si Si2 0.838463 0.492794 0.944056
Si Si3 0.827349 0.230261 0.687836
Si Si4 0.833495 0.455412 0.177335
Si Si5 0.334689 0.515106 0.561610
Si Si6 0.667966 0.289199 0.811084
Si Si7 0.835343 0.461879 0.813226
Si Si8 0.665202 0.227279 0.432019
O O1 0.500000 0.760703 0.541344
O O2 0.711861 0.768876 0.620169
O O3 0.669135 0.625198 0.556255
O O4 0.764099 0.761868 0.495019
O O5 0.821076 0.525457 0.873310
O O6 0.832866 0.382837 0.937819
O O7 0.000000 0.516091 0.965328
O O8 0.725263 0.519057 0.996172
O O9 0.773206 0.128221 0.685016
O O10 0.748163 0.268436 0.747263
O O11 0.000000 0.237149 0.694078
O O12 0.769069 0.508756 0.118961
O O13 0.833993 0.500843 0.244299
O O14 0.000000 0.428827 0.163496
O O15 0.500000 0.488769 0.572794
O O16 0.500000 0.266851 0.808099
O O17 0.701544 0.394668 0.818637
O O18 0.743909 0.247742 0.871395
O O19 0.000000 0.421074 0.820159
O O20 0.500000 0.255470 0.425744
#
# Coordination Sequence:
#
# PCOD9350952 Si02
#       8
#     8   8   8   8   8   8   8   8
#     4   8  15  27  44  67  93 122 157 197 239 284
#     4   8  14  26  44  66  91 121 157 196 238 283
#     4  10  20  34  51  72 101 132 162 200 245 290
#     4  10  19  32  51  74  99 128 162 199 241 290
#     4   9  16  26  42  67  96 124 156 196 239 281
#     4  11  21  32  50  74 100 130 165 202 240 289
#     4   9  19  34  51  72  99 129 161 200 245 290
#     4   9  16  27  45  68  95 124 156 198 243 285
#
# _framework density 21.493110999999999
#
# number of rings (size 3 to 8) (size 9 to 14) (size 15 to 20)
#    0.000    2.750    0.000    4.125    0.000    7.500 
#    0.000    0.000    0.000    1.500    0.000    7.000 
#    0.000    0.000    0.000    0.000    0.000    0.000 
#
# Total GULP energy -178417.536674 kJ/mol
# GULP energy per Si atom -5575.548021 kJ/mol
# Density = 2.144419 g / cm^3
# Si number density = 21.493111 Si / 1000 Ang^3
#
#
#
# Elastic Constant Matrix: (Units=GPa)
#
#
# Indices 1 2 3 4 5 6 
#
# 1 134.2932 2.7776 117.5652 0.0000 0.0000 0.0000
# 2 2.7776 25.2303 5.3388 0.0000 0.0000 0.0000
# 3 117.5652 5.3388 210.3320 0.0000 0.0000 0.0000
# 4 0.0000 0.0000 0.0000 14.3627 0.0000 0.0000
# 5 0.0000 0.0000 0.0000 0.0000 42.5920 0.0000
# 6 0.0000 0.0000 0.0000 0.0000 0.0000 8.7472
#
#
#
# Elastic Compliance Matrix: (Units=1/GPa)
#
#
# Indices 1 2 3 4 5 6 
#
# 1 0.014582 0.000120 -0.008154 0.000000 0.000000 0.000000
# 2 0.000120 0.039850 -0.001079 0.000000 0.000000 0.000000
# 3 -0.008154 -0.001079 0.009339 0.000000 0.000000 0.000000
# 4 0.000000 0.000000 0.000000 0.069625 0.000000 0.000000
# 5 0.000000 0.000000 0.000000 0.000000 0.023479 0.000000
# 6 0.000000 0.000000 0.000000 0.000000 0.000000 0.114322
#
#
# Mechanical properties :
#
#
# Convention : Reuss Voigt Hill
#
# Bulk Modulus (GPa) = 21.95546 69.02429 45.48988
# Shear Modulus (GPa) = 16.41483 29.41865 22.91674
#
# Velocity S-wave (km/s) = 2.76656 3.70367 3.26887
# Velocity P-wave (km/s) = 4.52133 7.10450 5.95468
#
# Compressibility (1/GPa) = 0.04554675
#
# Stress axis : x y z
#
# Youngs Moduli (GPa) = 68.57831 25.09412 107.07526
#
# Poissons Ratio (x) = -0.00301 0.87305
# Poissons Ratio (y) = -0.00823 0.11549
# Poissons Ratio (z) = 0.55916 0.02707
#
# Static dielectric constant tensor:
#      x y z
#    x 1.735130 0.000000 0.000000 
#    y 0.000000 1.891360 0.000000 
#    z 0.000000 0.000000 1.827930 
# 
# From -- ./inp_files/13767.got.cif
#   From: 2010.05.17/outbox.cif.g08.bks.cpg/sg36_7_cif.got.tgz:13767.got - 2010.06.03 17:41:39.
