data_PCOD9350197
_publ_section_title
;
Structure prediction by ZEFSAII (Michael W. Deem and Ramdas Pophale) SiO2 
 PCOD9350197
Probable space group: C M M 2
;
_chemical_formula_sum "Si O2"
_cell_formula_units_Z 32
_cell_length_a 24.000000
_cell_length_b 15.000000
_cell_length_c 9.000000
_cell_angle_alpha 90.000000
_cell_angle_beta 90.000000
_cell_angle_gamma 90.000000
_cell_volume 3240.000000
_symmetry_space_group_name_H-M "C M M 2"
_symmetry_group_IT_number 35
_symmetry_cell_setting 'orthorhombic'
loop_
_space_group_symop_operation_xyz
x,y,z
-x,-y,z
-x,y,z
x,-y,z
1/2+x,1/2+y,z
1/2-x,1/2-y,z
1/2-x,1/2+y,z
1/2+x,1/2-y,z
loop_
_atom_site_type_symbol
_atom_site_label
_atom_site_fract_x
_atom_site_fract_y
_atom_site_fract_z
Si Si1 0.564369 0.211168 0.883250
Si Si2 0.139072 0.096880 0.462973
Si Si3 0.759910 0.398082 0.586299
Si Si4 0.848743 0.705716 0.399062
Si Si5 0.936943 0.096219 0.751805
Si Si6 0.565688 0.104498 0.581038
Si Si7 0.171873 0.713279 0.060555
Si Si8 0.271728 0.392781 0.928899
O O1 0.500000 0.188514 0.917475
O O2 0.567935 0.316780 0.850428
O O3 0.580190 0.160484 0.729978
O O4 0.609229 0.192966 0.009080
O O5 0.205601 0.099144 0.482585
O O6 0.126653 0.193949 0.399772
O O7 0.108178 0.097686 0.621931
O O8 0.124389 0.000000 0.393018
O O9 0.784048 0.500000 0.586910
O O10 0.802545 0.324410 0.522664
O O11 0.735286 0.381002 0.750885
O O12 0.898937 0.640358 0.443075
O O13 0.822542 0.700428 0.236496
O O14 0.000000 0.099257 0.687485
O O15 0.931049 0.000000 0.829973
O O16 0.500000 0.118299 0.555833
O O17 0.575426 0.000000 0.606715
O O18 0.212030 0.639258 0.989293
O O19 0.189172 0.813751 0.001035
O O20 0.283715 0.500000 0.956188
#
# Coordination Sequence:
#
# PCOD9350197 Si02
#       8
#     8   8   8   8   8   8   8   8
#     4  10  20  39  64  91 124 161 204 258 308 368
#     4  10  21  34  56  87 117 155 197 247 304 356
#     4  10  22  39  64  88 113 158 211 260 303 353
#     4  12  24  38  59  90 127 161 201 254 309 374
#     4   9  17  32  58  92 121 150 197 251 299 350
#     4  10  22  41  66  92 117 157 212 259 301 355
#     4  11  26  39  59  95 127 166 203 246 318 387
#     4  10  24  44  63  86 122 165 213 263 306 362
#
# _framework density 9.8765429999999999
#
# number of rings (size 3 to 8) (size 9 to 14) (size 15 to 20)
#    0.000    1.750    1.250    2.250    7.000    5.000 
#    0.000    0.000    0.000    1.500    0.000    1.750 
#    0.000    0.000    0.000    0.000    0.000    0.000 
#
# Total GULP energy -178360.145185 kJ/mol
# GULP energy per Si atom -5573.754537 kJ/mol
# Density = 0.985406 g / cm^3
# Si number density = 9.876543 Si / 1000 Ang^3
#
#
#
# Elastic Constant Matrix: (Units=GPa)
#
#
# Indices 1 2 3 4 5 6 
#
# 1 77.4120 11.3792 9.2097 0.0000 0.0000 0.0000
# 2 11.3792 104.7477 24.2771 0.0000 0.0000 0.0000
# 3 9.2097 24.2771 49.9515 0.0000 0.0000 0.0000
# 4 0.0000 0.0000 0.0000 10.6731 0.0000 0.0000
# 5 0.0000 0.0000 0.0000 0.0000 2.0817 0.0000
# 6 0.0000 0.0000 0.0000 0.0000 0.0000 23.9254
#
#
#
# Elastic Compliance Matrix: (Units=1/GPa)
#
#
# Indices 1 2 3 4 5 6 
#
# 1 0.013298 -0.000988 -0.001972 0.000000 0.000000 0.000000
# 2 -0.000988 0.010832 -0.005082 0.000000 0.000000 0.000000
# 3 -0.001972 -0.005082 0.022853 0.000000 0.000000 0.000000
# 4 0.000000 0.000000 0.000000 0.093694 0.000000 0.000000
# 5 0.000000 0.000000 0.000000 0.000000 0.480383 0.000000
# 6 0.000000 0.000000 0.000000 0.000000 0.000000 0.041797
#
#
# Mechanical properties :
#
#
# Convention : Reuss Voigt Hill
#
# Bulk Modulus (GPa) = 32.36329 35.76035 34.06182
# Shear Modulus (GPa) = 7.25437 19.81905 13.53671
#
# Velocity S-wave (km/s) = 1.91846 3.17099 2.62066
# Velocity P-wave (km/s) = 4.61810 5.61693 5.14182
#
# Compressibility (1/GPa) = 0.03089920
#
# Stress axis : x y z
#
# Youngs Moduli (GPa) = 75.20126 92.31929 43.75783
#
# Poissons Ratio (x) = 0.09117 0.08628
# Poissons Ratio (y) = 0.07427 0.22239
# Poissons Ratio (z) = 0.14828 0.46920
#
# Static dielectric constant tensor:
#      x y z
#    x 1.729140 0.000000 0.000000 
#    y 0.000000 1.739530 0.000000 
#    z 0.000000 0.000000 1.705770 
# 
# From -- ./inp_files/9895.got.cif
#   From: 2010.05.17/outbox.ucp.g08.bks.cvg/sg35_5_cif.got.tgz:9895.got - 2010.06.11 10:36:28.
