data_PCOD9350144
_publ_section_title
;
Structure prediction by ZEFSAII (Michael W. Deem and Ramdas Pophale) SiO2 
 PCOD9350144
Probable space group: C M M 2
;
_chemical_formula_sum "Si O2"
_cell_formula_units_Z 32
_cell_length_a 9.000000
_cell_length_b 30.000000
_cell_length_c 12.000000
_cell_angle_alpha 90.000000
_cell_angle_beta 90.000000
_cell_angle_gamma 90.000000
_cell_volume 3240.000000
_symmetry_space_group_name_H-M "C M M 2"
_symmetry_group_IT_number 35
_symmetry_cell_setting 'orthorhombic'
loop_
_space_group_symop_operation_xyz
x,y,z
-x,-y,z
-x,y,z
x,-y,z
1/2+x,1/2+y,z
1/2-x,1/2-y,z
1/2-x,1/2+y,z
1/2+x,1/2-y,z
loop_
_atom_site_type_symbol
_atom_site_label
_atom_site_fract_x
_atom_site_fract_y
_atom_site_fract_z
Si Si1 0.673838 0.568759 0.340240
Si Si2 0.330154 0.205886 0.188648
Si Si3 0.321032 0.450838 0.594010
Si Si4 0.324141 0.049877 0.105759
Si Si5 0.168083 0.655777 0.395446
Si Si6 0.673979 0.297538 0.833068
Si Si7 0.173377 0.863878 0.040805
Si Si8 0.327720 0.858596 0.652739
O O1 0.500000 0.559985 0.322590
O O2 0.717083 0.549708 0.461575
O O3 0.762904 0.552977 0.232408
O O4 0.709212 0.620771 0.356668
O O5 0.500000 0.208092 0.154487
O O6 0.250000 0.250000 0.149846
O O7 0.319899 0.199735 0.321617
O O8 0.257530 0.162278 0.137623
O O9 0.500000 0.445780 0.601232
O O10 0.280828 0.500000 0.638425
O O11 0.244907 0.407939 0.649255
O O12 0.500000 0.057883 0.107427
O O13 0.244463 0.087570 0.033283
O O14 0.295276 0.000000 0.064295
O O15 0.179817 0.660007 0.526858
O O16 0.000000 0.637613 0.371638
O O17 0.500000 0.289806 0.814546
O O18 0.750000 0.250000 0.853566
O O19 0.744936 0.323838 0.730479
O O20 0.690625 0.331880 0.935218
O O21 0.000000 0.868361 0.067045
O O22 0.500000 0.862445 0.685210
#
# Coordination Sequence:
#
# PCOD9350144 Si02
#       8
#     8   8   8   8   8   8   8   8
#     4  10  18  30  53  83 118 161 205 245 287 344
#     4  11  22  36  57  85 121 158 194 238 295 358
#     4   9  18  33  54  84 123 165 206 247 294 348
#     4  11  23  37  56  85 122 162 200 242 296 354
#     4   9  19  35  54  82 121 161 196 239 294 350
#     4  11  25  45  68  92 116 149 197 251 305 359
#     4  11  24  42  64  89 117 151 198 251 302 355
#     4  10  21  38  61  89 121 156 200 249 299 354
#
# _framework density 9.8765429999999999
#
# number of rings (size 3 to 8) (size 9 to 14) (size 15 to 20)
#    0.000    1.750    1.250    3.000    0.000    6.750 
#    0.000    1.875    0.000    0.750    0.000    0.000 
#    0.000    0.000    0.000    0.000    0.000    0.000 
#
# Total GULP energy -178582.654371 kJ/mol
# GULP energy per Si atom -5580.707949 kJ/mol
# Density = 0.985406 g / cm^3
# Si number density = 9.876543 Si / 1000 Ang^3
#
#
#
# Elastic Constant Matrix: (Units=GPa)
#
#
# Indices 1 2 3 4 5 6 
#
# 1 111.2389 95.5831 50.6471 0.0000 0.0000 0.0000
# 2 95.5831 121.9602 29.1281 0.0000 0.0000 0.0000
# 3 50.6471 29.1281 18.5972 0.0000 0.0000 0.0000
# 4 0.0000 0.0000 0.0000 -12.3481 0.0000 0.0000
# 5 0.0000 0.0000 0.0000 0.0000 15.3627 0.0000
# 6 0.0000 0.0000 0.0000 0.0000 0.0000 28.1479
#
#
#
# Elastic Compliance Matrix: (Units=1/GPa)
#
#
# Indices 1 2 3 4 5 6 
#
# 1 -0.033163 0.007062 0.079255 0.000000 0.000000 0.000000
# 2 0.007062 0.011596 -0.037395 0.000000 0.000000 0.000000
# 3 0.079255 -0.037395 -0.103498 0.000000 0.000000 0.000000
# 4 0.000000 0.000000 0.000000 -0.080984 0.000000 0.000000
# 5 0.000000 0.000000 0.000000 0.000000 0.065093 0.000000
# 6 0.000000 0.000000 0.000000 0.000000 0.000000 0.035527
#
#
# Mechanical properties :
#
#
# Convention : Reuss Voigt Hill
#
# Bulk Modulus (GPa) = -36.73514 66.94586 15.10536
# Shear Modulus (GPa) = -23.54617 11.32837 -6.10890
#
# Velocity S-wave (km/s) = -3.45632 2.39738 -1.76050
# Velocity P-wave (km/s) = 5.87926 6.45199 1.87916
#
# Compressibility (1/GPa) = -0.02722190
#
# Stress axis : x y z
#
# Youngs Moduli (GPa) = -30.15368 86.23913 -9.66201
#
# Poissons Ratio (x) = -0.60905 0.76576
# Poissons Ratio (y) = 0.21296 -0.36131
# Poissons Ratio (z) = 2.38983 3.22492
#
# Static dielectric constant tensor:
#      x y z
#    x 1.677890 0.000000 0.000000 
#    y 0.000000 1.738100 0.000000 
#    z 0.000000 0.000000 1.723600 
# 
# From -- ./inp_files/12001.got.cif
#   From: 2010.05.17/outbox.ucp.g08.bks.cvg/sg35_7_cif.got.tgz:12001.got - 2010.06.11 10:36:28.
