data_PCOD9350876
_publ_section_title
;
Structure prediction by ZEFSAII (Michael W. Deem and Ramdas Pophale) SiO2 
 PCOD9350876
Probable space group: C M C 21
;
_chemical_formula_sum "Si O2"
_cell_formula_units_Z 64
_cell_length_a 7.584518
_cell_length_b 20.530888
_cell_length_c 20.898915
_cell_angle_alpha 90.000000
_cell_angle_beta 90.000000
_cell_angle_gamma 90.000000
_cell_volume 3254.314040
_symmetry_space_group_name_H-M "C M C 21"
_symmetry_group_IT_number 36
_symmetry_cell_setting 'orthorhombic'
loop_
_space_group_symop_operation_xyz
x,y,z
-x,-y,1/2+z
x,-y,1/2+z
-x,y,z
1/2+x,1/2+y,z
1/2-x,1/2-y,1/2+z
1/2+x,1/2-y,1/2+z
1/2-x,1/2+y,z
loop_
_atom_site_type_symbol
_atom_site_label
_atom_site_fract_x
_atom_site_fract_y
_atom_site_fract_z
Si Si1 0.703448 0.179287 0.109160
Si Si2 0.216100 0.678176 0.760397
Si Si3 0.212515 0.426972 0.862146
Si Si4 0.205046 0.671821 0.617180
Si Si5 0.215113 0.428510 0.511079
Si Si6 0.284222 0.077618 0.506873
Si Si7 0.215112 0.424833 0.365381
Si Si8 0.207103 0.825079 0.751990
O O1 0.500000 0.188633 0.091382
O O2 0.786165 0.250932 0.104259
O O3 0.778045 0.123904 0.062649
O O4 0.711626 0.157845 0.183271
O O5 0.278198 0.661039 0.688589
O O6 0.276173 0.627914 0.814131
O O7 0.270031 0.752987 0.772389
O O8 0.000000 0.676666 0.760489
O O9 0.272327 0.408235 0.933878
O O10 0.270803 0.501302 0.849659
O O11 0.265889 0.377316 0.807229
O O12 0.000000 0.427892 0.863294
O O13 0.279954 0.628777 0.559612
O O14 0.000000 0.653355 0.621368
O O15 0.268330 0.503363 0.522998
O O16 0.267523 0.410824 0.438572
O O17 0.000000 0.428850 0.513008
O O18 0.500000 0.079152 0.505874
O O19 0.000000 0.424361 0.364566
O O20 0.000000 0.819073 0.739020
#
# Coordination Sequence:
#
# PCOD9350876 Si02
#       8
#     8   8   8   8   8   8   8   8
#     4  10  19  31  49  71  94 121 158 202 238 271
#     4   8  15  27  44  65  88 121 160 191 222 267
#     4   9  17  30  50  73  94 119 154 197 237 273
#     4   9  17  30  47  67  95 128 157 186 228 284
#     4   8  15  27  45  70  95 119 152 195 234 268
#     4   8  15  29  48  70  96 124 155 191 231 277
#     4   8  14  27  47  71  95 117 152 199 234 263
#     4  10  20  33  48  67  95 127 156 191 238 291
#
# _framework density 19.666202999999999
#
# number of rings (size 3 to 8) (size 9 to 14) (size 15 to 20)
#    0.000    3.250    0.000    3.000    0.000    2.000 
#    0.000    5.625    0.000   14.250    0.000    0.000 
#    0.000    0.000    0.000    0.000    0.000    0.000 
#
# Total GULP energy -178389.336669 kJ/mol
# GULP energy per Si atom -5574.666771 kJ/mol
# Density = 1.962144 g / cm^3
# Si number density = 19.666203 Si / 1000 Ang^3
#
#
#
# Elastic Constant Matrix: (Units=GPa)
#
#
# Indices 1 2 3 4 5 6 
#
# 1 39.7300 -3.5921 -3.5376 0.0000 0.0000 0.0000
# 2 -3.5921 132.8300 135.7052 0.0000 0.0000 0.0000
# 3 -3.5376 135.7052 168.3069 0.0000 0.0000 0.0000
# 4 0.0000 0.0000 0.0000 48.6991 0.0000 0.0000
# 5 0.0000 0.0000 0.0000 0.0000 7.6985 0.0000
# 6 0.0000 0.0000 0.0000 0.0000 0.0000 12.1803
#
#
#
# Elastic Compliance Matrix: (Units=1/GPa)
#
#
# Indices 1 2 3 4 5 6 
#
# 1 0.025232 0.000797 -0.000113 0.000000 0.000000 0.000000
# 2 0.000797 0.042739 -0.034444 0.000000 0.000000 0.000000
# 3 -0.000113 -0.034444 0.033711 0.000000 0.000000 0.000000
# 4 0.000000 0.000000 0.000000 0.020534 0.000000 0.000000
# 5 0.000000 0.000000 0.000000 0.000000 0.129895 0.000000
# 6 0.000000 0.000000 0.000000 0.000000 0.000000 0.082100
#
#
# Mechanical properties :
#
#
# Convention : Reuss Voigt Hill
#
# Bulk Modulus (GPa) = 29.27027 66.44643 47.85835
# Shear Modulus (GPa) = 12.10309 27.86835 19.98572
#
# Velocity S-wave (km/s) = 2.48347 3.76848 3.19132
# Velocity P-wave (km/s) = 4.81034 7.26607 6.16178
#
# Compressibility (1/GPa) = 0.03416435
#
# Stress axis : x y z
#
# Youngs Moduli (GPa) = 39.63224 23.39762 29.66381
#
# Poissons Ratio (x) = -0.01866 0.00334
# Poissons Ratio (y) = -0.03160 1.02174
# Poissons Ratio (z) = 0.00446 0.80590
#
# Static dielectric constant tensor:
#      x y z
#    x 1.762850 0.000000 0.000000 
#    y 0.000000 1.664640 0.000000 
#    z 0.000000 0.000000 1.675960 
# 
# From -- ./inp_files/14085.got.cif
#   From: 2010.05.17/outbox.cif.g08.bks.cpg/sg36_8_cif.got.tgz:14085.got - 2010.06.03 17:41:39.
