data_PCOD9350001
_publ_section_title
;
Structure prediction by ZEFSAII (Michael W. Deem and Ramdas Pophale) SiO2 
 PCOD9350001
Probable space group: C M M 2
;
_chemical_formula_sum "Si O2"
_cell_formula_units_Z 64
_cell_length_a 15.166847
_cell_length_b 23.366970
_cell_length_c 9.135710
_cell_angle_alpha 90.000000
_cell_angle_beta 90.000000
_cell_angle_gamma 90.000000
_cell_volume 3237.725396
_symmetry_space_group_name_H-M "C M M 2"
_symmetry_group_IT_number 35
_symmetry_cell_setting 'orthorhombic'
loop_
_space_group_symop_operation_xyz
x,y,z
-x,-y,z
-x,y,z
x,-y,z
1/2+x,1/2+y,z
1/2-x,1/2-y,z
1/2-x,1/2+y,z
1/2+x,1/2-y,z
loop_
_atom_site_type_symbol
_atom_site_label
_atom_site_fract_x
_atom_site_fract_y
_atom_site_fract_z
Si Si1 0.100068 0.139924 0.081070
Si Si2 0.756362 0.932841 0.253362
Si Si3 0.897892 0.563922 0.792877
Si Si4 0.897075 0.623866 0.087428
Si Si5 0.397482 0.661213 0.738622
Si Si6 0.232990 0.385323 0.577064
Si Si7 0.355221 0.756221 0.241876
Si Si8 0.599954 0.780052 0.574138
O O1 0.169354 0.096993 0.153573
O O2 0.107990 0.200098 0.164515
O O3 0.000000 0.118142 0.093466
O O4 0.118373 0.153214 0.910964
O O5 0.663719 0.919446 0.176185
O O6 0.750514 0.902530 0.410719
O O7 0.772001 0.000000 0.269015
O O8 0.889420 0.500000 0.858324
O O9 0.829149 0.570262 0.662132
O O10 0.000000 0.569705 0.745298
O O11 0.879572 0.611745 0.916131
O O12 0.875953 0.687333 0.146318
O O13 0.000000 0.612803 0.111494
O O14 0.500000 0.646407 0.708330
O O15 0.326478 0.623416 0.654177
O O16 0.385661 0.726225 0.681004
O O17 0.175479 0.327280 0.589143
O O18 0.250000 0.750000 0.254278
O O19 0.393925 0.760943 0.404772
O O20 0.500000 0.801923 0.600902
#
# Coordination Sequence:
#
# PCOD9350001 Si02
#       8
#     8   8   8   8   8   8   8   8
#     4  11  24  44  68  96 130 170 221 282 340 396
#     4  12  26  44  67  96 130 174 228 278 332 397
#     4  10  23  42  63  90 128 175 223 272 330 398
#     4  11  23  41  65  95 131 172 216 269 331 395
#     4  10  24  41  63  94 129 170 213 269 338 403
#     4  12  23  40  64  93 129 176 218 275 328 399
#     4  12  22  38  65  98 133 172 210 266 335 399
#     4  11  22  38  60  95 137 175 213 261 329 406
#
# _framework density 19.766963000000001
#
# number of rings (size 3 to 8) (size 9 to 14) (size 15 to 20)
#    0.000    0.875    2.500    4.875    1.750    3.000 
#    0.000    0.625    0.000    2.625    0.000    0.000 
#    0.000    0.000    0.000    0.000    0.000    0.000 
#
# Total GULP energy -178941.443117 kJ/mol
# GULP energy per Si atom -5591.920097 kJ/mol
# Density = 1.972197 g / cm^3
# Si number density = 19.766963 Si / 1000 Ang^3
#
#
#
# Elastic Constant Matrix: (Units=GPa)
#
#
# Indices 1 2 3 4 5 6 
#
# 1 113.3561 46.5960 67.0777 0.0000 0.0000 0.0000
# 2 46.5960 62.2663 35.3081 0.0000 0.0000 0.0000
# 3 67.0777 35.3081 99.2307 0.0000 0.0000 0.0000
# 4 0.0000 0.0000 0.0000 26.6798 0.0000 0.0000
# 5 0.0000 0.0000 0.0000 0.0000 33.2230 0.0000
# 6 0.0000 0.0000 0.0000 0.0000 0.0000 16.3304
#
#
#
# Elastic Compliance Matrix: (Units=1/GPa)
#
#
# Indices 1 2 3 4 5 6 
#
# 1 0.017355 -0.007936 -0.008908 0.000000 0.000000 0.000000
# 2 -0.007936 0.023749 -0.003085 0.000000 0.000000 0.000000
# 3 -0.008908 -0.003085 0.017197 0.000000 0.000000 0.000000
# 4 0.000000 0.000000 0.000000 0.037482 0.000000 0.000000
# 5 0.000000 0.000000 0.000000 0.000000 0.030100 0.000000
# 6 0.000000 0.000000 0.000000 0.000000 0.000000 0.061235
#
#
# Mechanical properties :
#
#
# Convention : Reuss Voigt Hill
#
# Bulk Modulus (GPa) = 54.22532 63.64628 58.93580
# Shear Modulus (GPa) = 21.44784 23.63807 22.54295
#
# Velocity S-wave (km/s) = 3.29756 3.46184 3.38070
# Velocity P-wave (km/s) = 6.48000 6.94603 6.71706
#
# Compressibility (1/GPa) = 0.01844157
#
# Stress axis : x y z
#
# Youngs Moduli (GPa) = 57.61964 42.10764 58.15009
#
# Poissons Ratio (x) = 0.33418 0.51799
# Poissons Ratio (y) = 0.45729 0.17942
# Poissons Ratio (z) = 0.51327 0.12992
#
# Static dielectric constant tensor:
#      x y z
#    x 1.694930 0.000000 0.000000 
#    y 0.000000 1.688020 0.000000 
#    z 0.000000 0.000000 1.694350 
# 
# From -- ./inp_files/7879.got.cif
#   From: 2010.05.17/outbox.cif.g08.bks.cpg/sg35_4_cif.got.tgz:7879.got - 2010.06.03 17:29:28.
