data_PCOD9350219
_publ_section_title
;
Structure prediction by ZEFSAII (Michael W. Deem and Ramdas Pophale) SiO2 
 PCOD9350219
Probable space group: C M M 2
;
_chemical_formula_sum "Si O2"
_cell_formula_units_Z 64
_cell_length_a 17.248395
_cell_length_b 14.969074
_cell_length_c 12.613924
_cell_angle_alpha 90.000000
_cell_angle_beta 90.000000
_cell_angle_gamma 90.000000
_cell_volume 3256.820587
_symmetry_space_group_name_H-M "C M M 2"
_symmetry_group_IT_number 35
_symmetry_cell_setting 'orthorhombic'
loop_
_space_group_symop_operation_xyz
x,y,z
-x,-y,z
-x,y,z
x,-y,z
1/2+x,1/2+y,z
1/2-x,1/2-y,z
1/2-x,1/2+y,z
1/2+x,1/2-y,z
loop_
_atom_site_type_symbol
_atom_site_label
_atom_site_fract_x
_atom_site_fract_y
_atom_site_fract_z
Si Si1 0.712244 0.152022 0.402380
Si Si2 0.625935 0.605870 0.169686
Si Si3 0.125935 0.894130 0.635073
Si Si4 0.411034 0.766774 0.779090
Si Si5 0.187160 0.395712 0.630986
Si Si6 0.911034 0.266774 0.025670
Si Si7 0.312840 0.104288 0.173774
Si Si8 0.883847 0.100060 0.402380
O O1 0.750000 0.250000 0.402380
O O2 0.667571 0.133158 0.510499
O O3 0.667571 0.133159 0.294260
O O4 0.790146 0.092866 0.402380
O O5 0.607931 0.500000 0.159938
O O6 0.593576 0.669216 0.079248
O O7 0.719531 0.614886 0.165743
O O8 0.598019 0.638927 0.286718
O O9 0.093576 0.830783 0.725511
O O10 0.219530 0.885114 0.639016
O O11 0.098019 0.861073 0.518042
O O12 0.107931 0.000000 0.644821
O O13 0.500000 0.798168 0.772120
O O14 0.355708 0.832383 0.713440
O O15 0.388700 0.762776 0.902380
O O16 0.169018 0.500000 0.646986
O O17 0.855708 0.332383 0.091320
O O18 0.000000 0.298168 0.032640
O O19 0.330982 0.000000 0.157775
O O20 0.915061 0.000000 0.402380
#
# Coordination Sequence:
#
# PCOD9350219 Si02
#       8
#     8   8   8   8   8   8   8   8
#     4  10  16  28  56  89 118 142 167 214 280 339
#     4   9  18  35  61  89 113 139 177 230 288 344
#     4   9  18  35  61  89 113 139 177 230 288 344
#     4  11  25  41  54  73 108 154 197 235 281 337
#     4  10  20  36  60  87 113 143 183 230 275 326
#     4  11  25  41  54  73 108 154 197 235 281 337
#     4  10  20  36  60  87 113 143 183 230 275 326
#     4   8  14  28  52  83 114 137 162 205 270 342
#
# _framework density 19.651067999999999
#
# number of rings (size 3 to 8) (size 9 to 14) (size 15 to 20)
#    0.000    2.250    0.000    6.375    0.000    4.000 
#    0.000    7.500    0.000    3.750    0.000    0.000 
#    0.000    0.000    0.000    0.000    0.000    0.000 
#
# Total GULP energy -178548.681121 kJ/mol
# GULP energy per Si atom -5579.646285 kJ/mol
# Density = 1.960634 g / cm^3
# Si number density = 19.651068 Si / 1000 Ang^3
#
#
#
# Elastic Constant Matrix: (Units=GPa)
#
#
# Indices 1 2 3 4 5 6 
#
# 1 49.7624 35.0529 48.8498 0.0000 0.0000 0.0000
# 2 35.0529 108.8527 61.5484 0.0000 0.0000 0.0000
# 3 48.8498 61.5484 184.2465 0.0000 0.0000 0.0000
# 4 0.0000 0.0000 0.0000 8.1487 0.0000 0.0000
# 5 0.0000 0.0000 0.0000 0.0000 50.0812 0.0000
# 6 0.0000 0.0000 0.0000 0.0000 0.0000 -0.6048
#
#
#
# Elastic Compliance Matrix: (Units=1/GPa)
#
#
# Indices 1 2 3 4 5 6 
#
# 1 0.030455 -0.006462 -0.005916 0.000000 0.000000 0.000000
# 2 -0.006462 0.012697 -0.002528 0.000000 0.000000 0.000000
# 3 -0.005916 -0.002528 0.007841 0.000000 0.000000 0.000000
# 4 0.000000 0.000000 0.000000 0.122719 0.000000 0.000000
# 5 0.000000 0.000000 0.000000 0.000000 0.019968 0.000000
# 6 0.000000 0.000000 0.000000 0.000000 0.000000 -1.653364
#
#
# Mechanical properties :
#
#
# Convention : Reuss Voigt Hill
#
# Bulk Modulus (GPa) = 47.21405 70.41822 58.81613
# Shear Modulus (GPa) = -3.51417 24.68571 10.58577
#
# Velocity S-wave (km/s) = -1.33872 3.54814 2.32348
# Velocity P-wave (km/s) = 4.65712 7.25933 6.09863
#
# Compressibility (1/GPa) = 0.02118014
#
# Stress axis : x y z
#
# Youngs Moduli (GPa) = 32.83556 78.75750 127.54170
#
# Poissons Ratio (x) = 0.50894 0.75452
# Poissons Ratio (y) = 0.21219 0.32246
# Poissons Ratio (z) = 0.19425 0.19912
#
# Static dielectric constant tensor:
#      x y z
#    x 1.699690 0.000000 0.000000 
#    y 0.000000 1.715150 0.000000 
#    z 0.000000 0.000000 1.705870 
# 
# From -- ./inp_files/13602.got.cif
#   From: 2010.05.17/outbox.cif.g08.bks.cpg/sg35_7_cif.got.tgz:13602.got - 2010.06.03 17:29:28.
