data_PCOD9350607
_publ_section_title
;
Structure prediction by ZEFSAII (Michael W. Deem and Ramdas Pophale) SiO2 
 PCOD9350607
Probable space group: C M C 21
;
_chemical_formula_sum "Si O2"
_cell_formula_units_Z 64
_cell_length_a 8.121269
_cell_length_b 14.585973
_cell_length_c 25.368318
_cell_angle_alpha 90.000000
_cell_angle_beta 90.000000
_cell_angle_gamma 90.000000
_cell_volume 3005.044961
_symmetry_space_group_name_H-M "C M C 21"
_symmetry_group_IT_number 36
_symmetry_cell_setting 'orthorhombic'
loop_
_space_group_symop_operation_xyz
x,y,z
-x,-y,1/2+z
x,-y,1/2+z
-x,y,z
1/2+x,1/2+y,z
1/2-x,1/2-y,1/2+z
1/2+x,1/2-y,1/2+z
1/2-x,1/2+y,z
loop_
_atom_site_type_symbol
_atom_site_label
_atom_site_fract_x
_atom_site_fract_y
_atom_site_fract_z
Si Si1 0.301078 0.393803 0.716370
Si Si2 0.699028 0.183734 0.695215
Si Si3 0.798234 0.387036 0.419489
Si Si4 0.191241 0.637103 0.806093
Si Si5 0.809610 0.659780 0.323598
Si Si6 0.695497 0.529215 0.625235
Si Si7 0.804239 0.528670 0.507437
Si Si8 0.305329 0.676929 0.433699
O O1 0.500000 0.397872 0.718633
O O2 0.252528 0.289884 0.700081
O O3 0.235195 0.407460 0.775746
O O4 0.239646 0.462296 0.671371
O O5 0.500000 0.181243 0.696750
O O6 0.764503 0.130468 0.747572
O O7 0.758524 0.131255 0.643886
O O8 0.737850 0.405401 0.359668
O O9 0.740375 0.454865 0.464896
O O10 0.751192 0.282727 0.433535
O O11 0.000000 0.389874 0.417826
O O12 0.201491 0.747714 0.816395
O O13 0.000000 0.609516 0.803085
O O14 0.779093 0.628310 0.383285
O O15 0.000000 0.685609 0.318125
O O16 0.500000 0.519780 0.624156
O O17 0.759673 0.507835 0.567310
O O18 0.736522 0.625541 0.487286
O O19 0.000000 0.530815 0.503062
O O20 0.500000 0.674411 0.425043
#
# Coordination Sequence:
#
# PCOD9350607 Si02
#       8
#     8   8   8   8   8   8   8   8
#     4   9  20  39  59  80 111 149 184 224 279 334
#     4   9  18  35  59  84 111 145 181 223 276 330
#     4   8  17  35  59  83 110 144 178 218 271 330
#     4   8  15  32  56  81 112 146 177 216 275 336
#     4  10  18  30  54  88 117 142 179 224 271 327
#     4  11  24  40  56  78 109 146 190 234 277 328
#     4  11  23  39  57  81 110 143 190 237 275 323
#     4  10  20  38  60  83 114 149 181 220 276 332
#
# _framework density 21.297516999999999
#
# number of rings (size 3 to 8) (size 9 to 14) (size 15 to 20)
#    0.000    2.500    0.000    3.750    0.000    5.000 
#    0.000   10.000    0.000    0.000    0.000    0.000 
#    0.000    0.000    0.000    0.000    0.000    0.000 
#
# Total GULP energy -178634.225724 kJ/mol
# GULP energy per Si atom -5582.319554 kJ/mol
# Density = 2.124904 g / cm^3
# Si number density = 21.297517 Si / 1000 Ang^3
#
#
#
# Elastic Constant Matrix: (Units=GPa)
#
#
# Indices 1 2 3 4 5 6 
#
# 1 35.0567 4.5302 6.7464 0.0000 0.0000 0.0000
# 2 4.5302 51.0944 26.0978 0.0000 0.0000 0.0000
# 3 6.7464 26.0978 114.8538 0.0000 0.0000 0.0000
# 4 0.0000 0.0000 0.0000 33.6259 0.0000 0.0000
# 5 0.0000 0.0000 0.0000 0.0000 18.3180 0.0000
# 6 0.0000 0.0000 0.0000 0.0000 0.0000 11.8196
#
#
#
# Elastic Compliance Matrix: (Units=1/GPa)
#
#
# Indices 1 2 3 4 5 6 
#
# 1 0.029018 -0.001926 -0.001267 0.000000 0.000000 0.000000
# 2 -0.001926 0.022269 -0.004947 0.000000 0.000000 0.000000
# 3 -0.001267 -0.004947 0.009905 0.000000 0.000000 0.000000
# 4 0.000000 0.000000 0.000000 0.029739 0.000000 0.000000
# 5 0.000000 0.000000 0.000000 0.000000 0.054591 0.000000
# 6 0.000000 0.000000 0.000000 0.000000 0.000000 0.084605
#
#
# Mechanical properties :
#
#
# Convention : Reuss Voigt Hill
#
# Bulk Modulus (GPa) = 22.26526 30.63927 26.45226
# Shear Modulus (GPa) = 19.12939 23.66140 21.39539
#
# Velocity S-wave (km/s) = 3.00025 3.33677 3.17297
# Velocity P-wave (km/s) = 4.74121 5.40952 5.08635
#
# Compressibility (1/GPa) = 0.04491303
#
# Stress axis : x y z
#
# Youngs Moduli (GPa) = 34.46155 44.90511 100.95675
#
# Poissons Ratio (x) = 0.08647 0.12790
# Poissons Ratio (y) = 0.06636 0.49944
# Poissons Ratio (z) = 0.04366 0.22215
#
# Static dielectric constant tensor:
#      x y z
#    x 1.741300 0.000000 0.000000 
#    y 0.000000 1.797330 0.000000 
#    z 0.000000 0.000000 1.786970 
# 
# From -- ./inp_files/16657.got.cif
#   From: 2010.05.17/outbox.cif.g08.bks.cpg/sg36_9_cif.got.tgz:16657.got - 2010.06.03 17:41:39.
