data_PCOD9350493
_publ_section_title
;
Structure prediction by ZEFSAII (Michael W. Deem and Ramdas Pophale) SiO2 
 PCOD9350493
Probable space group: C M C 21
;
_chemical_formula_sum "Si O2"
_cell_formula_units_Z 64
_cell_length_a 7.551927
_cell_length_b 24.101314
_cell_length_c 16.380432
_cell_angle_alpha 90.000000
_cell_angle_beta 90.000000
_cell_angle_gamma 90.000000
_cell_volume 2981.424770
_symmetry_space_group_name_H-M "C M C 21"
_symmetry_group_IT_number 36
_symmetry_cell_setting 'orthorhombic'
loop_
_space_group_symop_operation_xyz
x,y,z
-x,-y,1/2+z
x,-y,1/2+z
-x,y,z
1/2+x,1/2+y,z
1/2-x,1/2-y,1/2+z
1/2+x,1/2-y,1/2+z
1/2-x,1/2+y,z
loop_
_atom_site_type_symbol
_atom_site_label
_atom_site_fract_x
_atom_site_fract_y
_atom_site_fract_z
Si Si1 0.797034 0.798443 0.946760
Si Si2 0.211718 0.616331 0.318570
Si Si3 0.208365 0.590052 0.974974
Si Si4 0.217675 0.723721 0.694478
Si Si5 0.803827 0.375106 0.084737
Si Si6 0.291331 0.653702 0.141232
Si Si7 0.783420 0.310078 0.374552
Si Si8 0.217461 0.464710 0.964761
O O1 0.790894 0.828011 0.858832
O O2 0.731550 0.736200 0.940422
O O3 0.000000 0.799166 0.975234
O O4 0.683691 0.836190 0.005092
O O5 0.260272 0.617567 0.223497
O O6 0.268457 0.566540 0.380123
O O7 0.000000 0.619281 0.323188
O O8 0.222854 0.621647 0.061540
O O9 0.000000 0.583997 0.958075
O O10 0.280500 0.630678 0.904867
O O11 0.279815 0.527758 0.971814
O O12 0.279173 0.668259 0.647333
O O13 0.277754 0.783279 0.658641
O O14 0.272705 0.712443 0.787177
O O15 0.000000 0.724152 0.690672
O O16 0.000000 0.390009 0.116261
O O17 0.720426 0.429554 0.044046
O O18 0.500000 0.659236 0.129454
O O19 0.000000 0.310150 0.373531
O O20 0.000000 0.462944 0.967605
#
# Coordination Sequence:
#
# PCOD9350493 Si02
#       8
#     8   8   8   8   8   8   8   8
#     4  10  17  29  50  76 105 133 165 208 262 316
#     4  10  19  34  56  81 105 135 177 220 264 311
#     4  10  20  36  55  78 108 141 181 222 262 312
#     4   9  17  31  51  77 105 135 174 217 266 322
#     4   9  17  31  52  75 101 135 174 216 260 310
#     4  11  21  35  55  80 110 139 174 219 272 324
#     4   9  17  30  50  75 105 138 170 211 264 316
#     4   8  17  34  53  78 105 132 175 223 260 303
#
# _framework density 21.466246000000002
#
# number of rings (size 3 to 8) (size 9 to 14) (size 15 to 20)
#    0.000    2.500    1.250    2.625    0.000    0.000 
#    2.250    4.375    0.000    0.000    0.000    0.000 
#    0.000    0.000    0.000    0.000    0.000    0.000 
#
# Total GULP energy -178393.196408 kJ/mol
# GULP energy per Si atom -5574.787388 kJ/mol
# Density = 2.141739 g / cm^3
# Si number density = 21.466246 Si / 1000 Ang^3
#
#
#
# Elastic Constant Matrix: (Units=GPa)
#
#
# Indices 1 2 3 4 5 6 
#
# 1 57.4521 3.8859 -13.2565 0.0000 0.0000 0.0000
# 2 3.8859 192.1774 49.5128 0.0000 0.0000 0.0000
# 3 -13.2565 49.5128 67.4041 0.0000 0.0000 0.0000
# 4 0.0000 0.0000 0.0000 28.4114 0.0000 0.0000
# 5 0.0000 0.0000 0.0000 0.0000 14.8980 0.0000
# 6 0.0000 0.0000 0.0000 0.0000 0.0000 -69.8520
#
#
#
# Elastic Compliance Matrix: (Units=1/GPa)
#
#
# Indices 1 2 3 4 5 6 
#
# 1 0.018638 -0.001630 0.004863 0.000000 0.000000 0.000000
# 2 -0.001630 0.006561 -0.005140 0.000000 0.000000 0.000000
# 3 0.004863 -0.005140 0.019568 0.000000 0.000000 0.000000
# 4 0.000000 0.000000 0.000000 0.035197 0.000000 0.000000
# 5 0.000000 0.000000 0.000000 0.000000 0.067123 0.000000
# 6 0.000000 0.000000 0.000000 0.000000 0.000000 -0.014316
#
#
# Mechanical properties :
#
#
# Convention : Reuss Voigt Hill
#
# Bulk Modulus (GPa) = 24.41825 44.14643 34.28234
# Shear Modulus (GPa) = 33.28110 13.15090 23.21600
#
# Velocity S-wave (km/s) = 3.94177 2.47782 3.29220
# Velocity P-wave (km/s) = 5.66716 5.36622 5.51874
#
# Compressibility (1/GPa) = 0.04095298
#
# Stress axis : x y z
#
# Youngs Moduli (GPa) = 53.65363 152.42275 51.10446
#
# Poissons Ratio (x) = 0.24840 -0.24851
# Poissons Ratio (y) = 0.08744 0.26267
# Poissons Ratio (z) = -0.26090 0.78342
#
# Static dielectric constant tensor:
#      x y z
#    x 1.843670 0.000000 0.000000 
#    y 0.000000 1.800930 0.000000 
#    z 0.000000 0.000000 1.842860 
# 
# From -- ./inp_files/13940.got.cif
#   From: 2010.05.17/outbox.cif.g08.bks.cpg/sg36_7_cif.got.tgz:13940.got - 2010.06.03 17:41:39.
