data_PCOD9350608
_publ_section_title
;
Structure prediction by ZEFSAII (Michael W. Deem and Ramdas Pophale) SiO2 
 PCOD9350608
Probable space group: C M C 21
;
_chemical_formula_sum "Si O2"
_cell_formula_units_Z 48
_cell_length_a 27.691092
_cell_length_b 8.844830
_cell_length_c 7.640465
_cell_angle_alpha 90.000000
_cell_angle_beta 90.000000
_cell_angle_gamma 90.000000
_cell_volume 1871.325619
_symmetry_space_group_name_H-M "C M C 21"
_symmetry_group_IT_number 36
_symmetry_cell_setting 'orthorhombic'
loop_
_space_group_symop_operation_xyz
x,y,z
-x,-y,1/2+z
x,-y,1/2+z
-x,y,z
1/2+x,1/2+y,z
1/2-x,1/2-y,1/2+z
1/2+x,1/2-y,1/2+z
1/2-x,1/2+y,z
loop_
_atom_site_type_symbol
_atom_site_label
_atom_site_fract_x
_atom_site_fract_y
_atom_site_fract_z
Si Si1 0.000000 0.954156 0.547120
Si Si2 0.296099 0.955119 0.817854
Si Si3 0.500000 0.237339 0.201948
Si Si4 0.255941 0.233498 0.006708
Si Si5 0.399203 0.322509 0.634227
Si Si6 0.856337 0.122682 0.507922
Si Si7 0.602263 0.851197 0.790914
O O1 0.000000 0.856839 0.366367
O O2 0.951851 0.899479 0.643793
O O3 0.000000 0.138348 0.544701
O O4 0.264002 0.868912 0.675708
O O5 0.291648 0.831219 0.975363
O O6 0.352677 0.966154 0.772898
O O7 0.270655 0.110850 0.860500
O O8 0.452083 0.134545 0.216624
O O9 0.299606 0.352237 0.007278
O O10 0.367574 0.448270 0.533452
O O11 0.378811 0.310944 0.829550
O O12 0.403086 0.185819 0.496911
O O13 0.878105 0.211223 0.673840
#
# Coordination Sequence:
#
# PCOD9350608 Si02
#       7
#     4   8   4   8   8   8   8
#     4  10  18  30  54  92 130 169 213 266 329 379
#     4  11  26  48  67 101 128 175 215 278 323 405
#     4  10  18  34  56  90 128 175 207 274 315 391
#     4  11  27  44  71  94 133 169 224 263 340 388
#     4  11  20  34  60  90 138 167 214 267 327 377
#     4  11  22  36  60  96 124 177 213 267 322 396
#     4  10  23  38  61  91 132 173 218 264 327 383
#
# _framework density 25.650268000000001
#
# number of rings (size 3 to 8) (size 9 to 14) (size 15 to 20)
#    0.000    1.333    3.333    2.000    7.000    0.000 
#    0.000    0.000    0.000    6.000    0.000    0.000 
#    0.000    0.000    0.000    0.000    0.000    0.000 
#
# Total GULP energy -134278.766663 kJ/mol
# GULP energy per Si atom -5594.948611 kJ/mol
# Density = 2.559189 g / cm^3
# Si number density = 25.650268 Si / 1000 Ang^3
#
#
#
# Elastic Constant Matrix: (Units=GPa)
#
#
# Indices 1 2 3 4 5 6 
#
# 1 156.6438 48.6203 -0.9605 0.0000 0.0000 0.0000
# 2 48.6203 78.9511 11.9391 0.0000 0.0000 0.0000
# 3 -0.9605 11.9391 116.5149 0.0000 0.0000 0.0000
# 4 0.0000 0.0000 0.0000 20.9917 0.0000 0.0000
# 5 0.0000 0.0000 0.0000 0.0000 32.6000 0.0000
# 6 0.0000 0.0000 0.0000 0.0000 0.0000 11.5447
#
#
#
# Elastic Compliance Matrix: (Units=1/GPa)
#
#
# Indices 1 2 3 4 5 6 
#
# 1 0.007930 -0.004971 0.000575 0.000000 0.000000 0.000000
# 2 -0.004971 0.015981 -0.001679 0.000000 0.000000 0.000000
# 3 0.000575 -0.001679 0.008759 0.000000 0.000000 0.000000
# 4 0.000000 0.000000 0.000000 0.047638 0.000000 0.000000
# 5 0.000000 0.000000 0.000000 0.000000 0.030675 0.000000
# 6 0.000000 0.000000 0.000000 0.000000 0.000000 0.086620
#
#
# Mechanical properties :
#
#
# Convention : Reuss Voigt Hill
#
# Bulk Modulus (GPa) = 48.72886 52.36749 50.54818
# Shear Modulus (GPa) = 23.08486 32.52802 27.80644
#
# Velocity S-wave (km/s) = 3.00323 3.56495 3.29608
# Velocity P-wave (km/s) = 5.57355 6.11600 5.85107
#
# Compressibility (1/GPa) = 0.02052172
#
# Stress axis : x y z
#
# Youngs Moduli (GPa) = 126.09969 62.57467 114.16400
#
# Poissons Ratio (x) = 0.31103 -0.06561
# Poissons Ratio (y) = 0.62679 0.19163
# Poissons Ratio (z) = -0.07247 0.10503
#
# Static dielectric constant tensor:
#      x y z
#    x 1.992010 0.000000 0.000000 
#    y 0.000000 1.971990 0.000000 
#    z 0.000000 0.000000 2.231510 
# 
# From -- ./inp_files/6008.got.cif
#   From: 2010.05.17/outbox.cif.g08.bks.cpg/sg36_4_cif.got.tgz:6008.got - 2010.06.03 17:41:39.
