data_PCOD9350008
_publ_section_title
;
Structure prediction by ZEFSAII (Michael W. Deem and Ramdas Pophale) SiO2 
 PCOD9350008
Probable space group: C M M 2
;
_chemical_formula_sum "Si O2"
_cell_formula_units_Z 48
_cell_length_a 27.416034
_cell_length_b 14.420081
_cell_length_c 5.737254
_cell_angle_alpha 90.000000
_cell_angle_beta 90.000000
_cell_angle_gamma 90.000000
_cell_volume 2268.174206
_symmetry_space_group_name_H-M "C M M 2"
_symmetry_group_IT_number 35
_symmetry_cell_setting 'orthorhombic'
loop_
_space_group_symop_operation_xyz
x,y,z
-x,-y,z
-x,y,z
x,-y,z
1/2+x,1/2+y,z
1/2-x,1/2-y,z
1/2-x,1/2+y,z
1/2+x,1/2-y,z
loop_
_atom_site_type_symbol
_atom_site_label
_atom_site_fract_x
_atom_site_fract_y
_atom_site_fract_z
Si Si1 0.553991 0.274888 0.018190
Si Si2 0.723183 0.101467 0.410831
Si Si3 0.729788 0.354765 0.917835
Si Si4 0.375732 0.392597 0.755118
Si Si5 0.630383 0.776559 0.403167
Si Si6 0.446806 0.105680 0.660461
O O1 0.500000 0.290562 0.121783
O O2 0.598701 0.250696 0.183101
O O3 0.573411 0.363624 0.876117
O O4 0.550572 0.183873 0.857241
O O5 0.750695 0.109671 0.662098
O O6 0.684544 0.184464 0.385132
O O7 0.698744 0.000000 0.416347
O O8 0.752834 0.104675 0.167213
O O9 0.750000 0.250000 0.920141
O O10 0.671983 0.372504 0.911758
O O11 0.375392 0.500000 0.684508
O O12 0.369470 0.316304 0.554875
O O13 0.598784 0.860466 0.512704
O O14 0.500000 0.109457 0.535460
O O15 0.440859 0.000000 0.744010
#
# Coordination Sequence:
#
# PCOD9350008 Si02
#       6
#     8   8   8   8   8   8
#     4  10  23  43  66  95 132 173 226 288 351 417
#     4  12  26  43  70 106 146 187 234 289 350 424
#     4  12  25  48  70 103 143 190 235 290 352 417
#     4  11  25  45  69  95 130 177 231 288 350 421
#     4  11  23  41  64  99 132 180 222 283 349 414
#     4   9  19  37  62  93 132 175 220 273 337 412
#
# _framework density 21.162395
#
# number of rings (size 3 to 8) (size 9 to 14) (size 15 to 20)
#    0.000    1.167    1.667    4.000    4.667    3.000 
#    0.000    1.667    0.000    0.000    0.000    0.000 
#    0.000    0.000    0.000    0.000    0.000    0.000 
#
# Total GULP energy -133775.828686 kJ/mol
# GULP energy per Si atom -5573.992862 kJ/mol
# Density = 2.111423 g / cm^3
# Si number density = 21.162395 Si / 1000 Ang^3
#
#
#
# Elastic Constant Matrix: (Units=GPa)
#
#
# Indices 1 2 3 4 5 6 
#
# 1 102.0535 33.3351 43.5609 0.0000 0.0000 0.0000
# 2 33.3351 140.2897 14.9859 0.0000 0.0000 0.0000
# 3 43.5609 14.9859 90.7790 0.0000 0.0000 0.0000
# 4 0.0000 0.0000 0.0000 26.1526 0.0000 0.0000
# 5 0.0000 0.0000 0.0000 0.0000 49.0551 0.0000
# 6 0.0000 0.0000 0.0000 0.0000 0.0000 -14.8421
#
#
#
# Elastic Compliance Matrix: (Units=1/GPa)
#
#
# Indices 1 2 3 4 5 6 
#
# 1 0.013125 -0.002490 -0.005887 0.000000 0.000000 0.000000
# 2 -0.002490 0.007728 -0.000081 0.000000 0.000000 0.000000
# 3 -0.005887 -0.000081 0.013854 0.000000 0.000000 0.000000
# 4 0.000000 0.000000 0.000000 0.038237 0.000000 0.000000
# 5 0.000000 0.000000 0.000000 0.000000 0.020385 0.000000
# 6 0.000000 0.000000 0.000000 0.000000 0.000000 -0.067376
#
#
# Mechanical properties :
#
#
# Convention : Reuss Voigt Hill
#
# Bulk Modulus (GPa) = 56.20655 57.43178 56.81917
# Shear Modulus (GPa) = 102.45829 28.15582 65.30706
#
# Velocity S-wave (km/s) = 6.96566 3.65151 5.56120
# Velocity P-wave (km/s) = 9.55569 6.70638 8.25490
#
# Compressibility (1/GPa) = 0.01779152
#
# Stress axis : x y z
#
# Youngs Moduli (GPa) = 76.19096 129.39308 72.18091
#
# Poissons Ratio (x) = 0.32217 0.42493
# Poissons Ratio (y) = 0.18970 0.00585
# Poissons Ratio (z) = 0.44854 0.01049
#
# Static dielectric constant tensor:
#      x y z
#    x 1.763300 0.000000 0.000000 
#    y 0.000000 1.732260 0.000000 
#    z 0.000000 0.000000 1.830090 
# 
# From -- ./inp_files/1924.got.cif
#   From: 2010.05.17/outbox.cif.g08.bks.cpg/sg35_1_cif.got.tgz:1924.got - 2010.06.03 17:29:28.
