data_PCOD9350923
_publ_section_title
;
Structure prediction by ZEFSAII (Michael W. Deem and Ramdas Pophale) SiO2 
 PCOD9350923
Probable space group: C M C 21
;
_chemical_formula_sum "Si O2"
_cell_formula_units_Z 64
_cell_length_a 8.662719
_cell_length_b 20.727886
_cell_length_c 20.312802
_cell_angle_alpha 90.000000
_cell_angle_beta 90.000000
_cell_angle_gamma 90.000000
_cell_volume 3647.363718
_symmetry_space_group_name_H-M "C M C 21"
_symmetry_group_IT_number 36
_symmetry_cell_setting 'orthorhombic'
loop_
_space_group_symop_operation_xyz
x,y,z
-x,-y,1/2+z
x,-y,1/2+z
-x,y,z
1/2+x,1/2+y,z
1/2-x,1/2-y,1/2+z
1/2+x,1/2-y,1/2+z
1/2-x,1/2+y,z
loop_
_atom_site_type_symbol
_atom_site_label
_atom_site_fract_x
_atom_site_fract_y
_atom_site_fract_z
Si Si1 0.186166 0.544638 0.647950
Si Si2 0.313846 0.837420 0.062590
Si Si3 0.686388 0.439254 0.823227
Si Si4 0.684798 0.096615 0.180392
Si Si5 0.815352 0.766315 0.673654
Si Si6 0.314813 0.723388 0.814979
Si Si7 0.684523 0.674725 0.417901
Si Si8 0.314239 0.580034 0.790690
O O1 0.236030 0.592532 0.590136
O O2 0.231995 0.469601 0.643692
O O3 0.248136 0.571702 0.717257
O O4 0.000000 0.546346 0.651132
O O5 0.500000 0.836928 0.058458
O O6 0.269231 0.784777 0.117691
O O7 0.246918 0.822318 0.991534
O O8 0.500000 0.435243 0.815191
O O9 0.763309 0.413814 0.756101
O O10 0.731182 0.392666 0.882741
O O11 0.728597 0.514695 0.829512
O O12 0.500000 0.103067 0.177584
O O13 0.763204 0.161634 0.155445
O O14 0.740367 0.748171 0.743592
O O15 0.000000 0.763930 0.681236
O O16 0.500000 0.726801 0.817631
O O17 0.246428 0.768201 0.871672
O O18 0.265146 0.648434 0.820313
O O19 0.500000 0.677394 0.418681
O O20 0.500000 0.581264 0.785861
#
# Coordination Sequence:
#
# PCOD9350923 Si02
#       8
#     8   8   8   8   8   8   8   8
#     4   9  18  34  54  79 109 142 179 223 274 326
#     4  10  22  39  57  77 109 150 188 229 279 335
#     4   9  18  34  53  77 109 142 177 222 274 325
#     4  10  19  31  54  84 111 139 178 227 274 324
#     4  11  21  35  56  81 111 147 185 231 281 329
#     4  11  21  34  56  84 113 145 184 232 279 329
#     4  11  23  37  56  80 111 149 188 230 278 337
#     4   9  18  32  54  82 109 138 177 226 273 321
#
# _framework density 17.546921000000001
#
# number of rings (size 3 to 8) (size 9 to 14) (size 15 to 20)
#    0.000    2.000    2.500    1.500    0.000    3.000 
#    0.000    1.250    0.000    4.500    0.000    0.000 
#    0.000    0.000    0.000    0.000    0.000    0.000 
#
# Total GULP energy -178555.872254 kJ/mol
# GULP energy per Si atom -5579.871008 kJ/mol
# Density = 1.750698 g / cm^3
# Si number density = 17.546921 Si / 1000 Ang^3
#
#
#
# Elastic Constant Matrix: (Units=GPa)
#
#
# Indices 1 2 3 4 5 6 
#
# 1 18.6472 28.0642 22.6472 0.0000 0.0000 0.0000
# 2 28.0642 139.0684 53.1875 0.0000 0.0000 0.0000
# 3 22.6472 53.1875 86.0540 0.0000 0.0000 0.0000
# 4 0.0000 0.0000 0.0000 24.7165 0.0000 0.0000
# 5 0.0000 0.0000 0.0000 0.0000 26.8675 0.0000
# 6 0.0000 0.0000 0.0000 0.0000 0.0000 23.3914
#
#
#
# Elastic Compliance Matrix: (Units=1/GPa)
#
#
# Indices 1 2 3 4 5 6 
#
# 1 0.092389 -0.012238 -0.016751 0.000000 0.000000 0.000000
# 2 -0.012238 0.011038 -0.003601 0.000000 0.000000 0.000000
# 3 -0.016751 -0.003601 0.018255 0.000000 0.000000 0.000000
# 4 0.000000 0.000000 0.000000 0.040459 0.000000 0.000000
# 5 0.000000 0.000000 0.000000 0.000000 0.037220 0.000000
# 6 0.000000 0.000000 0.000000 0.000000 0.000000 0.042751
#
#
# Mechanical properties :
#
#
# Convention : Reuss Voigt Hill
#
# Bulk Modulus (GPa) = 17.69846 50.17418 33.93632
# Shear Modulus (GPa) = 15.33153 24.31978 19.82566
#
# Velocity S-wave (km/s) = 2.95912 3.72692 3.36499
# Velocity P-wave (km/s) = 4.66728 6.86850 5.87196
#
# Compressibility (1/GPa) = 0.05650208
#
# Stress axis : x y z
#
# Youngs Moduli (GPa) = 10.82375 90.59849 54.77993
#
# Poissons Ratio (x) = 1.10874 0.91760
# Poissons Ratio (y) = 0.13246 0.19728
# Poissons Ratio (z) = 0.18130 0.32628
#
# Static dielectric constant tensor:
#      x y z
#    x 1.590600 0.000000 0.000000 
#    y 0.000000 1.637190 0.000000 
#    z 0.000000 0.000000 1.550160 
# 
# From -- ./inp_files/13818.got.cif
#   From: 2010.05.17/outbox.cif.g08.bks.cpg/sg36_7_cif.got.tgz:13818.got - 2010.06.03 17:41:39.
