data_PCOD9350257
_publ_section_title
;
Structure prediction by ZEFSAII (Michael W. Deem and Ramdas Pophale) SiO2 
 PCOD9350257
Probable space group: C M M 2
;
_chemical_formula_sum "Si O2"
_cell_formula_units_Z 48
_cell_length_a 8.674158
_cell_length_b 19.021888
_cell_length_c 16.278535
_cell_angle_alpha 90.000000
_cell_angle_beta 90.000000
_cell_angle_gamma 90.000000
_cell_volume 2685.939750
_symmetry_space_group_name_H-M "C M M 2"
_symmetry_group_IT_number 35
_symmetry_cell_setting 'orthorhombic'
loop_
_space_group_symop_operation_xyz
x,y,z
-x,-y,z
-x,y,z
x,-y,z
1/2+x,1/2+y,z
1/2-x,1/2-y,z
1/2-x,1/2+y,z
1/2+x,1/2-y,z
loop_
_atom_site_type_symbol
_atom_site_label
_atom_site_fract_x
_atom_site_fract_y
_atom_site_fract_z
Si Si1 0.816150 0.670136 0.060720
Si Si2 0.814083 0.828770 0.408724
Si Si3 0.683068 0.916537 0.741615
Si Si4 0.183223 0.828797 0.890808
Si Si5 0.814427 0.917569 0.565900
Si Si6 0.315017 0.329726 0.228216
O O1 0.750000 0.750000 0.060621
O O2 0.755730 0.637111 0.145847
O O3 0.000000 0.672373 0.060576
O O4 0.753831 0.639805 0.975160
O O5 0.750000 0.750000 0.415209
O O6 0.762669 0.874526 0.486157
O O7 0.773686 0.859257 0.318306
O O8 0.000000 0.825205 0.410660
O O9 0.500000 0.906213 0.749529
O O10 0.768649 0.874523 0.812816
O O11 0.738298 0.893777 0.651058
O O12 0.716044 0.000000 0.748462
O O13 0.250000 0.750000 0.880665
O O14 0.000000 0.824416 0.899127
O O15 0.000000 0.910982 0.573469
O O16 0.778748 0.000000 0.554694
O O17 0.500000 0.327691 0.220013
O O18 0.250000 0.250000 0.231058
#
# Coordination Sequence:
#
# PCOD9350257 Si02
#       6
#     8   8   8   8   8   8
#     4  10  17  27  44  68  98 130 163 199 243 291
#     4   9  18  30  47  72  99 127 160 202 247 288
#     4  10  21  37  55  75 100 131 167 206 250 301
#     4  11  21  34  53  77 104 132 166 207 251 296
#     4   9  18  34  53  71  94 128 168 204 242 293
#     4   9  15  25  41  64  94 126 160 197 240 289
#
# _framework density 17.870840000000001
#
# number of rings (size 3 to 8) (size 9 to 14) (size 15 to 20)
#    0.000    2.333    0.000    6.000    0.000    3.000 
#    0.000    1.667    0.000    1.000    0.000    2.333 
#    0.000    0.000    0.000    0.000    0.000    0.000 
#
# Total GULP energy -133791.833919 kJ/mol
# GULP energy per Si atom -5574.659747 kJ/mol
# Density = 1.783017 g / cm^3
# Si number density = 17.870840 Si / 1000 Ang^3
#
#
#
# Elastic Constant Matrix: (Units=GPa)
#
#
# Indices 1 2 3 4 5 6 
#
# 1 97.7514 25.3518 72.9536 0.0000 0.0000 0.0000
# 2 25.3518 22.8896 47.5325 0.0000 0.0000 0.0000
# 3 72.9536 47.5325 202.7152 0.0000 0.0000 0.0000
# 4 0.0000 0.0000 0.0000 -18.2995 0.0000 0.0000
# 5 0.0000 0.0000 0.0000 0.0000 27.8611 0.0000
# 6 0.0000 0.0000 0.0000 0.0000 0.0000 16.7720
#
#
#
# Elastic Compliance Matrix: (Units=1/GPa)
#
#
# Indices 1 2 3 4 5 6 
#
# 1 0.015219 -0.010685 -0.002972 0.000000 0.000000 0.000000
# 2 -0.010685 0.092650 -0.017879 0.000000 0.000000 0.000000
# 3 -0.002972 -0.017879 0.010195 0.000000 0.000000 0.000000
# 4 0.000000 0.000000 0.000000 -0.054646 0.000000 0.000000
# 5 0.000000 0.000000 0.000000 0.000000 0.035892 0.000000
# 6 0.000000 0.000000 0.000000 0.000000 0.000000 0.059623
#
#
# Mechanical properties :
#
#
# Convention : Reuss Voigt Hill
#
# Bulk Modulus (GPa) = 18.18444 68.33688 43.26066
# Shear Modulus (GPa) = 20.80421 17.10129 18.95275
#
# Velocity S-wave (km/s) = 3.41566 3.09680 3.26013
# Velocity P-wave (km/s) = 5.07476 7.14907 6.19929
#
# Compressibility (1/GPa) = 0.05499207
#
# Stress axis : x y z
#
# Youngs Moduli (GPa) = 65.70738 10.79326 98.09004
#
# Poissons Ratio (x) = 0.11533 0.29148
# Poissons Ratio (y) = 0.70211 1.75376
# Poissons Ratio (z) = 0.19525 0.19297
#
# Static dielectric constant tensor:
#      x y z
#    x 1.600470 0.000000 0.000000 
#    y 0.000000 1.582630 0.000000 
#    z 0.000000 0.000000 1.666030 
# 
# From -- ./inp_files/15399.got.cif
#   From: 2010.05.17/outbox.cif.g08.bks.cpg/sg35_8_cif.got.tgz:15399.got - 2010.06.03 17:29:28.
