data_PCOD9350990
_publ_section_title
;
Structure prediction by ZEFSAII (Michael W. Deem and Ramdas Pophale) SiO2 
 PCOD9350990
Probable space group: C M C 21
;
_chemical_formula_sum "Si O2"
_cell_formula_units_Z 64
_cell_length_a 15.911393
_cell_length_b 15.113059
_cell_length_c 14.386580
_cell_angle_alpha 90.000000
_cell_angle_beta 90.000000
_cell_angle_gamma 90.000000
_cell_volume 3459.538320
_symmetry_space_group_name_H-M "C M C 21"
_symmetry_group_IT_number 36
_symmetry_cell_setting 'orthorhombic'
loop_
_space_group_symop_operation_xyz
x,y,z
-x,-y,1/2+z
x,-y,1/2+z
-x,y,z
1/2+x,1/2+y,z
1/2-x,1/2-y,1/2+z
1/2+x,1/2-y,1/2+z
1/2-x,1/2+y,z
loop_
_atom_site_type_symbol
_atom_site_label
_atom_site_fract_x
_atom_site_fract_y
_atom_site_fract_z
Si Si1 0.748290 0.148676 0.902440
Si Si2 0.681223 0.382842 0.209423
Si Si3 0.904970 0.304870 0.733158
Si Si4 0.839690 0.075119 0.184245
Si Si5 0.251711 0.351324 0.858227
Si Si6 0.095030 0.195130 0.027509
Si Si7 0.818776 0.382842 0.051244
Si Si8 0.839689 0.424881 0.576422
O O1 0.766525 0.102009 0.804786
O O2 0.724251 0.250000 0.880333
O O3 0.837506 0.153961 0.956410
O O4 0.681029 0.107641 0.972610
O O5 0.623720 0.296745 0.220612
O O6 0.632687 0.473103 0.186011
O O7 0.750000 0.363415 0.130333
O O8 0.837505 0.346039 0.804257
O O9 0.895315 0.357850 0.636203
O O10 0.000000 0.310473 0.767038
O O11 0.818971 0.107642 0.288057
O O12 0.895316 0.142151 0.124464
O O13 0.750000 0.074769 0.130333
O O14 0.233475 0.397991 0.955881
O O15 0.123720 0.296745 0.040055
O O16 0.000000 0.189528 0.993629
O O17 0.867312 0.473103 0.074656
#
# Coordination Sequence:
#
# PCOD9350990 Si02
#       8
#     8   8   8   8   8   8   8   8
#     4   9  17  31  53  76  99 128 165 209 251 294
#     4  10  19  32  54  76  97 130 170 211 247 289
#     4  10  20  33  49  74 105 132 162 202 250 302
#     4   9  18  33  52  75  99 128 167 206 246 290
#     4   9  17  31  53  76  99 128 165 209 251 294
#     4  10  20  33  49  74 105 132 162 202 250 302
#     4  10  19  32  54  76  97 130 170 211 247 289
#     4   9  18  33  52  75  99 128 167 206 246 290
#
# _framework density 18.499578
#
# number of rings (size 3 to 8) (size 9 to 14) (size 15 to 20)
#    0.000    2.500    0.000    4.500    0.000    5.500 
#    0.000    0.000    0.000    6.750    0.000    0.000 
#    0.000    0.000    0.000    0.000    0.000    0.000 
#
# Total GULP energy -178444.317142 kJ/mol
# GULP energy per Si atom -5576.384911 kJ/mol
# Density = 1.845747 g / cm^3
# Si number density = 18.499578 Si / 1000 Ang^3
#
#
#
# Elastic Constant Matrix: (Units=GPa)
#
#
# Indices 1 2 3 4 5 6 
#
# 1 41.7828 -0.8443 6.0707 0.0000 0.0000 0.0000
# 2 -0.8443 35.5415 13.5986 0.0000 0.0000 0.0000
# 3 6.0707 13.5986 99.3199 0.0000 0.0000 0.0000
# 4 0.0000 0.0000 0.0000 8.8381 0.0000 0.0000
# 5 0.0000 0.0000 0.0000 0.0000 8.2017 0.0000
# 6 0.0000 0.0000 0.0000 0.0000 0.0000 -3.0604
#
#
#
# Elastic Compliance Matrix: (Units=1/GPa)
#
#
# Indices 1 2 3 4 5 6 
#
# 1 0.024196 0.001204 -0.001644 0.000000 0.000000 0.000000
# 2 0.001204 0.029751 -0.004147 0.000000 0.000000 0.000000
# 3 -0.001644 -0.004147 0.010737 0.000000 0.000000 0.000000
# 4 0.000000 0.000000 0.000000 0.113147 0.000000 0.000000
# 5 0.000000 0.000000 0.000000 0.000000 0.121927 0.000000
# 6 0.000000 0.000000 0.000000 0.000000 0.000000 -0.326757
#
#
# Mechanical properties :
#
#
# Convention : Reuss Voigt Hill
#
# Bulk Modulus (GPa) = 18.01464 23.81047 20.91255
# Shear Modulus (GPa) = 7363.07424 13.31714 3688.19569
#
# Velocity S-wave (km/s) = 63.15672 2.68593 44.69891
# Velocity P-wave (km/s) = 72.99398 4.74529 51.72349
#
# Compressibility (1/GPa) = 0.05551041
#
# Stress axis : x y z
#
# Youngs Moduli (GPa) = 41.32838 33.61181 93.13802
#
# Poissons Ratio (x) = -0.04046 0.15310
# Poissons Ratio (y) = -0.04975 0.38625
# Poissons Ratio (z) = 0.06793 0.13939
#
# Static dielectric constant tensor:
#      x y z
#    x 1.591910 0.000000 0.000000 
#    y 0.000000 1.669990 0.000000 
#    z 0.000000 0.000000 1.671240 
# 
# From -- ./inp_files/12691.got.cif
#   From: 2010.05.17/outbox.cif.g08.bks.cpg/sg36_7_cif.got.tgz:12691.got - 2010.06.03 17:41:39.
