data_PCOD9350077
_publ_section_title
;
Structure prediction by ZEFSAII (Michael W. Deem and Ramdas Pophale) SiO2 
 PCOD9350077
Probable space group: C M M 2
;
_chemical_formula_sum "Si O2"
_cell_formula_units_Z 48
_cell_length_a 8.727076
_cell_length_b 16.166848
_cell_length_c 17.002815
_cell_angle_alpha 90.000000
_cell_angle_beta 90.000000
_cell_angle_gamma 90.000000
_cell_volume 2398.915456
_symmetry_space_group_name_H-M "C M M 2"
_symmetry_group_IT_number 35
_symmetry_cell_setting 'orthorhombic'
loop_
_space_group_symop_operation_xyz
x,y,z
-x,-y,z
-x,y,z
x,-y,z
1/2+x,1/2+y,z
1/2-x,1/2-y,z
1/2-x,1/2+y,z
1/2+x,1/2-y,z
loop_
_atom_site_type_symbol
_atom_site_label
_atom_site_fract_x
_atom_site_fract_y
_atom_site_fract_z
Si Si1 0.184480 0.158527 0.599950
Si Si2 0.181790 0.162775 0.286509
Si Si3 0.320067 0.000000 0.205931
Si Si4 0.315962 0.337265 0.936573
Si Si5 0.819695 0.500000 0.017969
Si Si6 0.821346 0.403840 0.441679
Si Si7 0.813817 0.094527 0.771068
O O1 0.250000 0.250000 0.590024
O O2 0.249708 0.106380 0.527648
O O3 0.235045 0.125645 0.685501
O O4 0.000000 0.158271 0.597328
O O5 0.250000 0.250000 0.258117
O O6 0.245743 0.083294 0.240303
O O7 0.233100 0.149171 0.376895
O O8 0.000000 0.164904 0.280957
O O9 0.304427 0.000000 0.111978
O O10 0.500000 0.000000 0.226953
O O11 0.500000 0.335392 0.939705
O O12 0.250000 0.250000 0.965429
O O13 0.265713 0.351253 0.845545
O O14 0.256813 0.417345 0.983134
O O15 0.000000 0.500000 0.998017
O O16 0.811291 0.500000 0.418164
O O17 0.000000 0.379780 0.443121
O O18 0.000000 0.094692 0.770661
O O19 0.763832 0.000000 0.783432
#
# Coordination Sequence:
#
# PCOD9350077 Si02
#       7
#     8   8   4   8   4   8   8
#     4  11  22  36  56  83 122 164 214 266 316 375
#     4  12  25  43  70 100 132 171 216 261 318 383
#     4  11  25  47  71  98 133 166 207 265 322 385
#     4  11  22  40  67  96 132 172 216 266 321 383
#     4  11  25  45  69  98 131 168 211 261 322 387
#     4  11  23  40  62  88 125 166 212 266 320 376
#     4   9  18  35  59  87 120 164 212 264 320 375
#
# _framework density 20.009041
#
# number of rings (size 3 to 8) (size 9 to 14) (size 15 to 20)
#    0.000    1.167    1.667    5.000    0.000    3.667 
#    0.000    2.500    0.000    0.000    0.000    0.000 
#    0.000    0.000    0.000    0.000    0.000    0.000 
#
# Total GULP energy -134224.284623 kJ/mol
# GULP energy per Si atom -5592.678526 kJ/mol
# Density = 1.996350 g / cm^3
# Si number density = 20.009041 Si / 1000 Ang^3
#
#
#
# Elastic Constant Matrix: (Units=GPa)
#
#
# Indices 1 2 3 4 5 6 
#
# 1 130.9714 69.2678 50.3631 0.0000 0.0000 0.0000
# 2 69.2678 161.5972 50.8883 0.0000 0.0000 0.0000
# 3 50.3631 50.8883 80.1053 0.0000 0.0000 0.0000
# 4 0.0000 0.0000 0.0000 27.3055 0.0000 0.0000
# 5 0.0000 0.0000 0.0000 0.0000 29.0593 0.0000
# 6 0.0000 0.0000 0.0000 0.0000 0.0000 30.8523
#
#
#
# Elastic Compliance Matrix: (Units=1/GPa)
#
#
# Indices 1 2 3 4 5 6 
#
# 1 0.011292 -0.003256 -0.005031 0.000000 0.000000 0.000000
# 2 -0.003256 0.008675 -0.003464 0.000000 0.000000 0.000000
# 3 -0.005031 -0.003464 0.017847 0.000000 0.000000 0.000000
# 4 0.000000 0.000000 0.000000 0.036623 0.000000 0.000000
# 5 0.000000 0.000000 0.000000 0.000000 0.034412 0.000000
# 6 0.000000 0.000000 0.000000 0.000000 0.000000 0.032412
#
#
# Mechanical properties :
#
#
# Convention : Reuss Voigt Hill
#
# Bulk Modulus (GPa) = 69.86975 79.30136 74.58555
# Shear Modulus (GPa) = 29.49287 30.92040 30.20663
#
# Velocity S-wave (km/s) = 3.84341 3.93532 3.88964
# Velocity P-wave (km/s) = 7.39531 7.76967 7.58480
#
# Compressibility (1/GPa) = 0.01431235
#
# Stress axis : x y z
#
# Youngs Moduli (GPa) = 88.55994 115.27934 56.03211
#
# Poissons Ratio (x) = 0.37534 0.28189
# Poissons Ratio (y) = 0.28834 0.19408
# Poissons Ratio (z) = 0.44554 0.39929
#
# Static dielectric constant tensor:
#      x y z
#    x 1.671420 0.000000 0.000000 
#    y 0.000000 1.663520 0.000000 
#    z 0.000000 0.000000 1.711370 
# 
# From -- ./inp_files/17871.got.cif
#   From: 2010.05.17/outbox.cif.g08.bks.cpg/sg35_9_cif.got.tgz:17871.got - 2010.06.03 17:29:28.
