data_PCOD9350842
_publ_section_title
;
Structure prediction by ZEFSAII (Michael W. Deem and Ramdas Pophale) SiO2 
 PCOD9350842
Probable space group: C M C 21
;
_chemical_formula_sum "Si O2"
_cell_formula_units_Z 32
_cell_length_a 17.593439
_cell_length_b 17.142570
_cell_length_c 5.003576
_cell_angle_alpha 90.000000
_cell_angle_beta 90.000000
_cell_angle_gamma 90.000000
_cell_volume 1509.062308
_symmetry_space_group_name_H-M "C M C 21"
_symmetry_group_IT_number 36
_symmetry_cell_setting 'orthorhombic'
loop_
_space_group_symop_operation_xyz
x,y,z
-x,-y,1/2+z
x,-y,1/2+z
-x,y,z
1/2+x,1/2+y,z
1/2-x,1/2-y,1/2+z
1/2+x,1/2-y,1/2+z
1/2-x,1/2+y,z
loop_
_atom_site_type_symbol
_atom_site_label
_atom_site_fract_x
_atom_site_fract_y
_atom_site_fract_z
Si Si1 0.910326 0.799001 0.244320
Si Si2 0.676074 0.165333 0.983023
Si Si3 0.911913 0.549551 0.615032
Si Si4 0.182656 0.827561 0.765720
O O1 0.887265 0.709882 0.161952
O O2 0.880323 0.818335 0.536892
O O3 0.000000 0.809076 0.218098
O O4 0.861409 0.850640 0.034133
O O5 0.640955 0.112320 0.754439
O O6 0.743786 0.128220 0.156216
O O7 0.712417 0.239845 0.829773
O O8 0.901004 0.473483 0.806955
O O9 0.000000 0.573367 0.648388
#
# Coordination Sequence:
#
# PCOD9350842 Si02
#       4
#     8   8   8   8
#     4  10  19  30  47  74 102 131 161 202 264 319
#     4  10  20  35  51  73 105 138 173 220 261 306
#     4  10  23  36  50  74 105 146 184 207 239 303
#     4  10  20  31  50  75  98 137 170 213 270 312
#
# _framework density 21.205221000000002
#
# number of rings (size 3 to 8) (size 9 to 14) (size 15 to 20)
#    1.500    0.500    2.500    1.500    3.500    0.000 
#    0.000    0.000    0.000    0.000    0.000    0.000 
#    0.000   20.000    0.000    0.000    0.000    0.000 
#
# Total GULP energy -89203.279576 kJ/mol
# GULP energy per Si atom -5575.204973 kJ/mol
# Density = 2.115696 g / cm^3
# Si number density = 21.205221 Si / 1000 Ang^3
#
#
#
# Elastic Constant Matrix: (Units=GPa)
#
#
# Indices 1 2 3 4 5 6 
#
# 1 112.5811 -3.8387 14.1812 0.0000 0.0000 0.0000
# 2 -3.8387 4.8003 -13.0672 0.0000 0.0000 0.0000
# 3 14.1812 -13.0672 101.1899 0.0000 0.0000 0.0000
# 4 0.0000 0.0000 0.0000 16.1657 0.0000 0.0000
# 5 0.0000 0.0000 0.0000 0.0000 38.9836 0.0000
# 6 0.0000 0.0000 0.0000 0.0000 0.0000 20.0879
#
#
#
# Elastic Compliance Matrix: (Units=1/GPa)
#
#
# Indices 1 2 3 4 5 6 
#
# 1 0.009149 0.005900 -0.000520 0.000000 0.000000 0.000000
# 2 0.005900 0.325058 0.041150 0.000000 0.000000 0.000000
# 3 -0.000520 0.041150 0.015269 0.000000 0.000000 0.000000
# 4 0.000000 0.000000 0.000000 0.061859 0.000000 0.000000
# 5 0.000000 0.000000 0.000000 0.000000 0.025652 0.000000
# 6 0.000000 0.000000 0.000000 0.000000 0.000000 0.049781
#
#
# Mechanical properties :
#
#
# Convention : Reuss Voigt Hill
#
# Bulk Modulus (GPa) = 2.25971 23.68021 12.96996
# Shear Modulus (GPa) = 9.23837 29.80051 19.51944
#
# Velocity S-wave (km/s) = 2.08952 3.75285 3.03727
# Velocity P-wave (km/s) = 2.62477 5.47448 4.29298
#
# Compressibility (1/GPa) = 0.44253494
#
# Stress axis : x y z
#
# Youngs Moduli (GPa) = 109.29922 3.07638 65.49124
#
# Poissons Ratio (x) = -0.01815 0.03407
# Poissons Ratio (y) = -0.64488 -2.69494
# Poissons Ratio (z) = 0.05687 -0.12659
#
# Static dielectric constant tensor:
#      x y z
#    x 1.785330 0.000000 0.000000 
#    y 0.000000 1.822320 0.000000 
#    z 0.000000 0.000000 1.824820 
# 
# From -- ./inp_files/42.got.cif
#   From: 2010.05.17/outbox.cif.g08.bks.cpg/sg36_1_cif.got.tgz:42.got - 2010.06.03 17:41:39.
