data_PCOD9350888
_publ_section_title
;
Structure prediction by ZEFSAII (Michael W. Deem and Ramdas Pophale) SiO2 
 PCOD9350888
Probable space group: C M C 21
;
_chemical_formula_sum "Si O2"
_cell_formula_units_Z 64
_cell_length_a 7.319784
_cell_length_b 16.547843
_cell_length_c 19.769003
_cell_angle_alpha 90.000000
_cell_angle_beta 90.000000
_cell_angle_gamma 90.000000
_cell_volume 2394.552839
_symmetry_space_group_name_H-M "C M C 21"
_symmetry_group_IT_number 36
_symmetry_cell_setting 'orthorhombic'
loop_
_space_group_symop_operation_xyz
x,y,z
-x,-y,1/2+z
x,-y,1/2+z
-x,y,z
1/2+x,1/2+y,z
1/2-x,1/2-y,1/2+z
1/2+x,1/2-y,1/2+z
1/2-x,1/2+y,z
loop_
_atom_site_type_symbol
_atom_site_label
_atom_site_fract_x
_atom_site_fract_y
_atom_site_fract_z
Si Si1 0.782866 0.585993 0.013270
Si Si2 0.221387 0.403949 0.764710
Si Si3 0.793420 0.256098 0.347757
Si Si4 0.208330 0.648980 0.470286
Si Si5 0.281457 0.751405 0.091358
Si Si6 0.777574 0.500908 0.640861
Si Si7 0.721959 0.006819 0.886307
Si Si8 0.776659 0.662237 0.719389
O O1 0.753440 0.668344 0.053236
O O2 0.715055 0.516648 0.064931
O O3 0.000000 0.575833 0.008563
O O4 0.715695 0.578463 0.936036
O O5 0.296104 0.323377 0.798994
O O6 0.275777 0.425910 0.688975
O O7 0.276958 0.481071 0.811252
O O8 0.000000 0.397157 0.767707
O O9 0.706995 0.223008 0.416484
O O10 0.714395 0.322684 0.296267
O O11 0.000000 0.279605 0.366023
O O12 0.290623 0.680152 0.539797
O O13 0.280143 0.572297 0.429911
O O14 0.000000 0.626313 0.485620
O O15 0.500000 0.760710 0.094310
O O16 0.217580 0.766707 0.167583
O O17 0.721581 0.581695 0.679645
O O18 0.000000 0.503309 0.639555
O O19 0.500000 0.011314 0.881243
O O20 0.000000 0.661302 0.724599
#
# Coordination Sequence:
#
# PCOD9350888 Si02
#       8
#     8   8   8   8   8   8   8   8
#     4  10  19  31  50  74  97 122 159 206 246 284
#     4   9  17  31  51  72  96 127 162 198 238 290
#     4  10  19  31  51  77 103 129 158 201 251 292
#     4   9  18  34  54  72  95 132 171 201 235 288
#     4  10  20  34  52  73 100 132 163 200 248 298
#     4   9  17  30  50  73  94 123 165 205 237 279
#     4   8  15  29  49  70  91 121 160 196 229 272
#     4   9  18  32  51  75 100 128 166 207 244 287
#
# _framework density 26.727329000000001
#
# number of rings (size 3 to 8) (size 9 to 14) (size 15 to 20)
#    0.000    2.750    0.000    2.625    0.000    4.500 
#    0.000    5.625    0.000    6.000    0.000    0.000 
#    0.000    0.000    0.000    0.000    0.000    0.000 
#
# Total GULP energy -178848.182882 kJ/mol
# GULP energy per Si atom -5589.005715 kJ/mol
# Density = 2.666650 g / cm^3
# Si number density = 26.727329 Si / 1000 Ang^3
#
#
#
# Elastic Constant Matrix: (Units=GPa)
#
#
# Indices 1 2 3 4 5 6 
#
# 1 106.5255 -13.4141 -2.3853 0.0000 0.0000 0.0000
# 2 -13.4141 72.3347 -2.7988 0.0000 0.0000 0.0000
# 3 -2.3853 -2.7988 139.5746 0.0000 0.0000 0.0000
# 4 0.0000 0.0000 0.0000 50.4948 0.0000 0.0000
# 5 0.0000 0.0000 0.0000 0.0000 1.1077 0.0000
# 6 0.0000 0.0000 0.0000 0.0000 0.0000 -17.0603
#
#
#
# Elastic Compliance Matrix: (Units=1/GPa)
#
#
# Indices 1 2 3 4 5 6 
#
# 1 0.009617 0.001791 0.000200 0.000000 0.000000 0.000000
# 2 0.001791 0.014169 0.000315 0.000000 0.000000 0.000000
# 3 0.000200 0.000315 0.007174 0.000000 0.000000 0.000000
# 4 0.000000 0.000000 0.000000 0.019804 0.000000 0.000000
# 5 0.000000 0.000000 0.000000 0.000000 0.902774 0.000000
# 6 0.000000 0.000000 0.000000 0.000000 0.000000 -0.058616
#
#
# Mechanical properties :
#
#
# Convention : Reuss Voigt Hill
#
# Bulk Modulus (GPa) = 28.11093 31.24872 29.67982
# Shear Modulus (GPa) = 5.54220 29.37731 17.45975
#
# Velocity S-wave (km/s) = 1.44157 3.31894 2.55866
# Velocity P-wave (km/s) = 3.64847 5.13850 4.45620
#
# Compressibility (1/GPa) = 0.03557335
#
# Stress axis : x y z
#
# Youngs Moduli (GPa) = 103.97746 70.57671 139.38519
#
# Poissons Ratio (x) = -0.12642 -0.02792
# Poissons Ratio (y) = -0.18625 -0.04387
# Poissons Ratio (z) = -0.02082 -0.02221
#
# Static dielectric constant tensor:
#      x y z
#    x 2.075210 0.000000 0.000000 
#    y 0.000000 2.162740 0.000000 
#    z 0.000000 0.000000 2.051410 
# 
# From -- ./inp_files/15584.got.cif
#   From: 2010.05.17/outbox.cif.g08.bks.cpg/sg36_8_cif.got.tgz:15584.got - 2010.06.03 17:41:39.
