data_PCOD9350423
_publ_section_title
;
Structure prediction by ZEFSAII (Michael W. Deem and Ramdas Pophale) SiO2 
 PCOD9350423
Probable space group: C M M 2
;
_chemical_formula_sum "Si O2"
_cell_formula_units_Z 64
_cell_length_a 8.666935
_cell_length_b 19.042545
_cell_length_c 21.335320
_cell_angle_alpha 90.000000
_cell_angle_beta 90.000000
_cell_angle_gamma 90.000000
_cell_volume 3521.191875
_symmetry_space_group_name_H-M "C M M 2"
_symmetry_group_IT_number 35
_symmetry_cell_setting 'orthorhombic'
loop_
_space_group_symop_operation_xyz
x,y,z
-x,-y,z
-x,y,z
x,-y,z
1/2+x,1/2+y,z
1/2-x,1/2-y,z
1/2-x,1/2+y,z
1/2+x,1/2-y,z
loop_
_atom_site_type_symbol
_atom_site_label
_atom_site_fract_x
_atom_site_fract_y
_atom_site_fract_z
Si Si1 0.316300 0.828862 0.353390
Si Si2 0.814124 0.918744 0.867532
Si Si3 0.316823 0.416564 0.239156
Si Si4 0.684387 0.670291 0.483211
Si Si5 0.684851 0.917716 0.102810
Si Si6 0.814213 0.418743 0.733769
Si Si7 0.314397 0.671486 0.987792
Si Si8 0.314276 0.171029 0.613047
O O1 0.500000 0.825013 0.359148
O O2 0.250000 0.750000 0.346121
O O3 0.266116 0.874049 0.293871
O O4 0.246161 0.860195 0.417877
O O5 0.752283 0.894125 0.800254
O O6 0.000000 0.918485 0.865755
O O7 0.763593 0.000000 0.876706
O O8 0.764346 0.870535 0.925287
O O9 0.500000 0.403506 0.241501
O O10 0.290546 0.500000 0.247361
O O11 0.252272 0.397579 0.170616
O O12 0.500000 0.671642 0.483604
O O13 0.750000 0.750000 0.483107
O O14 0.748221 0.639521 0.548182
O O15 0.500000 0.911544 0.103988
O O16 0.753854 0.870443 0.048069
O O17 0.724434 0.000000 0.091905
O O18 0.766408 0.500000 0.725526
O O19 0.767466 0.373118 0.673981
O O20 0.000000 0.416793 0.737308
O O21 0.500000 0.673052 0.989164
O O22 0.250000 0.750000 0.987224
O O23 0.500000 0.173347 0.608945
O O24 0.250000 0.250000 0.619199
#
# Coordination Sequence:
#
# PCOD9350423 Si02
#       8
#     8   8   8   8   8   8   8   8
#     4  11  21  35  56  81 110 143 182 225 270 320
#     4   9  19  36  57  78 102 137 178 217 261 317
#     4  10  21  38  59  83 112 144 179 221 268 318
#     4  10  18  31  51  75 104 138 178 220 265 317
#     4  10  21  38  60  84 109 141 181 220 263 320
#     4   9  19  35  54  76 103 136 174 216 261 311
#     4  11  23  38  56  81 113 144 178 222 271 317
#     4  10  19  32  51  75 103 135 173 217 264 315
#
# _framework density 18.175664999999999
#
# number of rings (size 3 to 8) (size 9 to 14) (size 15 to 20)
#    0.000    2.000    0.000    5.625    0.000    5.000 
#    0.000    6.875    0.000    2.250    0.000    0.000 
#    0.000    0.000    0.000    0.000    0.000    0.000 
#
# Total GULP energy -178659.033400 kJ/mol
# GULP energy per Si atom -5583.094794 kJ/mol
# Density = 1.813430 g / cm^3
# Si number density = 18.175665 Si / 1000 Ang^3
#
#
#
# Elastic Constant Matrix: (Units=GPa)
#
#
# Indices 1 2 3 4 5 6 
#
# 1 91.9374 39.3891 69.3636 0.0000 0.0000 0.0000
# 2 39.3891 61.4346 85.6274 0.0000 0.0000 0.0000
# 3 69.3636 85.6274 210.0524 0.0000 0.0000 0.0000
# 4 0.0000 0.0000 0.0000 32.8477 0.0000 0.0000
# 5 0.0000 0.0000 0.0000 0.0000 36.2127 0.0000
# 6 0.0000 0.0000 0.0000 0.0000 0.0000 22.0376
#
#
#
# Elastic Compliance Matrix: (Units=1/GPa)
#
#
# Indices 1 2 3 4 5 6 
#
# 1 0.015534 -0.006507 -0.002477 0.000000 0.000000 0.000000
# 2 -0.006507 0.040421 -0.014329 0.000000 0.000000 0.000000
# 3 -0.002477 -0.014329 0.011420 0.000000 0.000000 0.000000
# 4 0.000000 0.000000 0.000000 0.030444 0.000000 0.000000
# 5 0.000000 0.000000 0.000000 0.000000 0.027615 0.000000
# 6 0.000000 0.000000 0.000000 0.000000 0.000000 0.045377
#
#
# Mechanical properties :
#
#
# Convention : Reuss Voigt Hill
#
# Bulk Modulus (GPa) = 48.19584 83.57606 65.88595
# Shear Modulus (GPa) = 22.28652 29.48921 25.88787
#
# Velocity S-wave (km/s) = 3.50547 4.03234 3.77810
# Velocity P-wave (km/s) = 6.55429 8.23176 7.44045
#
# Compressibility (1/GPa) = 0.02074868
#
# Stress axis : x y z
#
# Youngs Moduli (GPa) = 64.37670 24.73973 87.56816
#
# Poissons Ratio (x) = 0.16099 0.21690
# Poissons Ratio (y) = 0.41891 1.25473
# Poissons Ratio (z) = 0.15945 0.35449
#
# Static dielectric constant tensor:
#      x y z
#    x 1.610620 0.000000 0.000000 
#    y 0.000000 1.609510 0.000000 
#    z 0.000000 0.000000 1.626810 
# 
# From -- ./inp_files/18314.got.cif
#   From: 2010.05.17/outbox.cif.g08.bks.cpg/sg35_10_cif.got.tgz:18314.got - 2010.06.03 17:29:28.
