data_PCOD9350133
_publ_section_title
;
Structure prediction by ZEFSAII (Michael W. Deem and Ramdas Pophale) SiO2 
 PCOD9350133
Probable space group: C M M 2
;
_chemical_formula_sum "Si O2"
_cell_formula_units_Z 64
_cell_length_a 11.412183
_cell_length_b 23.137382
_cell_length_c 9.768794
_cell_angle_alpha 90.000000
_cell_angle_beta 90.000000
_cell_angle_gamma 90.000000
_cell_volume 2579.430885
_symmetry_space_group_name_H-M "C M M 2"
_symmetry_group_IT_number 35
_symmetry_cell_setting 'orthorhombic'
loop_
_space_group_symop_operation_xyz
x,y,z
-x,-y,z
-x,y,z
x,-y,z
1/2+x,1/2+y,z
1/2-x,1/2-y,z
1/2-x,1/2+y,z
1/2+x,1/2-y,z
loop_
_atom_site_type_symbol
_atom_site_label
_atom_site_fract_x
_atom_site_fract_y
_atom_site_fract_z
Si Si1 0.373337 0.434823 0.593590
Si Si2 0.374222 0.347235 0.336953
Si Si3 0.873949 0.733148 0.679320
Si Si4 0.626498 0.903353 0.035892
Si Si5 0.873949 0.733148 0.994587
Si Si6 0.373337 0.434823 0.080315
Si Si7 0.626498 0.096647 0.638013
Si Si8 0.125872 0.361961 0.336953
O O1 0.500000 0.428195 0.665786
O O2 0.370459 0.500000 0.536542
O O3 0.373962 0.388210 0.471542
O O4 0.252860 0.427747 0.677179
O O5 0.500000 0.315999 0.336952
O O6 0.373962 0.388210 0.202363
O O7 0.241915 0.322773 0.336953
O O8 0.750000 0.750000 0.614756
O O9 0.872103 0.754337 0.836954
O O10 0.874874 0.663852 0.679992
O O11 0.000000 0.752381 0.620588
O O12 0.500000 0.928445 0.993479
O O13 0.752860 0.927747 0.996727
O O14 0.627294 0.901090 0.201536
O O15 0.625126 0.836148 0.993914
O O16 0.750000 0.750000 0.059151
O O17 0.000000 0.752381 0.053319
O O18 0.500000 0.428195 0.008119
O O19 0.370459 0.500000 0.137363
O O20 0.500000 0.071555 0.680426
O O21 0.627294 0.098910 0.472370
O O22 0.000000 0.330749 0.336954
#
# Coordination Sequence:
#
# PCOD9350133 Si02
#       8
#     8   8   8   8   8   8   8   8
#     4   9  16  25  39  61  89 120 152 183 214 251
#     4   8  13  22  36  55  82 116 151 184 214 244
#     4   9  18  33  52  71  88 108 140 182 223 261
#     4   9  17  29  45  65  90 118 146 178 216 258
#     4   9  18  33  52  71  88 108 140 182 223 261
#     4   9  16  25  39  61  89 120 152 183 214 251
#     4   9  17  29  45  65  90 118 146 178 216 258
#     4   8  14  25  40  60  88 118 143 170 210 258
#
# _framework density 24.811675000000001
#
# number of rings (size 3 to 8) (size 9 to 14) (size 15 to 20)
#    0.000    3.250    0.000    0.375    0.000    3.000 
#    0.000    0.625    0.000    8.250    0.000    5.250 
#    0.000    0.000    0.000    0.000    0.000    0.000 
#
# Total GULP energy -178180.875990 kJ/mol
# GULP energy per Si atom -5568.152375 kJ/mol
# Density = 2.475520 g / cm^3
# Si number density = 24.811675 Si / 1000 Ang^3
#
#
#
# Elastic Constant Matrix: (Units=GPa)
#
#
# Indices 1 2 3 4 5 6 
#
# 1 382.9809 29.8359 3.3503 0.0000 0.0000 0.0000
# 2 29.8359 40.5445 0.0322 0.0000 0.0000 0.0000
# 3 3.3503 0.0322 100.2085 0.0000 0.0000 0.0000
# 4 0.0000 0.0000 0.0000 -17.1087 0.0000 0.0000
# 5 0.0000 0.0000 0.0000 0.0000 -107.1785 0.0000
# 6 0.0000 0.0000 0.0000 0.0000 0.0000 -36.3167
#
#
#
# Elastic Compliance Matrix: (Units=1/GPa)
#
#
# Indices 1 2 3 4 5 6 
#
# 1 0.002771 -0.002039 -0.000092 0.000000 0.000000 0.000000
# 2 -0.002039 0.026165 0.000060 0.000000 0.000000 0.000000
# 3 -0.000092 0.000060 0.009982 0.000000 0.000000 0.000000
# 4 0.000000 0.000000 0.000000 -0.058450 0.000000 0.000000
# 5 0.000000 0.000000 0.000000 0.000000 -0.009330 0.000000
# 6 0.000000 0.000000 0.000000 0.000000 0.000000 -0.027536
#
#
# Mechanical properties :
#
#
# Convention : Reuss Voigt Hill
#
# Bulk Modulus (GPa) = 28.75598 65.57453 47.16526
# Shear Modulus (GPa) = -122.95848 0.58026 -61.18911
#
# Velocity S-wave (km/s) = -7.04729 0.48412 -4.97141
# Velocity P-wave (km/s) = 7.38946 5.17675 3.72863
#
# Compressibility (1/GPa) = 0.03477537
#
# Stress axis : x y z
#
# Youngs Moduli (GPa) = 360.91492 38.21965 100.17786
#
# Poissons Ratio (x) = 0.07792 0.00921
# Poissons Ratio (y) = 0.73585 -0.00599
# Poissons Ratio (z) = 0.03320 -0.00228
#
# Static dielectric constant tensor:
#      x y z
#    x 2.106140 0.000000 0.000000 
#    y 0.000000 1.884510 0.000000 
#    z 0.000000 0.000000 1.938830 
# 
# From -- ./inp_files/12529.got.cif
#   From: 2010.05.17/outbox.cif.g08.bks.cpg/sg35_7_cif.got.tgz:12529.got - 2010.06.03 17:29:28.
