data_PCOD9350090
_publ_section_title
;
Structure prediction by ZEFSAII (Michael W. Deem and Ramdas Pophale) SiO2 
 PCOD9350090
Probable space group: C M M 2
;
_chemical_formula_sum "Si O2"
_cell_formula_units_Z 40
_cell_length_a 29.748314
_cell_length_b 8.650037
_cell_length_c 7.926786
_cell_angle_alpha 90.000000
_cell_angle_beta 90.000000
_cell_angle_gamma 90.000000
_cell_volume 2039.752414
_symmetry_space_group_name_H-M "C M M 2"
_symmetry_group_IT_number 35
_symmetry_cell_setting 'orthorhombic'
loop_
_space_group_symop_operation_xyz
x,y,z
-x,-y,z
-x,y,z
x,-y,z
1/2+x,1/2+y,z
1/2-x,1/2-y,z
1/2-x,1/2+y,z
1/2+x,1/2-y,z
loop_
_atom_site_type_symbol
_atom_site_label
_atom_site_fract_x
_atom_site_fract_y
_atom_site_fract_z
Si Si1 0.645458 0.314600 0.923640
Si Si2 0.800137 0.314353 0.239980
Si Si3 0.142913 0.315996 0.568162
Si Si4 0.549171 0.686862 0.046461
Si Si5 0.949605 0.814529 0.447599
O O1 0.645840 0.500000 0.933380
O O2 0.660188 0.260734 0.739402
O O3 0.675844 0.248107 0.072468
O O4 0.593984 0.258337 0.954449
O O5 0.799275 0.500000 0.234617
O O6 0.750000 0.250000 0.252045
O O7 0.829108 0.265782 0.403534
O O8 0.146092 0.500000 0.582547
O O9 0.091319 0.266665 0.539406
O O10 0.500000 0.744632 0.989698
O O11 0.548295 0.500000 0.029030
O O12 0.553531 0.718096 0.246757
O O13 0.000000 0.770492 0.503291
O O14 0.945375 0.000000 0.469264
#
# Coordination Sequence:
#
# PCOD9350090 Si02
#       5
#     8   8   8   8   8
#     4  11  22  38  65  94 124 161 204 252 300 359
#     4  11  25  45  67  89 118 156 199 253 311 368
#     4  11  24  40  60  90 129 164 200 249 304 366
#     4   8  15  30  55  87 120 156 201 248 291 344
#     4   9  17  33  59  88 120 161 209 253 295 354
#
# _framework density 19.610223999999999
#
# number of rings (size 3 to 8) (size 9 to 14) (size 15 to 20)
#    0.000    2.000    2.000    3.000    0.000    4.400 
#    0.000    4.000    0.000    1.800    0.000    0.000 
#    0.000    0.000    0.000    0.000    0.000    0.000 
#
# Total GULP energy -111716.405333 kJ/mol
# GULP energy per Si atom -5585.820267 kJ/mol
# Density = 1.956559 g / cm^3
# Si number density = 19.610224 Si / 1000 Ang^3
#
#
#
# Elastic Constant Matrix: (Units=GPa)
#
#
# Indices 1 2 3 4 5 6 
#
# 1 130.8250 36.6746 76.6615 0.0000 0.0000 0.0000
# 2 36.6746 41.2649 44.5274 0.0000 0.0000 0.0000
# 3 76.6615 44.5274 135.3469 0.0000 0.0000 0.0000
# 4 0.0000 0.0000 0.0000 28.8002 0.0000 0.0000
# 5 0.0000 0.0000 0.0000 0.0000 -5.1752 0.0000
# 6 0.0000 0.0000 0.0000 0.0000 0.0000 23.8589
#
#
#
# Elastic Compliance Matrix: (Units=1/GPa)
#
#
# Indices 1 2 3 4 5 6 
#
# 1 0.012125 -0.005218 -0.005151 0.000000 0.000000 0.000000
# 2 -0.005218 0.039817 -0.010144 0.000000 0.000000 0.000000
# 3 -0.005151 -0.010144 0.013643 0.000000 0.000000 0.000000
# 4 0.000000 0.000000 0.000000 0.034722 0.000000 0.000000
# 5 0.000000 0.000000 0.000000 0.000000 -0.193229 0.000000
# 6 0.000000 0.000000 0.000000 0.000000 0.000000 0.041913
#
#
# Mechanical properties :
#
#
# Convention : Reuss Voigt Hill
#
# Bulk Modulus (GPa) = 40.71725 69.24041 54.97883
# Shear Modulus (GPa) = -2782.87805 19.46832 -1381.70486
#
# Velocity S-wave (km/s) = -37.71175 3.15423 -26.57280
# Velocity P-wave (km/s) = 43.30620 6.97500 30.22231
#
# Compressibility (1/GPa) = 0.02455962
#
# Stress axis : x y z
#
# Youngs Moduli (GPa) = 82.47427 25.11492 73.29659
#
# Poissons Ratio (x) = 0.13105 0.37756
# Poissons Ratio (y) = 0.43034 0.74351
# Poissons Ratio (z) = 0.42483 0.25476
#
# Static dielectric constant tensor:
#      x y z
#    x 1.687600 0.000000 0.000000 
#    y 0.000000 1.660900 0.000000 
#    z 0.000000 0.000000 1.686430 
# 
# From -- ./inp_files/4982.got.cif
#   From: 2010.05.17/outbox.cif.g08.bks.cpg/sg35_3_cif.got.tgz:4982.got - 2010.06.03 17:29:28.
