data_PCOD9350750
_publ_section_title
;
Structure prediction by ZEFSAII (Michael W. Deem and Ramdas Pophale) SiO2 
 PCOD9350750
Probable space group: C M C 21
;
_chemical_formula_sum "Si O2"
_cell_formula_units_Z 60
_cell_length_a 16.243010
_cell_length_b 22.859982
_cell_length_c 7.441013
_cell_angle_alpha 90.000000
_cell_angle_beta 90.000000
_cell_angle_gamma 90.000000
_cell_volume 2762.959119
_symmetry_space_group_name_H-M "C M C 21"
_symmetry_group_IT_number 36
_symmetry_cell_setting 'orthorhombic'
loop_
_space_group_symop_operation_xyz
x,y,z
-x,-y,1/2+z
x,-y,1/2+z
-x,y,z
1/2+x,1/2+y,z
1/2-x,1/2-y,1/2+z
1/2+x,1/2-y,1/2+z
1/2-x,1/2+y,z
loop_
_atom_site_type_symbol
_atom_site_label
_atom_site_fract_x
_atom_site_fract_y
_atom_site_fract_z
Si Si1 0.090499 0.073423 0.065420
Si Si2 0.313049 0.481574 0.260217
Si Si3 0.629728 0.337729 0.856063
Si Si4 0.322151 0.789450 0.434286
Si Si5 0.500000 0.668296 0.663696
Si Si6 0.403964 0.150269 0.618557
Si Si7 0.727906 0.081098 0.438201
Si Si8 0.640537 0.250056 0.333699
O O1 0.098804 0.132999 0.174071
O O2 0.000000 0.071060 0.981135
O O3 0.107957 0.021685 0.209653
O O4 0.160447 0.060147 0.921455
O O5 0.240821 0.528694 0.298317
O O6 0.283691 0.442679 0.099161
O O7 0.631216 0.268235 0.858671
O O8 0.571636 0.355783 0.021405
O O9 0.722616 0.361275 0.877807
O O10 0.342098 0.786097 0.646568
O O11 0.225706 0.780122 0.396204
O O12 0.357046 0.840703 0.308739
O O13 0.427430 0.701893 0.781346
O O14 0.500000 0.142125 0.649073
O O15 0.360729 0.097811 0.509485
O O16 0.389319 0.206420 0.489399
#
# Coordination Sequence:
#
# PCOD9350750 Si02
#       8
#     8   8   8   8   4   8   8   8
#     4  10  18  34  57  91 122 164 210 259 319 383
#     4   9  21  38  64  83 122 163 207 274 328 383
#     4  10  20  36  60  84 132 167 203 257 309 384
#     4  11  23  40  62  93 132 176 211 257 312 384
#     4  10  20  36  56  88 130 170 204 254 302 366
#     4  12  25  42  67  97 126 168 223 271 317 384
#     4  10  21  45  63  91 120 163 214 264 331 387
#     4  11  21  39  63  87 129 174 216 255 312 372
#
# _framework density 21.715848999999999
#
# number of rings (size 3 to 8) (size 9 to 14) (size 15 to 20)
#    0.000    1.600    4.000    1.200    3.733    1.067 
#    9.600    0.667    0.000    0.000    0.000    0.000 
#    0.000    0.000    0.000    0.000    0.000    0.000 
#
# Total GULP energy -167107.546178 kJ/mol
# GULP energy per Si atom -5570.251539 kJ/mol
# Density = 2.166642 g / cm^3
# Si number density = 21.715849 Si / 1000 Ang^3
#
#
#
# Elastic Constant Matrix: (Units=GPa)
#
#
# Indices 1 2 3 4 5 6 
#
# 1 105.9870 -1.3649 -7.6142 0.0000 0.0000 0.0000
# 2 -1.3649 32.0305 1.5937 0.0000 0.0000 0.0000
# 3 -7.6142 1.5937 67.4146 0.0000 0.0000 0.0000
# 4 0.0000 0.0000 0.0000 23.8620 0.0000 0.0000
# 5 0.0000 0.0000 0.0000 0.0000 18.0345 0.0000
# 6 0.0000 0.0000 0.0000 0.0000 0.0000 9.7690
#
#
#
# Elastic Compliance Matrix: (Units=1/GPa)
#
#
# Indices 1 2 3 4 5 6 
#
# 1 0.009516 0.000352 0.001066 0.000000 0.000000 0.000000
# 2 0.000352 0.031270 -0.000699 0.000000 0.000000 0.000000
# 3 0.001066 -0.000699 0.014971 0.000000 0.000000 0.000000
# 4 0.000000 0.000000 0.000000 0.041908 0.000000 0.000000
# 5 0.000000 0.000000 0.000000 0.000000 0.055449 0.000000
# 6 0.000000 0.000000 0.000000 0.000000 0.000000 0.102365
#
#
# Mechanical properties :
#
#
# Convention : Reuss Voigt Hill
#
# Bulk Modulus (GPa) = 17.48378 21.18460 19.33419
# Shear Modulus (GPa) = 18.30801 24.52095 21.41448
#
# Velocity S-wave (km/s) = 2.90672 3.36396 3.14367
# Velocity P-wave (km/s) = 4.39704 4.98647 4.70100
#
# Compressibility (1/GPa) = 0.05719587
#
# Stress axis : x y z
#
# Youngs Moduli (GPa) = 105.08317 31.97950 66.79773
#
# Poissons Ratio (x) = -0.01127 -0.07124
# Poissons Ratio (y) = -0.03704 0.04672
# Poissons Ratio (z) = -0.11207 0.02237
#
# Static dielectric constant tensor:
#      x y z
#    x 1.761280 0.000000 0.000000 
#    y 0.000000 1.846370 0.000000 
#    z 0.000000 0.000000 1.874000 
# 
# From -- ./inp_files/4312.got.cif
#   From: 2010.05.17/outbox.cif.g08.bks.cpg/sg36_3_cif.got.tgz:4312.got - 2010.06.03 17:41:39.
