data_PCOD9350863
_publ_section_title
;
Structure prediction by ZEFSAII (Michael W. Deem and Ramdas Pophale) SiO2 
 PCOD9350863
Probable space group: C M C 21
;
_chemical_formula_sum "Si O2"
_cell_formula_units_Z 48
_cell_length_a 25.357663
_cell_length_b 14.024860
_cell_length_c 8.784730
_cell_angle_alpha 90.000000
_cell_angle_beta 90.000000
_cell_angle_gamma 90.000000
_cell_volume 3124.180940
_symmetry_space_group_name_H-M "C M C 21"
_symmetry_group_IT_number 36
_symmetry_cell_setting 'orthorhombic'
loop_
_space_group_symop_operation_xyz
x,y,z
-x,-y,1/2+z
x,-y,1/2+z
-x,y,z
1/2+x,1/2+y,z
1/2-x,1/2-y,1/2+z
1/2+x,1/2-y,1/2+z
1/2-x,1/2+y,z
loop_
_atom_site_type_symbol
_atom_site_label
_atom_site_fract_x
_atom_site_fract_y
_atom_site_fract_z
Si Si1 0.560241 0.367371 0.363500
Si Si2 0.157120 0.869241 0.815164
Si Si3 0.060726 0.068943 0.513951
Si Si4 0.659507 0.281398 0.489330
Si Si5 0.778415 0.053508 0.816798
Si Si6 0.259525 0.116807 0.493037
O O1 0.500000 0.334062 0.379442
O O2 0.568079 0.456747 0.478172
O O3 0.566607 0.406680 0.191652
O O4 0.604060 0.290088 0.403255
O O5 0.151574 0.805727 0.666575
O O6 0.175908 0.977097 0.769199
O O7 0.104460 0.877530 0.914247
O O8 0.206872 0.836599 0.918049
O O9 0.000000 0.091229 0.469427
O O10 0.695715 0.365921 0.420331
O O11 0.690665 0.183427 0.469030
O O12 0.752602 0.098792 0.669107
O O13 0.738659 0.986196 0.911058
#
# Coordination Sequence:
#
# PCOD9350863 Si02
#       6
#     8   8   8   8   8   8
#     4  10  20  31  46  70 100 131 170 207 242 301
#     4  10  19  32  46  70 100 135 163 204 236 291
#     4  10  19  31  48  69  99 141 168 194 250 303
#     4  12  20  32  52  73  98 137 169 202 251 298
#     4  10  19  35  46  69 104 127 168 205 245 289
#     4  10  21  33  51  71  98 137 166 206 254 296
#
# _framework density 15.364027
#
# number of rings (size 3 to 8) (size 9 to 14) (size 15 to 20)
#    1.000    0.667    3.333    3.000    0.000    2.000 
#    0.000    0.000    0.000    0.000    0.000    1.167 
#    0.000    1.333    0.000    0.000    0.000    0.000 
#
# Total GULP energy -133758.871944 kJ/mol
# GULP energy per Si atom -5573.286331 kJ/mol
# Density = 1.532906 g / cm^3
# Si number density = 15.364027 Si / 1000 Ang^3
#
#
#
# Elastic Constant Matrix: (Units=GPa)
#
#
# Indices 1 2 3 4 5 6 
#
# 1 121.3940 43.6378 47.8753 0.0000 0.0000 0.0000
# 2 43.6378 39.5980 23.1729 0.0000 0.0000 0.0000
# 3 47.8753 23.1729 72.1966 0.0000 0.0000 0.0000
# 4 0.0000 0.0000 0.0000 9.4021 0.0000 0.0000
# 5 0.0000 0.0000 0.0000 0.0000 24.9117 0.0000
# 6 0.0000 0.0000 0.0000 0.0000 0.0000 29.8887
#
#
#
# Elastic Compliance Matrix: (Units=1/GPa)
#
#
# Indices 1 2 3 4 5 6 
#
# 1 0.015434 -0.013567 -0.005880 0.000000 0.000000 0.000000
# 2 -0.013567 0.043021 -0.004812 0.000000 0.000000 0.000000
# 3 -0.005880 -0.004812 0.019294 0.000000 0.000000 0.000000
# 4 0.000000 0.000000 0.000000 0.106359 0.000000 0.000000
# 5 0.000000 0.000000 0.000000 0.000000 0.040142 0.000000
# 6 0.000000 0.000000 0.000000 0.000000 0.000000 0.033458
#
#
# Mechanical properties :
#
#
# Convention : Reuss Voigt Hill
#
# Bulk Modulus (GPa) = 34.20932 51.39563 42.80248
# Shear Modulus (GPa) = 15.82437 20.74066 18.28252
#
# Velocity S-wave (km/s) = 3.21278 3.67815 3.45332
# Velocity P-wave (km/s) = 6.00640 7.18073 6.61966
#
# Compressibility (1/GPa) = 0.02923180
#
# Stress axis : x y z
#
# Youngs Moduli (GPa) = 64.79406 23.24444 51.82849
#
# Poissons Ratio (x) = 0.31536 0.30473
# Poissons Ratio (y) = 0.87908 0.24938
# Poissons Ratio (z) = 0.38097 0.11184
#
# Static dielectric constant tensor:
#      x y z
#    x 1.523410 0.000000 0.000000 
#    y 0.000000 1.489240 0.000000 
#    z 0.000000 0.000000 1.522390 
# 
# From -- ./inp_files/5591.got.cif
#   From: 2010.05.17/outbox.cif.g08.bks.cpg/sg36_3_cif.got.tgz:5591.got - 2010.06.03 17:41:39.
