data_PCOD9350698
_publ_section_title
;
Structure prediction by ZEFSAII (Michael W. Deem and Ramdas Pophale) SiO2 
 PCOD9350698
Probable space group: C M C 21
;
_chemical_formula_sum "Si O2"
_cell_formula_units_Z 48
_cell_length_a 8.557550
_cell_length_b 18.881088
_cell_length_c 11.618925
_cell_angle_alpha 90.000000
_cell_angle_beta 90.000000
_cell_angle_gamma 90.000000
_cell_volume 1877.337737
_symmetry_space_group_name_H-M "C M C 21"
_symmetry_group_IT_number 36
_symmetry_cell_setting 'orthorhombic'
loop_
_space_group_symop_operation_xyz
x,y,z
-x,-y,1/2+z
x,-y,1/2+z
-x,y,z
1/2+x,1/2+y,z
1/2-x,1/2-y,1/2+z
1/2+x,1/2-y,1/2+z
1/2-x,1/2+y,z
loop_
_atom_site_type_symbol
_atom_site_label
_atom_site_fract_x
_atom_site_fract_y
_atom_site_fract_z
Si Si1 0.000000 0.210613 0.104231
Si Si2 0.000000 0.691011 0.383361
Si Si3 0.000000 0.437316 0.061896
Si Si4 0.672524 0.447149 0.817717
Si Si5 0.670166 0.844022 0.672009
Si Si6 0.000000 0.666861 0.784750
Si Si7 0.325070 0.615159 0.813486
Si Si8 0.331510 0.561412 0.565338
O O1 0.829987 0.173110 0.107497
O O2 0.000000 0.258347 0.220301
O O3 0.000000 0.259802 0.992832
O O4 0.000000 0.613976 0.448734
O O5 0.858663 0.701205 0.290962
O O6 0.164596 0.477022 0.063041
O O7 0.000000 0.390496 0.178562
O O8 0.500000 0.435003 0.767929
O O9 0.801003 0.419450 0.732236
O O10 0.687674 0.530868 0.840115
O O11 0.669732 0.406110 0.938526
O O12 0.500000 0.839895 0.613097
O O13 0.835505 0.652524 0.848606
O O14 0.500000 0.637018 0.852065
O O15 0.329430 0.614910 0.672470
O O16 0.500000 0.523465 0.572072
#
# Coordination Sequence:
#
# PCOD9350698 Si02
#       8
#     4   4   4   8   8   4   8   8
#     4  11  22  42  60  87 127 151 204 266 299 353
#     4   9  20  37  59  86 112 155 201 260 303 343
#     4   9  14  29  48  78  99 128 181 240 276 314
#     4  10  18  32  58  84 115 148 191 250 291 344
#     4  10  21  37  60  90 114 156 207 251 308 357
#     4   9  20  32  55  77 108 154 184 230 292 346
#     4   9  19  32  50  81 116 144 184 233 295 352
#     4   9  16  27  46  73 106 138 179 227 280 332
#
# _framework density 25.568121000000001
#
# number of rings (size 3 to 8) (size 9 to 14) (size 15 to 20)
#    0.500    2.000    2.500    0.000    1.167    0.667 
#    1.500    1.667    3.667    0.000    0.000    0.000 
#    0.000    0.000    0.000    0.000    0.000    0.000 
#
# Total GULP energy -133601.464717 kJ/mol
# GULP energy per Si atom -5566.727697 kJ/mol
# Density = 2.550993 g / cm^3
# Si number density = 25.568121 Si / 1000 Ang^3
#
#
#
# Elastic Constant Matrix: (Units=GPa)
#
#
# Indices 1 2 3 4 5 6 
#
# 1 277.3700 25.2073 41.3246 0.0000 0.0000 0.0000
# 2 25.2073 21.1624 15.1375 0.0000 0.0000 0.0000
# 3 41.3246 15.1375 72.6455 0.0000 0.0000 0.0000
# 4 0.0000 0.0000 0.0000 4.7312 0.0000 0.0000
# 5 0.0000 0.0000 0.0000 0.0000 25.6106 0.0000
# 6 0.0000 0.0000 0.0000 0.0000 0.0000 -9.8901
#
#
#
# Elastic Compliance Matrix: (Units=1/GPa)
#
#
# Indices 1 2 3 4 5 6 
#
# 1 0.004192 -0.003863 -0.001579 0.000000 0.000000 0.000000
# 2 -0.003863 0.059091 -0.010116 0.000000 0.000000 0.000000
# 3 -0.001579 -0.010116 0.016772 0.000000 0.000000 0.000000
# 4 0.000000 0.000000 0.000000 0.211362 0.000000 0.000000
# 5 0.000000 0.000000 0.000000 0.000000 0.039046 0.000000
# 6 0.000000 0.000000 0.000000 0.000000 0.000000 -0.101111
#
#
# Mechanical properties :
#
#
# Convention : Reuss Voigt Hill
#
# Bulk Modulus (GPa) = 20.43401 59.39076 39.91238
# Shear Modulus (GPa) = 18.06486 23.39092 20.72789
#
# Velocity S-wave (km/s) = 2.66096 3.02793 2.85036
# Velocity P-wave (km/s) = 4.17736 5.95847 5.14556
#
# Compressibility (1/GPa) = 0.04893803
#
# Stress axis : x y z
#
# Youngs Moduli (GPa) = 238.56730 16.92313 59.62389
#
# Poissons Ratio (x) = 0.06538 0.09418
# Poissons Ratio (y) = 0.92160 0.60313
# Poissons Ratio (z) = 0.37681 0.17119
#
# Static dielectric constant tensor:
#      x y z
#    x 2.086210 0.000000 0.000000 
#    y 0.000000 2.020110 0.000000 
#    z 0.000000 0.000000 2.015340 
# 
# From -- ./inp_files/10499.got.cif
#   From: 2010.05.17/outbox.cif.g08.bks.cpg/sg36_6_cif.got.tgz:10499.got - 2010.06.03 17:41:39.
