data_PCOD9350494
_publ_section_title
;
Structure prediction by ZEFSAII (Michael W. Deem and Ramdas Pophale) SiO2 
 PCOD9350494
Probable space group: C M C 21
;
_chemical_formula_sum "Si O2"
_cell_formula_units_Z 64
_cell_length_a 7.450383
_cell_length_b 21.124354
_cell_length_c 20.210193
_cell_angle_alpha 90.000000
_cell_angle_beta 90.000000
_cell_angle_gamma 90.000000
_cell_volume 3180.771685
_symmetry_space_group_name_H-M "C M C 21"
_symmetry_group_IT_number 36
_symmetry_cell_setting 'orthorhombic'
loop_
_space_group_symop_operation_xyz
x,y,z
-x,-y,1/2+z
x,-y,1/2+z
-x,y,z
1/2+x,1/2+y,z
1/2-x,1/2-y,1/2+z
1/2+x,1/2-y,1/2+z
1/2-x,1/2+y,z
loop_
_atom_site_type_symbol
_atom_site_label
_atom_site_fract_x
_atom_site_fract_y
_atom_site_fract_z
Si Si1 0.211026 0.868587 0.109070
Si Si2 0.718788 0.565464 0.971808
Si Si3 0.281550 0.361770 0.254830
Si Si4 0.779829 0.190272 0.892542
Si Si5 0.719246 0.512806 0.107743
Si Si6 0.207603 0.311830 0.970499
Si Si7 0.718153 0.490512 0.755439
Si Si8 0.282920 0.439936 0.892745
O O1 0.280351 0.844997 0.180375
O O2 0.000000 0.877513 0.119616
O O3 0.279032 0.940013 0.095200
O O4 0.228450 0.825359 0.044896
O O5 0.500000 0.565853 0.970875
O O6 0.775123 0.628791 0.934722
O O7 0.774749 0.502415 0.932626
O O8 0.777305 0.557036 0.047639
O O9 0.500000 0.359331 0.256233
O O10 0.220277 0.320091 0.316748
O O11 0.232290 0.435688 0.265622
O O12 0.714487 0.253469 0.928954
O O13 0.000000 0.191320 0.891115
O O14 0.500000 0.513371 0.106909
O O15 0.776256 0.529627 0.182110
O O16 0.226368 0.376216 0.928869
O O17 0.000000 0.297027 0.978585
O O18 0.500000 0.489609 0.755563
O O19 0.778095 0.448603 0.817124
O O20 0.500000 0.439892 0.893474
#
# Coordination Sequence:
#
# PCOD9350494 Si02
#       8
#     8   8   8   8   8   8   8   8
#     4   9  16  29  51  74  92 117 160 206 240 275
#     4   9  14  24  46  72  93 114 153 205 242 271
#     4   8  13  25  48  74  93 113 155 208 244 273
#     4   9  17  29  44  68  98 128 159 193 235 283
#     4   8  13  22  42  75  99 110 140 200 253 274
#     4  11  22  32  44  68 105 138 158 183 231 295
#     4   8  13  22  42  73  98 111 142 201 250 272
#     4  10  17  29  51  74  92 117 159 206 241 271
#
# _framework density 20.120902999999998
#
# number of rings (size 3 to 8) (size 9 to 14) (size 15 to 20)
#    0.000    3.000    2.500    1.875    0.000    0.000 
#    0.000    1.250    0.000    7.500    0.000    0.000 
#    0.000    0.000    0.000    0.000    0.000    0.000 
#
# Total GULP energy -178414.240252 kJ/mol
# GULP energy per Si atom -5575.445008 kJ/mol
# Density = 2.007511 g / cm^3
# Si number density = 20.120903 Si / 1000 Ang^3
#
#
#
# Elastic Constant Matrix: (Units=GPa)
#
#
# Indices 1 2 3 4 5 6 
#
# 1 51.9618 -7.4380 -2.9147 0.0000 0.0000 0.0000
# 2 -7.4380 102.7389 80.0532 0.0000 0.0000 0.0000
# 3 -2.9147 80.0532 207.0251 0.0000 0.0000 0.0000
# 4 0.0000 0.0000 0.0000 28.4103 0.0000 0.0000
# 5 0.0000 0.0000 0.0000 0.0000 -1.8951 0.0000
# 6 0.0000 0.0000 0.0000 0.0000 0.0000 4.6721
#
#
#
# Elastic Compliance Matrix: (Units=1/GPa)
#
#
# Indices 1 2 3 4 5 6 
#
# 1 0.019468 0.001712 -0.000388 0.000000 0.000000 0.000000
# 2 0.001712 0.014081 -0.005421 0.000000 0.000000 0.000000
# 3 -0.000388 -0.005421 0.006921 0.000000 0.000000 0.000000
# 4 0.000000 0.000000 0.000000 0.035198 0.000000 0.000000
# 5 0.000000 0.000000 0.000000 0.000000 -0.527683 0.000000
# 6 0.000000 0.000000 0.000000 0.000000 0.000000 0.214038
#
#
# Mechanical properties :
#
#
# Convention : Reuss Voigt Hill
#
# Bulk Modulus (GPa) = 30.98252 55.68078 43.33165
# Shear Modulus (GPa) = -22.82864 25.70580 1.43858
#
# Velocity S-wave (km/s) = -3.37200 3.57818 0.84648
# Velocity P-wave (km/s) = 0.52069 6.69361 4.74739
#
# Compressibility (1/GPa) = 0.03227626
#
# Stress axis : x y z
#
# Youngs Moduli (GPa) = 51.36598 71.01650 144.48687
#
# Poissons Ratio (x) = -0.12155 0.05602
# Poissons Ratio (y) = -0.08792 0.78325
# Poissons Ratio (z) = 0.01992 0.38497
#
# Static dielectric constant tensor:
#      x y z
#    x 1.781950 0.000000 0.000000 
#    y 0.000000 1.670370 0.000000 
#    z 0.000000 0.000000 1.743280 
# 
# From -- ./inp_files/15700.got.cif
#   From: 2010.05.17/outbox.cif.g08.bks.cpg/sg36_8_cif.got.tgz:15700.got - 2010.06.03 17:41:39.
