data_PCOD9350920
_publ_section_title
;
Structure prediction by ZEFSAII (Michael W. Deem and Ramdas Pophale) SiO2 
 PCOD9350920
Probable space group: C M C 21
;
_chemical_formula_sum "Si O2"
_cell_formula_units_Z 64
_cell_length_a 9.040109
_cell_length_b 20.900450
_cell_length_c 19.637379
_cell_angle_alpha 90.000000
_cell_angle_beta 90.000000
_cell_angle_gamma 90.000000
_cell_volume 3710.332460
_symmetry_space_group_name_H-M "C M C 21"
_symmetry_group_IT_number 36
_symmetry_cell_setting 'orthorhombic'
loop_
_space_group_symop_operation_xyz
x,y,z
-x,-y,1/2+z
x,-y,1/2+z
-x,y,z
1/2+x,1/2+y,z
1/2-x,1/2-y,1/2+z
1/2+x,1/2-y,1/2+z
1/2-x,1/2+y,z
loop_
_atom_site_type_symbol
_atom_site_label
_atom_site_fract_x
_atom_site_fract_y
_atom_site_fract_z
Si Si1 0.177022 0.614572 0.859950
Si Si2 0.675736 0.687062 0.484441
Si Si3 0.323358 0.435073 0.491074
Si Si4 0.322307 0.436511 0.072785
Si Si5 0.824482 0.681976 0.068245
Si Si6 0.676401 0.886524 0.203757
Si Si7 0.175271 0.746252 0.359988
Si Si8 0.324084 0.751717 0.703880
O O1 0.247269 0.569990 0.917356
O O2 0.212733 0.595603 0.782049
O O3 0.242761 0.685855 0.870477
O O4 0.000000 0.617244 0.867559
O O5 0.500000 0.682171 0.471001
O O6 0.720968 0.625550 0.528204
O O7 0.699690 0.751464 0.528243
O O8 0.762105 0.696551 0.414297
O O9 0.500000 0.432394 0.483050
O O10 0.284534 0.499492 0.531699
O O11 0.266689 0.374392 0.534071
O O12 0.500000 0.434174 0.081577
O O13 0.247185 0.430860 0.146269
O O14 0.784517 0.696951 0.146464
O O15 0.000000 0.667157 0.063834
O O16 0.500000 0.885799 0.197118
O O17 0.739304 0.814858 0.193137
O O18 0.201479 0.727026 0.281461
O O19 0.000000 0.755532 0.369451
O O20 0.500000 0.738448 0.695705
#
# Coordination Sequence:
#
# PCOD9350920 Si02
#       8
#     8   8   8   8   8   8   8   8
#     4  10  20  35  54  79 111 144 178 218 271 326
#     4  10  19  34  56  78 106 143 178 215 271 326
#     4  11  23  37  56  82 110 144 186 226 265 317
#     4  10  22  40  57  77 109 148 184 220 269 326
#     4  10  19  34  57  79 107 143 177 218 273 325
#     4  10  20  33  55  84 108 137 180 227 269 316
#     4  10  19  31  53  83 110 137 180 229 269 315
#     4   9  18  34  54  78 109 146 179 217 273 327
#
# _framework density 17.249127999999999
#
# number of rings (size 3 to 8) (size 9 to 14) (size 15 to 20)
#    0.000    2.000    2.500    1.500    0.000    4.000 
#    0.000    1.250    0.000    6.000    0.000    0.000 
#    0.000    0.000    0.000    0.000    0.000    0.000 
#
# Total GULP energy -178604.424130 kJ/mol
# GULP energy per Si atom -5581.388254 kJ/mol
# Density = 1.720987 g / cm^3
# Si number density = 17.249128 Si / 1000 Ang^3
#
#
#
# Elastic Constant Matrix: (Units=GPa)
#
#
# Indices 1 2 3 4 5 6 
#
# 1 50.8808 45.0236 65.8324 0.0000 0.0000 0.0000
# 2 45.0236 87.4987 67.1592 0.0000 0.0000 0.0000
# 3 65.8324 67.1592 157.6807 0.0000 0.0000 0.0000
# 4 0.0000 0.0000 0.0000 28.1304 0.0000 0.0000
# 5 0.0000 0.0000 0.0000 0.0000 32.0191 0.0000
# 6 0.0000 0.0000 0.0000 0.0000 0.0000 21.3048
#
#
#
# Elastic Compliance Matrix: (Units=1/GPa)
#
#
# Indices 1 2 3 4 5 6 
#
# 1 0.054062 -0.015591 -0.015931 0.000000 0.000000 0.000000
# 2 -0.015591 0.021476 -0.002638 0.000000 0.000000 0.000000
# 3 -0.015931 -0.002638 0.014117 0.000000 0.000000 0.000000
# 4 0.000000 0.000000 0.000000 0.035549 0.000000 0.000000
# 5 0.000000 0.000000 0.000000 0.000000 0.031231 0.000000
# 6 0.000000 0.000000 0.000000 0.000000 0.000000 0.046938
#
#
# Mechanical properties :
#
#
# Convention : Reuss Voigt Hill
#
# Bulk Modulus (GPa) = 46.86953 72.45454 59.66203
# Shear Modulus (GPa) = 17.93388 24.16053 21.04720
#
# Velocity S-wave (km/s) = 3.22793 3.74663 3.49691
# Velocity P-wave (km/s) = 6.41279 7.79822 7.13919
#
# Compressibility (1/GPa) = 0.02133582
#
# Stress axis : x y z
#
# Youngs Moduli (GPa) = 18.49736 46.56422 70.83902
#
# Poissons Ratio (x) = 0.72597 1.12851
# Poissons Ratio (y) = 0.28839 0.18685
# Poissons Ratio (z) = 0.29468 0.12282
#
# Static dielectric constant tensor:
#      x y z
#    x 1.576970 0.000000 0.000000 
#    y 0.000000 1.552200 0.000000 
#    z 0.000000 0.000000 1.607700 
# 
# From -- ./inp_files/15653.got.cif
#   From: 2010.05.17/outbox.cif.g08.bks.cpg/sg36_8_cif.got.tgz:15653.got - 2010.06.03 17:41:39.
