data_PCOD9350913
_publ_section_title
;
Structure prediction by ZEFSAII (Michael W. Deem and Ramdas Pophale) SiO2 
 PCOD9350913
Probable space group: C M C 21
;
_chemical_formula_sum "Si O2"
_cell_formula_units_Z 64
_cell_length_a 9.327296
_cell_length_b 23.278302
_cell_length_c 16.383554
_cell_angle_alpha 90.000000
_cell_angle_beta 90.000000
_cell_angle_gamma 90.000000
_cell_volume 3557.256440
_symmetry_space_group_name_H-M "C M C 21"
_symmetry_group_IT_number 36
_symmetry_cell_setting 'orthorhombic'
loop_
_space_group_symop_operation_xyz
x,y,z
-x,-y,1/2+z
x,-y,1/2+z
-x,y,z
1/2+x,1/2+y,z
1/2-x,1/2-y,1/2+z
1/2+x,1/2-y,1/2+z
1/2-x,1/2+y,z
loop_
_atom_site_type_symbol
_atom_site_label
_atom_site_fract_x
_atom_site_fract_y
_atom_site_fract_z
Si Si1 0.172516 0.714394 0.823600
Si Si2 0.173717 0.594689 0.147487
Si Si3 0.663570 0.939718 0.913673
Si Si4 0.828140 0.634918 0.974363
Si Si5 0.829849 0.334626 0.808833
Si Si6 0.660382 0.541578 0.875919
Si Si7 0.330988 0.964162 0.105719
Si Si8 0.836205 0.121678 0.718107
O O1 0.211351 0.686331 0.912344
O O2 0.237877 0.777390 0.815225
O O3 0.244461 0.674253 0.754397
O O4 0.000000 0.713885 0.816438
O O5 0.214316 0.625764 0.231503
O O6 0.219237 0.528259 0.132774
O O7 0.000000 0.592215 0.147722
O O8 0.216684 0.633443 0.069031
O O9 0.500000 0.953869 0.888809
O O10 0.686533 0.873980 0.889215
O O11 0.772228 0.979535 0.864963
O O12 0.679545 0.954988 0.008526
O O13 0.761667 0.577871 0.935243
O O14 0.000000 0.630727 0.972312
O O15 0.000000 0.320872 0.799759
O O16 0.500000 0.538174 0.909606
O O17 0.657053 0.576267 0.792249
O O18 0.500000 0.959377 0.127864
O O19 0.242244 0.913300 0.147303
O O20 0.000000 0.138710 0.697828
#
# Coordination Sequence:
#
# PCOD9350913 Si02
#       8
#     8   8   8   8   8   8   8   8
#     4  10  21  38  59  79 106 146 193 233 273 330
#     4   9  17  33  58  84 110 143 184 227 272 332
#     4  10  20  35  56  80 113 153 184 221 274 337
#     4   9  17  34  58  80 105 142 186 228 270 326
#     4  10  21  37  57  81 112 149 188 229 279 330
#     4  10  19  31  52  82 113 142 176 222 279 333
#     4  10  19  34  57  85 114 143 185 228 272 335
#     4  10  21  36  55  81 111 144 182 230 283 329
#
# _framework density 17.991392000000001
#
# number of rings (size 3 to 8) (size 9 to 14) (size 15 to 20)
#    0.000    2.250    1.250    1.875    0.000    4.000 
#    2.250    1.250    0.000    0.000    0.000    0.000 
#    0.000    0.000    0.000    0.000    0.000    0.000 
#
# Total GULP energy -178371.830759 kJ/mol
# GULP energy per Si atom -5574.119711 kJ/mol
# Density = 1.795044 g / cm^3
# Si number density = 17.991392 Si / 1000 Ang^3
#
#
#
# Elastic Constant Matrix: (Units=GPa)
#
#
# Indices 1 2 3 4 5 6 
#
# 1 40.8372 48.8252 25.4543 0.0000 0.0000 0.0000
# 2 48.8252 120.5910 40.3862 0.0000 0.0000 0.0000
# 3 25.4543 40.3862 57.3329 0.0000 0.0000 0.0000
# 4 0.0000 0.0000 0.0000 21.4267 0.0000 0.0000
# 5 0.0000 0.0000 0.0000 0.0000 14.1505 0.0000
# 6 0.0000 0.0000 0.0000 0.0000 0.0000 33.5080
#
#
#
# Elastic Compliance Matrix: (Units=1/GPa)
#
#
# Indices 1 2 3 4 5 6 
#
# 1 0.052145 -0.017484 -0.010835 0.000000 0.000000 0.000000
# 2 -0.017484 0.016715 -0.004012 0.000000 0.000000 0.000000
# 3 -0.010835 -0.004012 0.025079 0.000000 0.000000 0.000000
# 4 0.000000 0.000000 0.000000 0.046671 0.000000 0.000000
# 5 0.000000 0.000000 0.000000 0.000000 0.070669 0.000000
# 6 0.000000 0.000000 0.000000 0.000000 0.000000 0.029844
#
#
# Mechanical properties :
#
#
# Convention : Reuss Voigt Hill
#
# Bulk Modulus (GPa) = 34.15681 49.78806 41.97244
# Shear Modulus (GPa) = 15.84572 20.75673 18.30122
#
# Velocity S-wave (km/s) = 2.97094 3.40031 3.19285
# Velocity P-wave (km/s) = 5.54932 6.56882 6.08048
#
# Compressibility (1/GPa) = 0.02927674
#
# Stress axis : x y z
#
# Youngs Moduli (GPa) = 19.17728 59.82642 39.87472
#
# Poissons Ratio (x) = 1.04600 0.43205
# Poissons Ratio (y) = 0.33529 0.15997
# Poissons Ratio (z) = 0.20779 0.24002
#
# Static dielectric constant tensor:
#      x y z
#    x 1.621410 0.000000 0.000000 
#    y 0.000000 1.600330 0.000000 
#    z 0.000000 0.000000 1.644590 
# 
# From -- ./inp_files/10911.got.cif
#   From: 2010.05.17/outbox.cif.g08.bks.cpg/sg36_6_cif.got.tgz:10911.got - 2010.06.03 17:41:39.
