data_PCOD9350743
_publ_section_title
;
Structure prediction by ZEFSAII (Michael W. Deem and Ramdas Pophale) SiO2 
 PCOD9350743
Probable space group: C M C 21
;
_chemical_formula_sum "Si O2"
_cell_formula_units_Z 48
_cell_length_a 13.771868
_cell_length_b 17.606483
_cell_length_c 9.655799
_cell_angle_alpha 90.000000
_cell_angle_beta 90.000000
_cell_angle_gamma 90.000000
_cell_volume 2341.281750
_symmetry_space_group_name_H-M "C M C 21"
_symmetry_group_IT_number 36
_symmetry_cell_setting 'orthorhombic'
loop_
_space_group_symop_operation_xyz
x,y,z
-x,-y,1/2+z
x,-y,1/2+z
-x,y,z
1/2+x,1/2+y,z
1/2-x,1/2-y,1/2+z
1/2+x,1/2-y,1/2+z
1/2-x,1/2+y,z
loop_
_atom_site_type_symbol
_atom_site_label
_atom_site_fract_x
_atom_site_fract_y
_atom_site_fract_z
Si Si1 0.389624 0.297505 0.805830
Si Si2 0.248227 0.314921 0.413814
Si Si3 0.500000 0.949302 0.391094
Si Si4 0.185647 0.577148 0.706721
Si Si5 0.609760 0.197495 0.521314
Si Si6 0.220711 0.601892 0.197125
Si Si7 0.000000 0.401939 0.715668
O O1 0.500000 0.322959 0.831443
O O2 0.349120 0.236677 0.915263
O O3 0.389883 0.247145 0.664525
O O4 0.308163 0.362927 0.788532
O O5 0.261018 0.365870 0.277667
O O6 0.330715 0.251860 0.422565
O O7 0.247141 0.370222 0.543715
O O8 0.405540 0.916430 0.313272
O O9 0.500000 0.938081 0.556573
O O10 0.500000 0.034956 0.336166
O O11 0.154771 0.616036 0.562742
O O12 0.215252 0.489709 0.700329
O O13 0.500000 0.187435 0.476645
O O14 0.109913 0.630714 0.225134
#
# Coordination Sequence:
#
# PCOD9350743 Si02
#       7
#     8   8   4   8   8   8   4
#     4   9  20  38  58  78 112 166 208 242 305 390
#     4  10  20  35  59  82 119 164 207 253 313 385
#     4  10  18  34  56  92 128 168 187 260 332 392
#     4  10  19  34  58  87 125 159 206 258 325 382
#     4   9  18  35  56  83 116 156 200 253 314 384
#     4  10  21  35  57  94 120 155 207 268 312 381
#     4  10  20  34  58  94 134 152 201 258 344 370
#
# _framework density 20.501588999999999
#
# number of rings (size 3 to 8) (size 9 to 14) (size 15 to 20)
#    0.000    2.333    2.500    0.000    2.333    1.333 
#    4.500    0.833    0.000    5.000    0.000    0.000 
#    0.000    0.000    0.000    0.000    0.000    0.000 
#
# Total GULP energy -133817.450835 kJ/mol
# GULP energy per Si atom -5575.727118 kJ/mol
# Density = 2.045493 g / cm^3
# Si number density = 20.501589 Si / 1000 Ang^3
#
#
#
# Elastic Constant Matrix: (Units=GPa)
#
#
# Indices 1 2 3 4 5 6 
#
# 1 88.2611 83.5705 35.0098 0.0000 0.0000 0.0000
# 2 83.5705 155.7818 46.1478 0.0000 0.0000 0.0000
# 3 35.0098 46.1478 54.0910 0.0000 0.0000 0.0000
# 4 0.0000 0.0000 0.0000 38.0336 0.0000 0.0000
# 5 0.0000 0.0000 0.0000 0.0000 28.5438 0.0000
# 6 0.0000 0.0000 0.0000 0.0000 0.0000 26.0148
#
#
#
# Elastic Compliance Matrix: (Units=1/GPa)
#
#
# Indices 1 2 3 4 5 6 
#
# 1 0.024493 -0.011299 -0.006213 0.000000 0.000000 0.000000
# 2 -0.011299 0.013803 -0.004463 0.000000 0.000000 0.000000
# 3 -0.006213 -0.004463 0.026316 0.000000 0.000000 0.000000
# 4 0.000000 0.000000 0.000000 0.026293 0.000000 0.000000
# 5 0.000000 0.000000 0.000000 0.000000 0.035034 0.000000
# 6 0.000000 0.000000 0.000000 0.000000 0.000000 0.038440
#
#
# Mechanical properties :
#
#
# Convention : Reuss Voigt Hill
#
# Bulk Modulus (GPa) = 48.39731 69.73224 59.06477
# Shear Modulus (GPa) = 23.23262 27.41216 25.32239
#
# Velocity S-wave (km/s) = 3.36997 3.66057 3.51827
# Velocity P-wave (km/s) = 6.22898 7.20786 6.73622
#
# Compressibility (1/GPa) = 0.02066230
#
# Stress axis : x y z
#
# Youngs Moduli (GPa) = 40.82795 72.44995 37.99962
#
# Poissons Ratio (x) = 0.81861 0.23610
# Poissons Ratio (y) = 0.46131 0.16958
# Poissons Ratio (z) = 0.25367 0.32332
#
# Static dielectric constant tensor:
#      x y z
#    x 1.788510 0.000000 0.000000 
#    y 0.000000 1.740700 0.000000 
#    z 0.000000 0.000000 1.815250 
# 
# From -- ./inp_files/7723.got.cif
#   From: 2010.05.17/outbox.cif.g08.bks.cpg/sg36_4_cif.got.tgz:7723.got - 2010.06.03 17:41:39.
