data_PCOD9350793
_publ_section_title
;
Structure prediction by ZEFSAII (Michael W. Deem and Ramdas Pophale) SiO2 
 PCOD9350793
Probable space group: C M C 21
;
_chemical_formula_sum "Si O2"
_cell_formula_units_Z 56
_cell_length_a 24.166347
_cell_length_b 5.343183
_cell_length_c 20.005567
_cell_angle_alpha 90.000000
_cell_angle_beta 90.000000
_cell_angle_gamma 90.000000
_cell_volume 2583.223129
_symmetry_space_group_name_H-M "C M C 21"
_symmetry_group_IT_number 36
_symmetry_cell_setting 'orthorhombic'
loop_
_space_group_symop_operation_xyz
x,y,z
-x,-y,1/2+z
x,-y,1/2+z
-x,y,z
1/2+x,1/2+y,z
1/2-x,1/2-y,1/2+z
1/2+x,1/2-y,1/2+z
1/2-x,1/2+y,z
loop_
_atom_site_type_symbol
_atom_site_label
_atom_site_fract_x
_atom_site_fract_y
_atom_site_fract_z
Si Si1 0.277833 0.952410 0.526600
Si Si2 0.822725 0.948254 0.686001
Si Si3 0.883120 0.179631 0.559526
Si Si4 0.500000 0.373588 0.436409
Si Si5 0.300453 0.950156 0.736596
Si Si6 0.000000 0.366073 0.527057
Si Si7 0.879699 0.940124 0.413186
Si Si8 0.687036 0.063485 0.882631
O O1 0.243909 0.714047 0.551995
O O2 0.340884 0.905828 0.544875
O O3 0.273147 0.922549 0.446484
O O4 0.855698 0.029057 0.620236
O O5 0.755102 0.927165 0.691743
O O6 0.831296 0.185582 0.734844
O O7 0.838788 0.671625 0.708890
O O8 0.943651 0.301386 0.566904
O O9 0.880527 0.006103 0.492976
O O10 0.500000 0.645113 0.472000
O O11 0.443105 0.377689 0.395650
O O12 0.500000 0.137545 0.489450
O O13 0.284438 0.030619 0.811328
O O14 0.846771 0.689421 0.397094
O O15 0.851627 0.189257 0.382584
#
# Coordination Sequence:
#
# PCOD9350793 Si02
#       8
#     8   8   8   4   8   4   8   8
#     4  11  24  33  58  89 128 159 181 260 301 384
#     4  10  23  38  62  81 119 162 216 258 291 378
#     4  10  23  42  62  96 126 159 215 246 337 360
#     4  10  18  36  62  95 124 153 208 232 341 362
#     4  10  23  39  60  83 117 174 208 252 299 370
#     4  10  22  38  66  87 128 167 196 264 289 404
#     4  10  21  37  64  93 123 162 192 275 302 396
#     4  11  22  39  58  87 129 162 214 237 324 369
#
# _framework density 21.678346000000001
#
# number of rings (size 3 to 8) (size 9 to 14) (size 15 to 20)
#    0.000    1.714    0.000    5.143    8.000    5.714 
#    0.000    0.000    0.000    5.143    0.000    0.000 
#    0.000    0.000    0.000    0.000    0.000    0.000 
#
# Total GULP energy -156324.650152 kJ/mol
# GULP energy per Si atom -5583.023220 kJ/mol
# Density = 2.162900 g / cm^3
# Si number density = 21.678346 Si / 1000 Ang^3
#
#
#
# Elastic Constant Matrix: (Units=GPa)
#
#
# Indices 1 2 3 4 5 6 
#
# 1 119.0191 48.9496 19.6670 0.0000 0.0000 0.0000
# 2 48.9496 168.1268 9.7694 0.0000 0.0000 0.0000
# 3 19.6670 9.7694 76.7431 0.0000 0.0000 0.0000
# 4 0.0000 0.0000 0.0000 26.3276 0.0000 0.0000
# 5 0.0000 0.0000 0.0000 0.0000 15.7322 0.0000
# 6 0.0000 0.0000 0.0000 0.0000 0.0000 25.1145
#
#
#
# Elastic Compliance Matrix: (Units=1/GPa)
#
#
# Indices 1 2 3 4 5 6 
#
# 1 0.009896 -0.002754 -0.002185 0.000000 0.000000 0.000000
# 2 -0.002754 0.006759 -0.000155 0.000000 0.000000 0.000000
# 3 -0.002185 -0.000155 0.013610 0.000000 0.000000 0.000000
# 4 0.000000 0.000000 0.000000 0.037983 0.000000 0.000000
# 5 0.000000 0.000000 0.000000 0.000000 0.063564 0.000000
# 6 0.000000 0.000000 0.000000 0.000000 0.000000 0.039818
#
#
# Mechanical properties :
#
#
# Convention : Reuss Voigt Hill
#
# Bulk Modulus (GPa) = 49.80944 57.85124 53.83034
# Shear Modulus (GPa) = 26.52383 32.46840 29.49612
#
# Velocity S-wave (km/s) = 3.50168 3.87426 3.69267
# Velocity P-wave (km/s) = 6.27499 6.83793 6.56250
#
# Compressibility (1/GPa) = 0.02007652
#
# Stress axis : x y z
#
# Youngs Moduli (GPa) = 101.05246 147.95659 73.47418
#
# Poissons Ratio (x) = 0.40750 0.16057
# Poissons Ratio (y) = 0.27831 0.01136
# Poissons Ratio (z) = 0.22084 0.02287
#
# Static dielectric constant tensor:
#      x y z
#    x 1.832710 0.000000 0.000000 
#    y 0.000000 1.855730 0.000000 
#    z 0.000000 0.000000 1.862120 
# 
# From -- ./inp_files/16335.got.cif
#   From: 2010.05.17/outbox.cif.g08.bks.cpg/sg36_9_cif.got.tgz:16335.got - 2010.06.03 17:41:39.
