data_PCOD9350205
_publ_section_title
;
Structure prediction by ZEFSAII (Michael W. Deem and Ramdas Pophale) SiO2 
 PCOD9350205
Probable space group: C M M 2
;
_chemical_formula_sum "Si O2"
_cell_formula_units_Z 32
_cell_length_a 9.000000
_cell_length_b 30.000000
_cell_length_c 12.000000
_cell_angle_alpha 90.000000
_cell_angle_beta 90.000000
_cell_angle_gamma 90.000000
_cell_volume 3240.000000
_symmetry_space_group_name_H-M "C M M 2"
_symmetry_group_IT_number 35
_symmetry_cell_setting 'orthorhombic'
loop_
_space_group_symop_operation_xyz
x,y,z
-x,-y,z
-x,y,z
x,-y,z
1/2+x,1/2+y,z
1/2-x,1/2-y,z
1/2-x,1/2+y,z
1/2+x,1/2-y,z
loop_
_atom_site_type_symbol
_atom_site_label
_atom_site_fract_x
_atom_site_fract_y
_atom_site_fract_z
Si Si1 0.180908 0.373561 0.686290
Si Si2 0.179645 0.451166 0.836776
Si Si3 0.670270 0.789202 0.300864
Si Si4 0.329452 0.450154 0.284912
Si Si5 0.172057 0.619854 0.436238
Si Si6 0.174878 0.818381 0.079403
Si Si7 0.175243 0.587547 0.080908
Si Si8 0.322211 0.205688 0.847150
O O1 0.235028 0.418934 0.741321
O O2 0.226223 0.369573 0.559724
O O3 0.225729 0.334687 0.769165
O O4 0.000000 0.373188 0.687210
O O5 0.242925 0.500000 0.827722
O O6 0.000000 0.453250 0.825804
O O7 0.203874 0.431959 0.959329
O O8 0.500000 0.778400 0.274825
O O9 0.750000 0.750000 0.368211
O O10 0.672502 0.835209 0.365840
O O11 0.765695 0.795387 0.189915
O O12 0.500000 0.441204 0.251878
O O13 0.320882 0.500000 0.329423
O O14 0.273236 0.415654 0.375405
O O15 0.223310 0.445401 0.178143
O O16 0.000000 0.603738 0.440673
O O17 0.223401 0.869382 0.094231
O O18 0.000000 0.812824 0.065431
O O19 0.260232 0.801528 0.970698
O O20 0.000000 0.599183 0.090087
O O21 0.500000 0.208140 0.851333
O O22 0.250000 0.250000 0.800571
#
# Coordination Sequence:
#
# PCOD9350205 Si02
#       8
#     8   8   8   8   8   8   8   8
#     4   9  19  37  59  86 118 152 196 250 295 339
#     4   9  17  31  56  89 119 148 186 235 290 343
#     4  11  23  39  60  88 119 154 198 245 299 357
#     4  11  24  40  59  87 124 162 198 242 298 356
#     4  10  22  40  63  87 114 156 207 252 294 347
#     4  12  23  37  60  89 121 156 195 239 299 361
#     4  11  20  35  60  90 120 155 195 241 297 355
#     4  11  22  39  61  88 122 156 196 244 296 352
#
# _framework density 9.8765429999999999
#
# number of rings (size 3 to 8) (size 9 to 14) (size 15 to 20)
#    0.000    1.500    2.500    3.375    0.000    3.000 
#    0.000    2.500    0.000    0.000    0.000    0.000 
#    0.000    0.000    0.000    0.000    0.000    0.000 
#
# Total GULP energy -178577.097084 kJ/mol
# GULP energy per Si atom -5580.534284 kJ/mol
# Density = 0.985406 g / cm^3
# Si number density = 9.876543 Si / 1000 Ang^3
#
#
#
# Elastic Constant Matrix: (Units=GPa)
#
#
# Indices 1 2 3 4 5 6 
#
# 1 62.5599 26.9950 20.5126 0.0000 0.0000 0.0000
# 2 26.9950 90.9775 18.9388 0.0000 0.0000 0.0000
# 3 20.5126 18.9388 86.2460 0.0000 0.0000 0.0000
# 4 0.0000 0.0000 0.0000 101.8876 0.0000 0.0000
# 5 0.0000 0.0000 0.0000 0.0000 18.3920 0.0000
# 6 0.0000 0.0000 0.0000 0.0000 0.0000 19.1098
#
#
#
# Elastic Compliance Matrix: (Units=1/GPa)
#
#
# Indices 1 2 3 4 5 6 
#
# 1 0.019285 -0.004996 -0.003490 0.000000 0.000000 0.000000
# 2 -0.004996 0.012812 -0.001625 0.000000 0.000000 0.000000
# 3 -0.003490 -0.001625 0.012782 0.000000 0.000000 0.000000
# 4 0.000000 0.000000 0.000000 0.009815 0.000000 0.000000
# 5 0.000000 0.000000 0.000000 0.000000 0.054371 0.000000
# 6 0.000000 0.000000 0.000000 0.000000 0.000000 0.052329
#
#
# Mechanical properties :
#
#
# Convention : Reuss Voigt Hill
#
# Bulk Modulus (GPa) = 40.55589 41.40846 40.98217
# Shear Modulus (GPa) = 26.33876 39.43369 32.88622
#
# Velocity S-wave (km/s) = 3.65554 4.47288 4.08470
# Velocity P-wave (km/s) = 6.19623 6.90536 6.56039
#
# Compressibility (1/GPa) = 0.02465733
#
# Stress axis : x y z
#
# Youngs Moduli (GPa) = 51.85491 78.04928 78.23743
#
# Poissons Ratio (x) = 0.38991 0.27302
# Poissons Ratio (y) = 0.25905 0.12716
# Poissons Ratio (z) = 0.18095 0.12685
#
# Static dielectric constant tensor:
#      x y z
#    x 1.667470 0.000000 0.000000 
#    y 0.000000 1.823080 0.000000 
#    z 0.000000 0.000000 1.679800 
# 
# From -- ./inp_files/11852.got.cif
#   From: 2010.05.17/outbox.ucp.g08.bks.cvg/sg35_6_cif.got.tgz:11852.got - 2010.06.11 10:36:28.
