data_PCOD9350140
_publ_section_title
;
Structure prediction by ZEFSAII (Michael W. Deem and Ramdas Pophale) SiO2 
 PCOD9350140
Probable space group: C M M 2
;
_chemical_formula_sum "Si O2"
_cell_formula_units_Z 24
_cell_length_a 9.000000
_cell_length_b 15.000000
_cell_length_c 18.000000
_cell_angle_alpha 90.000000
_cell_angle_beta 90.000000
_cell_angle_gamma 90.000000
_cell_volume 2430.000000
_symmetry_space_group_name_H-M "C M M 2"
_symmetry_group_IT_number 35
_symmetry_cell_setting 'orthorhombic'
loop_
_space_group_symop_operation_xyz
x,y,z
-x,-y,z
-x,y,z
x,-y,z
1/2+x,1/2+y,z
1/2-x,1/2-y,z
1/2-x,1/2+y,z
1/2+x,1/2-y,z
loop_
_atom_site_type_symbol
_atom_site_label
_atom_site_fract_x
_atom_site_fract_y
_atom_site_fract_z
Si Si1 0.679981 0.149997 0.208200
Si Si2 0.319284 0.150572 0.907447
Si Si3 0.321665 0.151957 0.368949
Si Si4 0.819957 0.149870 0.060188
Si Si5 0.321689 0.847123 0.530928
Si Si6 0.820990 0.000000 0.806557
Si Si7 0.179747 0.500000 0.646486
O O1 0.500000 0.153803 0.197859
O O2 0.750000 0.250000 0.212669
O O3 0.714656 0.108988 0.289231
O O4 0.758778 0.108155 0.136469
O O5 0.500000 0.153778 0.909017
O O6 0.250000 0.250000 0.898299
O O7 0.255088 0.086091 0.844545
O O8 0.252455 0.112904 0.985101
O O9 0.500000 0.160936 0.367798
O O10 0.250000 0.250000 0.369569
O O11 0.280696 0.113340 0.449354
O O12 0.750000 0.250000 0.061339
O O13 0.000000 0.151486 0.057444
O O14 0.500000 0.837029 0.531336
O O15 0.250000 0.750000 0.539201
O O16 0.283492 0.914038 0.596546
O O17 0.773098 0.000000 0.721105
O O18 0.000000 0.000000 0.816448
O O19 0.000000 0.500000 0.660732
#
# Coordination Sequence:
#
# PCOD9350140 Si02
#       7
#     8   8   8   8   8   4   4
#     4   9  14  21  36  63 100 139 182 229 274 322
#     4  11  22  40  64  90 119 153 193 237 288 344
#     4   8  14  24  41  67  99 137 180 226 273 323
#     4  10  17  27  45  73 108 147 189 231 278 330
#     4   9  18  34  56  81 110 145 185 229 279 334
#     4  12  26  44  64  89 118 149 188 235 290 351
#     4  10  22  40  60  83 112 145 182 227 284 347
#
# _framework density 9.8765429999999999
#
# number of rings (size 3 to 8) (size 9 to 14) (size 15 to 20)
#    0.000    2.333    0.000    6.250    0.000    2.000 
#    0.000    1.667    0.000    1.000    0.000    3.500 
#    0.000    0.000    0.000    0.000    0.000    0.000 
#
# Total GULP energy -133780.223216 kJ/mol
# GULP energy per Si atom -5574.175967 kJ/mol
# Density = 0.985406 g / cm^3
# Si number density = 9.876543 Si / 1000 Ang^3
#
#
#
# Elastic Constant Matrix: (Units=GPa)
#
#
# Indices 1 2 3 4 5 6 
#
# 1 137.8293 31.4804 71.6514 0.0000 0.0000 0.0000
# 2 31.4804 83.9272 59.8219 0.0000 0.0000 0.0000
# 3 71.6514 59.8219 201.4001 0.0000 0.0000 0.0000
# 4 0.0000 0.0000 0.0000 48.0186 0.0000 0.0000
# 5 0.0000 0.0000 0.0000 0.0000 33.4801 0.0000
# 6 0.0000 0.0000 0.0000 0.0000 0.0000 12.9710
#
#
#
# Elastic Compliance Matrix: (Units=1/GPa)
#
#
# Indices 1 2 3 4 5 6 
#
# 1 0.009028 -0.001392 -0.002799 0.000000 0.000000 0.000000
# 2 -0.001392 0.015330 -0.004058 0.000000 0.000000 0.000000
# 3 -0.002799 -0.004058 0.007166 0.000000 0.000000 0.000000
# 4 0.000000 0.000000 0.000000 0.020825 0.000000 0.000000
# 5 0.000000 0.000000 0.000000 0.000000 0.029869 0.000000
# 6 0.000000 0.000000 0.000000 0.000000 0.000000 0.077095
#
#
# Mechanical properties :
#
#
# Convention : Reuss Voigt Hill
#
# Bulk Modulus (GPa) = 66.54588 83.22933 74.88761
# Shear Modulus (GPa) = 27.65198 36.24079 31.94639
#
# Velocity S-wave (km/s) = 3.74556 4.28798 4.02591
# Velocity P-wave (km/s) = 7.24345 8.16958 7.72041
#
# Compressibility (1/GPa) = 0.01502723
#
# Stress axis : x y z
#
# Youngs Moduli (GPa) = 110.76624 65.23252 139.54193
#
# Poissons Ratio (x) = 0.09078 0.39051
# Poissons Ratio (y) = 0.15414 0.56631
# Poissons Ratio (z) = 0.30998 0.26473
#
# Static dielectric constant tensor:
#      x y z
#    x 1.648060 0.000000 0.000000 
#    y 0.000000 1.720980 0.000000 
#    z 0.000000 0.000000 1.784570 
# 
# From -- ./inp_files/17893.got.cif
#   From: 2010.05.17/outbox.ucp.g08.bks.cvg/sg35_9_cif.got.tgz:17893.got - 2010.06.11 10:36:28.
