data_PCOD9350640
_publ_section_title
;
Structure prediction by ZEFSAII (Michael W. Deem and Ramdas Pophale) SiO2 
 PCOD9350640
Probable space group: C M C 21
;
_chemical_formula_sum "Si O2"
_cell_formula_units_Z 56
_cell_length_a 29.650210
_cell_length_b 5.420310
_cell_length_c 14.312558
_cell_angle_alpha 90.000000
_cell_angle_beta 90.000000
_cell_angle_gamma 90.000000
_cell_volume 2300.218854
_symmetry_space_group_name_H-M "C M C 21"
_symmetry_group_IT_number 36
_symmetry_cell_setting 'orthorhombic'
loop_
_space_group_symop_operation_xyz
x,y,z
-x,-y,1/2+z
x,-y,1/2+z
-x,y,z
1/2+x,1/2+y,z
1/2-x,1/2-y,1/2+z
1/2+x,1/2-y,1/2+z
1/2-x,1/2+y,z
loop_
_atom_site_type_symbol
_atom_site_label
_atom_site_fract_x
_atom_site_fract_y
_atom_site_fract_z
Si Si1 0.274467 0.656414 0.693370
Si Si2 0.047016 0.010066 0.737137
Si Si3 0.913339 0.057429 0.926432
Si Si4 0.240586 0.627584 0.906673
Si Si5 0.050443 0.359590 0.086868
Si Si6 0.626001 0.148891 0.170387
Si Si7 0.136367 0.436428 0.366767
O O1 0.258434 0.382795 0.665927
O O2 0.269356 0.645863 0.808863
O O3 0.324428 0.733120 0.659034
O O4 0.048950 0.024656 0.847629
O O5 0.092426 0.140734 0.706234
O O6 0.000000 0.131412 0.704238
O O7 0.046425 0.740274 0.692506
O O8 0.884142 0.303366 0.902135
O O9 0.885420 0.806780 0.912402
O O10 0.936622 0.123061 0.023900
O O11 0.256314 0.384821 0.958878
O O12 0.188895 0.583908 0.884824
O O13 0.095162 0.528984 0.089290
O O14 0.000000 0.447738 0.057381
O O15 0.631803 0.951023 0.254231
#
# Coordination Sequence:
#
# PCOD9350640 Si02
#       7
#     8   8   8   8   8   8   8
#     4  10  21  33  62 101 133 174 227 278 340 416
#     4  10  23  42  68 100 135 180 235 294 353 429
#     4  11  25  43  67  99 137 181 231 295 353 424
#     4  10  18  31  59  98 130 169 223 274 334 411
#     4  11  25  45  69 100 141 189 239 298 364 427
#     4  11  22  39  69 100 138 179 238 284 355 423
#     4  11  22  39  66 100 133 176 233 279 348 422
#
# _framework density 24.345509
#
# number of rings (size 3 to 8) (size 9 to 14) (size 15 to 20)
#    0.000    1.429    4.286    1.714   10.000    0.000 
#    0.000    1.429    0.000    5.143    0.000    0.000 
#    0.000    0.000    0.000    0.000    0.000    0.000 
#
# Total GULP energy -156259.156717 kJ/mol
# GULP energy per Si atom -5580.684168 kJ/mol
# Density = 2.429010 g / cm^3
# Si number density = 24.345509 Si / 1000 Ang^3
#
#
#
# Elastic Constant Matrix: (Units=GPa)
#
#
# Indices 1 2 3 4 5 6 
#
# 1 176.5289 47.3733 14.4026 0.0000 0.0000 0.0000
# 2 47.3733 151.8417 16.1171 0.0000 0.0000 0.0000
# 3 14.4026 16.1171 45.5806 0.0000 0.0000 0.0000
# 4 0.0000 0.0000 0.0000 35.3313 0.0000 0.0000
# 5 0.0000 0.0000 0.0000 0.0000 11.4503 0.0000
# 6 0.0000 0.0000 0.0000 0.0000 0.0000 40.7577
#
#
#
# Elastic Compliance Matrix: (Units=1/GPa)
#
#
# Indices 1 2 3 4 5 6 
#
# 1 0.006260 -0.001811 -0.001338 0.000000 0.000000 0.000000
# 2 -0.001811 0.007367 -0.002033 0.000000 0.000000 0.000000
# 3 -0.001338 -0.002033 0.023081 0.000000 0.000000 0.000000
# 4 0.000000 0.000000 0.000000 0.028304 0.000000 0.000000
# 5 0.000000 0.000000 0.000000 0.000000 0.087334 0.000000
# 6 0.000000 0.000000 0.000000 0.000000 0.000000 0.024535
#
#
# Mechanical properties :
#
#
# Convention : Reuss Voigt Hill
#
# Bulk Modulus (GPa) = 37.95846 58.85969 48.40908
# Shear Modulus (GPa) = 25.50713 37.24507 31.37610
#
# Velocity S-wave (km/s) = 3.24035 3.91558 3.59386
# Velocity P-wave (km/s) = 5.44291 6.68368 6.09495
#
# Compressibility (1/GPa) = 0.02634459
#
# Stress axis : x y z
#
# Youngs Moduli (GPa) = 159.74580 135.74811 43.32656
#
# Poissons Ratio (x) = 0.24585 0.05796
# Poissons Ratio (y) = 0.28931 0.08806
# Poissons Ratio (z) = 0.21368 0.27591
#
# Static dielectric constant tensor:
#      x y z
#    x 1.934130 0.000000 0.000000 
#    y 0.000000 2.005340 0.000000 
#    z 0.000000 0.000000 2.012980 
# 
# From -- ./inp_files/13170.got.cif
#   From: 2010.05.17/outbox.cif.g08.bks.cpg/sg36_7_cif.got.tgz:13170.got - 2010.06.03 17:41:39.
