data_PCOD9350250
_publ_section_title
;
Structure prediction by ZEFSAII (Michael W. Deem and Ramdas Pophale) SiO2 
 PCOD9350250
Probable space group: C M M 2
;
_chemical_formula_sum "Si O2"
_cell_formula_units_Z 44
_cell_length_a 16.943824
_cell_length_b 8.454251
_cell_length_c 16.266401
_cell_angle_alpha 90.000000
_cell_angle_beta 90.000000
_cell_angle_gamma 90.000000
_cell_volume 2330.118691
_symmetry_space_group_name_H-M "C M M 2"
_symmetry_group_IT_number 35
_symmetry_cell_setting 'orthorhombic'
loop_
_space_group_symop_operation_xyz
x,y,z
-x,-y,z
-x,y,z
x,-y,z
1/2+x,1/2+y,z
1/2-x,1/2-y,z
1/2-x,1/2+y,z
1/2+x,1/2-y,z
loop_
_atom_site_type_symbol
_atom_site_label
_atom_site_fract_x
_atom_site_fract_y
_atom_site_fract_z
Si Si1 0.134044 0.000000 0.516261
Si Si2 0.403581 0.500000 0.083160
Si Si3 0.585029 0.243412 0.394116
Si Si4 0.095937 0.322815 0.797942
Si Si5 0.365956 0.500000 0.271971
Si Si6 0.404063 0.822815 0.990290
Si Si7 0.223814 0.500000 0.394116
Si Si8 0.903581 0.000000 0.705072
O O1 0.090976 0.851022 0.475143
O O2 0.129749 0.000000 0.613110
O O3 0.220213 0.000000 0.473790
O O4 0.500000 0.500000 0.086504
O O5 0.370251 0.500000 0.175122
O O6 0.378992 0.663743 0.037943
O O7 0.500000 0.164658 0.394116
O O8 0.590976 0.351022 0.313088
O O9 0.664141 0.144256 0.394116
O O10 0.121468 0.500000 0.768896
O O11 0.117878 0.308932 0.894116
O O12 0.000000 0.323462 0.794603
O O13 0.121008 0.163743 0.750289
O O14 0.279787 0.500000 0.314442
O O15 0.500000 0.823462 0.993629
O O16 0.378532 0.000000 0.019336
O O17 0.000000 0.000000 0.701727
#
# Coordination Sequence:
#
# PCOD9350250 Si02
#       8
#     4   4   8   8   4   8   4   4
#     4  10  19  34  52  77 113 148 175 216 278 336
#     4  10  17  26  44  71 105 146 185 227 272 323
#     4  10  19  36  59  80 102 140 184 224 269 326
#     4   8  14  25  41  64  99 143 186 228 274 321
#     4  10  19  34  52  77 113 148 175 216 278 336
#     4   8  14  25  41  64  99 143 186 228 274 321
#     4  10  21  38  59  78 106 146 178 224 273 336
#     4  10  17  26  44  71 105 146 185 227 272 323
#
# _framework density 18.883157000000001
#
# number of rings (size 3 to 8) (size 9 to 14) (size 15 to 20)
#    0.000    2.909    0.000    6.273    0.000    2.182 
#    3.273    0.000    0.000    0.000    0.000    0.000 
#    0.000   23.273    0.000    2.909    0.000    4.364 
#
# Total GULP energy -122473.127002 kJ/mol
# GULP energy per Si atom -5566.960318 kJ/mol
# Density = 1.884018 g / cm^3
# Si number density = 18.883157 Si / 1000 Ang^3
#
#
#
# Elastic Constant Matrix: (Units=GPa)
#
#
# Indices 1 2 3 4 5 6 
#
# 1 82.2971 39.1215 20.6888 0.0000 0.0000 0.0000
# 2 39.1215 185.5293 100.6038 0.0000 0.0000 0.0000
# 3 20.6888 100.6038 134.8780 0.0000 0.0000 0.0000
# 4 0.0000 0.0000 0.0000 -88.7723 0.0000 0.0000
# 5 0.0000 0.0000 0.0000 0.0000 -7.6631 0.0000
# 6 0.0000 0.0000 0.0000 0.0000 0.0000 46.9666
#
#
#
# Elastic Compliance Matrix: (Units=1/GPa)
#
#
# Indices 1 2 3 4 5 6 
#
# 1 0.013505 -0.002896 0.000088 0.000000 0.000000 0.000000
# 2 -0.002896 0.009671 -0.006770 0.000000 0.000000 0.000000
# 3 0.000088 -0.006770 0.012450 0.000000 0.000000 0.000000
# 4 0.000000 0.000000 0.000000 -0.011265 0.000000 0.000000
# 5 0.000000 0.000000 0.000000 0.000000 -0.130495 0.000000
# 6 0.000000 0.000000 0.000000 0.000000 0.000000 0.021292
#
#
# Mechanical properties :
#
#
# Convention : Reuss Voigt Hill
#
# Bulk Modulus (GPa) = 60.70644 80.39252 70.54948
# Shear Modulus (GPa) = -83.06158 6.25894 -38.40132
#
# Velocity S-wave (km/s) = -6.63947 1.82257 -4.51447
# Velocity P-wave (km/s) = 5.15350 6.86259 3.20441
#
# Compressibility (1/GPa) = 0.01647272
#
# Stress axis : x y z
#
# Youngs Moduli (GPa) = 74.04437 103.39734 80.32163
#
# Poissons Ratio (x) = 0.29941 -0.00709
# Poissons Ratio (y) = 0.21441 0.54375
# Poissons Ratio (z) = -0.00654 0.69996
#
# Static dielectric constant tensor:
#      x y z
#    x 1.648190 0.000000 0.000000 
#    y 0.000000 1.757350 0.000000 
#    z 0.000000 0.000000 1.604460 
# 
# From -- ./inp_files/17071.got.cif
#   From: 2010.05.17/outbox.cif.g08.bks.cpg/sg35_9_cif.got.tgz:17071.got - 2010.06.03 17:29:28.
