data_PCOD9350414
_publ_section_title
;
Structure prediction by ZEFSAII (Michael W. Deem and Ramdas Pophale) SiO2 
 PCOD9350414
Probable space group: C M M 2
;
_chemical_formula_sum "Si O2"
_cell_formula_units_Z 40
_cell_length_a 13.756621
_cell_length_b 17.530177
_cell_length_c 7.023799
_cell_angle_alpha 90.000000
_cell_angle_beta 90.000000
_cell_angle_gamma 90.000000
_cell_volume 1693.831279
_symmetry_space_group_name_H-M "C M M 2"
_symmetry_group_IT_number 35
_symmetry_cell_setting 'orthorhombic'
loop_
_space_group_symop_operation_xyz
x,y,z
-x,-y,z
-x,y,z
x,-y,z
1/2+x,1/2+y,z
1/2-x,1/2-y,z
1/2-x,1/2+y,z
1/2+x,1/2-y,z
loop_
_atom_site_type_symbol
_atom_site_label
_atom_site_fract_x
_atom_site_fract_y
_atom_site_fract_z
Si Si1 0.102816 0.379556 0.753370
Si Si2 0.676003 0.585769 0.783237
Si Si3 0.204225 0.172782 0.167572
Si Si4 0.362172 0.725505 0.541336
Si Si5 0.393418 0.091887 0.201069
O O1 0.209731 0.413821 0.717165
O O2 0.096537 0.297700 0.652666
O O3 0.000000 0.419099 0.703694
O O4 0.103227 0.379177 0.983256
O O5 0.639630 0.500000 0.769275
O O6 0.622275 0.648458 0.657850
O O7 0.672076 0.616927 0.000129
O O8 0.250000 0.250000 0.078403
O O9 0.125044 0.202777 0.319309
O O10 0.294413 0.130014 0.275334
O O11 0.250000 0.750000 0.546048
O O12 0.500000 0.111556 0.284429
O O13 0.384492 0.000000 0.202582
#
# Coordination Sequence:
#
# PCOD9350414 Si02
#       5
#     8   8   8   8   8
#     4   9  16  30  52  76 103 132 167 212 260 311
#     4  10  19  31  51  77 103 132 166 208 259 314
#     4  10  18  31  49  69 102 140 173 208 247 303
#     4   9  19  33  48  70  99 135 176 210 247 300
#     4   9  17  30  52  82 112 141 173 214 269 327
#
# _framework density 23.615103999999999
#
# number of rings (size 3 to 8) (size 9 to 14) (size 15 to 20)
#    0.000    2.600    0.000    5.400    0.000    2.800 
#    0.000    9.000    0.000    1.800    0.000    0.000 
#    0.000    7.200    0.000    0.000    0.000    0.000 
#
# Total GULP energy -111460.052475 kJ/mol
# GULP energy per Si atom -5573.002624 kJ/mol
# Density = 2.356136 g / cm^3
# Si number density = 23.615104 Si / 1000 Ang^3
#
#
#
# Elastic Constant Matrix: (Units=GPa)
#
#
# Indices 1 2 3 4 5 6 
#
# 1 50.1367 1.6671 0.8629 0.0000 0.0000 0.0000
# 2 1.6671 187.2476 50.5594 0.0000 0.0000 0.0000
# 3 0.8629 50.5594 107.3735 0.0000 0.0000 0.0000
# 4 0.0000 0.0000 0.0000 -148.5286 0.0000 0.0000
# 5 0.0000 0.0000 0.0000 0.0000 -35.2820 0.0000
# 6 0.0000 0.0000 0.0000 0.0000 0.0000 -22.8354
#
#
#
# Elastic Compliance Matrix: (Units=1/GPa)
#
#
# Indices 1 2 3 4 5 6 
#
# 1 0.019952 -0.000154 -0.000088 0.000000 0.000000 0.000000
# 2 -0.000154 0.006120 -0.002880 0.000000 0.000000 0.000000
# 3 -0.000088 -0.002880 0.010670 0.000000 0.000000 0.000000
# 4 0.000000 0.000000 0.000000 -0.006733 0.000000 0.000000
# 5 0.000000 0.000000 0.000000 0.000000 -0.028343 0.000000
# 6 0.000000 0.000000 0.000000 0.000000 0.000000 -0.043792
#
#
# Mechanical properties :
#
#
# Convention : Reuss Voigt Hill
#
# Bulk Modulus (GPa) = 32.78930 50.10407 41.44669
# Shear Modulus (GPa) = -194.43719 -21.88466 -108.16092
#
# Velocity S-wave (km/s) = -9.08376 -3.04751 -6.77503
# Velocity P-wave (km/s) = 9.80329 2.97991 6.60396
#
# Compressibility (1/GPa) = 0.03049776
#
# Stress axis : x y z
#
# Youngs Moduli (GPa) = 50.12002 163.40879 93.71836
#
# Poissons Ratio (x) = 0.02515 0.00824
# Poissons Ratio (y) = 0.00771 0.26994
# Poissons Ratio (z) = 0.00440 0.47067
#
# Static dielectric constant tensor:
#      x y z
#    x 1.980220 0.000000 0.000000 
#    y 0.000000 1.864840 0.000000 
#    z 0.000000 0.000000 1.971660 
# 
# From -- ./inp_files/8270.got.cif
#   From: 2010.05.17/outbox.cif.g08.bks.cpg/sg35_5_cif.got.tgz:8270.got - 2010.06.03 17:29:28.
