data_PCOD9350351
_publ_section_title
;
Structure prediction by ZEFSAII (Michael W. Deem and Ramdas Pophale) SiO2 
 PCOD9350351
Probable space group: C M M 2
;
_chemical_formula_sum "Si O2"
_cell_formula_units_Z 40
_cell_length_a 19.757392
_cell_length_b 8.626394
_cell_length_c 13.459732
_cell_angle_alpha 90.000000
_cell_angle_beta 90.000000
_cell_angle_gamma 90.000000
_cell_volume 2294.010067
_symmetry_space_group_name_H-M "C M M 2"
_symmetry_group_IT_number 35
_symmetry_cell_setting 'orthorhombic'
loop_
_space_group_symop_operation_xyz
x,y,z
-x,-y,z
-x,y,z
x,-y,z
1/2+x,1/2+y,z
1/2-x,1/2-y,z
1/2-x,1/2+y,z
1/2+x,1/2-y,z
loop_
_atom_site_type_symbol
_atom_site_label
_atom_site_fract_x
_atom_site_fract_y
_atom_site_fract_z
Si Si1 0.173830 0.185315 0.693850
Si Si2 0.078703 0.313107 0.865290
Si Si3 0.326674 0.314145 0.474664
Si Si4 0.077731 0.688813 0.089760
Si Si5 0.826387 0.313837 0.268680
O O1 0.250000 0.250000 0.703533
O O2 0.126804 0.245273 0.781623
O O3 0.145741 0.228611 0.583731
O O4 0.177684 0.000000 0.697036
O O5 0.082693 0.500000 0.861939
O O6 0.000000 0.270209 0.849315
O O7 0.097357 0.263569 0.977805
O O8 0.325698 0.500000 0.465924
O O9 0.250000 0.250000 0.476480
O O10 0.356561 0.243368 0.374049
O O11 0.077922 0.500000 0.090247
O O12 0.128224 0.739596 0.176065
O O13 0.000000 0.737177 0.107651
O O14 0.823504 0.500000 0.269857
O O15 0.750000 0.250000 0.259448
#
# Coordination Sequence:
#
# PCOD9350351 Si02
#       5
#     8   8   8   8   8
#     4  10  20  33  51  74 100 129 163 204 245 288
#     4   9  18  34  54  73  97 130 165 201 243 291
#     4   9  17  30  47  68  96 127 157 193 238 284
#     4   8  16  32  51  70  94 126 161 196 236 280
#     4  10  18  29  49  73  97 124 156 196 236 281
#
# _framework density 17.436715
#
# number of rings (size 3 to 8) (size 9 to 14) (size 15 to 20)
#    0.000    2.800    0.000    4.200    0.000    3.600 
#    0.000    5.000    0.000    8.400    0.000    0.000 
#    0.000    0.000    0.000    0.000    0.000    0.000 
#
# Total GULP energy -111415.145544 kJ/mol
# GULP energy per Si atom -5570.757277 kJ/mol
# Density = 1.739703 g / cm^3
# Si number density = 17.436715 Si / 1000 Ang^3
#
#
#
# Elastic Constant Matrix: (Units=GPa)
#
#
# Indices 1 2 3 4 5 6 
#
# 1 65.5848 24.3903 96.1739 0.0000 0.0000 0.0000
# 2 24.3903 36.2826 44.4322 0.0000 0.0000 0.0000
# 3 96.1739 44.4322 214.9953 0.0000 0.0000 0.0000
# 4 0.0000 0.0000 0.0000 27.7592 0.0000 0.0000
# 5 0.0000 0.0000 0.0000 0.0000 -8.1322 0.0000
# 6 0.0000 0.0000 0.0000 0.0000 0.0000 19.7987
#
#
#
# Elastic Compliance Matrix: (Units=1/GPa)
#
#
# Indices 1 2 3 4 5 6 
#
# 1 0.045848 -0.007638 -0.018931 0.000000 0.000000 0.000000
# 2 -0.007638 0.038173 -0.004472 0.000000 0.000000 0.000000
# 3 -0.018931 -0.004472 0.014044 0.000000 0.000000 0.000000
# 4 0.000000 0.000000 0.000000 0.036024 0.000000 0.000000
# 5 0.000000 0.000000 0.000000 0.000000 -0.122968 0.000000
# 6 0.000000 0.000000 0.000000 0.000000 0.000000 0.050508
#
#
# Mechanical properties :
#
#
# Convention : Reuss Voigt Hill
#
# Bulk Modulus (GPa) = 27.79099 71.87284 49.83192
# Shear Modulus (GPa) = 36.84458 18.00954 27.42706
#
# Velocity S-wave (km/s) = 4.60177 3.21729 3.97034
# Velocity P-wave (km/s) = 6.64890 7.42361 7.04691
#
# Compressibility (1/GPa) = 0.03598288
#
# Stress axis : x y z
#
# Youngs Moduli (GPa) = 21.81126 26.19676 71.20551
#
# Poissons Ratio (x) = 0.20008 1.34797
# Poissons Ratio (y) = 0.16658 0.31846
# Poissons Ratio (z) = 0.41290 0.11716
#
# Static dielectric constant tensor:
#      x y z
#    x 1.553530 0.000000 0.000000 
#    y 0.000000 1.597130 0.000000 
#    z 0.000000 0.000000 1.631950 
# 
# From -- ./inp_files/11165.got.cif
#   From: 2010.05.17/outbox.cif.g08.bks.cpg/sg35_6_cif.got.tgz:11165.got - 2010.06.03 17:29:28.
