data_PCOD9350119
_publ_section_title
;
Structure prediction by ZEFSAII (Michael W. Deem and Ramdas Pophale) SiO2 
 PCOD9350119
Probable space group: C M M 2
;
_chemical_formula_sum "Si O2"
_cell_formula_units_Z 48
_cell_length_a 14.555718
_cell_length_b 19.195036
_cell_length_c 8.117564
_cell_angle_alpha 90.000000
_cell_angle_beta 90.000000
_cell_angle_gamma 90.000000
_cell_volume 2268.027339
_symmetry_space_group_name_H-M "C M M 2"
_symmetry_group_IT_number 35
_symmetry_cell_setting 'orthorhombic'
loop_
_space_group_symop_operation_xyz
x,y,z
-x,-y,z
-x,y,z
x,-y,z
1/2+x,1/2+y,z
1/2-x,1/2-y,z
1/2-x,1/2+y,z
1/2+x,1/2-y,z
loop_
_atom_site_type_symbol
_atom_site_label
_atom_site_fract_x
_atom_site_fract_y
_atom_site_fract_z
Si Si1 0.357097 0.348170 0.186700
Si Si2 0.336411 0.850904 0.332824
Si Si3 0.786573 0.350301 0.712036
Si Si4 0.894363 0.780404 0.838210
Si Si5 0.784558 0.500000 0.857906
Si Si6 0.000000 0.760204 0.326325
Si Si7 0.893884 0.000000 0.051001
Si Si8 0.891866 0.500000 0.203424
O O1 0.250039 0.335820 0.215194
O O2 0.418976 0.320436 0.334097
O O3 0.373453 0.429534 0.151440
O O4 0.393581 0.305068 0.028089
O O5 0.304267 0.840984 0.519963
O O6 0.420110 0.799541 0.305738
O O7 0.365546 0.930406 0.301358
O O8 0.853031 0.296633 0.809837
O O9 0.681577 0.329677 0.753531
O O10 0.806680 0.429015 0.764256
O O11 0.000000 0.783642 0.777146
O O12 0.676225 0.500000 0.899434
O O13 0.836257 0.500000 0.032543
O O14 0.000000 0.000000 0.000952
O O15 0.000000 0.500000 0.169347
#
# Coordination Sequence:
#
# PCOD9350119 Si02
#       8
#     8   8   8   8   4   4   4   4
#     4  12  25  44  78 103 139 186 245 299 354 424
#     4  12  27  48  70 103 150 185 243 294 363 433
#     4  11  28  44  70 104 145 191 230 297 369 435
#     4  11  25  45  69 103 140 184 238 298 355 430
#     4  12  25  46  75 101 143 184 241 300 368 416
#     4  12  28  40  76 106 138 192 230 300 358 426
#     4  12  22  44  71 106 135 182 236 304 350 423
#     4  12  25  46  76 103 134 192 245 294 350 431
#
# _framework density 21.163765999999999
#
# number of rings (size 3 to 8) (size 9 to 14) (size 15 to 20)
#    0.000    0.333    5.833    1.000   12.833    0.667 
#    0.000    0.000    0.000    0.000    0.000    0.000 
#    0.000    0.000    0.000    0.000    0.000    0.000 
#
# Total GULP energy -133801.828335 kJ/mol
# GULP energy per Si atom -5575.076181 kJ/mol
# Density = 2.111560 g / cm^3
# Si number density = 21.163766 Si / 1000 Ang^3
#
#
#
# Elastic Constant Matrix: (Units=GPa)
#
#
# Indices 1 2 3 4 5 6 
#
# 1 158.5336 22.1396 37.5578 0.0000 0.0000 0.0000
# 2 22.1396 163.5970 28.1864 0.0000 0.0000 0.0000
# 3 37.5578 28.1864 45.3319 0.0000 0.0000 0.0000
# 4 0.0000 0.0000 0.0000 -18.2076 0.0000 0.0000
# 5 0.0000 0.0000 0.0000 0.0000 -5.3766 0.0000
# 6 0.0000 0.0000 0.0000 0.0000 0.0000 32.1067
#
#
#
# Elastic Compliance Matrix: (Units=1/GPa)
#
#
# Indices 1 2 3 4 5 6 
#
# 1 0.007849 0.000065 -0.006543 0.000000 0.000000 0.000000
# 2 0.000065 0.006847 -0.004311 0.000000 0.000000 0.000000
# 3 -0.006543 -0.004311 0.030161 0.000000 0.000000 0.000000
# 4 0.000000 0.000000 0.000000 -0.054922 0.000000 0.000000
# 5 0.000000 0.000000 0.000000 0.000000 -0.185990 0.000000
# 6 0.000000 0.000000 0.000000 0.000000 0.000000 0.031146
#
#
# Mechanical properties :
#
#
# Convention : Reuss Voigt Hill
#
# Bulk Modulus (GPa) = 42.95864 60.35890 51.65877
# Shear Modulus (GPa) = -36.88078 20.34308 -8.26885
#
# Velocity S-wave (km/s) = -4.17902 3.10372 -1.97878
# Velocity P-wave (km/s) = 1.71562 6.43630 4.38649
#
# Compressibility (1/GPa) = 0.02327821
#
# Stress axis : x y z
#
# Youngs Moduli (GPa) = 127.40663 146.05980 33.15514
#
# Poissons Ratio (x) = -0.00952 0.21695
# Poissons Ratio (y) = -0.00830 0.14293
# Poissons Ratio (z) = 0.83367 0.62967
#
# Static dielectric constant tensor:
#      x y z
#    x 1.745190 0.000000 0.000000 
#    y 0.000000 1.777050 0.000000 
#    z 0.000000 0.000000 1.820460 
# 
# From -- ./inp_files/7363.got.cif
#   From: 2010.05.17/outbox.cif.g08.bks.cpg/sg35_4_cif.got.tgz:7363.got - 2010.06.03 17:29:28.
