data_PCOD9350717
_publ_section_title
;
Structure prediction by ZEFSAII (Michael W. Deem and Ramdas Pophale) SiO2 
 PCOD9350717
Probable space group: C M C 21
;
_chemical_formula_sum "Si O2"
_cell_formula_units_Z 64
_cell_length_a 8.639402
_cell_length_b 21.081454
_cell_length_c 19.806871
_cell_angle_alpha 90.000000
_cell_angle_beta 90.000000
_cell_angle_gamma 90.000000
_cell_volume 3607.448309
_symmetry_space_group_name_H-M "C M C 21"
_symmetry_group_IT_number 36
_symmetry_cell_setting 'orthorhombic'
loop_
_space_group_symop_operation_xyz
x,y,z
-x,-y,1/2+z
x,-y,1/2+z
-x,y,z
1/2+x,1/2+y,z
1/2-x,1/2-y,1/2+z
1/2+x,1/2-y,1/2+z
1/2-x,1/2+y,z
loop_
_atom_site_type_symbol
_atom_site_label
_atom_site_fract_x
_atom_site_fract_y
_atom_site_fract_z
Si Si1 0.314211 0.809015 0.921170
Si Si2 0.814288 0.864422 0.631633
Si Si3 0.814213 0.493726 0.135652
Si Si4 0.813206 0.439651 0.415255
Si Si5 0.188184 0.564049 0.497625
Si Si6 0.314274 0.186295 0.996485
Si Si7 0.684985 0.509241 0.781484
Si Si8 0.686303 0.638550 0.285678
O O1 0.500000 0.806105 0.923624
O O2 0.260048 0.871309 0.962754
O O3 0.245121 0.747265 0.956480
O O4 0.261262 0.819667 0.844112
O O5 0.746701 0.935172 0.621272
O O6 0.752504 0.820304 0.571952
O O7 0.771454 0.844632 0.708313
O O8 0.000000 0.868010 0.628889
O O9 0.750243 0.473953 0.208166
O O10 0.000000 0.496173 0.137426
O O11 0.765123 0.447727 0.074849
O O12 0.761288 0.502447 0.455499
O O13 0.765607 0.376795 0.455200
O O14 0.748119 0.446350 0.340280
O O15 0.000000 0.440247 0.412607
O O16 0.000000 0.564450 0.496193
O O17 0.500000 0.186906 0.000104
O O18 0.500000 0.510565 0.779679
O O19 0.732240 0.435630 0.795347
O O20 0.500000 0.642234 0.291471
#
# Coordination Sequence:
#
# PCOD9350717 Si02
#       8
#     8   8   8   8   8   8   8   8
#     4  11  22  37  58  83 113 147 187 234 279 331
#     4  10  20  35  56  84 115 145 186 236 283 330
#     4  10  18  33  56  82 113 150 188 229 280 337
#     4  10  19  36  58  81 108 144 187 228 273 332
#     4   9  18  34  56  83 109 139 185 230 273 328
#     4  11  23  39  58  82 115 151 190 231 282 344
#     4  10  20  33  52  85 118 144 182 235 285 330
#     4   9  19  35  54  80 113 146 181 225 277 334
#
# _framework density 17.741071999999999
#
# number of rings (size 3 to 8) (size 9 to 14) (size 15 to 20)
#    0.000    2.000    2.500    2.625    0.000    3.500 
#    0.000    3.750    0.000    3.000    0.000    0.000 
#    0.000    0.000    0.000    0.000    0.000    0.000 
#
# Total GULP energy -178604.854536 kJ/mol
# GULP energy per Si atom -5581.401704 kJ/mol
# Density = 1.770069 g / cm^3
# Si number density = 17.741072 Si / 1000 Ang^3
#
#
#
# Elastic Constant Matrix: (Units=GPa)
#
#
# Indices 1 2 3 4 5 6 
#
# 1 34.7544 29.0446 35.2311 0.0000 0.0000 0.0000
# 2 29.0446 104.2504 72.8594 0.0000 0.0000 0.0000
# 3 35.2311 72.8594 161.6046 0.0000 0.0000 0.0000
# 4 0.0000 0.0000 0.0000 30.4627 0.0000 0.0000
# 5 0.0000 0.0000 0.0000 0.0000 27.2387 0.0000
# 6 0.0000 0.0000 0.0000 0.0000 0.0000 24.2510
#
#
#
# Elastic Compliance Matrix: (Units=1/GPa)
#
#
# Indices 1 2 3 4 5 6 
#
# 1 0.040571 -0.007478 -0.005473 0.000000 0.000000 0.000000
# 2 -0.007478 0.015384 -0.005305 0.000000 0.000000 0.000000
# 3 -0.005473 -0.005305 0.009773 0.000000 0.000000 0.000000
# 4 0.000000 0.000000 0.000000 0.032827 0.000000 0.000000
# 5 0.000000 0.000000 0.000000 0.000000 0.036712 0.000000
# 6 0.000000 0.000000 0.000000 0.000000 0.000000 0.041235
#
#
# Mechanical properties :
#
#
# Convention : Reuss Voigt Hill
#
# Bulk Modulus (GPa) = 34.22976 63.87552 49.05264
# Shear Modulus (GPa) = 22.44619 27.28876 24.86748
#
# Velocity S-wave (km/s) = 3.56084 3.92620 3.74798
# Velocity P-wave (km/s) = 6.02014 7.52568 6.81462
#
# Compressibility (1/GPa) = 0.02921434
#
# Stress axis : x y z
#
# Youngs Moduli (GPa) = 24.64792 65.00429 102.32128
#
# Poissons Ratio (x) = 0.48611 0.56005
# Poissons Ratio (y) = 0.18432 0.54286
# Poissons Ratio (z) = 0.13491 0.34487
#
# Static dielectric constant tensor:
#      x y z
#    x 1.599590 0.000000 0.000000 
#    y 0.000000 1.582550 0.000000 
#    z 0.000000 0.000000 1.611290 
# 
# From -- ./inp_files/13965.got.cif
#   From: 2010.05.17/outbox.cif.g08.bks.cpg/sg36_7_cif.got.tgz:13965.got - 2010.06.03 17:41:39.
