data_PCOD9350302
_publ_section_title
;
Structure prediction by ZEFSAII (Michael W. Deem and Ramdas Pophale) SiO2 
 PCOD9350302
Probable space group: C M M 2
;
_chemical_formula_sum "Si O2"
_cell_formula_units_Z 30
_cell_length_a 19.264727
_cell_length_b 8.467815
_cell_length_c 8.660957
_cell_angle_alpha 90.000000
_cell_angle_beta 90.000000
_cell_angle_gamma 90.000000
_cell_volume 1412.863165
_symmetry_space_group_name_H-M "C M M 2"
_symmetry_group_IT_number 35
_symmetry_cell_setting 'orthorhombic'
loop_
_space_group_symop_operation_xyz
x,y,z
-x,-y,z
-x,y,z
x,-y,z
1/2+x,1/2+y,z
1/2-x,1/2-y,z
1/2-x,1/2+y,z
1/2+x,1/2-y,z
loop_
_atom_site_type_symbol
_atom_site_label
_atom_site_fract_x
_atom_site_fract_y
_atom_site_fract_z
Si Si1 0.082221 0.000000 0.816170
Si Si2 0.500000 0.500000 0.250235
Si Si3 0.636578 0.500000 0.469018
Si Si4 0.681576 0.679643 0.018127
Si Si5 0.153060 0.674881 0.346611
Si Si6 0.500000 0.833545 0.249759
O O1 0.107881 0.000000 0.641129
O O2 0.117800 0.850510 0.903488
O O3 0.000000 0.000000 0.823181
O O4 0.569945 0.500000 0.351913
O O5 0.500000 0.666017 0.162009
O O6 0.674793 0.333807 0.435338
O O7 0.695915 0.500000 0.075575
O O8 0.750000 0.750000 0.939137
O O9 0.667323 0.788035 0.165938
O O10 0.178652 0.500000 0.389173
O O11 0.068970 0.667871 0.353265
O O12 0.500000 0.000000 0.160801
#
# Coordination Sequence:
#
# PCOD9350302 Si02
#       6
#     4   2   4   8   8   4
#     4  10  23  40  69  98 132 186 231 272 337 411
#     4   8  14  24  52  72 124 158 188 244 328 370
#     4  10  17  37  59  97 127 169 211 284 334 401
#     4  10  22  40  65  91 132 177 227 273 336 398
#     4  10  19  34  62  95 127 165 220 278 339 393
#     4   8  16  26  45  85 121 151 189 254 326 374
#
# _framework density 21.233477000000001
#
# number of rings (size 3 to 8) (size 9 to 14) (size 15 to 20)
#    0.800    1.600    2.000    0.800    1.867    0.000 
#    2.400    4.000    0.000    3.200    0.000    0.000 
#    0.000    0.000    0.000    0.000    0.000    0.000 
#
# Total GULP energy -83520.234329 kJ/mol
# GULP energy per Si atom -5568.015622 kJ/mol
# Density = 2.118515 g / cm^3
# Si number density = 21.233477 Si / 1000 Ang^3
#
#
#
# Elastic Constant Matrix: (Units=GPa)
#
#
# Indices 1 2 3 4 5 6 
#
# 1 102.7959 42.5562 36.4217 0.0000 0.0000 0.0000
# 2 42.5562 227.8142 41.3100 0.0000 0.0000 0.0000
# 3 36.4217 41.3100 79.9540 0.0000 0.0000 0.0000
# 4 0.0000 0.0000 0.0000 6.9355 0.0000 0.0000
# 5 0.0000 0.0000 0.0000 0.0000 -2.7280 0.0000
# 6 0.0000 0.0000 0.0000 0.0000 0.0000 33.7596
#
#
#
# Elastic Compliance Matrix: (Units=1/GPa)
#
#
# Indices 1 2 3 4 5 6 
#
# 1 0.011980 -0.001377 -0.004745 0.000000 0.000000 0.000000
# 2 -0.001377 0.005002 -0.001957 0.000000 0.000000 0.000000
# 3 -0.004745 -0.001957 0.015680 0.000000 0.000000 0.000000
# 4 0.000000 0.000000 0.000000 0.144185 0.000000 0.000000
# 5 0.000000 0.000000 0.000000 0.000000 -0.366573 0.000000
# 6 0.000000 0.000000 0.000000 0.000000 0.000000 0.029621
#
#
# Mechanical properties :
#
#
# Convention : Reuss Voigt Hill
#
# Bulk Modulus (GPa) = 60.59874 72.34887 66.47381
# Shear Modulus (GPa) = -36.11522 26.94518 -4.58502
#
# Velocity S-wave (km/s) = -4.12863 3.56616 -1.47106
# Velocity P-wave (km/s) = 2.42359 7.14868 5.33748
#
# Compressibility (1/GPa) = 0.01650199
#
# Stress axis : x y z
#
# Youngs Moduli (GPa) = 83.47540 199.93376 63.77576
#
# Poissons Ratio (x) = 0.27537 0.30265
# Poissons Ratio (y) = 0.11497 0.12480
# Poissons Ratio (z) = 0.39613 0.39123
#
# Static dielectric constant tensor:
#      x y z
#    x 1.839250 0.000000 0.000000 
#    y 0.000000 1.851880 0.000000 
#    z 0.000000 0.000000 1.708760 
# 
# From -- ./inp_files/8971.got.cif
#   From: 2010.05.17/outbox.cif.g08.bks.cpg/sg35_5_cif.got.tgz:8971.got - 2010.06.03 17:29:28.
