data_PCOD9350187
_publ_section_title
;
Structure prediction by ZEFSAII (Michael W. Deem and Ramdas Pophale) SiO2 
 PCOD9350187
Probable space group: C M M 2
;
_chemical_formula_sum "Si O2"
_cell_formula_units_Z 20
_cell_length_a 9.000000
_cell_length_b 15.000000
_cell_length_c 15.000000
_cell_angle_alpha 90.000000
_cell_angle_beta 90.000000
_cell_angle_gamma 90.000000
_cell_volume 2025.000000
_symmetry_space_group_name_H-M "C M M 2"
_symmetry_group_IT_number 35
_symmetry_cell_setting 'orthorhombic'
loop_
_space_group_symop_operation_xyz
x,y,z
-x,-y,z
-x,y,z
x,-y,z
1/2+x,1/2+y,z
1/2-x,1/2-y,z
1/2-x,1/2+y,z
1/2+x,1/2-y,z
loop_
_atom_site_type_symbol
_atom_site_label
_atom_site_fract_x
_atom_site_fract_y
_atom_site_fract_z
Si Si1 0.819411 0.849672 0.032340
Si Si2 0.669065 0.603015 0.669881
Si Si3 0.679259 0.000000 0.155249
Si Si4 0.321801 0.500000 0.348098
Si Si5 0.177751 0.838154 0.478735
Si Si6 0.178354 0.652043 0.849081
O O1 0.750000 0.750000 0.041994
O O2 0.753199 0.914115 0.107528
O O3 0.000000 0.846793 0.032621
O O4 0.757236 0.886177 0.937404
O O5 0.500000 0.636004 0.690855
O O6 0.655197 0.500000 0.644794
O O7 0.730572 0.648146 0.580698
O O8 0.771548 0.609381 0.756268
O O9 0.500000 0.000000 0.145064
O O10 0.728582 0.000000 0.258016
O O11 0.500000 0.500000 0.327813
O O12 0.287803 0.583201 0.411358
O O13 0.250000 0.750000 0.441944
O O14 0.000000 0.832164 0.485131
O O15 0.250000 0.750000 0.843048
O O16 0.000000 0.653277 0.859329
#
# Coordination Sequence:
#
# PCOD9350187 Si02
#       6
#     8   8   4   4   8   8
#     4  11  23  43  68  95 127 167 210 259 314 372
#     4  10  20  36  58  86 123 166 209 251 304 366
#     4  12  26  44  67  96 127 162 207 260 318 380
#     4  10  22  44  65  88 121 160 205 254 316 378
#     4  10  21  39  64  90 121 162 205 254 308 368
#     4  11  22  37  57  86 124 164 207 255 303 362
#
# _framework density 9.8765429999999999
#
# number of rings (size 3 to 8) (size 9 to 14) (size 15 to 20)
#    0.000    1.400    1.000    6.300    1.400    4.400 
#    0.000    2.000    0.000    0.000    0.000    0.000 
#    0.000    0.000    0.000    0.000    0.000    0.000 
#
# Total GULP energy -111667.042330 kJ/mol
# GULP energy per Si atom -5583.352116 kJ/mol
# Density = 0.985406 g / cm^3
# Si number density = 9.876543 Si / 1000 Ang^3
#
#
#
# Elastic Constant Matrix: (Units=GPa)
#
#
# Indices 1 2 3 4 5 6 
#
# 1 145.9220 44.6361 67.3527 0.0000 0.0000 0.0000
# 2 44.6361 118.6620 62.3640 0.0000 0.0000 0.0000
# 3 67.3527 62.3640 139.7704 0.0000 0.0000 0.0000
# 4 0.0000 0.0000 0.0000 68.4970 0.0000 0.0000
# 5 0.0000 0.0000 0.0000 0.0000 19.6369 0.0000
# 6 0.0000 0.0000 0.0000 0.0000 0.0000 25.5865
#
#
#
# Elastic Compliance Matrix: (Units=1/GPa)
#
#
# Indices 1 2 3 4 5 6 
#
# 1 0.008999 -0.001445 -0.003692 0.000000 0.000000 0.000000
# 2 -0.001445 0.011241 -0.004319 0.000000 0.000000 0.000000
# 3 -0.003692 -0.004319 0.010861 0.000000 0.000000 0.000000
# 4 0.000000 0.000000 0.000000 0.014599 0.000000 0.000000
# 5 0.000000 0.000000 0.000000 0.000000 0.050925 0.000000
# 6 0.000000 0.000000 0.000000 0.000000 0.000000 0.039083
#
#
# Mechanical properties :
#
#
# Convention : Reuss Voigt Hill
#
# Bulk Modulus (GPa) = 82.04243 83.67334 82.85788
# Shear Modulus (GPa) = 31.50955 38.07752 34.79354
#
# Velocity S-wave (km/s) = 3.99829 4.39529 4.20148
# Velocity P-wave (km/s) = 7.93343 8.25892 8.09781
#
# Compressibility (1/GPa) = 0.01218882
#
# Stress axis : x y z
#
# Youngs Moduli (GPa) = 111.12447 88.96134 92.07417
#
# Poissons Ratio (x) = 0.12853 0.33991
# Poissons Ratio (y) = 0.16055 0.39770
# Poissons Ratio (z) = 0.41024 0.38425
#
# Static dielectric constant tensor:
#      x y z
#    x 1.667610 0.000000 0.000000 
#    y 0.000000 1.739590 0.000000 
#    z 0.000000 0.000000 1.703150 
# 
# From -- ./inp_files/14823.got.cif
#   From: 2010.05.17/outbox.ucp.g08.bks.cvg/sg35_8_cif.got.tgz:14823.got - 2010.06.11 10:36:28.
