data_PCOD9350723
_publ_section_title
;
Structure prediction by ZEFSAII (Michael W. Deem and Ramdas Pophale) SiO2 
 PCOD9350723
Probable space group: C M C 21
;
_chemical_formula_sum "Si O2"
_cell_formula_units_Z 56
_cell_length_a 10.250661
_cell_length_b 22.059417
_cell_length_c 12.802661
_cell_angle_alpha 90.000000
_cell_angle_beta 90.000000
_cell_angle_gamma 90.000000
_cell_volume 2894.983866
_symmetry_space_group_name_H-M "C M C 21"
_symmetry_group_IT_number 36
_symmetry_cell_setting 'orthorhombic'
loop_
_space_group_symop_operation_xyz
x,y,z
-x,-y,1/2+z
x,-y,1/2+z
-x,y,z
1/2+x,1/2+y,z
1/2-x,1/2-y,1/2+z
1/2+x,1/2-y,1/2+z
1/2-x,1/2+y,z
loop_
_atom_site_type_symbol
_atom_site_label
_atom_site_fract_x
_atom_site_fract_y
_atom_site_fract_z
Si Si1 0.781571 0.050393 0.618310
Si Si2 0.853344 0.028102 0.934451
Si Si3 0.145417 0.473788 0.777459
Si Si4 0.354016 0.638662 0.802478
Si Si5 0.352128 0.845735 0.998279
Si Si6 0.846277 0.732427 0.703120
Si Si7 0.348870 0.832913 0.757385
O O1 0.844896 0.995826 0.552782
O O2 0.854304 0.088597 0.708518
O O3 0.741012 0.100531 0.534274
O O4 0.663488 0.019761 0.681518
O O5 0.749114 0.992701 0.864343
O O6 0.000000 0.014722 0.897325
O O7 0.831259 0.099081 0.907324
O O8 0.165623 0.404876 0.741244
O O9 0.000000 0.478426 0.820812
O O10 0.500000 0.666373 0.806745
O O11 0.238633 0.685355 0.774435
O O12 0.500000 0.869722 0.000320
O O13 0.342813 0.794821 0.086543
O O14 0.329445 0.823192 0.881802
O O15 0.763049 0.793838 0.703975
O O16 0.000000 0.737451 0.733406
O O17 0.500000 0.816690 0.730748
#
# Coordination Sequence:
#
# PCOD9350723 Si02
#       7
#     8   8   8   8   8   8   8
#     4  10  18  33  57  86 116 144 186 228 280 337
#     4  10  20  34  55  84 117 150 184 226 282 341
#     4  10  21  35  57  87 116 148 186 232 282 335
#     4   9  19  35  55  80 111 147 185 228 281 337
#     4   9  18  35  59  81 108 147 186 224 281 341
#     4  10  21  38  58  82 107 143 192 240 281 326
#     4  10  20  38  59  82 113 151 189 230 281 337
#
# _framework density 19.343803999999999
#
# number of rings (size 3 to 8) (size 9 to 14) (size 15 to 20)
#    0.000    2.286    1.429    1.286    0.000    5.143 
#    2.571    1.429    0.000    0.000    0.000    0.000 
#    0.000    0.000    0.000    0.000    0.000    0.000 
#
# Total GULP energy -155971.724296 kJ/mol
# GULP energy per Si atom -5570.418725 kJ/mol
# Density = 1.929978 g / cm^3
# Si number density = 19.343804 Si / 1000 Ang^3
#
#
#
# Elastic Constant Matrix: (Units=GPa)
#
#
# Indices 1 2 3 4 5 6 
#
# 1 114.7778 40.1808 2.9225 0.0000 0.0000 0.0000
# 2 40.1808 42.9751 -9.5530 0.0000 0.0000 0.0000
# 3 2.9225 -9.5530 13.2617 0.0000 0.0000 0.0000
# 4 0.0000 0.0000 0.0000 18.5214 0.0000 0.0000
# 5 0.0000 0.0000 0.0000 0.0000 7.7835 0.0000
# 6 0.0000 0.0000 0.0000 0.0000 0.0000 21.6582
#
#
#
# Elastic Compliance Matrix: (Units=1/GPa)
#
#
# Indices 1 2 3 4 5 6 
#
# 1 0.015482 -0.018138 -0.016477 0.000000 0.000000 0.000000
# 2 -0.018138 0.048955 0.039261 0.000000 0.000000 0.000000
# 3 -0.016477 0.039261 0.107318 0.000000 0.000000 0.000000
# 4 0.000000 0.000000 0.000000 0.053992 0.000000 0.000000
# 5 0.000000 0.000000 0.000000 0.000000 0.128477 0.000000
# 6 0.000000 0.000000 0.000000 0.000000 0.000000 0.046172
#
#
# Mechanical properties :
#
#
# Convention : Reuss Voigt Hill
#
# Bulk Modulus (GPa) = 5.52339 26.45725 15.99032
# Shear Modulus (GPa) = 11.07540 18.75689 14.91615
#
# Velocity S-wave (km/s) = 2.39541 3.11731 2.77989
# Velocity P-wave (km/s) = 3.24226 5.16371 4.31139
#
# Compressibility (1/GPa) = 0.18104825
#
# Stress axis : x y z
#
# Youngs Moduli (GPa) = 64.59315 20.42699 9.31809
#
# Poissons Ratio (x) = 0.37050 0.15353
# Poissons Ratio (y) = 1.17156 -0.36584
# Poissons Ratio (z) = 1.06430 -0.80199
#
# Static dielectric constant tensor:
#      x y z
#    x 1.681900 0.000000 0.000000 
#    y 0.000000 1.702100 0.000000 
#    z 0.000000 0.000000 1.703320 
# 
# From -- ./inp_files/10629.got.cif
#   From: 2010.05.17/outbox.cif.g08.bks.cpg/sg36_6_cif.got.tgz:10629.got - 2010.06.03 17:41:39.
