data_PCOD9350638
_publ_section_title
;
Structure prediction by ZEFSAII (Michael W. Deem and Ramdas Pophale) SiO2 
 PCOD9350638
Probable space group: C M C 21
;
_chemical_formula_sum "Si O2"
_cell_formula_units_Z 64
_cell_length_a 9.596294
_cell_length_b 20.522131
_cell_length_c 17.054658
_cell_angle_alpha 90.000000
_cell_angle_beta 90.000000
_cell_angle_gamma 90.000000
_cell_volume 3358.682994
_symmetry_space_group_name_H-M "C M C 21"
_symmetry_group_IT_number 36
_symmetry_cell_setting 'orthorhombic'
loop_
_space_group_symop_operation_xyz
x,y,z
-x,-y,1/2+z
x,-y,1/2+z
-x,y,z
1/2+x,1/2+y,z
1/2-x,1/2-y,1/2+z
1/2+x,1/2-y,1/2+z
1/2-x,1/2+y,z
loop_
_atom_site_type_symbol
_atom_site_label
_atom_site_fract_x
_atom_site_fract_y
_atom_site_fract_z
Si Si1 0.662149 0.692000 0.311780
Si Si2 0.840108 0.481926 0.051363
Si Si3 0.841487 0.904422 0.485480
Si Si4 0.344937 0.710890 0.566891
Si Si5 0.832488 0.827688 0.324973
Si Si6 0.842633 0.083853 0.676363
Si Si7 0.840785 0.351954 0.945485
Si Si8 0.346555 0.688207 0.135665
O O1 0.500000 0.700089 0.335139
O O2 0.741942 0.762085 0.313739
O O3 0.746141 0.644577 0.369022
O O4 0.662584 0.663546 0.224029
O O5 0.762781 0.536891 0.001414
O O6 0.759052 0.466324 0.132539
O O7 0.000000 0.499386 0.067477
O O8 0.839701 0.416857 0.997778
O O9 0.807819 0.859571 0.410400
O O10 0.840509 0.862796 0.565508
O O11 0.000000 0.928931 0.473546
O O12 0.500000 0.726705 0.539103
O O13 0.350640 0.643928 0.615060
O O14 0.234861 0.703062 0.497335
O O15 0.281768 0.763908 0.624080
O O16 0.799025 0.881799 0.257899
O O17 0.000000 0.057164 0.685549
O O18 0.000000 0.186146 0.817655
O O19 0.000000 0.334695 0.927409
O O20 0.500000 0.721920 0.129790
#
# Coordination Sequence:
#
# PCOD9350638 Si02
#       8
#     8   8   8   8   8   8   8   8
#     4  11  22  35  56  88 121 151 191 237 284 343
#     4  10  22  40  60  82 110 148 196 242 290 341
#     4  10  22  40  60  81 113 156 196 236 286 345
#     4  10  18  31  56  86 114 145 184 229 281 341
#     4  10  20  37  61  89 118 154 193 235 293 351
#     4   9  18  34  58  86 115 148 190 233 280 345
#     4  10  21  37  57  80 111 148 187 235 290 343
#     4  10  21  36  54  82 120 156 187 229 286 345
#
# _framework density 19.055087
#
# number of rings (size 3 to 8) (size 9 to 14) (size 15 to 20)
#    0.000    2.000    1.250    2.250    0.000    5.000 
#    2.250    0.000    0.000    0.000    0.000    0.000 
#    0.000    0.000    0.000    0.000    0.000    0.000 
#
# Total GULP energy -178453.868312 kJ/mol
# GULP energy per Si atom -5576.683385 kJ/mol
# Density = 1.901172 g / cm^3
# Si number density = 19.055087 Si / 1000 Ang^3
#
#
#
# Elastic Constant Matrix: (Units=GPa)
#
#
# Indices 1 2 3 4 5 6 
#
# 1 116.6998 27.5672 41.4416 0.0000 0.0000 0.0000
# 2 27.5672 17.8991 7.4047 0.0000 0.0000 0.0000
# 3 41.4416 7.4047 110.7701 0.0000 0.0000 0.0000
# 4 0.0000 0.0000 0.0000 20.7133 0.0000 0.0000
# 5 0.0000 0.0000 0.0000 0.0000 27.4589 0.0000
# 6 0.0000 0.0000 0.0000 0.0000 0.0000 20.9876
#
#
#
# Elastic Compliance Matrix: (Units=1/GPa)
#
#
# Indices 1 2 3 4 5 6 
#
# 1 0.015182 -0.021632 -0.004234 0.000000 0.000000 0.000000
# 2 -0.021632 0.088278 0.002192 0.000000 0.000000 0.000000
# 3 -0.004234 0.002192 0.010465 0.000000 0.000000 0.000000
# 4 0.000000 0.000000 0.000000 0.048278 0.000000 0.000000
# 5 0.000000 0.000000 0.000000 0.000000 0.036418 0.000000
# 6 0.000000 0.000000 0.000000 0.000000 0.000000 0.047647
#
#
# Mechanical properties :
#
#
# Convention : Reuss Voigt Hill
#
# Bulk Modulus (GPa) = 15.02002 44.24397 29.63200
# Shear Modulus (GPa) = 15.83233 25.09567 20.46400
#
# Velocity S-wave (km/s) = 2.88561 3.63299 3.28066
# Velocity P-wave (km/s) = 4.35911 6.39278 5.47126
#
# Compressibility (1/GPa) = 0.06657780
#
# Stress axis : x y z
#
# Youngs Moduli (GPa) = 65.86549 11.32785 95.55424
#
# Poissons Ratio (x) = 0.24504 0.40458
# Poissons Ratio (y) = 1.42478 -0.20943
# Poissons Ratio (z) = 0.27888 -0.02483
#
# Static dielectric constant tensor:
#      x y z
#    x 1.673400 0.000000 0.000000 
#    y 0.000000 1.654980 0.000000 
#    z 0.000000 0.000000 1.689420 
# 
# From -- ./inp_files/13867.got.cif
#   From: 2010.05.17/outbox.cif.g08.bks.cpg/sg36_7_cif.got.tgz:13867.got - 2010.06.03 17:41:39.
