data_PCOD9350626
_publ_section_title
;
Structure prediction by ZEFSAII (Michael W. Deem and Ramdas Pophale) SiO2 
 PCOD9350626
Probable space group: C M C 21
;
_chemical_formula_sum "Si O2"
_cell_formula_units_Z 64
_cell_length_a 8.403132
_cell_length_b 20.769081
_cell_length_c 20.513905
_cell_angle_alpha 90.000000
_cell_angle_beta 90.000000
_cell_angle_gamma 90.000000
_cell_volume 3580.196023
_symmetry_space_group_name_H-M "C M C 21"
_symmetry_group_IT_number 36
_symmetry_cell_setting 'orthorhombic'
loop_
_space_group_symop_operation_xyz
x,y,z
-x,-y,1/2+z
x,-y,1/2+z
-x,y,z
1/2+x,1/2+y,z
1/2-x,1/2-y,1/2+z
1/2+x,1/2-y,1/2+z
1/2-x,1/2+y,z
loop_
_atom_site_type_symbol
_atom_site_label
_atom_site_fract_x
_atom_site_fract_y
_atom_site_fract_z
Si Si1 0.194624 0.080468 0.049160
Si Si2 0.807608 0.978699 0.301025
Si Si3 0.192305 0.195522 0.958869
Si Si4 0.191529 0.975520 0.944404
Si Si5 0.811033 0.338751 0.314786
Si Si6 0.309583 0.202515 0.279768
Si Si7 0.308203 0.835333 0.926456
Si Si8 0.807740 0.914192 0.697484
O O1 0.247647 0.074872 0.123602
O O2 0.000000 0.079867 0.049483
O O3 0.244913 0.147484 0.015531
O O4 0.247318 0.022748 0.001745
O O5 0.751269 0.906409 0.287860
O O6 0.000000 0.979074 0.301657
O O7 0.751998 0.000096 0.373290
O O8 0.752727 0.030258 0.247367
O O9 0.247170 0.168990 0.888792
O O10 0.243388 0.269976 0.963027
O O11 0.000000 0.195091 0.957703
O O12 0.241579 0.901846 0.952903
O O13 0.000000 0.978751 0.943315
O O14 0.751591 0.275534 0.276748
O O15 0.000000 0.338858 0.316015
O O16 0.500000 0.203496 0.279004
O O17 0.258579 0.174634 0.350799
O O18 0.246194 0.154477 0.225267
O O19 0.500000 0.838211 0.927815
O O20 0.000000 0.915366 0.697559
#
# Coordination Sequence:
#
# PCOD9350626 Si02
#       8
#     8   8   8   8   8   8   8   8
#     4   9  18  34  55  76 104 143 181 214 264 326
#     4  10  19  33  53  78 108 141 178 219 269 319
#     4   9  17  34  54  75 106 143 175 213 271 324
#     4  10  18  31  53  77 104 139 174 214 263 317
#     4  11  21  32  53  82 107 134 179 228 267 312
#     4  10  20  35  54  77 108 141 173 219 276 325
#     4   9  18  30  50  77 103 131 168 215 262 307
#     4  10  20  35  56  80 106 142 184 222 262 322
#
# _framework density 17.876116
#
# number of rings (size 3 to 8) (size 9 to 14) (size 15 to 20)
#    0.000    2.250    2.500    2.250    0.000    3.000 
#    0.000    2.500    0.000    3.000    0.000    0.000 
#    0.000    0.000    0.000    0.000    0.000    0.000 
#
# Total GULP energy -178524.785678 kJ/mol
# GULP energy per Si atom -5578.899552 kJ/mol
# Density = 1.783543 g / cm^3
# Si number density = 17.876116 Si / 1000 Ang^3
#
#
#
# Elastic Constant Matrix: (Units=GPa)
#
#
# Indices 1 2 3 4 5 6 
#
# 1 6.1283 16.9797 19.2885 0.0000 0.0000 0.0000
# 2 16.9797 169.1968 88.9760 0.0000 0.0000 0.0000
# 3 19.2885 88.9760 123.5381 0.0000 0.0000 0.0000
# 4 0.0000 0.0000 0.0000 25.1418 0.0000 0.0000
# 5 0.0000 0.0000 0.0000 0.0000 10.9401 0.0000
# 6 0.0000 0.0000 0.0000 0.0000 0.0000 29.6709
#
#
#
# Elastic Compliance Matrix: (Units=1/GPa)
#
#
# Indices 1 2 3 4 5 6 
#
# 1 0.330462 -0.009707 -0.044605 0.000000 0.000000 0.000000
# 2 -0.009707 0.009799 -0.005542 0.000000 0.000000 0.000000
# 3 -0.044605 -0.005542 0.019050 0.000000 0.000000 0.000000
# 4 0.000000 0.000000 0.000000 0.039774 0.000000 0.000000
# 5 0.000000 0.000000 0.000000 0.000000 0.091407 0.000000
# 6 0.000000 0.000000 0.000000 0.000000 0.000000 0.033703
#
#
# Mechanical properties :
#
#
# Convention : Reuss Voigt Hill
#
# Bulk Modulus (GPa) = 4.17356 61.03906 32.60631
# Shear Modulus (GPa) = 6.90826 24.72514 15.81670
#
# Velocity S-wave (km/s) = 1.96797 3.72309 2.97778
# Velocity P-wave (km/s) = 2.73928 7.25959 5.48659
#
# Compressibility (1/GPa) = 0.23960366
#
# Stress axis : x y z
#
# Youngs Moduli (GPa) = 3.02607 102.05488 52.49229
#
# Poissons Ratio (x) = 0.99062 2.34143
# Poissons Ratio (y) = 0.02937 0.29090
# Poissons Ratio (z) = 0.13498 0.56556
#
# Static dielectric constant tensor:
#      x y z
#    x 1.613970 0.000000 0.000000 
#    y 0.000000 1.609610 0.000000 
#    z 0.000000 0.000000 1.599980 
# 
# From -- ./inp_files/13928.got.cif
#   From: 2010.05.17/outbox.cif.g08.bks.cpg/sg36_7_cif.got.tgz:13928.got - 2010.06.03 17:41:39.
