data_PCOD9350695
_publ_section_title
;
Structure prediction by ZEFSAII (Michael W. Deem and Ramdas Pophale) SiO2 
 PCOD9350695
Probable space group: C M C 21
;
_chemical_formula_sum "Si O2"
_cell_formula_units_Z 64
_cell_length_a 8.732169
_cell_length_b 23.699833
_cell_length_c 16.555423
_cell_angle_alpha 90.000000
_cell_angle_beta 90.000000
_cell_angle_gamma 90.000000
_cell_volume 3426.160468
_symmetry_space_group_name_H-M "C M C 21"
_symmetry_group_IT_number 36
_symmetry_cell_setting 'orthorhombic'
loop_
_space_group_symop_operation_xyz
x,y,z
-x,-y,1/2+z
x,-y,1/2+z
-x,y,z
1/2+x,1/2+y,z
1/2-x,1/2-y,1/2+z
1/2+x,1/2-y,1/2+z
1/2-x,1/2+y,z
loop_
_atom_site_type_symbol
_atom_site_label
_atom_site_fract_x
_atom_site_fract_y
_atom_site_fract_z
Si Si1 0.318229 0.969805 0.163990
Si Si2 0.812967 0.596491 0.214102
Si Si3 0.672191 0.546794 0.949651
Si Si4 0.825148 0.116022 0.785013
Si Si5 0.679769 0.142185 0.044481
Si Si6 0.685394 0.286208 0.398348
Si Si7 0.815978 0.657494 0.378716
Si Si8 0.820124 0.928226 0.996190
O O1 0.500000 0.973564 0.151232
O O2 0.278241 0.918605 0.223952
O O3 0.265850 0.031180 0.198182
O O4 0.237023 0.952329 0.081118
O O5 0.766371 0.635049 0.137016
O O6 0.760939 0.624243 0.298403
O O7 0.000000 0.595986 0.214844
O O8 0.500000 0.550570 0.985874
O O9 0.667687 0.577783 0.864943
O O10 0.708292 0.481695 0.937867
O O11 0.788574 0.580526 0.005787
O O12 0.767324 0.175154 0.821725
O O13 0.000000 0.122447 0.753412
O O14 0.500000 0.154420 0.044994
O O15 0.758481 0.185717 0.982327
O O16 0.500000 0.288630 0.399947
O O17 0.736547 0.222209 0.385261
O O18 0.766475 0.624335 0.458719
O O19 0.000000 0.658545 0.374364
O O20 0.000000 0.915950 0.999890
#
# Coordination Sequence:
#
# PCOD9350695 Si02
#       8
#     8   8   8   8   8   8   8   8
#     4  11  21  35  55  84 117 146 186 233 284 345
#     4   9  19  35  57  86 113 144 188 235 285 340
#     4   9  18  33  54  80 112 146 181 221 281 343
#     4   9  18  34  54  80 109 143 184 228 279 334
#     4  10  18  32  57  85 113 144 188 238 278 329
#     4   9  20  39  59  79 112 153 193 232 281 340
#     4  10  21  40  61  80 112 155 194 234 286 340
#     4  11  22  36  55  82 116 149 184 231 286 339
#
# _framework density 18.679803
#
# number of rings (size 3 to 8) (size 9 to 14) (size 15 to 20)
#    0.000    2.250    1.250    2.625    0.000    3.000 
#    2.250    1.875    0.000    0.000    0.000    0.000 
#    0.000    0.000    0.000    0.000    0.000    0.000 
#
# Total GULP energy -178347.982697 kJ/mol
# GULP energy per Si atom -5573.374459 kJ/mol
# Density = 1.863729 g / cm^3
# Si number density = 18.679803 Si / 1000 Ang^3
#
#
#
# Elastic Constant Matrix: (Units=GPa)
#
#
# Indices 1 2 3 4 5 6 
#
# 1 8.7381 17.9477 6.5646 0.0000 0.0000 0.0000
# 2 17.9477 148.6313 52.4566 0.0000 0.0000 0.0000
# 3 6.5646 52.4566 64.1840 0.0000 0.0000 0.0000
# 4 0.0000 0.0000 0.0000 23.2973 0.0000 0.0000
# 5 0.0000 0.0000 0.0000 0.0000 24.4510 0.0000
# 6 0.0000 0.0000 0.0000 0.0000 0.0000 20.5555
#
#
#
# Elastic Compliance Matrix: (Units=1/GPa)
#
#
# Indices 1 2 3 4 5 6 
#
# 1 0.152215 -0.018110 -0.000767 0.000000 0.000000 0.000000
# 2 -0.018110 0.011610 -0.007636 0.000000 0.000000 0.000000
# 3 -0.000767 -0.007636 0.021900 0.000000 0.000000 0.000000
# 4 0.000000 0.000000 0.000000 0.042923 0.000000 0.000000
# 5 0.000000 0.000000 0.000000 0.000000 0.040898 0.000000
# 6 0.000000 0.000000 0.000000 0.000000 0.000000 0.048649
#
#
# Mechanical properties :
#
#
# Convention : Reuss Voigt Hill
#
# Bulk Modulus (GPa) = 7.53592 41.72124 24.62858
# Shear Modulus (GPa) = 12.03500 23.29973 17.66737
#
# Velocity S-wave (km/s) = 2.54102 3.53558 3.07872
# Velocity P-wave (km/s) = 3.55697 6.24904 5.08442
#
# Compressibility (1/GPa) = 0.13269778
#
# Stress axis : x y z
#
# Youngs Moduli (GPa) = 6.56965 86.13270 45.66242
#
# Poissons Ratio (x) = 1.55983 0.03504
# Poissons Ratio (y) = 0.11897 0.34870
# Poissons Ratio (z) = 0.00504 0.65775
#
# Static dielectric constant tensor:
#      x y z
#    x 1.651180 0.000000 0.000000 
#    y 0.000000 1.672230 0.000000 
#    z 0.000000 0.000000 1.663810 
# 
# From -- ./inp_files/11005.got.cif
#   From: 2010.05.17/outbox.cif.g08.bks.cpg/sg36_6_cif.got.tgz:11005.got - 2010.06.03 17:41:39.
