data_PCOD9350575
_publ_section_title
;
Structure prediction by ZEFSAII (Michael W. Deem and Ramdas Pophale) SiO2 
 PCOD9350575
Probable space group: C M C 21
;
_chemical_formula_sum "Si O2"
_cell_formula_units_Z 64
_cell_length_a 7.309616
_cell_length_b 29.690690
_cell_length_c 13.203094
_cell_angle_alpha 90.000000
_cell_angle_beta 90.000000
_cell_angle_gamma 90.000000
_cell_volume 2865.435047
_symmetry_space_group_name_H-M "C M C 21"
_symmetry_group_IT_number 36
_symmetry_cell_setting 'orthorhombic'
loop_
_space_group_symop_operation_xyz
x,y,z
-x,-y,1/2+z
x,-y,1/2+z
-x,y,z
1/2+x,1/2+y,z
1/2-x,1/2-y,1/2+z
1/2+x,1/2-y,1/2+z
1/2-x,1/2+y,z
loop_
_atom_site_type_symbol
_atom_site_label
_atom_site_fract_x
_atom_site_fract_y
_atom_site_fract_z
Si Si1 0.214201 0.677086 0.779660
Si Si2 0.223211 0.529360 0.653700
Si Si3 0.721088 0.776056 0.857728
Si Si4 0.222316 0.567956 0.085070
Si Si5 0.723116 0.918085 0.356914
Si Si6 0.290707 0.816258 0.058979
Si Si7 0.208081 0.415312 0.961419
Si Si8 0.276264 0.869167 0.760051
O O1 0.228588 0.725929 0.827929
O O2 0.282371 0.633734 0.839911
O O3 0.297095 0.681442 0.668080
O O4 0.000000 0.666324 0.764954
O O5 0.273696 0.477288 0.644650
O O6 0.281570 0.553423 0.757944
O O7 0.287283 0.552981 0.548993
O O8 0.000000 0.532967 0.652699
O O9 0.500000 0.778534 0.859033
O O10 0.780539 0.818019 0.786780
O O11 0.790865 0.786444 0.970393
O O12 0.279204 0.610927 0.151965
O O13 0.000000 0.568825 0.082415
O O14 0.283816 0.566696 0.968482
O O15 0.500000 0.920694 0.358596
O O16 0.500000 0.799918 0.072557
O O17 0.299219 0.866493 0.014696
O O18 0.284889 0.402966 0.850792
O O19 0.000000 0.432011 0.943058
O O20 0.500000 0.869368 0.764267
#
# Coordination Sequence:
#
# PCOD9350575 Si02
#       8
#     8   8   8   8   8   8   8   8
#     4  10  18  30  48  67  91 122 155 192 234 274
#     4   9  15  22  35  54  79 113 146 174 210 268
#     4   9  18  31  47  66  90 122 160 193 227 274
#     4   9  17  24  34  56  88 119 143 176 228 278
#     4   9  17  27  37  57  87 115 144 182 228 270
#     4   8  14  27  43  60  83 117 155 186 220 269
#     4   8  12  21  37  52  70 105 148 179 204 252
#     4   8  15  26  38  54  80 113 145 180 223 265
#
# _framework density 22.335177999999999
#
# number of rings (size 3 to 8) (size 9 to 14) (size 15 to 20)
#    0.000    3.250    1.250    1.500    1.750    1.000 
#    0.000    1.875    0.000    0.000    0.000    0.000 
#    0.000    2.000    0.000    0.250    0.000    0.000 
#
# Total GULP energy -178403.628947 kJ/mol
# GULP energy per Si atom -5575.113405 kJ/mol
# Density = 2.228434 g / cm^3
# Si number density = 22.335178 Si / 1000 Ang^3
#
#
#
# Elastic Constant Matrix: (Units=GPa)
#
#
# Indices 1 2 3 4 5 6 
#
# 1 88.0589 -4.6589 4.1303 0.0000 0.0000 0.0000
# 2 -4.6589 114.0301 77.2219 0.0000 0.0000 0.0000
# 3 4.1303 77.2219 125.1012 0.0000 0.0000 0.0000
# 4 0.0000 0.0000 0.0000 23.2500 0.0000 0.0000
# 5 0.0000 0.0000 0.0000 0.0000 -19.1042 0.0000
# 6 0.0000 0.0000 0.0000 0.0000 0.0000 6.6547
#
#
#
# Elastic Compliance Matrix: (Units=1/GPa)
#
#
# Indices 1 2 3 4 5 6 
#
# 1 0.011476 0.001247 -0.001148 0.000000 0.000000 0.000000
# 2 0.001247 0.015204 -0.009426 0.000000 0.000000 0.000000
# 3 -0.001148 -0.009426 0.013850 0.000000 0.000000 0.000000
# 4 0.000000 0.000000 0.000000 0.043011 0.000000 0.000000
# 5 0.000000 0.000000 0.000000 0.000000 -0.052344 0.000000
# 6 0.000000 0.000000 0.000000 0.000000 0.000000 0.150269
#
#
# Mechanical properties :
#
#
# Convention : Reuss Voigt Hill
#
# Bulk Modulus (GPa) = 45.71675 53.39743 49.55709
# Shear Modulus (GPa) = 24.10659 18.85990 21.48324
#
# Velocity S-wave (km/s) = 3.28885 2.90901 3.10475
# Velocity P-wave (km/s) = 5.91058 5.93653 5.92357
#
# Compressibility (1/GPa) = 0.02187382
#
# Stress axis : x y z
#
# Youngs Moduli (GPa) = 87.13958 65.77194 72.20201
#
# Poissons Ratio (x) = -0.08199 0.08291
# Poissons Ratio (y) = -0.10862 0.68059
# Poissons Ratio (z) = 0.10006 0.61998
#
# Static dielectric constant tensor:
#      x y z
#    x 1.877690 0.000000 0.000000 
#    y 0.000000 1.786180 0.000000 
#    z 0.000000 0.000000 1.833640 
# 
# From -- ./inp_files/8068.got.cif
#   From: 2010.05.17/outbox.cif.g08.bks.cpg/sg36_5_cif.got.tgz:8068.got - 2010.06.03 17:41:39.
