data_PCOD9350983
_publ_section_title
;
Structure prediction by ZEFSAII (Michael W. Deem and Ramdas Pophale) SiO2 
 PCOD9350983
Probable space group: C M C 21
;
_chemical_formula_sum "Si O2"
_cell_formula_units_Z 64
_cell_length_a 9.598266
_cell_length_b 16.563573
_cell_length_c 20.046018
_cell_angle_alpha 90.000000
_cell_angle_beta 90.000000
_cell_angle_gamma 90.000000
_cell_volume 3186.947606
_symmetry_space_group_name_H-M "C M C 21"
_symmetry_group_IT_number 36
_symmetry_cell_setting 'orthorhombic'
loop_
_space_group_symop_operation_xyz
x,y,z
-x,-y,1/2+z
x,-y,1/2+z
-x,y,z
1/2+x,1/2+y,z
1/2-x,1/2-y,1/2+z
1/2+x,1/2-y,1/2+z
1/2-x,1/2+y,z
loop_
_atom_site_type_symbol
_atom_site_label
_atom_site_fract_x
_atom_site_fract_y
_atom_site_fract_z
Si Si1 0.166283 0.820790 0.760980
Si Si2 0.344956 0.797188 0.518115
Si Si3 0.335144 0.838058 0.088916
Si Si4 0.162999 0.998369 0.814277
Si Si5 0.155616 0.398642 0.651722
Si Si6 0.154059 0.907938 0.447340
Si Si7 0.335941 0.142083 0.747738
Si Si8 0.156298 0.987491 0.080816
O O1 0.272286 0.834890 0.700033
O O2 0.192411 0.728551 0.784434
O O3 0.000000 0.822286 0.742076
O O4 0.192584 0.902664 0.803882
O O5 0.500000 0.765164 0.503328
O O6 0.240014 0.733285 0.549872
O O7 0.359797 0.861051 0.578496
O O8 0.273385 0.841466 0.455885
O O9 0.500000 0.835813 0.078975
O O10 0.309948 0.840566 0.168932
O O11 0.262059 0.917817 0.061484
O O12 0.182070 0.026232 0.890708
O O13 0.250952 0.065117 0.773711
O O14 0.000000 0.008593 0.796893
O O15 0.270259 0.468114 0.642749
O O16 0.000000 0.424190 0.673733
O O17 0.000000 0.872320 0.433800
O O18 0.145580 0.952321 0.518574
O O19 0.500000 0.124650 0.755036
O O20 0.000000 0.958946 0.097069
#
# Coordination Sequence:
#
# PCOD9350983 Si02
#       8
#     8   8   8   8   8   8   8   8
#     4  10  20  37  59  83 114 158 198 235 293 359
#     4  10  20  34  56  83 111 146 187 233 287 345
#     4  11  21  35  56  85 121 151 186 239 298 358
#     4  10  22  40  62  84 113 155 203 247 290 347
#     4  10  19  32  53  82 112 142 183 232 286 345
#     4   9  20  40  59  78 110 152 194 237 290 348
#     4  10  22  38  58  88 123 157 195 240 299 359
#     4  10  20  34  55  81 112 149 190 235 291 355
#
# _framework density 20.081911999999999
#
# number of rings (size 3 to 8) (size 9 to 14) (size 15 to 20)
#    0.000    2.000    1.250    2.250    0.000    6.000 
#    2.250    0.000    0.000    0.000    0.000    0.000 
#    0.000    0.000    0.000    0.000    0.000    0.000 
#
# Total GULP energy -178303.867071 kJ/mol
# GULP energy per Si atom -5571.995846 kJ/mol
# Density = 2.003620 g / cm^3
# Si number density = 20.081912 Si / 1000 Ang^3
#
#
#
# Elastic Constant Matrix: (Units=GPa)
#
#
# Indices 1 2 3 4 5 6 
#
# 1 92.0023 29.6170 17.0595 0.0000 0.0000 0.0000
# 2 29.6170 73.1101 2.4121 0.0000 0.0000 0.0000
# 3 17.0595 2.4121 21.9465 0.0000 0.0000 0.0000
# 4 0.0000 0.0000 0.0000 16.1911 0.0000 0.0000
# 5 0.0000 0.0000 0.0000 0.0000 -0.9132 0.0000
# 6 0.0000 0.0000 0.0000 0.0000 0.0000 26.1886
#
#
#
# Elastic Compliance Matrix: (Units=1/GPa)
#
#
# Indices 1 2 3 4 5 6 
#
# 1 0.014668 -0.005586 -0.010788 0.000000 0.000000 0.000000
# 2 -0.005586 0.015855 0.002600 0.000000 0.000000 0.000000
# 3 -0.010788 0.002600 0.053665 0.000000 0.000000 0.000000
# 4 0.000000 0.000000 0.000000 0.061762 0.000000 0.000000
# 5 0.000000 0.000000 0.000000 0.000000 -1.095017 0.000000
# 6 0.000000 0.000000 0.000000 0.000000 0.000000 0.038185
#
#
# Mechanical properties :
#
#
# Convention : Reuss Voigt Hill
#
# Bulk Modulus (GPa) = 17.65544 31.69291 24.67418
# Shear Modulus (GPa) = -5.78400 17.49130 5.85365
#
# Velocity S-wave (km/s) = -1.69896 2.95447 1.70916
# Velocity P-wave (km/s) = 2.22760 5.23971 4.02596
#
# Compressibility (1/GPa) = 0.05663975
#
# Stress axis : x y z
#
# Youngs Moduli (GPa) = 68.17636 63.07094 18.63407
#
# Poissons Ratio (x) = 0.35232 0.20102
# Poissons Ratio (y) = 0.38084 -0.04844
# Poissons Ratio (z) = 0.73547 -0.16396
#
# Static dielectric constant tensor:
#      x y z
#    x 1.721380 0.000000 0.000000 
#    y 0.000000 1.784870 0.000000 
#    z 0.000000 0.000000 1.727920 
# 
# From -- ./inp_files/15662.got.cif
#   From: 2010.05.17/outbox.cif.g08.bks.cpg/sg36_8_cif.got.tgz:15662.got - 2010.06.03 17:41:39.
