data_PCOD9350645
_publ_section_title
;
Structure prediction by ZEFSAII (Michael W. Deem and Ramdas Pophale) SiO2 
 PCOD9350645
Probable space group: C M C 21
;
_chemical_formula_sum "Si O2"
_cell_formula_units_Z 64
_cell_length_a 21.641523
_cell_length_b 27.441043
_cell_length_c 5.435746
_cell_angle_alpha 90.000000
_cell_angle_beta 90.000000
_cell_angle_gamma 90.000000
_cell_volume 3228.104534
_symmetry_space_group_name_H-M "C M C 21"
_symmetry_group_IT_number 36
_symmetry_cell_setting 'orthorhombic'
loop_
_space_group_symop_operation_xyz
x,y,z
-x,-y,1/2+z
x,-y,1/2+z
-x,y,z
1/2+x,1/2+y,z
1/2-x,1/2-y,1/2+z
1/2+x,1/2-y,1/2+z
1/2-x,1/2+y,z
loop_
_atom_site_type_symbol
_atom_site_label
_atom_site_fract_x
_atom_site_fract_y
_atom_site_fract_z
Si Si1 0.628356 0.725418 0.783480
Si Si2 0.402296 0.984773 0.291162
Si Si3 0.640799 0.702209 0.286241
Si Si4 0.074105 0.328011 0.647423
Si Si5 0.574109 0.120428 0.643156
Si Si6 0.764103 0.475326 0.813321
Si Si7 0.775839 0.301667 0.294605
Si Si8 0.259478 0.141301 0.292637
O O1 0.605038 0.699443 0.539221
O O2 0.608102 0.780406 0.744360
O O3 0.703434 0.716495 0.794058
O O4 0.603048 0.705961 0.038564
O O5 0.393695 0.928311 0.234150
O O6 0.433683 0.991963 0.553338
O O7 0.336555 0.010882 0.317249
O O8 0.681924 0.753024 0.293633
O O9 0.688324 0.658126 0.280003
O O10 0.086747 0.340564 0.360987
O O11 0.000000 0.321085 0.663880
O O12 0.089702 0.367691 0.859583
O O13 0.500000 0.112111 0.650549
O O14 0.738363 0.501450 0.566726
O O15 0.761982 0.416853 0.800045
O O16 0.785342 0.334269 0.540283
O O17 0.783775 0.333467 0.045870
#
# Coordination Sequence:
#
# PCOD9350645 Si02
#       8
#     8   8   8   8   8   8   8   8
#     4  10  18  32  48  71 101 121 150 197 230 290
#     4  10  21  38  47  67  89 107 160 214 252 305
#     4  10  19  33  46  77 100 118 157 188 238 311
#     4  10  21  37  53  75  98 126 165 199 252 308
#     4  10  21  38  54  68  89 121 163 212 264 304
#     4  10  21  37  45  66  95 123 166 202 235 295
#     4  10  19  33  47  77  98 119 157 187 239 313
#     4  10  18  32  51  61  96 133 144 195 246 268
#
# _framework density 19.825876000000001
#
# number of rings (size 3 to 8) (size 9 to 14) (size 15 to 20)
#    0.000    2.000    0.000    6.000    0.000    0.500 
#   36.000    0.000    0.000    0.000    0.000    0.000 
#    0.000    0.000    0.000    0.000    0.000  200.000 
#
# Total GULP energy -178687.613388 kJ/mol
# GULP energy per Si atom -5583.987918 kJ/mol
# Density = 1.978075 g / cm^3
# Si number density = 19.825876 Si / 1000 Ang^3
#
#
#
# Elastic Constant Matrix: (Units=GPa)
#
#
# Indices 1 2 3 4 5 6 
#
# 1 7.0844 12.0580 0.7881 0.0000 0.0000 0.0000
# 2 12.0580 74.1299 6.2415 0.0000 0.0000 0.0000
# 3 0.7881 6.2415 176.9812 0.0000 0.0000 0.0000
# 4 0.0000 0.0000 0.0000 32.5623 0.0000 0.0000
# 5 0.0000 0.0000 0.0000 0.0000 15.2366 0.0000
# 6 0.0000 0.0000 0.0000 0.0000 0.0000 39.0689
#
#
#
# Elastic Compliance Matrix: (Units=1/GPa)
#
#
# Indices 1 2 3 4 5 6 
#
# 1 0.195205 -0.031773 0.000251 0.000000 0.000000 0.000000
# 2 -0.031773 0.018702 -0.000518 0.000000 0.000000 0.000000
# 3 0.000251 -0.000518 0.005667 0.000000 0.000000 0.000000
# 4 0.000000 0.000000 0.000000 0.030710 0.000000 0.000000
# 5 0.000000 0.000000 0.000000 0.000000 0.065631 0.000000
# 6 0.000000 0.000000 0.000000 0.000000 0.000000 0.025596
#
#
# Mechanical properties :
#
#
# Convention : Reuss Voigt Hill
#
# Bulk Modulus (GPa) = 6.43110 32.93008 19.68059
# Shear Modulus (GPa) = 10.93079 33.31410 22.12244
#
# Velocity S-wave (km/s) = 2.35061 4.10364 3.34404
# Velocity P-wave (km/s) = 3.25852 6.25290 4.98582
#
# Compressibility (1/GPa) = 0.15549444
#
# Stress axis : x y z
#
# Youngs Moduli (GPa) = 5.12281 53.47108 176.44565
#
# Poissons Ratio (x) = 1.69895 -0.04433
# Poissons Ratio (y) = 0.16277 0.09141
# Poissons Ratio (z) = -0.00129 0.02770
#
# Static dielectric constant tensor:
#      x y z
#    x 1.707230 0.000000 0.000000 
#    y 0.000000 1.688890 0.000000 
#    z 0.000000 0.000000 1.868530 
# 
# From -- ./inp_files/1664.got.cif
#   From: 2010.05.17/outbox.cif.g08.bks.cpg/sg36_1_cif.got.tgz:1664.got - 2010.06.03 17:41:39.
