data_PCOD9350659
_publ_section_title
;
Structure prediction by ZEFSAII (Michael W. Deem and Ramdas Pophale) SiO2 
 PCOD9350659
Probable space group: C M C 21
;
_chemical_formula_sum "Si O2"
_cell_formula_units_Z 56
_cell_length_a 18.970020
_cell_length_b 18.069194
_cell_length_c 8.878904
_cell_angle_alpha 90.000000
_cell_angle_beta 90.000000
_cell_angle_gamma 90.000000
_cell_volume 3043.448308
_symmetry_space_group_name_H-M "C M C 21"
_symmetry_group_IT_number 36
_symmetry_cell_setting 'orthorhombic'
loop_
_space_group_symop_operation_xyz
x,y,z
-x,-y,1/2+z
x,-y,1/2+z
-x,y,z
1/2+x,1/2+y,z
1/2-x,1/2-y,1/2+z
1/2+x,1/2-y,1/2+z
1/2-x,1/2+y,z
loop_
_atom_site_type_symbol
_atom_site_label
_atom_site_fract_x
_atom_site_fract_y
_atom_site_fract_z
Si Si1 0.421080 0.180383 0.755870
Si Si2 0.363394 0.409510 0.079286
Si Si3 0.686905 0.754781 0.838449
Si Si4 0.917999 0.259279 0.590817
Si Si5 0.080545 0.826713 0.545067
Si Si6 0.219984 0.345514 0.133307
Si Si7 0.581763 0.461099 0.768680
O O1 0.500000 0.149823 0.735391
O O2 0.418172 0.257348 0.661108
O O3 0.356841 0.132458 0.692072
O O4 0.410918 0.200815 0.930379
O O5 0.372884 0.444666 0.915270
O O6 0.393770 0.326170 0.072312
O O7 0.281714 0.405065 0.125293
O O8 0.404820 0.459061 0.198600
O O9 0.634297 0.791186 0.716995
O O10 0.750576 0.717189 0.748190
O O11 0.638337 0.692553 0.920161
O O12 0.712928 0.809001 0.968494
O O13 0.000000 0.262064 0.635484
O O14 0.096102 0.900349 0.639225
O O15 0.000000 0.832027 0.485705
O O16 0.500000 0.452446 0.813182
#
# Coordination Sequence:
#
# PCOD9350659 Si02
#       7
#     8   8   8   8   8   8   8
#     4   9  17  34  57  78 103 135 170 219 281 329
#     4  11  23  35  50  73 110 149 185 218 258 302
#     4  10  20  30  50  72 106 139 179 217 269 319
#     4  10  18  32  52  78 108 140 176 217 266 322
#     4   9  18  32  51  74 104 142 179 215 257 310
#     4  10  21  35  49  75 105 141 179 224 272 319
#     4  11  22  36  52  74 106 148 190 218 246 299
#
# _framework density 18.400179999999999
#
# number of rings (size 3 to 8) (size 9 to 14) (size 15 to 20)
#    0.000    2.000    1.429    3.429    6.000    0.571 
#    0.000    0.000    0.000    0.000    0.000    1.000 
#    0.000    0.000    0.000    0.000    0.000    0.000 
#
# Total GULP energy -156324.273851 kJ/mol
# GULP energy per Si atom -5583.009780 kJ/mol
# Density = 1.835830 g / cm^3
# Si number density = 18.400180 Si / 1000 Ang^3
#
#
#
# Elastic Constant Matrix: (Units=GPa)
#
#
# Indices 1 2 3 4 5 6 
#
# 1 102.3291 -3.5962 29.8456 0.0000 0.0000 0.0000
# 2 -3.5962 9.5966 -4.8618 0.0000 0.0000 0.0000
# 3 29.8456 -4.8618 78.4335 0.0000 0.0000 0.0000
# 4 0.0000 0.0000 0.0000 17.1155 0.0000 0.0000
# 5 0.0000 0.0000 0.0000 0.0000 41.7749 0.0000
# 6 0.0000 0.0000 0.0000 0.0000 0.0000 20.5095
#
#
#
# Elastic Compliance Matrix: (Units=1/GPa)
#
#
# Indices 1 2 3 4 5 6 
#
# 1 0.011032 0.002072 -0.004069 0.000000 0.000000 0.000000
# 2 0.002072 0.107971 0.005904 0.000000 0.000000 0.000000
# 3 -0.004069 0.005904 0.014664 0.000000 0.000000 0.000000
# 4 0.000000 0.000000 0.000000 0.058426 0.000000 0.000000
# 5 0.000000 0.000000 0.000000 0.000000 0.023938 0.000000
# 6 0.000000 0.000000 0.000000 0.000000 0.000000 0.048758
#
#
# Mechanical properties :
#
#
# Convention : Reuss Voigt Hill
#
# Bulk Modulus (GPa) = 7.06805 25.90380 16.48592
# Shear Modulus (GPa) = 16.44002 27.14477 21.79239
#
# Velocity S-wave (km/s) = 2.99234 3.84506 3.44518
# Velocity P-wave (km/s) = 3.97347 5.81560 4.98044
#
# Compressibility (1/GPa) = 0.14148181
#
# Stress axis : x y z
#
# Youngs Moduli (GPa) = 90.64423 9.26173 68.19345
#
# Poissons Ratio (x) = -0.01919 0.27751
# Poissons Ratio (y) = -0.18786 -0.40263
# Poissons Ratio (z) = 0.36888 -0.05468
#
# Static dielectric constant tensor:
#      x y z
#    x 1.662050 0.000000 0.000000 
#    y 0.000000 1.602420 0.000000 
#    z 0.000000 0.000000 1.656250 
# 
# From -- ./inp_files/4873.got.cif
#   From: 2010.05.17/outbox.cif.g08.bks.cpg/sg36_3_cif.got.tgz:4873.got - 2010.06.03 17:41:39.
