data_PCOD9350630
_publ_section_title
;
Structure prediction by ZEFSAII (Michael W. Deem and Ramdas Pophale) SiO2 
 PCOD9350630
Probable space group: C M C 21
;
_chemical_formula_sum "Si O2"
_cell_formula_units_Z 56
_cell_length_a 13.716936
_cell_length_b 20.728085
_cell_length_c 9.817460
_cell_angle_alpha 90.000000
_cell_angle_beta 90.000000
_cell_angle_gamma 90.000000
_cell_volume 2791.357319
_symmetry_space_group_name_H-M "C M C 21"
_symmetry_group_IT_number 36
_symmetry_cell_setting 'orthorhombic'
loop_
_space_group_symop_operation_xyz
x,y,z
-x,-y,1/2+z
x,-y,1/2+z
-x,y,z
1/2+x,1/2+y,z
1/2-x,1/2-y,1/2+z
1/2+x,1/2-y,1/2+z
1/2-x,1/2+y,z
loop_
_atom_site_type_symbol
_atom_site_label
_atom_site_fract_x
_atom_site_fract_y
_atom_site_fract_z
Si Si1 0.117573 0.482160 0.565660
Si Si2 0.615876 0.638262 0.772577
Si Si3 0.382265 0.234271 0.451560
Si Si4 0.804584 0.428734 0.289669
Si Si5 0.117937 0.226436 0.529177
Si Si6 0.117897 0.285172 0.257568
Si Si7 0.617994 0.850433 0.709726
O O1 0.163690 0.541631 0.645786
O O2 0.151507 0.471520 0.411220
O O3 0.150375 0.418283 0.649630
O O4 0.000000 0.487317 0.568417
O O5 0.500000 0.624728 0.778898
O O6 0.637027 0.698512 0.873951
O O7 0.688616 0.580354 0.804191
O O8 0.643193 0.665664 0.622639
O O9 0.500000 0.230827 0.457010
O O10 0.346779 0.231387 0.606005
O O11 0.351508 0.173473 0.359129
O O12 0.849061 0.356785 0.298042
O O13 0.151061 0.235345 0.374320
O O14 0.143999 0.292070 0.608619
O O15 0.000000 0.225395 0.527239
O O16 0.000000 0.284769 0.256335
O O17 0.500000 0.853659 0.711169
#
# Coordination Sequence:
#
# PCOD9350630 Si02
#       7
#     8   8   8   8   8   8   8
#     4  11  23  40  58  85 121 155 194 248 300 360
#     4   9  20  41  61  82 116 155 201 249 293 347
#     4   8  16  31  56  86 118 154 187 233 297 352
#     4  12  25  38  59  85 116 161 206 239 301 356
#     4   8  14  30  57  84 115 153 185 231 296 351
#     4  10  18  31  53  89 125 151 187 234 294 365
#     4   8  14  29  53  77 111 157 187 218 284 351
#
# _framework density 20.061924000000001
#
# number of rings (size 3 to 8) (size 9 to 14) (size 15 to 20)
#    0.000    2.571    1.429    3.000    2.000    1.143 
#    0.000    2.143    0.000    0.000    0.000    0.000 
#    0.000    0.000    0.000    0.000    0.000    0.000 
#
# Total GULP energy -156312.752967 kJ/mol
# GULP energy per Si atom -5582.598320 kJ/mol
# Density = 2.001626 g / cm^3
# Si number density = 20.061924 Si / 1000 Ang^3
#
#
#
# Elastic Constant Matrix: (Units=GPa)
#
#
# Indices 1 2 3 4 5 6 
#
# 1 92.1769 17.7480 6.6623 0.0000 0.0000 0.0000
# 2 17.7480 23.8626 5.9209 0.0000 0.0000 0.0000
# 3 6.6623 5.9209 130.3315 0.0000 0.0000 0.0000
# 4 0.0000 0.0000 0.0000 5.3372 0.0000 0.0000
# 5 0.0000 0.0000 0.0000 0.0000 8.0283 0.0000
# 6 0.0000 0.0000 0.0000 0.0000 0.0000 26.8261
#
#
#
# Elastic Compliance Matrix: (Units=1/GPa)
#
#
# Indices 1 2 3 4 5 6 
#
# 1 0.012668 -0.009367 -0.000222 0.000000 0.000000 0.000000
# 2 -0.009367 0.049310 -0.001761 0.000000 0.000000 0.000000
# 3 -0.000222 -0.001761 0.007764 0.000000 0.000000 0.000000
# 4 0.000000 0.000000 0.000000 0.187366 0.000000 0.000000
# 5 0.000000 0.000000 0.000000 0.000000 0.124559 0.000000
# 6 0.000000 0.000000 0.000000 0.000000 0.000000 0.037277
#
#
# Mechanical properties :
#
#
# Convention : Reuss Voigt Hill
#
# Bulk Modulus (GPa) = 21.25761 34.11483 27.68622
# Shear Modulus (GPa) = 10.93313 22.44097 16.68705
#
# Velocity S-wave (km/s) = 2.33699 3.34815 2.88718
# Velocity P-wave (km/s) = 4.23096 5.65584 4.99447
#
# Compressibility (1/GPa) = 0.04704197
#
# Stress axis : x y z
#
# Youngs Moduli (GPa) = 78.93709 20.27969 128.79778
#
# Poissons Ratio (x) = 0.18996 0.02860
# Poissons Ratio (y) = 0.73941 0.22685
# Poissons Ratio (z) = 0.01753 0.03572
#
# Static dielectric constant tensor:
#      x y z
#    x 1.748530 0.000000 0.000000 
#    y 0.000000 1.665590 0.000000 
#    z 0.000000 0.000000 1.747640 
# 
# From -- ./inp_files/4218.got.cif
#   From: 2010.05.17/outbox.cif.g08.bks.cpg/sg36_3_cif.got.tgz:4218.got - 2010.06.03 17:41:39.
