data_PCOD9350166
_publ_section_title
;
Structure prediction by ZEFSAII (Michael W. Deem and Ramdas Pophale) SiO2 
 PCOD9350166
Probable space group: C M M 2
;
_chemical_formula_sum "Si O2"
_cell_formula_units_Z 24
_cell_length_a 15.000000
_cell_length_b 18.000000
_cell_length_c 9.000000
_cell_angle_alpha 90.000000
_cell_angle_beta 90.000000
_cell_angle_gamma 90.000000
_cell_volume 2430.000000
_symmetry_space_group_name_H-M "C M M 2"
_symmetry_group_IT_number 35
_symmetry_cell_setting 'orthorhombic'
loop_
_space_group_symop_operation_xyz
x,y,z
-x,-y,z
-x,y,z
x,-y,z
1/2+x,1/2+y,z
1/2-x,1/2-y,z
1/2-x,1/2+y,z
1/2+x,1/2-y,z
loop_
_atom_site_type_symbol
_atom_site_label
_atom_site_fract_x
_atom_site_fract_y
_atom_site_fract_z
Si Si1 0.721657 0.918653 0.278680
Si Si2 0.401690 0.144344 0.796674
Si Si3 0.149889 0.777414 0.010129
Si Si4 0.400113 0.345901 0.321884
Si Si5 0.896934 0.695394 0.458560
Si Si6 0.765552 0.080662 0.932471
O O1 0.824342 0.907248 0.323653
O O2 0.664158 0.855025 0.354525
O O3 0.688058 0.000000 0.321491
O O4 0.725791 0.913659 0.100097
O O5 0.500000 0.110646 0.812772
O O6 0.393609 0.212704 0.913514
O O7 0.390934 0.173579 0.629827
O O8 0.319419 0.091051 0.828848
O O9 0.250000 0.750000 0.048687
O O10 0.166272 0.851819 0.914298
O O11 0.104453 0.803562 0.161923
O O12 0.500000 0.373024 0.345879
O O13 0.375458 0.281770 0.438065
O O14 0.000000 0.686162 0.411008
O O15 0.807358 0.000000 0.916238
#
# Coordination Sequence:
#
# PCOD9350166 Si02
#       6
#     8   8   8   8   8   8
#     4  10  21  36  53  75 105 137 170 209 253 304
#     4  10  20  33  51  76 103 130 165 209 253 299
#     4   9  17  31  52  76 100 132 169 206 249 300
#     4  10  19  33  55  78 102 133 170 212 254 300
#     4  10  21  35  52  76 104 135 172 213 255 299
#     4   9  19  34  50  72 101 132 166 204 249 299
#
# _framework density 9.8765429999999999
#
# number of rings (size 3 to 8) (size 9 to 14) (size 15 to 20)
#    0.000    2.333    0.000    4.000    0.000    7.667 
#    0.000    3.333    0.000    1.500    0.000    2.333 
#    0.000    2.667    0.000    0.000    0.000    0.000 
#
# Total GULP energy -133828.897409 kJ/mol
# GULP energy per Si atom -5576.204059 kJ/mol
# Density = 0.985406 g / cm^3
# Si number density = 9.876543 Si / 1000 Ang^3
#
#
#
# Elastic Constant Matrix: (Units=GPa)
#
#
# Indices 1 2 3 4 5 6 
#
# 1 37.9785 7.6829 9.5274 0.0000 0.0000 0.0000
# 2 7.6829 55.0777 -4.8177 0.0000 0.0000 0.0000
# 3 9.5274 -4.8177 10.7852 0.0000 0.0000 0.0000
# 4 0.0000 0.0000 0.0000 0.4211 0.0000 0.0000
# 5 0.0000 0.0000 0.0000 0.0000 9.7398 0.0000
# 6 0.0000 0.0000 0.0000 0.0000 0.0000 -10.2163
#
#
#
# Elastic Compliance Matrix: (Units=1/GPa)
#
#
# Indices 1 2 3 4 5 6 
#
# 1 0.037217 -0.008395 -0.036627 0.000000 0.000000 0.000000
# 2 -0.008395 0.020788 0.016702 0.000000 0.000000 0.000000
# 3 -0.036627 0.016702 0.132536 0.000000 0.000000 0.000000
# 4 0.000000 0.000000 0.000000 2.374627 0.000000 0.000000
# 5 0.000000 0.000000 0.000000 0.000000 0.102672 0.000000
# 6 0.000000 0.000000 0.000000 0.000000 0.000000 -0.097883
#
#
# Mechanical properties :
#
#
# Convention : Reuss Voigt Hill
#
# Bulk Modulus (GPa) = 7.46818 14.29183 10.88001
# Shear Modulus (GPa) = 1.87180 6.08551 3.97865
#
# Velocity S-wave (km/s) = 0.97450 1.75712 1.42076
# Velocity P-wave (km/s) = 2.24837 3.37159 2.86555
#
# Compressibility (1/GPa) = 0.13390140
#
# Stress axis : x y z
#
# Youngs Moduli (GPa) = 26.86917 48.10430 7.54510
#
# Poissons Ratio (x) = 0.40385 0.27636
# Poissons Ratio (y) = 0.22557 -0.12602
# Poissons Ratio (z) = 0.98414 -0.80345
#
# Static dielectric constant tensor:
#      x y z
#    x 1.696440 0.000000 0.000000 
#    y 0.000000 1.724950 0.000000 
#    z 0.000000 0.000000 1.682090 
# 
# From -- ./inp_files/7301.got.cif
#   From: 2010.05.17/outbox.ucp.g08.bks.cvg/sg35_4_cif.got.tgz:7301.got - 2010.06.11 10:36:28.
