data_PCOD9350712
_publ_section_title
;
Structure prediction by ZEFSAII (Michael W. Deem and Ramdas Pophale) SiO2 
 PCOD9350712
Probable space group: C M C 21
;
_chemical_formula_sum "Si O2"
_cell_formula_units_Z 48
_cell_length_a 7.463605
_cell_length_b 15.510030
_cell_length_c 19.755205
_cell_angle_alpha 90.000000
_cell_angle_beta 90.000000
_cell_angle_gamma 90.000000
_cell_volume 2286.877099
_symmetry_space_group_name_H-M "C M C 21"
_symmetry_group_IT_number 36
_symmetry_cell_setting 'orthorhombic'
loop_
_space_group_symop_operation_xyz
x,y,z
-x,-y,1/2+z
x,-y,1/2+z
-x,y,z
1/2+x,1/2+y,z
1/2-x,1/2-y,1/2+z
1/2+x,1/2-y,1/2+z
1/2-x,1/2+y,z
loop_
_atom_site_type_symbol
_atom_site_label
_atom_site_fract_x
_atom_site_fract_y
_atom_site_fract_z
Si Si1 0.213132 0.488674 0.358760
Si Si2 0.780065 0.362470 0.960000
Si Si3 0.216179 0.735563 0.215055
Si Si4 0.288622 0.889013 0.111912
Si Si5 0.719619 0.039485 0.208570
Si Si6 0.285533 0.290239 0.364470
O O1 0.278668 0.557112 0.413743
O O2 0.280089 0.508383 0.282986
O O3 0.245954 0.389889 0.377412
O O4 0.000000 0.501525 0.355414
O O5 0.721519 0.275412 0.921956
O O6 0.000000 0.361450 0.961110
O O7 0.716701 0.372061 0.036913
O O8 0.268285 0.806168 0.159935
O O9 0.274624 0.638392 0.198395
O O10 0.281378 0.763209 0.289798
O O11 0.000000 0.734464 0.217515
O O12 0.500000 0.904972 0.103518
O O13 0.216817 0.972120 0.152157
O O14 0.500000 0.037560 0.208515
O O15 0.500000 0.281046 0.361959
#
# Coordination Sequence:
#
# PCOD9350712 Si02
#       6
#     8   8   8   8   8   8
#     4  10  18  33  56  79 100 132 177 215 248 301
#     4   9  19  35  54  75 105 141 170 206 264 317
#     4  10  19  33  54  77 104 138 172 209 259 312
#     4  10  20  35  54  78 105 134 173 218 258 301
#     4   9  17  31  53  76 100 132 171 210 249 301
#     4  10  19  33  53  77 104 137 171 208 260 314
#
# _framework density 20.989322999999999
#
# number of rings (size 3 to 8) (size 9 to 14) (size 15 to 20)
#    0.000    2.333    3.333    0.000    0.000    1.333 
#    0.000    5.833    0.000    0.000    0.000    0.000 
#    0.000    0.000    0.000    0.000    0.000    0.000 
#
# Total GULP energy -134055.843720 kJ/mol
# GULP energy per Si atom -5585.660155 kJ/mol
# Density = 2.094155 g / cm^3
# Si number density = 20.989323 Si / 1000 Ang^3
#
#
#
# Elastic Constant Matrix: (Units=GPa)
#
#
# Indices 1 2 3 4 5 6 
#
# 1 57.0161 -20.4719 -6.9749 0.0000 0.0000 0.0000
# 2 -20.4719 96.8139 -10.0096 0.0000 0.0000 0.0000
# 3 -6.9749 -10.0096 61.4522 0.0000 0.0000 0.0000
# 4 0.0000 0.0000 0.0000 30.1438 0.0000 0.0000
# 5 0.0000 0.0000 0.0000 0.0000 6.1591 0.0000
# 6 0.0000 0.0000 0.0000 0.0000 0.0000 20.7675
#
#
#
# Elastic Compliance Matrix: (Units=1/GPa)
#
#
# Indices 1 2 3 4 5 6 
#
# 1 0.019486 0.004424 0.002932 0.000000 0.000000 0.000000
# 2 0.004424 0.011510 0.002377 0.000000 0.000000 0.000000
# 3 0.002932 0.002377 0.016993 0.000000 0.000000 0.000000
# 4 0.000000 0.000000 0.000000 0.033174 0.000000 0.000000
# 5 0.000000 0.000000 0.000000 0.000000 0.162361 0.000000
# 6 0.000000 0.000000 0.000000 0.000000 0.000000 0.048152
#
#
# Mechanical properties :
#
#
# Convention : Reuss Voigt Hill
#
# Bulk Modulus (GPa) = 14.82484 15.59660 15.21072
# Shear Modulus (GPa) = 16.96665 28.26332 22.61499
#
# Velocity S-wave (km/s) = 2.84623 3.67353 3.28602
# Velocity P-wave (km/s) = 4.22844 5.04380 4.65401
#
# Compressibility (1/GPa) = 0.06745437
#
# Stress axis : x y z
#
# Youngs Moduli (GPa) = 51.31908 86.87921 58.84847
#
# Poissons Ratio (x) = -0.38432 -0.17256
# Poissons Ratio (y) = -0.22701 -0.13988
# Poissons Ratio (z) = -0.15048 -0.20650
#
# Static dielectric constant tensor:
#      x y z
#    x 1.821520 0.000000 0.000000 
#    y 0.000000 1.717980 0.000000 
#    z 0.000000 0.000000 1.724790 
# 
# From -- ./inp_files/11530.got.cif
#   From: 2010.05.17/outbox.cif.g08.bks.cpg/sg36_6_cif.got.tgz:11530.got - 2010.06.03 17:41:39.
