data_PCOD9350979
_publ_section_title
;
Structure prediction by ZEFSAII (Michael W. Deem and Ramdas Pophale) SiO2 
 PCOD9350979
Probable space group: C M C 21
;
_chemical_formula_sum "Si O2"
_cell_formula_units_Z 64
_cell_length_a 8.457413
_cell_length_b 20.924908
_cell_length_c 20.327283
_cell_angle_alpha 90.000000
_cell_angle_beta 90.000000
_cell_angle_gamma 90.000000
_cell_volume 3597.331244
_symmetry_space_group_name_H-M "C M C 21"
_symmetry_group_IT_number 36
_symmetry_cell_setting 'orthorhombic'
loop_
_space_group_symop_operation_xyz
x,y,z
-x,-y,1/2+z
x,-y,1/2+z
-x,y,z
1/2+x,1/2+y,z
1/2-x,1/2-y,1/2+z
1/2+x,1/2-y,1/2+z
1/2-x,1/2+y,z
loop_
_atom_site_type_symbol
_atom_site_label
_atom_site_fract_x
_atom_site_fract_y
_atom_site_fract_z
Si Si1 0.809590 0.084857 0.579460
Si Si2 0.809137 0.916032 0.695236
Si Si3 0.811005 0.450468 0.550084
Si Si4 0.310260 0.273417 0.712898
Si Si5 0.691598 0.728334 0.570301
Si Si6 0.807795 0.053056 0.729699
Si Si7 0.689281 0.329827 0.316133
Si Si8 0.690886 0.833105 0.463247
O O1 0.760607 0.155141 0.556318
O O2 0.763638 0.077163 0.656474
O O3 0.000000 0.080956 0.576706
O O4 0.741906 0.023627 0.541955
O O5 0.757280 0.926135 0.619761
O O6 0.755111 0.847020 0.720085
O O7 0.000000 0.916066 0.696300
O O8 0.754724 0.979390 0.734211
O O9 0.758648 0.401307 0.493714
O O10 0.000000 0.447954 0.554348
O O11 0.500000 0.272256 0.715185
O O12 0.255306 0.249224 0.641328
O O13 0.245136 0.227198 0.769000
O O14 0.500000 0.729784 0.574009
O O15 0.742297 0.777897 0.514177
O O16 0.751895 0.103528 0.783563
O O17 0.000000 0.052991 0.731738
O O18 0.500000 0.331008 0.315502
O O19 0.747538 0.322947 0.390228
O O20 0.500000 0.832039 0.461659
#
# Coordination Sequence:
#
# PCOD9350979 Si02
#       8
#     8   8   8   8   8   8   8   8
#     4   9  17  32  55  79 106 137 177 223 266 322
#     4   9  18  33  54  79 107 138 178 224 270 324
#     4  10  19  32  53  80 110 140 173 225 279 322
#     4  11  21  33  55  85 114 141 179 236 283 324
#     4  10  19  36  58  79 109 149 187 225 273 332
#     4   8  15  31  53  76 101 134 177 221 260 315
#     4  11  22  37  57  78 108 149 190 228 276 340
#     4  10  22  38  55  78 111 148 185 228 279 331
#
# _framework density 17.790966000000001
#
# number of rings (size 3 to 8) (size 9 to 14) (size 15 to 20)
#    0.000    2.250    2.500    1.875    0.000    2.500 
#    0.000    1.875    0.000    6.000    0.000    0.000 
#    0.000    0.000    0.000    0.000    0.000    0.000 
#
# Total GULP energy -178482.240341 kJ/mol
# GULP energy per Si atom -5577.570011 kJ/mol
# Density = 1.775047 g / cm^3
# Si number density = 17.790966 Si / 1000 Ang^3
#
#
#
# Elastic Constant Matrix: (Units=GPa)
#
#
# Indices 1 2 3 4 5 6 
#
# 1 12.2575 31.6965 20.2144 0.0000 0.0000 0.0000
# 2 31.6965 189.1141 88.5176 0.0000 0.0000 0.0000
# 3 20.2144 88.5176 118.0493 0.0000 0.0000 0.0000
# 4 0.0000 0.0000 0.0000 25.6505 0.0000 0.0000
# 5 0.0000 0.0000 0.0000 0.0000 26.0336 0.0000
# 6 0.0000 0.0000 0.0000 0.0000 0.0000 24.6838
#
#
#
# Elastic Compliance Matrix: (Units=1/GPa)
#
#
# Indices 1 2 3 4 5 6 
#
# 1 0.152266 -0.020518 -0.010689 0.000000 0.000000 0.000000
# 2 -0.020518 0.010912 -0.004669 0.000000 0.000000 0.000000
# 3 -0.010689 -0.004669 0.013802 0.000000 0.000000 0.000000
# 4 0.000000 0.000000 0.000000 0.038986 0.000000 0.000000
# 5 0.000000 0.000000 0.000000 0.000000 0.038412 0.000000
# 6 0.000000 0.000000 0.000000 0.000000 0.000000 0.040512
#
#
# Mechanical properties :
#
#
# Convention : Reuss Voigt Hill
#
# Bulk Modulus (GPa) = 9.50298 66.69753 38.10026
# Shear Modulus (GPa) = 12.44656 27.20643 19.82650
#
# Velocity S-wave (km/s) = 2.64786 3.91478 3.34190
# Velocity P-wave (km/s) = 3.83423 7.61609 6.02935
#
# Compressibility (1/GPa) = 0.10523019
#
# Stress axis : x y z
#
# Youngs Moduli (GPa) = 6.56743 91.64241 72.45224
#
# Poissons Ratio (x) = 1.88028 0.77443
# Poissons Ratio (y) = 0.13475 0.33827
# Poissons Ratio (z) = 0.07020 0.42786
#
# Static dielectric constant tensor:
#      x y z
#    x 1.613250 0.000000 0.000000 
#    y 0.000000 1.645480 0.000000 
#    z 0.000000 0.000000 1.563270 
# 
# From -- ./inp_files/13821.got.cif
#   From: 2010.05.17/outbox.cif.g08.bks.cpg/sg36_7_cif.got.tgz:13821.got - 2010.06.03 17:41:39.
