data_PCOD9350177
_publ_section_title
;
Structure prediction by ZEFSAII (Michael W. Deem and Ramdas Pophale) SiO2 
 PCOD9350177
Probable space group: C M M 2
;
_chemical_formula_sum "Si O2"
_cell_formula_units_Z 32
_cell_length_a 9.000000
_cell_length_b 21.000000
_cell_length_c 18.000000
_cell_angle_alpha 90.000000
_cell_angle_beta 90.000000
_cell_angle_gamma 90.000000
_cell_volume 3402.000000
_symmetry_space_group_name_H-M "C M M 2"
_symmetry_group_IT_number 35
_symmetry_cell_setting 'orthorhombic'
loop_
_space_group_symop_operation_xyz
x,y,z
-x,-y,z
-x,y,z
x,-y,z
1/2+x,1/2+y,z
1/2-x,1/2-y,z
1/2-x,1/2+y,z
1/2+x,1/2-y,z
loop_
_atom_site_type_symbol
_atom_site_label
_atom_site_fract_x
_atom_site_fract_y
_atom_site_fract_z
Si Si1 0.323485 0.430902 0.217480
Si Si2 0.676795 0.928844 0.057089
Si Si3 0.820775 0.678477 0.937300
Si Si4 0.166033 0.688360 0.448908
Si Si5 0.663892 0.809946 0.273078
Si Si6 0.668533 0.076616 0.671145
Si Si7 0.678124 0.424762 0.826322
Si Si8 0.677489 0.426007 0.517510
O O1 0.500000 0.426972 0.218773
O O2 0.277466 0.500000 0.247544
O O3 0.265842 0.426702 0.133391
O O4 0.253175 0.373703 0.261261
O O5 0.500000 0.928055 0.071352
O O6 0.708599 0.000000 0.022800
O O7 0.710679 0.865761 0.009706
O O8 0.750000 0.750000 0.937919
O O9 0.755428 0.630151 0.875142
O O10 0.000000 0.684338 0.929537
O O11 0.250000 0.750000 0.480930
O O12 0.151084 0.699843 0.361077
O O13 0.258279 0.624155 0.459750
O O14 0.000000 0.681527 0.480181
O O15 0.500000 0.815359 0.240241
O O16 0.750000 0.750000 0.240042
O O17 0.500000 0.101774 0.677405
O O18 0.768096 0.089527 0.742788
O O19 0.750062 0.094958 0.595534
O O20 0.657630 0.000000 0.667707
O O21 0.500000 0.420899 0.833589
O O22 0.719741 0.500000 0.842151
O O23 0.500000 0.422610 0.521378
O O24 0.717719 0.500000 0.502575
#
# Coordination Sequence:
#
# PCOD9350177 Si02
#       8
#     8   8   8   8   8   8   8   8
#     4  10  21  36  56  83 113 143 177 220 268 318
#     4   9  19  37  59  80 105 141 183 224 267 318
#     4  11  23  38  56  80 111 145 181 222 269 318
#     4  10  21  37  56  78 106 142 183 224 269 322
#     4  10  21  37  57  79 106 142 182 224 269 321
#     4   9  17  31  53  80 109 141 179 222 266 316
#     4  10  20  35  57  83 110 142 180 221 267 321
#     4  10  20  34  54  81 112 144 179 222 270 318
#
# _framework density 9.4062319999999993
#
# number of rings (size 3 to 8) (size 9 to 14) (size 15 to 20)
#    0.000    2.125    0.000    3.000    0.000    7.750 
#    0.000    5.625    0.000    0.000    0.000    0.000 
#    0.000    0.000    0.000    0.000    0.000    0.000 
#
# Total GULP energy -178295.087867 kJ/mol
# GULP energy per Si atom -5571.721496 kJ/mol
# Density = 0.938482 g / cm^3
# Si number density = 9.406232 Si / 1000 Ang^3
#
#
#
# Elastic Constant Matrix: (Units=GPa)
#
#
# Indices 1 2 3 4 5 6 
#
# 1 62.6161 57.8412 24.6718 0.0000 0.0000 0.0000
# 2 57.8412 136.9857 19.7644 0.0000 0.0000 0.0000
# 3 24.6718 19.7644 8.8507 0.0000 0.0000 0.0000
# 4 0.0000 0.0000 0.0000 239.1206 0.0000 0.0000
# 5 0.0000 0.0000 0.0000 0.0000 21.2200 0.0000
# 6 0.0000 0.0000 0.0000 0.0000 0.0000 29.9435
#
#
#
# Elastic Compliance Matrix: (Units=1/GPa)
#
#
# Indices 1 2 3 4 5 6 
#
# 1 -0.160282 0.004742 0.436205 0.000000 0.000000 0.000000
# 2 0.004742 0.010630 -0.036955 0.000000 0.000000 0.000000
# 3 0.436205 -0.036955 -1.020431 0.000000 0.000000 0.000000
# 4 0.000000 0.000000 0.000000 0.004182 0.000000 0.000000
# 5 0.000000 0.000000 0.000000 0.000000 0.047125 0.000000
# 6 0.000000 0.000000 0.000000 0.000000 0.000000 0.033396
#
#
# Mechanical properties :
#
#
# Convention : Reuss Voigt Hill
#
# Bulk Modulus (GPa) = -2.76166 45.88973 21.56404
# Shear Modulus (GPa) = -2.48255 65.13515 31.32630
#
# Velocity S-wave (km/s) = -1.15000 5.89055 4.08510
# Velocity P-wave (km/s) = 1.79847 8.40898 5.80846
#
# Compressibility (1/GPa) = -0.36210080
#
# Stress axis : x y z
#
# Youngs Moduli (GPa) = -6.23900 94.07550 -0.97998
#
# Poissons Ratio (x) = -0.44610 0.42747
# Poissons Ratio (y) = 0.02958 -0.03622
# Poissons Ratio (z) = 2.72148 3.47660
#
# Static dielectric constant tensor:
#      x y z
#    x 1.660710 0.000000 0.000000 
#    y 0.000000 1.608740 0.000000 
#    z 0.000000 0.000000 1.678160 
# 
# From -- ./inp_files/18315.got.cif
#   From: 2010.05.17/outbox.ucp.g08.bks.cvg/sg35_10_cif.got.tgz:18315.got - 2010.06.11 10:36:28.
