data_PCOD9350497
_publ_section_title
;
Structure prediction by ZEFSAII (Michael W. Deem and Ramdas Pophale) SiO2 
 PCOD9350497
Probable space group: C M C 21
;
_chemical_formula_sum "Si O2"
_cell_formula_units_Z 64
_cell_length_a 18.749225
_cell_length_b 15.424678
_cell_length_c 11.802112
_cell_angle_alpha 90.000000
_cell_angle_beta 90.000000
_cell_angle_gamma 90.000000
_cell_volume 3413.179741
_symmetry_space_group_name_H-M "C M C 21"
_symmetry_group_IT_number 36
_symmetry_cell_setting 'orthorhombic'
loop_
_space_group_symop_operation_xyz
x,y,z
-x,-y,1/2+z
x,-y,1/2+z
-x,y,z
1/2+x,1/2+y,z
1/2-x,1/2-y,1/2+z
1/2+x,1/2-y,1/2+z
1/2-x,1/2+y,z
loop_
_atom_site_type_symbol
_atom_site_label
_atom_site_fract_x
_atom_site_fract_y
_atom_site_fract_z
Si Si1 0.702828 0.709544 0.618120
Si Si2 0.346216 0.170726 0.295143
Si Si3 0.840338 0.507696 0.167444
Si Si4 0.083560 0.167777 0.164453
Si Si5 0.916259 0.648446 0.538632
Si Si6 0.720089 0.878590 0.313169
Si Si7 0.681125 0.688543 0.369295
Si Si8 0.783392 0.888526 0.545077
O O1 0.650067 0.744610 0.715458
O O2 0.750253 0.643499 0.689047
O O3 0.674345 0.670023 0.502061
O O4 0.750362 0.793651 0.580522
O O5 0.375567 0.096330 0.211803
O O6 0.382630 0.172243 0.416955
O O7 0.260416 0.161287 0.324394
O O8 0.881835 0.438768 0.090569
O O9 0.826673 0.461302 0.288222
O O10 0.769090 0.542121 0.103782
O O11 0.092253 0.267954 0.121395
O O12 0.119298 0.155836 0.287679
O O13 0.135627 0.111452 0.085215
O O14 0.000000 0.147503 0.160914
O O15 0.000000 0.634022 0.524581
O O16 0.679860 0.793092 0.355087
O O17 0.776844 0.896900 0.410438
#
# Coordination Sequence:
#
# PCOD9350497 Si02
#       8
#     8   8   8   8   8   8   8   8
#     4   9  17  30  55  76 107 138 184 246 273 316
#     4  10  20  33  55  79 111 153 192 237 280 336
#     4  11  19  33  52  82 112 153 187 230 274 338
#     4  11  20  36  58  82 115 146 182 240 295 337
#     4  11  23  37  55  84 120 152 185 231 296 348
#     4  10  17  29  54  79 107 134 182 237 271 322
#     4  10  17  33  53  81 111 137 195 236 275 340
#     4  10  19  33  52  85 107 141 197 231 274 333
#
# _framework density 18.750841999999999
#
# number of rings (size 3 to 8) (size 9 to 14) (size 15 to 20)
#    0.000    1.750    5.000    3.750    0.000    0.500 
#    0.000    0.625    0.000    1.500    0.000    0.000 
#    0.000    1.000    0.000    0.000    0.000    0.000 
#
# Total GULP energy -178225.092878 kJ/mol
# GULP energy per Si atom -5569.534152 kJ/mol
# Density = 1.870816 g / cm^3
# Si number density = 18.750842 Si / 1000 Ang^3
#
#
#
# Elastic Constant Matrix: (Units=GPa)
#
#
# Indices 1 2 3 4 5 6 
#
# 1 105.5829 5.4306 42.1943 0.0000 0.0000 0.0000
# 2 5.4306 16.1385 -7.6754 0.0000 0.0000 0.0000
# 3 42.1943 -7.6754 128.9488 0.0000 0.0000 0.0000
# 4 0.0000 0.0000 0.0000 2.7354 0.0000 0.0000
# 5 0.0000 0.0000 0.0000 0.0000 24.1629 0.0000
# 6 0.0000 0.0000 0.0000 0.0000 0.0000 19.4155
#
#
#
# Elastic Compliance Matrix: (Units=1/GPa)
#
#
# Indices 1 2 3 4 5 6 
#
# 1 0.011396 -0.005771 -0.004072 0.000000 0.000000 0.000000
# 2 -0.005771 0.066692 0.005858 0.000000 0.000000 0.000000
# 3 -0.004072 0.005858 0.009436 0.000000 0.000000 0.000000
# 4 0.000000 0.000000 0.000000 0.365579 0.000000 0.000000
# 5 0.000000 0.000000 0.000000 0.000000 0.041386 0.000000
# 6 0.000000 0.000000 0.000000 0.000000 0.000000 0.051505
#
#
# Mechanical properties :
#
#
# Convention : Reuss Voigt Hill
#
# Bulk Modulus (GPa) = 12.57032 36.72990 24.65011
# Shear Modulus (GPa) = 8.61353 23.31081 15.96217
#
# Velocity S-wave (km/s) = 2.14561 3.52971 2.92083
# Velocity P-wave (km/s) = 3.58561 6.02019 4.95476
#
# Compressibility (1/GPa) = 0.07955250
#
# Stress axis : x y z
#
# Youngs Moduli (GPa) = 87.75376 14.99435 105.97419
#
# Poissons Ratio (x) = 0.08654 0.43156
# Poissons Ratio (y) = 0.50646 -0.62082
# Poissons Ratio (z) = 0.35736 -0.08784
#
# Static dielectric constant tensor:
#      x y z
#    x 1.661570 0.000000 0.000000 
#    y 0.000000 1.678650 0.000000 
#    z 0.000000 0.000000 1.686000 
# 
# From -- ./inp_files/9015.got.cif
#   From: 2010.05.17/outbox.cif.g08.bks.cpg/sg36_5_cif.got.tgz:9015.got - 2010.06.03 17:41:39.
