data_PCOD9350843
_publ_section_title
;
Structure prediction by ZEFSAII (Michael W. Deem and Ramdas Pophale) SiO2 
 PCOD9350843
Probable space group: C M C 21
;
_chemical_formula_sum "Si O2"
_cell_formula_units_Z 64
_cell_length_a 7.875542
_cell_length_b 15.773565
_cell_length_c 19.320308
_cell_angle_alpha 90.000000
_cell_angle_beta 90.000000
_cell_angle_gamma 90.000000
_cell_volume 2400.072480
_symmetry_space_group_name_H-M "C M C 21"
_symmetry_group_IT_number 36
_symmetry_cell_setting 'orthorhombic'
loop_
_space_group_symop_operation_xyz
x,y,z
-x,-y,1/2+z
x,-y,1/2+z
-x,y,z
1/2+x,1/2+y,z
1/2-x,1/2-y,1/2+z
1/2+x,1/2-y,1/2+z
1/2-x,1/2+y,z
loop_
_atom_site_type_symbol
_atom_site_label
_atom_site_fract_x
_atom_site_fract_y
_atom_site_fract_z
Si Si1 0.793648 0.295994 0.516470
Si Si2 0.206181 0.157785 0.685190
Si Si3 0.694352 0.885185 0.646879
Si Si4 0.200873 0.007788 0.273114
Si Si5 0.198771 0.631323 0.430011
Si Si6 0.301728 0.229242 0.302129
Si Si7 0.198071 0.953826 0.063408
Si Si8 0.801037 0.393040 0.385736
O O1 0.727787 0.317507 0.593093
O O2 0.716160 0.218050 0.474985
O O3 0.760661 0.376515 0.465807
O O4 0.000000 0.282922 0.519731
O O5 0.260225 0.074267 0.728315
O O6 0.269397 0.239601 0.727809
O O7 0.246296 0.131100 0.607059
O O8 0.000000 0.163138 0.688831
O O9 0.500000 0.859963 0.654632
O O10 0.753721 0.913957 0.723098
O O11 0.702927 0.970064 0.599414
O O12 0.269442 0.983219 0.349007
O O13 0.000000 0.005311 0.277942
O O14 0.275730 0.660194 0.355398
O O15 0.279074 0.564556 0.482870
O O16 0.000000 0.611448 0.422563
O O17 0.500000 0.206575 0.296096
O O18 0.295159 0.318841 0.344119
O O19 0.000000 0.970808 0.078215
O O20 0.000000 0.374524 0.377796
#
# Coordination Sequence:
#
# PCOD9350843 Si02
#       8
#     8   8   8   8   8   8   8   8
#     4   9  19  33  49  71  99 127 157 198 243 285
#     4   7  12  24  42  62  84 113 149 187 227 270
#     4  10  19  32  50  72  97 125 160 200 240 284
#     4   9  16  27  43  66  94 122 154 193 236 280
#     4  10  19  30  48  72  97 126 159 195 235 285
#     4   8  14  26  43  64  89 116 151 194 235 274
#     4  10  19  31  48  70  98 128 157 194 240 287
#     4   9  15  25  43  67  92 119 153 193 236 279
#
# _framework density 26.665862000000001
#
# number of rings (size 3 to 8) (size 9 to 14) (size 15 to 20)
#    0.000    3.000    0.000    3.375    0.000    2.000 
#    0.000    0.625    0.000    1.500    0.000    5.250 
#    0.000    0.000    0.000    0.000    0.000    0.000 
#
# Total GULP energy -178817.267537 kJ/mol
# GULP energy per Si atom -5588.039611 kJ/mol
# Density = 2.660517 g / cm^3
# Si number density = 26.665862 Si / 1000 Ang^3
#
#
#
# Elastic Constant Matrix: (Units=GPa)
#
#
# Indices 1 2 3 4 5 6 
#
# 1 47.9954 -2.6101 18.6884 0.0000 0.0000 0.0000
# 2 -2.6101 102.0365 4.5135 0.0000 0.0000 0.0000
# 3 18.6884 4.5135 209.2968 0.0000 0.0000 0.0000
# 4 0.0000 0.0000 0.0000 51.4876 0.0000 0.0000
# 5 0.0000 0.0000 0.0000 0.0000 22.2724 0.0000
# 6 0.0000 0.0000 0.0000 0.0000 0.0000 18.5351
#
#
#
# Elastic Compliance Matrix: (Units=1/GPa)
#
#
# Indices 1 2 3 4 5 6 
#
# 1 0.021627 0.000639 -0.001945 0.000000 0.000000 0.000000
# 2 0.000639 0.009829 -0.000269 0.000000 0.000000 0.000000
# 3 -0.001945 -0.000269 0.004957 0.000000 0.000000 0.000000
# 4 0.000000 0.000000 0.000000 0.019422 0.000000 0.000000
# 5 0.000000 0.000000 0.000000 0.000000 0.044899 0.000000
# 6 0.000000 0.000000 0.000000 0.000000 0.000000 0.053952
#
#
# Mechanical properties :
#
#
# Convention : Reuss Voigt Hill
#
# Bulk Modulus (GPa) = 30.06248 44.50137 37.28193
# Shear Modulus (GPa) = 29.59921 41.04148 35.32034
#
# Velocity S-wave (km/s) = 3.33529 3.92740 3.64339
# Velocity P-wave (km/s) = 5.11179 6.10661 5.63121
#
# Compressibility (1/GPa) = 0.03326405
#
# Stress axis : x y z
#
# Youngs Moduli (GPa) = 46.23760 101.74321 201.71981
#
# Poissons Ratio (x) = -0.06504 0.39233
# Poissons Ratio (y) = -0.02956 0.05427
# Poissons Ratio (z) = 0.08993 0.02737
#
# Static dielectric constant tensor:
#      x y z
#    x 1.973970 0.000000 0.000000 
#    y 0.000000 2.200010 0.000000 
#    z 0.000000 0.000000 2.151470 
# 
# From -- ./inp_files/15859.got.cif
#   From: 2010.05.17/outbox.cif.g08.bks.cpg/sg36_8_cif.got.tgz:15859.got - 2010.06.03 17:41:39.
