data_PCOD9350395
_publ_section_title
;
Structure prediction by ZEFSAII (Michael W. Deem and Ramdas Pophale) SiO2 
 PCOD9350395
Probable space group: C M M 2
;
_chemical_formula_sum "Si O2"
_cell_formula_units_Z 48
_cell_length_a 18.600045
_cell_length_b 8.414166
_cell_length_c 16.213419
_cell_angle_alpha 90.000000
_cell_angle_beta 90.000000
_cell_angle_gamma 90.000000
_cell_volume 2537.462758
_symmetry_space_group_name_H-M "C M M 2"
_symmetry_group_IT_number 35
_symmetry_cell_setting 'orthorhombic'
loop_
_space_group_symop_operation_xyz
x,y,z
-x,-y,z
-x,y,z
x,-y,z
1/2+x,1/2+y,z
1/2-x,1/2-y,z
1/2-x,1/2+y,z
1/2+x,1/2-y,z
loop_
_atom_site_type_symbol
_atom_site_label
_atom_site_fract_x
_atom_site_fract_y
_atom_site_fract_z
Si Si1 0.167881 0.807890 0.608470
Si Si2 0.168486 0.690582 0.929349
Si Si3 0.667870 0.189986 0.254135
Si Si4 0.582705 0.805860 0.092174
Si Si5 0.667535 0.309716 0.427603
Si Si6 0.082642 0.192410 0.770042
O O1 0.250000 0.750000 0.617281
O O2 0.138901 0.759857 0.517669
O O3 0.120301 0.753191 0.685255
O O4 0.169246 0.000000 0.609394
O O5 0.168619 0.500000 0.929070
O O6 0.250000 0.750000 0.929794
O O7 0.127323 0.749773 0.848405
O O8 0.126759 0.745580 0.011594
O O9 0.750000 0.250000 0.246999
O O10 0.621833 0.246265 0.176039
O O11 0.636334 0.243907 0.342416
O O12 0.669969 0.000000 0.253470
O O13 0.500000 0.754078 0.088483
O O14 0.582805 0.000000 0.092446
O O15 0.666765 0.500000 0.423136
O O16 0.750000 0.250000 0.428098
O O17 0.000000 0.245582 0.774892
O O18 0.083181 0.000000 0.769795
#
# Coordination Sequence:
#
# PCOD9350395 Si02
#       6
#     8   8   8   8   8   8
#     4   9  18  32  51  74 100 134 172 211 255 302
#     4  11  22  37  58  81 105 134 172 215 258 307
#     4  10  18  30  51  75 100 131 168 210 253 299
#     4   9  19  35  53  74 102 136 170 205 251 306
#     4   9  16  28  47  72 101 131 168 211 253 297
#     4  10  21  37  55  77 107 140 173 211 258 310
#
# _framework density 18.916532
#
# number of rings (size 3 to 8) (size 9 to 14) (size 15 to 20)
#    0.000    2.333    0.000    4.000    0.000    3.667 
#    0.000    3.333    0.000    7.000    0.000    0.000 
#    0.000    0.000    0.000    0.000    0.000    0.000 
#
# Total GULP energy -133898.416607 kJ/mol
# GULP energy per Si atom -5579.100692 kJ/mol
# Density = 1.887348 g / cm^3
# Si number density = 18.916532 Si / 1000 Ang^3
#
#
#
# Elastic Constant Matrix: (Units=GPa)
#
#
# Indices 1 2 3 4 5 6 
#
# 1 132.3079 17.8908 110.0747 0.0000 0.0000 0.0000
# 2 17.8908 24.9522 30.3949 0.0000 0.0000 0.0000
# 3 110.0747 30.3949 239.1424 0.0000 0.0000 0.0000
# 4 0.0000 0.0000 0.0000 71.1296 0.0000 0.0000
# 5 0.0000 0.0000 0.0000 0.0000 -9.0386 0.0000
# 6 0.0000 0.0000 0.0000 0.0000 0.0000 7.0195
#
#
#
# Elastic Compliance Matrix: (Units=1/GPa)
#
#
# Indices 1 2 3 4 5 6 
#
# 1 0.012358 -0.002286 -0.005398 0.000000 0.000000 0.000000
# 2 -0.002286 0.047841 -0.005029 0.000000 0.000000 0.000000
# 3 -0.005398 -0.005029 0.007305 0.000000 0.000000 0.000000
# 4 0.000000 0.000000 0.000000 0.014059 0.000000 0.000000
# 5 0.000000 0.000000 0.000000 0.000000 -0.110637 0.000000
# 6 0.000000 0.000000 0.000000 0.000000 0.000000 0.142461
#
#
# Mechanical properties :
#
#
# Convention : Reuss Voigt Hill
#
# Bulk Modulus (GPa) = 23.76410 79.23591 51.50000
# Shear Modulus (GPa) = 32.71465 29.69158 31.20311
#
# Velocity S-wave (km/s) = 4.16314 3.96613 4.06583
# Velocity P-wave (km/s) = 5.97485 7.93421 7.02319
#
# Compressibility (1/GPa) = 0.04208029
#
# Stress axis : x y z
#
# Youngs Moduli (GPa) = 80.92037 20.90269 136.88833
#
# Poissons Ratio (x) = 0.04777 0.73888
# Poissons Ratio (y) = 0.18495 0.68834
# Poissons Ratio (z) = 0.43678 0.10511
#
# Static dielectric constant tensor:
#      x y z
#    x 1.614770 0.000000 0.000000 
#    y 0.000000 1.653990 0.000000 
#    z 0.000000 0.000000 1.683630 
# 
# From -- ./inp_files/15151.got.cif
#   From: 2010.05.17/outbox.cif.g08.bks.cpg/sg35_8_cif.got.tgz:15151.got - 2010.06.03 17:29:28.
