data_PCOD9350872
_publ_section_title
;
Structure prediction by ZEFSAII (Michael W. Deem and Ramdas Pophale) SiO2 
 PCOD9350872
Probable space group: C M C 21
;
_chemical_formula_sum "Si O2"
_cell_formula_units_Z 64
_cell_length_a 7.328794
_cell_length_b 23.870392
_cell_length_c 16.832995
_cell_angle_alpha 90.000000
_cell_angle_beta 90.000000
_cell_angle_gamma 90.000000
_cell_volume 2944.784104
_symmetry_space_group_name_H-M "C M C 21"
_symmetry_group_IT_number 36
_symmetry_cell_setting 'orthorhombic'
loop_
_space_group_symop_operation_xyz
x,y,z
-x,-y,1/2+z
x,-y,1/2+z
-x,y,z
1/2+x,1/2+y,z
1/2-x,1/2-y,1/2+z
1/2+x,1/2-y,1/2+z
1/2-x,1/2+y,z
loop_
_atom_site_type_symbol
_atom_site_label
_atom_site_fract_x
_atom_site_fract_y
_atom_site_fract_z
Si Si1 0.223020 0.961321 0.920290
Si Si2 0.721119 0.383946 0.772638
Si Si3 0.277655 0.657328 0.102700
Si Si4 0.220480 0.674488 0.830421
Si Si5 0.720690 0.712311 0.387568
Si Si6 0.290190 0.585510 0.952611
Si Si7 0.208709 0.721830 0.664730
Si Si8 0.779831 0.863178 0.032390
O O1 0.280401 0.931312 0.836893
O O2 0.000000 0.961019 0.916629
O O3 0.288390 0.023970 0.936730
O O4 0.274462 0.922747 0.995888
O O5 0.500000 0.386482 0.772587
O O6 0.774579 0.379920 0.680413
O O7 0.775906 0.324447 0.811785
O O8 0.500000 0.659503 0.098361
O O9 0.217256 0.722068 0.120852
O O10 0.213626 0.626013 0.022248
O O11 0.277207 0.724059 0.889708
O O12 0.286385 0.617635 0.868712
O O13 0.288895 0.698993 0.747052
O O14 0.000000 0.670298 0.826547
O O15 0.500000 0.711834 0.386524
O O16 0.779894 0.679403 0.464031
O O17 0.500000 0.575772 0.976187
O O18 0.210249 0.666362 0.610788
O O19 0.000000 0.737653 0.684403
O O20 0.000000 0.863473 0.038004
#
# Coordination Sequence:
#
# PCOD9350872 Si02
#       8
#     8   8   8   8   8   8   8   8
#     4   8  16  31  48  70 100 128 162 199 235 288
#     4   8  12  24  47  70  91 125 164 196 230 279
#     4   9  16  28  48  72  98 127 162 202 244 291
#     4  10  19  32  49  68  95 130 164 195 237 297
#     4   8  13  25  47  70  91 119 160 198 232 283
#     4  10  20  33  48  74 104 126 158 207 251 283
#     4  10  19  31  48  73  99 125 162 201 240 295
#     4   9  17  30  50  73  96 124 158 200 243 284
#
# _framework density 21.733339999999998
#
# number of rings (size 3 to 8) (size 9 to 14) (size 15 to 20)
#    0.000    3.000    1.250    2.250    0.000    0.500 
#    2.250    0.625    0.000    0.000    0.000    1.750 
#    0.000    0.000    0.000    0.000    0.000    0.000 
#
# Total GULP energy -178264.431579 kJ/mol
# GULP energy per Si atom -5570.763487 kJ/mol
# Density = 2.168387 g / cm^3
# Si number density = 21.733340 Si / 1000 Ang^3
#
#
#
# Elastic Constant Matrix: (Units=GPa)
#
#
# Indices 1 2 3 4 5 6 
#
# 1 81.0509 2.0106 -1.9320 0.0000 0.0000 0.0000
# 2 2.0106 183.5322 72.6135 0.0000 0.0000 0.0000
# 3 -1.9320 72.6135 93.3084 0.0000 0.0000 0.0000
# 4 0.0000 0.0000 0.0000 27.4243 0.0000 0.0000
# 5 0.0000 0.0000 0.0000 0.0000 3.2829 0.0000
# 6 0.0000 0.0000 0.0000 0.0000 0.0000 0.9491
#
#
#
# Elastic Compliance Matrix: (Units=1/GPa)
#
#
# Indices 1 2 3 4 5 6 
#
# 1 0.012359 -0.000342 0.000522 0.000000 0.000000 0.000000
# 2 -0.000342 0.007882 -0.006141 0.000000 0.000000 0.000000
# 3 0.000522 -0.006141 0.015507 0.000000 0.000000 0.000000
# 4 0.000000 0.000000 0.000000 0.036464 0.000000 0.000000
# 5 0.000000 0.000000 0.000000 0.000000 0.304610 0.000000
# 6 0.000000 0.000000 0.000000 0.000000 0.000000 1.053618
#
#
# Mechanical properties :
#
#
# Convention : Reuss Voigt Hill
#
# Bulk Modulus (GPa) = 41.97094 55.91951 48.94522
# Shear Modulus (GPa) = 3.44755 25.34455 14.39605
#
# Velocity S-wave (km/s) = 1.26085 3.41861 2.57650
# Velocity P-wave (km/s) = 4.63393 6.43181 5.60543
#
# Compressibility (1/GPa) = 0.02382601
#
# Stress axis : x y z
#
# Youngs Moduli (GPa) = 80.91364 126.87131 64.48749
#
# Poissons Ratio (x) = 0.04338 -0.03366
# Poissons Ratio (y) = 0.02766 0.39601
# Poissons Ratio (z) = -0.04223 0.77911
#
# Static dielectric constant tensor:
#      x y z
#    x 1.889200 0.000000 0.000000 
#    y 0.000000 1.780010 0.000000 
#    z 0.000000 0.000000 1.846400 
# 
# From -- ./inp_files/14022.got.cif
#   From: 2010.05.17/outbox.cif.g08.bks.cpg/sg36_8_cif.got.tgz:14022.got - 2010.06.03 17:41:39.
