data_PCOD9350859
_publ_section_title
;
Structure prediction by ZEFSAII (Michael W. Deem and Ramdas Pophale) SiO2 
 PCOD9350859
Probable space group: C M C 21
;
_chemical_formula_sum "Si O2"
_cell_formula_units_Z 44
_cell_length_a 13.687567
_cell_length_b 24.831542
_cell_length_c 5.563053
_cell_angle_alpha 90.000000
_cell_angle_beta 90.000000
_cell_angle_gamma 90.000000
_cell_volume 1890.789339
_symmetry_space_group_name_H-M "C M C 21"
_symmetry_group_IT_number 36
_symmetry_cell_setting 'orthorhombic'
loop_
_space_group_symop_operation_xyz
x,y,z
-x,-y,1/2+z
x,-y,1/2+z
-x,y,z
1/2+x,1/2+y,z
1/2-x,1/2-y,1/2+z
1/2+x,1/2-y,1/2+z
1/2-x,1/2+y,z
loop_
_atom_site_type_symbol
_atom_site_label
_atom_site_fract_x
_atom_site_fract_y
_atom_site_fract_z
Si Si1 0.609286 0.648358 0.722270
Si Si2 0.500000 0.532553 0.112090
Si Si3 0.300173 0.135213 0.021827
Si Si4 0.848509 0.481062 0.372027
Si Si5 0.189077 0.251462 0.490801
Si Si6 0.314934 0.431636 0.853337
O O1 0.500000 0.649244 0.819498
O O2 0.623530 0.699078 0.541808
O O3 0.629728 0.593183 0.578765
O O4 0.696894 0.652909 0.908644
O O5 0.500000 0.495451 0.354077
O O6 0.601628 0.563671 0.151441
O O7 0.361560 0.189696 0.012292
O O8 0.270061 0.110498 0.278660
O O9 0.338351 0.083199 0.878640
O O10 0.893852 0.499240 0.624231
O O11 0.743408 0.512719 0.384869
O O12 0.236908 0.247237 0.224182
#
# Coordination Sequence:
#
# PCOD9350859 Si02
#       6
#     8   4   8   8   8   8
#     4  11  22  35  52  79 105 143 181 228 259 317
#     4  12  26  34  46  68 108 146 180 206 254 302
#     4  10  21  36  53  70 106 143 180 220 266 306
#     4  10  19  31  47  72  99 133 173 211 244 307
#     4  10  21  39  56  74  99 141 184 224 267 310
#     4  11  21  32  48  72 105 140 177 215 256 310
#
# _framework density 23.270705
#
# number of rings (size 3 to 8) (size 9 to 14) (size 15 to 20)
#    0.000    1.455    4.545    2.182    3.818    0.000 
#    0.000    0.000    0.000    0.000    0.000    0.000 
#    0.000    5.818    0.000    0.000    0.000    6.545 
#
# Total GULP energy -122748.536396 kJ/mol
# GULP energy per Si atom -5579.478927 kJ/mol
# Density = 2.321774 g / cm^3
# Si number density = 23.270705 Si / 1000 Ang^3
#
#
#
# Elastic Constant Matrix: (Units=GPa)
#
#
# Indices 1 2 3 4 5 6 
#
# 1 62.2673 11.6798 11.3187 0.0000 0.0000 0.0000
# 2 11.6798 143.6270 29.0403 0.0000 0.0000 0.0000
# 3 11.3187 29.0403 131.4383 0.0000 0.0000 0.0000
# 4 0.0000 0.0000 0.0000 46.7651 0.0000 0.0000
# 5 0.0000 0.0000 0.0000 0.0000 -29.9724 0.0000
# 6 0.0000 0.0000 0.0000 0.0000 0.0000 8.4026
#
#
#
# Elastic Compliance Matrix: (Units=1/GPa)
#
#
# Indices 1 2 3 4 5 6 
#
# 1 0.016480 -0.001102 -0.001176 0.000000 0.000000 0.000000
# 2 -0.001102 0.007362 -0.001532 0.000000 0.000000 0.000000
# 3 -0.001176 -0.001532 0.008048 0.000000 0.000000 0.000000
# 4 0.000000 0.000000 0.000000 0.021383 0.000000 0.000000
# 5 0.000000 0.000000 0.000000 0.000000 -0.033364 0.000000
# 6 0.000000 0.000000 0.000000 0.000000 0.000000 0.119011
#
#
# Mechanical properties :
#
#
# Convention : Reuss Voigt Hill
#
# Bulk Modulus (GPa) = 41.20229 49.04558 45.12393
# Shear Modulus (GPa) = 32.33519 24.05864 28.19691
#
# Velocity S-wave (km/s) = 3.73168 3.21886 3.48471
# Velocity P-wave (km/s) = 6.02588 5.91072 5.96858
#
# Compressibility (1/GPa) = 0.02427050
#
# Stress axis : x y z
#
# Youngs Moduli (GPa) = 60.67853 135.83608 124.25815
#
# Poissons Ratio (x) = 0.14976 0.14608
# Poissons Ratio (y) = 0.06690 0.19031
# Poissons Ratio (z) = 0.07133 0.20805
#
# Static dielectric constant tensor:
#      x y z
#    x 1.844980 0.000000 0.000000 
#    y 0.000000 1.981450 0.000000 
#    z 0.000000 0.000000 1.942180 
# 
# From -- ./inp_files/800.got.cif
#   From: 2010.05.17/outbox.cif.g08.bks.cpg/sg36_1_cif.got.tgz:800.got - 2010.06.03 17:41:39.
