data_PCOD9350193
_publ_section_title
;
Structure prediction by ZEFSAII (Michael W. Deem and Ramdas Pophale) SiO2 
 PCOD9350193
Probable space group: C M M 2
;
_chemical_formula_sum "Si O2"
_cell_formula_units_Z 32
_cell_length_a 15.000000
_cell_length_b 18.000000
_cell_length_c 12.000000
_cell_angle_alpha 90.000000
_cell_angle_beta 90.000000
_cell_angle_gamma 90.000000
_cell_volume 3240.000000
_symmetry_space_group_name_H-M "C M M 2"
_symmetry_group_IT_number 35
_symmetry_cell_setting 'orthorhombic'
loop_
_space_group_symop_operation_xyz
x,y,z
-x,-y,z
-x,y,z
x,-y,z
1/2+x,1/2+y,z
1/2-x,1/2-y,z
1/2-x,1/2+y,z
1/2+x,1/2-y,z
loop_
_atom_site_type_symbol
_atom_site_label
_atom_site_fract_x
_atom_site_fract_y
_atom_site_fract_z
Si Si1 0.100581 0.791223 0.332490
Si Si2 0.202352 0.919769 0.204850
Si Si3 0.895646 0.361220 0.737464
Si Si4 0.148988 0.776573 0.585690
Si Si5 0.605176 0.218036 0.964811
Si Si6 0.698139 0.418975 0.727804
Si Si7 0.111227 0.887715 0.967408
Si Si8 0.895162 0.359822 0.201504
O O1 0.165023 0.849956 0.273703
O O2 0.107701 0.792679 0.465580
O O3 0.116529 0.707259 0.289694
O O4 0.000000 0.810060 0.295635
O O5 0.310360 0.913846 0.208450
O O6 0.176667 0.000000 0.253713
O O7 0.157251 0.916771 0.081245
O O8 0.895479 0.291668 0.652255
O O9 0.868349 0.328618 0.858091
O O10 0.806758 0.410448 0.715096
O O11 0.000000 0.390149 0.740905
O O12 0.250000 0.750000 0.565135
O O13 0.154647 0.849706 0.662606
O O14 0.500000 0.227755 0.950589
O O15 0.639738 0.301053 0.967670
O O16 0.618027 0.176839 0.080261
O O17 0.674246 0.500000 0.681054
O O18 0.657753 0.417012 0.854031
O O19 0.000000 0.896429 0.967664
O O20 0.000000 0.385877 0.209220
#
# Coordination Sequence:
#
# PCOD9350193 Si02
#       8
#     8   8   8   8   8   8   8   8
#     4  11  23  40  63  88 114 149 196 246 290 338
#     4  12  25  38  58  88 122 158 192 231 288 353
#     4  10  20  37  62  89 117 150 193 243 290 341
#     4  10  21  38  61  86 114 150 195 246 290 339
#     4   9  17  32  59  88 110 143 191 237 282 331
#     4  11  24  38  57  88 122 158 193 231 289 352
#     4  11  22  38  59  86 121 156 195 241 287 341
#     4  10  21  39  63  89 116 149 193 243 290 340
#
# _framework density 9.8765429999999999
#
# number of rings (size 3 to 8) (size 9 to 14) (size 15 to 20)
#    0.000    1.500    2.500    3.000    0.000    4.250 
#    0.000    0.000    0.000    3.750    0.000    3.500 
#    0.000    0.000    0.000    0.000    0.000    0.000 
#
# Total GULP energy -178425.782927 kJ/mol
# GULP energy per Si atom -5575.805716 kJ/mol
# Density = 0.985406 g / cm^3
# Si number density = 9.876543 Si / 1000 Ang^3
#
#
#
# Elastic Constant Matrix: (Units=GPa)
#
#
# Indices 1 2 3 4 5 6 
#
# 1 108.8202 22.1251 19.0747 0.0000 0.0000 0.0000
# 2 22.1251 65.9500 15.7137 0.0000 0.0000 0.0000
# 3 19.0747 15.7137 89.0405 0.0000 0.0000 0.0000
# 4 0.0000 0.0000 0.0000 -6.4491 0.0000 0.0000
# 5 0.0000 0.0000 0.0000 0.0000 31.8954 0.0000
# 6 0.0000 0.0000 0.0000 0.0000 0.0000 1.0264
#
#
#
# Elastic Compliance Matrix: (Units=1/GPa)
#
#
# Indices 1 2 3 4 5 6 
#
# 1 0.010084 -0.002994 -0.001632 0.000000 0.000000 0.000000
# 2 -0.002994 0.016718 -0.002309 0.000000 0.000000 0.000000
# 3 -0.001632 -0.002309 0.011988 0.000000 0.000000 0.000000
# 4 0.000000 0.000000 0.000000 -0.155061 0.000000 0.000000
# 5 0.000000 0.000000 0.000000 0.000000 0.031353 0.000000
# 6 0.000000 0.000000 0.000000 0.000000 0.000000 0.974322
#
#
# Mechanical properties :
#
#
# Convention : Reuss Voigt Hill
#
# Bulk Modulus (GPa) = 40.12871 41.95975 41.04423
# Shear Modulus (GPa) = 5.48498 19.08768 12.28633
#
# Velocity S-wave (km/s) = 1.66817 3.11193 2.49669
# Velocity P-wave (km/s) = 4.90608 5.84811 5.39769
#
# Compressibility (1/GPa) = 0.02491982
#
# Stress axis : x y z
#
# Youngs Moduli (GPa) = 99.16399 59.81702 83.41746
#
# Poissons Ratio (x) = 0.17911 0.13613
# Poissons Ratio (y) = 0.29692 0.19260
# Poissons Ratio (z) = 0.16182 0.13811
#
# Static dielectric constant tensor:
#      x y z
#    x 1.718610 0.000000 0.000000 
#    y 0.000000 1.706460 0.000000 
#    z 0.000000 0.000000 1.701300 
# 
# From -- ./inp_files/13171.got.cif
#   From: 2010.05.17/outbox.ucp.g08.bks.cvg/sg35_7_cif.got.tgz:13171.got - 2010.06.11 10:36:28.
