data_PCOD9350220
_publ_section_title
;
Structure prediction by ZEFSAII (Michael W. Deem and Ramdas Pophale) SiO2 
 PCOD9350220
Probable space group: C M M 2
;
_chemical_formula_sum "Si O2"
_cell_formula_units_Z 64
_cell_length_a 21.036698
_cell_length_b 28.094322
_cell_length_c 8.145885
_cell_angle_alpha 90.000000
_cell_angle_beta 90.000000
_cell_angle_gamma 90.000000
_cell_volume 4814.313891
_symmetry_space_group_name_H-M "C M M 2"
_symmetry_group_IT_number 35
_symmetry_cell_setting 'orthorhombic'
loop_
_space_group_symop_operation_xyz
x,y,z
-x,-y,z
-x,y,z
x,-y,z
1/2+x,1/2+y,z
1/2-x,1/2-y,z
1/2-x,1/2+y,z
1/2+x,1/2-y,z
loop_
_atom_site_type_symbol
_atom_site_label
_atom_site_fract_x
_atom_site_fract_y
_atom_site_fract_z
Si Si1 0.121881 0.152014 0.457680
Si Si2 0.575488 0.446023 0.968019
Si Si3 0.313906 0.783487 0.770834
Si Si4 0.262963 0.193102 0.448795
Si Si5 0.072410 0.791400 0.770834
Si Si6 0.762963 0.306898 0.092873
Si Si7 0.075488 0.053977 0.573648
Si Si8 0.878119 0.152014 0.083988
O O1 0.195198 0.167928 0.474891
O O2 0.084549 0.177587 0.606076
O O3 0.112413 0.095889 0.484085
O O4 0.101973 0.164964 0.270834
O O5 0.500000 0.440146 0.999853
O O6 0.593017 0.500000 0.015059
O O7 0.584125 0.441571 0.770834
O O8 0.612413 0.404111 0.057583
O O9 0.250000 0.750000 0.770834
O O10 0.307822 0.813480 0.604733
O O11 0.375054 0.750035 0.770834
O O12 0.307822 0.813480 0.936936
O O13 0.250000 0.250000 0.439576
O O14 0.288700 0.178499 0.270834
O O15 0.000000 0.774450 0.770834
O O16 0.084549 0.822413 0.935592
O O17 0.750000 0.250000 0.102092
O O18 0.695198 0.332072 0.066777
O O19 0.000000 0.059854 0.541815
O O20 0.093017 0.000000 0.526608
#
# Coordination Sequence:
#
# PCOD9350220 Si02
#       8
#     8   8   8   8   8   8   8   8
#     4  11  20  30  45  62  79 105 140 178 216 247
#     4   9  18  31  43  55  77 109 141 175 212 245
#     4  10  16  30  46  56  76 112 131 157 210 251
#     4   9  16  27  44  62  77  97 133 172 201 247
#     4  12  22  30  41  63  88 104 134 180 211 242
#     4   9  16  27  44  62  77  97 133 172 201 247
#     4   9  18  31  43  55  77 109 141 175 212 245
#     4  11  20  30  45  62  79 105 140 178 216 247
#
# _framework density 13.293691000000001
#
# number of rings (size 3 to 8) (size 9 to 14) (size 15 to 20)
#    0.000    2.000    6.250    1.500    0.000    2.500 
#    0.000    1.250    0.000    0.000    0.000    0.000 
#    0.000    0.000    0.000    0.000    0.000    2.500 
#
# Total GULP energy -178161.363833 kJ/mol
# GULP energy per Si atom -5567.542620 kJ/mol
# Density = 1.326343 g / cm^3
# Si number density = 13.293691 Si / 1000 Ang^3
#
#
#
# Elastic Constant Matrix: (Units=GPa)
#
#
# Indices 1 2 3 4 5 6 
#
# 1 60.6905 41.3221 36.7186 0.0000 0.0000 0.0000
# 2 41.3221 57.0719 26.1948 0.0000 0.0000 0.0000
# 3 36.7186 26.1948 111.1544 0.0000 0.0000 0.0000
# 4 0.0000 0.0000 0.0000 -24.8495 0.0000 0.0000
# 5 0.0000 0.0000 0.0000 0.0000 -78.3734 0.0000
# 6 0.0000 0.0000 0.0000 0.0000 0.0000 23.1686
#
#
#
# Elastic Compliance Matrix: (Units=1/GPa)
#
#
# Indices 1 2 3 4 5 6 
#
# 1 0.036241 -0.023261 -0.006490 0.000000 0.000000 0.000000
# 2 -0.023261 0.034577 -0.000464 0.000000 0.000000 0.000000
# 3 -0.006490 -0.000464 0.011250 0.000000 0.000000 0.000000
# 4 0.000000 0.000000 0.000000 -0.040242 0.000000 0.000000
# 5 0.000000 0.000000 0.000000 0.000000 -0.012759 0.000000
# 6 0.000000 0.000000 0.000000 0.000000 0.000000 0.043162
#
#
# Mechanical properties :
#
#
# Convention : Reuss Voigt Hill
#
# Bulk Modulus (GPa) = 46.21785 48.59863 47.40824
# Shear Modulus (GPa) = 35.74689 -7.69878 14.02406
#
# Velocity S-wave (km/s) = 5.19119 -2.40912 3.25151
# Velocity P-wave (km/s) = 8.41270 5.37573 7.05946
#
# Compressibility (1/GPa) = 0.02163666
#
# Stress axis : x y z
#
# Youngs Moduli (GPa) = 27.59269 28.92110 88.88979
#
# Poissons Ratio (x) = 0.67274 0.57691
# Poissons Ratio (y) = 0.64184 0.04127
# Poissons Ratio (z) = 0.17908 0.01343
#
# Static dielectric constant tensor:
#      x y z
#    x 1.450470 0.000000 0.000000 
#    y 0.000000 1.420510 0.000000 
#    z 0.000000 0.000000 1.525560 
# 
# From -- ./inp_files/9555.got.cif
#   From: 2010.05.17/outbox.cif.g08.bks.cpg/sg35_5_cif.got.tgz:9555.got - 2010.06.03 17:29:28.
