data_PCOD9350595
_publ_section_title
;
Structure prediction by ZEFSAII (Michael W. Deem and Ramdas Pophale) SiO2 
 PCOD9350595
Probable space group: C M C 21
;
_chemical_formula_sum "Si O2"
_cell_formula_units_Z 64
_cell_length_a 7.534813
_cell_length_b 20.894374
_cell_length_c 19.993839
_cell_angle_alpha 90.000000
_cell_angle_beta 90.000000
_cell_angle_gamma 90.000000
_cell_volume 3147.734059
_symmetry_space_group_name_H-M "C M C 21"
_symmetry_group_IT_number 36
_symmetry_cell_setting 'orthorhombic'
loop_
_space_group_symop_operation_xyz
x,y,z
-x,-y,1/2+z
x,-y,1/2+z
-x,y,z
1/2+x,1/2+y,z
1/2-x,1/2-y,1/2+z
1/2+x,1/2-y,1/2+z
1/2-x,1/2+y,z
loop_
_atom_site_type_symbol
_atom_site_label
_atom_site_fract_x
_atom_site_fract_y
_atom_site_fract_z
Si Si1 0.786374 0.028601 0.750000
Si Si2 0.285872 0.564096 0.899038
Si Si3 0.717892 0.183724 0.527780
Si Si4 0.709355 0.923340 0.923047
Si Si5 0.297710 0.391603 0.772960
Si Si6 0.283824 0.250756 0.789132
Si Si7 0.708692 0.701905 0.937166
Si Si8 0.711265 0.846351 0.175894
O O1 0.722822 0.055519 0.822086
O O2 0.743076 0.079798 0.693685
O O3 0.000000 0.024016 0.754651
O O4 0.717658 0.956121 0.741487
O O5 0.500000 0.568023 0.896486
O O6 0.238335 0.498415 0.936180
O O7 0.217494 0.630077 0.930427
O O8 0.500000 0.184286 0.528162
O O9 0.770538 0.123897 0.481213
O O10 0.780122 0.248845 0.492096
O O11 0.779449 0.174127 0.603472
O O12 0.500000 0.912478 0.912899
O O13 0.799231 0.906657 0.852456
O O14 0.500000 0.386679 0.748124
O O15 0.219172 0.320993 0.766867
O O16 0.500000 0.251771 0.790376
O O17 0.226067 0.234134 0.864137
O O18 0.221161 0.197113 0.737032
O O19 0.500000 0.695160 0.951962
O O20 0.500000 0.836510 0.174518
#
# Coordination Sequence:
#
# PCOD9350595 Si02
#       8
#     8   8   8   8   8   8   8   8
#     4   9  17  31  49  71 100 131 163 203 250 300
#     4   9  18  31  50  75 103 128 158 209 258 294
#     4   9  19  34  51  73 101 136 172 207 251 304
#     4  10  18  30  51  74  97 129 169 207 246 298
#     4   9  18  32  49  73 104 128 159 209 258 292
#     4  10  19  31  51  77 102 131 167 213 255 292
#     4  10  18  33  54  74 100 134 170 207 251 304
#     4  10  20  34  51  73 103 135 170 209 253 304
#
# _framework density 20.332086
#
# number of rings (size 3 to 8) (size 9 to 14) (size 15 to 20)
#    0.000    2.500    2.500    1.125    0.000    2.500 
#    0.000    3.125    0.000    3.000    0.000    0.000 
#    0.000    0.000    0.000    0.000    0.000    0.000 
#
# Total GULP energy -178518.881026 kJ/mol
# GULP energy per Si atom -5578.715032 kJ/mol
# Density = 2.028581 g / cm^3
# Si number density = 20.332086 Si / 1000 Ang^3
#
#
#
# Elastic Constant Matrix: (Units=GPa)
#
#
# Indices 1 2 3 4 5 6 
#
# 1 50.5819 -8.0530 -8.8624 0.0000 0.0000 0.0000
# 2 -8.0530 106.2650 -9.1424 0.0000 0.0000 0.0000
# 3 -8.8624 -9.1424 22.9132 0.0000 0.0000 0.0000
# 4 0.0000 0.0000 0.0000 24.6761 0.0000 0.0000
# 5 0.0000 0.0000 0.0000 0.0000 11.7831 0.0000
# 6 0.0000 0.0000 0.0000 0.0000 0.0000 0.9093
#
#
#
# Elastic Compliance Matrix: (Units=1/GPa)
#
#
# Indices 1 2 3 4 5 6 
#
# 1 0.021812 0.002463 0.009420 0.000000 0.000000 0.000000
# 2 0.002463 0.010023 0.004952 0.000000 0.000000 0.000000
# 3 0.009420 0.004952 0.049262 0.000000 0.000000 0.000000
# 4 0.000000 0.000000 0.000000 0.040525 0.000000 0.000000
# 5 0.000000 0.000000 0.000000 0.000000 0.084867 0.000000
# 6 0.000000 0.000000 0.000000 0.000000 0.000000 1.099687
#
#
# Mechanical properties :
#
#
# Convention : Reuss Voigt Hill
#
# Bulk Modulus (GPa) = 8.71326 14.18275 11.44800
# Shear Modulus (GPa) = 3.81457 21.19490 12.50473
#
# Velocity S-wave (km/s) = 1.37121 3.23218 2.48266
# Velocity P-wave (km/s) = 2.60801 4.57384 3.72302
#
# Compressibility (1/GPa) = 0.11476758
#
# Stress axis : x y z
#
# Youngs Moduli (GPa) = 45.84535 99.76897 20.29959
#
# Poissons Ratio (x) = -0.24577 -0.19121
# Poissons Ratio (y) = -0.11293 -0.10052
# Poissons Ratio (z) = -0.43184 -0.49406
#
# Static dielectric constant tensor:
#      x y z
#    x 1.789110 0.000000 0.000000 
#    y 0.000000 1.756850 0.000000 
#    z 0.000000 0.000000 1.673890 
# 
# From -- ./inp_files/13883.got.cif
#   From: 2010.05.17/outbox.cif.g08.bks.cpg/sg36_7_cif.got.tgz:13883.got - 2010.06.03 17:41:39.
