data_PCOD9350716
_publ_section_title
;
Structure prediction by ZEFSAII (Michael W. Deem and Ramdas Pophale) SiO2 
 PCOD9350716
Probable space group: C M C 21
;
_chemical_formula_sum "Si O2"
_cell_formula_units_Z 64
_cell_length_a 8.092255
_cell_length_b 21.117867
_cell_length_c 19.898688
_cell_angle_alpha 90.000000
_cell_angle_beta 90.000000
_cell_angle_gamma 90.000000
_cell_volume 3400.509971
_symmetry_space_group_name_H-M "C M C 21"
_symmetry_group_IT_number 36
_symmetry_cell_setting 'orthorhombic'
loop_
_space_group_symop_operation_xyz
x,y,z
-x,-y,1/2+z
x,-y,1/2+z
-x,y,z
1/2+x,1/2+y,z
1/2-x,1/2-y,1/2+z
1/2+x,1/2-y,1/2+z
1/2-x,1/2+y,z
loop_
_atom_site_type_symbol
_atom_site_label
_atom_site_fract_x
_atom_site_fract_y
_atom_site_fract_z
Si Si1 0.306401 0.067124 0.757240
Si Si2 0.307111 0.307664 0.185728
Si Si3 0.298588 0.763311 0.896556
Si Si4 0.702046 0.944034 0.678966
Si Si5 0.305242 0.236893 0.546520
Si Si6 0.298304 0.179876 0.259986
Si Si7 0.804700 0.117641 0.896732
Si Si8 0.195431 0.381498 0.543403
O O1 0.500000 0.056193 0.768031
O O2 0.281885 0.131670 0.715836
O O3 0.229916 0.076743 0.830905
O O4 0.239275 0.008661 0.713312
O O5 0.500000 0.314393 0.203526
O O6 0.285245 0.298668 0.106450
O O7 0.246279 0.242139 0.218814
O O8 0.500000 0.763316 0.896557
O O9 0.244434 0.808675 0.836525
O O10 0.247290 0.690351 0.883221
O O11 0.245749 0.780688 0.971683
O O12 0.500000 0.946093 0.678777
O O13 0.755276 0.884146 0.724035
O O14 0.751835 0.928852 0.602255
O O15 0.500000 0.223595 0.551919
O O16 0.279102 0.312728 0.552016
O O17 0.500000 0.178967 0.258794
O O18 0.000000 0.120636 0.908136
O O19 0.726454 0.096295 0.967233
O O20 0.000000 0.370755 0.552575
#
# Coordination Sequence:
#
# PCOD9350716 Si02
#       8
#     8   8   8   8   8   8   8   8
#     4  11  22  36  54  81 113 145 186 233 276 328
#     4  11  20  34  57  79 106 145 185 227 278 330
#     4   8  15  28  50  77 105 136 173 219 269 321
#     4   9  19  34  54  80 110 143 183 228 274 328
#     4  10  19  31  50  82 116 143 179 229 282 332
#     4   9  15  30  55  79 100 133 181 224 268 326
#     4  10  19  34  54  80 110 144 183 225 277 333
#     4  10  18  33  56  82 108 143 188 229 272 328
#
# _framework density 18.820706999999999
#
# number of rings (size 3 to 8) (size 9 to 14) (size 15 to 20)
#    0.000    2.250    2.500    2.625    0.000    0.000 
#    0.000    3.750    0.000    4.500    0.000    0.000 
#    0.000    0.000    0.000    0.000    0.000    0.000 
#
# Total GULP energy -178511.652866 kJ/mol
# GULP energy per Si atom -5578.489152 kJ/mol
# Density = 1.877787 g / cm^3
# Si number density = 18.820707 Si / 1000 Ang^3
#
#
#
# Elastic Constant Matrix: (Units=GPa)
#
#
# Indices 1 2 3 4 5 6 
#
# 1 14.1926 -5.0586 -7.9462 0.0000 0.0000 0.0000
# 2 -5.0586 81.6656 48.7825 0.0000 0.0000 0.0000
# 3 -7.9462 48.7825 140.7159 0.0000 0.0000 0.0000
# 4 0.0000 0.0000 0.0000 27.6909 0.0000 0.0000
# 5 0.0000 0.0000 0.0000 0.0000 24.3362 0.0000
# 6 0.0000 0.0000 0.0000 0.0000 0.0000 17.1036
#
#
#
# Elastic Compliance Matrix: (Units=1/GPa)
#
#
# Indices 1 2 3 4 5 6 
#
# 1 0.073196 0.002604 0.003231 0.000000 0.000000 0.000000
# 2 0.002604 0.015536 -0.005239 0.000000 0.000000 0.000000
# 3 0.003231 -0.005239 0.009105 0.000000 0.000000 0.000000
# 4 0.000000 0.000000 0.000000 0.036113 0.000000 0.000000
# 5 0.000000 0.000000 0.000000 0.000000 0.041091 0.000000
# 6 0.000000 0.000000 0.000000 0.000000 0.000000 0.058467
#
#
# Mechanical properties :
#
#
# Convention : Reuss Voigt Hill
#
# Bulk Modulus (GPa) = 10.09802 34.23662 22.16732
# Shear Modulus (GPa) = 18.84473 27.21256 23.02865
#
# Velocity S-wave (km/s) = 3.16773 3.80660 3.50177
# Velocity P-wave (km/s) = 4.33086 6.12787 5.30599
#
# Compressibility (1/GPa) = 0.09902931
#
# Stress axis : x y z
#
# Youngs Moduli (GPa) = 13.66187 64.36780 109.82875
#
# Poissons Ratio (x) = -0.16763 -0.35481
# Poissons Ratio (y) = -0.03558 0.57537
# Poissons Ratio (z) = -0.04414 0.33721
#
# Static dielectric constant tensor:
#      x y z
#    x 1.666520 0.000000 0.000000 
#    y 0.000000 1.626400 0.000000 
#    z 0.000000 0.000000 1.669480 
# 
# From -- ./inp_files/15674.got.cif
#   From: 2010.05.17/outbox.cif.g08.bks.cpg/sg36_8_cif.got.tgz:15674.got - 2010.06.03 17:41:39.
