data_PCOD9350038
_publ_section_title
;
Structure prediction by ZEFSAII (Michael W. Deem and Ramdas Pophale) SiO2 
 PCOD9350038
Probable space group: C M M 2
;
_chemical_formula_sum "Si O2"
_cell_formula_units_Z 48
_cell_length_a 17.233301
_cell_length_b 20.760155
_cell_length_c 7.828792
_cell_angle_alpha 90.000000
_cell_angle_beta 90.000000
_cell_angle_gamma 90.000000
_cell_volume 2800.875598
_symmetry_space_group_name_H-M "C M M 2"
_symmetry_group_IT_number 35
_symmetry_cell_setting 'orthorhombic'
loop_
_space_group_symop_operation_xyz
x,y,z
-x,-y,z
-x,y,z
x,-y,z
1/2+x,1/2+y,z
1/2-x,1/2-y,z
1/2-x,1/2+y,z
1/2+x,1/2-y,z
loop_
_atom_site_type_symbol
_atom_site_label
_atom_site_fract_x
_atom_site_fract_y
_atom_site_fract_z
Si Si1 0.344549 0.367453 0.847420
Si Si2 0.910763 0.000000 0.713811
Si Si3 0.407752 0.240103 0.705612
Si Si4 0.663056 0.768440 0.357999
Si Si5 0.589461 0.638846 0.208907
Si Si6 0.089239 0.000000 0.306331
Si Si7 0.804438 0.313841 0.997064
O O1 0.367717 0.436060 0.774518
O O2 0.363959 0.309553 0.717156
O O3 0.256950 0.364952 0.921765
O O4 0.400609 0.352853 0.007399
O O5 0.913409 0.000000 0.509664
O O6 0.000000 0.000000 0.777841
O O7 0.500000 0.248452 0.716845
O O8 0.383864 0.209602 0.523965
O O9 0.373198 0.199452 0.863908
O O10 0.750000 0.750000 0.411185
O O11 0.627189 0.700985 0.293161
O O12 0.667365 0.816237 0.193733
O O13 0.500000 0.637400 0.263202
O O14 0.624523 0.568296 0.249722
O O15 0.000000 0.000000 0.238114
O O16 0.750000 0.250000 0.997883
#
# Coordination Sequence:
#
# PCOD9350038 Si02
#       7
#     8   4   8   8   8   4   8
#     4  11  20  35  51  75 107 146 181 217 264 317
#     4  11  21  33  51  77 112 147 184 218 254 312
#     4  11  21  32  52  79 105 137 180 223 270 318
#     4  11  19  33  51  70 101 143 179 218 267 315
#     4  11  19  31  50  71 102 140 179 215 255 306
#     4   9  21  33  43  73 109 141 178 212 251 306
#     4   9  19  36  50  72 103 139 179 220 266 321
#
# _framework density 17.137498000000001
#
# number of rings (size 3 to 8) (size 9 to 14) (size 15 to 20)
#    0.000    1.500    5.000    5.000    0.000    2.667 
#    0.000    0.000    0.000    0.000    0.000    0.583 
#    0.000    0.000    0.000    2.250    0.000    0.000 
#
# Total GULP energy -133796.264549 kJ/mol
# GULP energy per Si atom -5574.844356 kJ/mol
# Density = 1.709849 g / cm^3
# Si number density = 17.137498 Si / 1000 Ang^3
#
#
#
# Elastic Constant Matrix: (Units=GPa)
#
#
# Indices 1 2 3 4 5 6 
#
# 1 77.3494 27.7752 33.8631 0.0000 0.0000 0.0000
# 2 27.7752 44.8514 10.1544 0.0000 0.0000 0.0000
# 3 33.8631 10.1544 99.1770 0.0000 0.0000 0.0000
# 4 0.0000 0.0000 0.0000 18.9590 0.0000 0.0000
# 5 0.0000 0.0000 0.0000 0.0000 19.7679 0.0000
# 6 0.0000 0.0000 0.0000 0.0000 0.0000 14.5855
#
#
#
# Elastic Compliance Matrix: (Units=1/GPa)
#
#
# Indices 1 2 3 4 5 6 
#
# 1 0.019120 -0.010609 -0.005442 0.000000 0.000000 0.000000
# 2 -0.010609 0.028711 0.000683 0.000000 0.000000 0.000000
# 3 -0.005442 0.000683 0.011871 0.000000 0.000000 0.000000
# 4 0.000000 0.000000 0.000000 0.052745 0.000000 0.000000
# 5 0.000000 0.000000 0.000000 0.000000 0.050587 0.000000
# 6 0.000000 0.000000 0.000000 0.000000 0.000000 0.068561
#
#
# Mechanical properties :
#
#
# Convention : Reuss Voigt Hill
#
# Bulk Modulus (GPa) = 34.52319 40.55146 37.53732
# Shear Modulus (GPa) = 18.38316 20.63483 19.50900
#
# Velocity S-wave (km/s) = 3.27874 3.47374 3.37765
# Velocity P-wave (km/s) = 5.87555 6.30896 6.09611
#
# Compressibility (1/GPa) = 0.02896604
#
# Stress axis : x y z
#
# Youngs Moduli (GPa) = 52.30018 34.82993 84.23660
#
# Poissons Ratio (x) = 0.36950 0.45844
# Poissons Ratio (y) = 0.55483 -0.05750
# Poissons Ratio (z) = 0.28463 -0.02378
#
# Static dielectric constant tensor:
#      x y z
#    x 1.597760 0.000000 0.000000 
#    y 0.000000 1.595900 0.000000 
#    z 0.000000 0.000000 1.638510 
# 
# From -- ./inp_files/8634.got.cif
#   From: 2010.05.17/outbox.cif.g08.bks.cpg/sg35_5_cif.got.tgz:8634.got - 2010.06.03 17:29:28.
