data_PCOD9350844
_publ_section_title
;
Structure prediction by ZEFSAII (Michael W. Deem and Ramdas Pophale) SiO2 
 PCOD9350844
Probable space group: C M C 21
;
_chemical_formula_sum "Si O2"
_cell_formula_units_Z 64
_cell_length_a 7.519357
_cell_length_b 21.074626
_cell_length_c 20.066129
_cell_angle_alpha 90.000000
_cell_angle_beta 90.000000
_cell_angle_gamma 90.000000
_cell_volume 3179.832037
_symmetry_space_group_name_H-M "C M C 21"
_symmetry_group_IT_number 36
_symmetry_cell_setting 'orthorhombic'
loop_
_space_group_symop_operation_xyz
x,y,z
-x,-y,1/2+z
x,-y,1/2+z
-x,y,z
1/2+x,1/2+y,z
1/2-x,1/2-y,1/2+z
1/2+x,1/2-y,1/2+z
1/2-x,1/2+y,z
loop_
_atom_site_type_symbol
_atom_site_label
_atom_site_fract_x
_atom_site_fract_y
_atom_site_fract_z
Si Si1 0.282297 0.685284 0.925380
Si Si2 0.704545 0.439336 0.927618
Si Si3 0.781388 0.939215 0.506831
Si Si4 0.791646 0.687638 0.500116
Si Si5 0.783442 0.121983 0.293865
Si Si6 0.213706 0.243931 0.639320
Si Si7 0.708167 0.608768 0.145513
Si Si8 0.790651 0.769992 0.286705
O O1 0.500000 0.685949 0.925600
O O2 0.220010 0.690361 0.849026
O O3 0.228377 0.622572 0.964534
O O4 0.223582 0.748937 0.963519
O O5 0.500000 0.457303 0.914087
O O6 0.781433 0.419943 0.855709
O O7 0.781193 0.497636 0.969438
O O8 0.706560 0.375928 0.972062
O O9 0.718672 0.930099 0.582933
O O10 0.000000 0.939841 0.509382
O O11 0.768520 0.699839 0.578424
O O12 0.000000 0.682191 0.484813
O O13 0.718813 0.101492 0.220391
O O14 0.729835 0.195339 0.303613
O O15 0.000000 0.121507 0.293739
O O16 0.277424 0.316241 0.628419
O O17 0.281598 0.222177 0.711986
O O18 0.000000 0.246537 0.641430
O O19 0.500000 0.592945 0.150317
O O20 0.000000 0.784195 0.282781
#
# Coordination Sequence:
#
# PCOD9350844 Si02
#       8
#     8   8   8   8   8   8   8   8
#     4   9  16  29  51  75  95 125 168 204 241 294
#     4  10  20  33  49  74 105 133 165 212 259 295
#     4   9  17  31  51  73 100 132 170 211 248 297
#     4  11  20  33  54  74  99 134 170 205 246 305
#     4   9  17  28  46  73 101 127 164 210 254 300
#     4  10  19  30  48  77 107 129 162 214 259 294
#     4   9  16  30  50  72  98 134 174 205 248 309
#     4   9  17  30  49  74 101 130 165 205 251 300
#
# _framework density 20.126849
#
# number of rings (size 3 to 8) (size 9 to 14) (size 15 to 20)
#    0.000    2.500    2.500    0.750    0.000    0.500 
#    0.000    1.875    0.000    6.000    0.000    1.750 
#    0.000    0.000    0.000    0.000    0.000    0.000 
#
# Total GULP energy -178516.722251 kJ/mol
# GULP energy per Si atom -5578.647570 kJ/mol
# Density = 2.008104 g / cm^3
# Si number density = 20.126849 Si / 1000 Ang^3
#
#
#
# Elastic Constant Matrix: (Units=GPa)
#
#
# Indices 1 2 3 4 5 6 
#
# 1 48.1097 -11.1068 -5.8521 0.0000 0.0000 0.0000
# 2 -11.1068 96.4023 74.9331 0.0000 0.0000 0.0000
# 3 -5.8521 74.9331 184.6184 0.0000 0.0000 0.0000
# 4 0.0000 0.0000 0.0000 30.7951 0.0000 0.0000
# 5 0.0000 0.0000 0.0000 0.0000 7.0787 0.0000
# 6 0.0000 0.0000 0.0000 0.0000 0.0000 9.2332
#
#
#
# Elastic Compliance Matrix: (Units=1/GPa)
#
#
# Indices 1 2 3 4 5 6 
#
# 1 0.021382 0.002829 -0.000471 0.000000 0.000000 0.000000
# 2 0.002829 0.015529 -0.006213 0.000000 0.000000 0.000000
# 3 -0.000471 -0.006213 0.007923 0.000000 0.000000 0.000000
# 4 0.000000 0.000000 0.000000 0.032473 0.000000 0.000000
# 5 0.000000 0.000000 0.000000 0.000000 0.141268 0.000000
# 6 0.000000 0.000000 0.000000 0.000000 0.000000 0.108305
#
#
# Mechanical properties :
#
#
# Convention : Reuss Voigt Hill
#
# Bulk Modulus (GPa) = 26.93610 49.45321 38.19466
# Shear Modulus (GPa) = 14.41076 27.49849 20.95463
#
# Velocity S-wave (km/s) = 2.67871 3.70030 3.23015
# Velocity P-wave (km/s) = 4.79370 6.54832 5.73847
#
# Compressibility (1/GPa) = 0.03712490
#
# Stress axis : x y z
#
# Youngs Moduli (GPa) = 46.76886 64.39755 126.20797
#
# Poissons Ratio (x) = -0.18219 0.05939
# Poissons Ratio (y) = -0.13232 0.78414
# Poissons Ratio (z) = 0.02201 0.40011
#
# Static dielectric constant tensor:
#      x y z
#    x 1.775900 0.000000 0.000000 
#    y 0.000000 1.656960 0.000000 
#    z 0.000000 0.000000 1.752590 
# 
# From -- ./inp_files/15646.got.cif
#   From: 2010.05.17/outbox.cif.g08.bks.cpg/sg36_8_cif.got.tgz:15646.got - 2010.06.03 17:41:39.
