data_PCOD9350415
_publ_section_title
;
Structure prediction by ZEFSAII (Michael W. Deem and Ramdas Pophale) SiO2 
 PCOD9350415
Probable space group: C M M 2
;
_chemical_formula_sum "Si O2"
_cell_formula_units_Z 64
_cell_length_a 29.489186
_cell_length_b 8.827179
_cell_length_c 15.974020
_cell_angle_alpha 90.000000
_cell_angle_beta 90.000000
_cell_angle_gamma 90.000000
_cell_volume 4158.138416
_symmetry_space_group_name_H-M "C M M 2"
_symmetry_group_IT_number 35
_symmetry_cell_setting 'orthorhombic'
loop_
_space_group_symop_operation_xyz
x,y,z
-x,-y,z
-x,y,z
x,-y,z
1/2+x,1/2+y,z
1/2-x,1/2-y,z
1/2-x,1/2+y,z
1/2+x,1/2-y,z
loop_
_atom_site_type_symbol
_atom_site_label
_atom_site_fract_x
_atom_site_fract_y
_atom_site_fract_z
Si Si1 0.797609 0.681982 0.625000
Si Si2 0.894848 0.683691 0.562711
Si Si3 0.297654 0.181979 0.820591
Si Si4 0.895156 0.681925 0.881873
Si Si5 0.553350 0.680295 0.038211
Si Si6 0.553446 0.318585 0.722068
Si Si7 0.552390 0.184734 0.397033
Si Si8 0.944971 0.674780 0.212823
O O1 0.794597 0.500000 0.622652
O O2 0.750000 0.750000 0.595781
O O3 0.842372 0.728310 0.574616
O O4 0.804005 0.726718 0.722771
O O5 0.897150 0.500000 0.567876
O O6 0.923209 0.750969 0.639576
O O7 0.916748 0.731350 0.474714
O O8 0.250000 0.250000 0.849808
O O9 0.342524 0.228078 0.870693
O O10 0.294568 0.000000 0.822819
O O11 0.897326 0.500000 0.877844
O O12 0.917292 0.740012 0.967148
O O13 0.922780 0.749379 0.803708
O O14 0.500000 0.722380 0.028001
O O15 0.556652 0.500000 0.029516
O O16 0.567799 0.730666 0.131328
O O17 0.500000 0.282488 0.722500
O O18 0.558498 0.500000 0.723069
O O19 0.500000 0.232765 0.409780
O O20 0.568957 0.232907 0.304720
O O21 0.551965 0.000000 0.394626
O O22 0.930348 0.500000 0.202364
O O23 0.000000 0.673915 0.216365
#
# Coordination Sequence:
#
# PCOD9350415 Si02
#       8
#     8   8   8   8   8   8   8   8
#     4   9  17  30  46  66  90 117 153 194 234 276
#     4  10  18  31  49  69  92 122 160 196 230 272
#     4   9  18  32  48  68  90 115 151 192 233 276
#     4  11  21  34  50  69  91 120 159 195 228 272
#     4  10  20  32  46  68  97 126 156 190 232 279
#     4  11  23  34  43  62  95 130 160 189 224 270
#     4   8  14  25  45  71  94 118 152 193 232 270
#     4   8  14  27  46  67  90 118 154 193 232 273
#
# _framework density 15.391503
#
# number of rings (size 3 to 8) (size 9 to 14) (size 15 to 20)
#    0.000    2.500    1.250    2.625    0.000    5.250 
#    0.000    0.625    0.000    2.250    0.000    0.875 
#    0.000    2.000    0.000    0.000    0.000    0.000 
#
# Total GULP energy -178383.788115 kJ/mol
# GULP energy per Si atom -5574.493379 kJ/mol
# Density = 1.535647 g / cm^3
# Si number density = 15.391503 Si / 1000 Ang^3
#
#
#
# Elastic Constant Matrix: (Units=GPa)
#
#
# Indices 1 2 3 4 5 6 
#
# 1 126.2270 37.7293 76.3101 0.0000 0.0000 0.0000
# 2 37.7293 23.2104 30.5362 0.0000 0.0000 0.0000
# 3 76.3101 30.5362 129.7579 0.0000 0.0000 0.0000
# 4 0.0000 0.0000 0.0000 5.6431 0.0000 0.0000
# 5 0.0000 0.0000 0.0000 0.0000 5.1836 0.0000
# 6 0.0000 0.0000 0.0000 0.0000 0.0000 22.1849
#
#
#
# Elastic Compliance Matrix: (Units=1/GPa)
#
#
# Indices 1 2 3 4 5 6 
#
# 1 0.017558 -0.021663 -0.005228 0.000000 0.000000 0.000000
# 2 -0.021663 0.089134 -0.008236 0.000000 0.000000 0.000000
# 3 -0.005228 -0.008236 0.012719 0.000000 0.000000 0.000000
# 4 0.000000 0.000000 0.000000 0.177208 0.000000 0.000000
# 5 0.000000 0.000000 0.000000 0.000000 0.192917 0.000000
# 6 0.000000 0.000000 0.000000 0.000000 0.000000 0.045076
#
#
# Mechanical properties :
#
#
# Convention : Reuss Voigt Hill
#
# Bulk Modulus (GPa) = 20.34285 63.14963 41.74624
# Shear Modulus (GPa) = 8.04828 15.57696 11.81262
#
# Velocity S-wave (km/s) = 2.28919 3.18472 2.77334
# Velocity P-wave (km/s) = 4.49809 7.39197 6.11858
#
# Compressibility (1/GPa) = 0.04915733
#
# Stress axis : x y z
#
# Youngs Moduli (GPa) = 56.95518 11.21906 78.62139
#
# Poissons Ratio (x) = 0.24304 0.41100
# Poissons Ratio (y) = 1.23383 0.64753
# Poissons Ratio (z) = 0.29774 0.09240
#
# Static dielectric constant tensor:
#      x y z
#    x 1.502320 0.000000 0.000000 
#    y 0.000000 1.517710 0.000000 
#    z 0.000000 0.000000 1.505630 
# 
# From -- ./inp_files/16186.got.cif
#   From: 2010.05.17/outbox.cif.g08.bks.cpg/sg35_9_cif.got.tgz:16186.got - 2010.06.03 17:29:28.
