data_PCOD9350061
_publ_section_title
;
Structure prediction by ZEFSAII (Michael W. Deem and Ramdas Pophale) SiO2 
 PCOD9350061
Probable space group: C M M 2
;
_chemical_formula_sum "Si O2"
_cell_formula_units_Z 48
_cell_length_a 29.077401
_cell_length_b 8.524976
_cell_length_c 10.552097
_cell_angle_alpha 90.000000
_cell_angle_beta 90.000000
_cell_angle_gamma 90.000000
_cell_volume 2615.697550
_symmetry_space_group_name_H-M "C M M 2"
_symmetry_group_IT_number 35
_symmetry_cell_setting 'orthorhombic'
loop_
_space_group_symop_operation_xyz
x,y,z
-x,-y,z
-x,y,z
x,-y,z
1/2+x,1/2+y,z
1/2-x,1/2-y,z
1/2-x,1/2+y,z
1/2+x,1/2-y,z
loop_
_atom_site_type_symbol
_atom_site_label
_atom_site_fract_x
_atom_site_fract_y
_atom_site_fract_z
Si Si1 0.051406 0.691039 0.789880
Si Si2 0.198300 0.311563 0.639507
Si Si3 0.855304 0.814174 0.394955
Si Si4 0.302025 0.188086 0.151070
Si Si5 0.146630 0.308778 0.896886
Si Si6 0.052552 0.310999 0.494037
O O1 0.051002 0.500000 0.792423
O O2 0.094012 0.743892 0.875320
O O3 0.059594 0.733572 0.642260
O O4 0.000000 0.743859 0.826069
O O5 0.197881 0.500000 0.634154
O O6 0.250000 0.250000 0.632576
O O7 0.169537 0.247746 0.521537
O O8 0.175178 0.262612 0.772151
O O9 0.830180 0.740951 0.274014
O O10 0.908432 0.764632 0.408439
O O11 0.851125 0.000000 0.388776
O O12 0.250000 0.250000 0.154796
O O13 0.300327 0.000000 0.148175
O O14 0.328429 0.244567 0.024466
O O15 0.146045 0.500000 0.899799
O O16 0.056901 0.500000 0.487642
O O17 0.000000 0.270006 0.460521
#
# Coordination Sequence:
#
# PCOD9350061 Si02
#       6
#     8   8   8   8   8   8
#     4   8  13  26  53  87 116 141 175 223 278 331
#     4  11  21  36  57  83 113 142 185 240 290 343
#     4  12  24  38  56  82 115 154 192 232 284 339
#     4  11  23  40  59  80 111 152 195 239 288 346
#     4   9  18  33  56  84 113 145 184 233 288 339
#     4   9  17  33  60  89 116 148 187 233 283 334
#
# _framework density 18.350745
#
# number of rings (size 3 to 8) (size 9 to 14) (size 15 to 20)
#    0.000    2.000    1.667    4.500    0.000    0.333 
#    0.000    3.333    0.000    3.000    0.000    0.000 
#    0.000    0.000    0.000    0.000    0.000    0.000 
#
# Total GULP energy -133994.515667 kJ/mol
# GULP energy per Si atom -5583.104819 kJ/mol
# Density = 1.830898 g / cm^3
# Si number density = 18.350745 Si / 1000 Ang^3
#
#
#
# Elastic Constant Matrix: (Units=GPa)
#
#
# Indices 1 2 3 4 5 6 
#
# 1 177.8203 38.2439 89.5821 0.0000 0.0000 0.0000
# 2 38.2439 48.0021 32.8638 0.0000 0.0000 0.0000
# 3 89.5821 32.8638 141.8246 0.0000 0.0000 0.0000
# 4 0.0000 0.0000 0.0000 -1.5113 0.0000 0.0000
# 5 0.0000 0.0000 0.0000 0.0000 33.0098 0.0000
# 6 0.0000 0.0000 0.0000 0.0000 0.0000 25.6349
#
#
#
# Elastic Compliance Matrix: (Units=1/GPa)
#
#
# Indices 1 2 3 4 5 6 
#
# 1 0.008798 -0.003809 -0.004674 0.000000 0.000000 0.000000
# 2 -0.003809 0.026410 -0.003714 0.000000 0.000000 0.000000
# 3 -0.004674 -0.003714 0.010864 0.000000 0.000000 0.000000
# 4 0.000000 0.000000 0.000000 -0.661677 0.000000 0.000000
# 5 0.000000 0.000000 0.000000 0.000000 0.030294 0.000000
# 6 0.000000 0.000000 0.000000 0.000000 0.000000 0.039009
#
#
# Mechanical properties :
#
#
# Convention : Reuss Voigt Hill
#
# Bulk Modulus (GPa) = 46.13156 76.55854 61.34505
# Shear Modulus (GPa) = -9.71474 25.22382 7.75454
#
# Velocity S-wave (km/s) = -2.30335 3.71150 2.05789
# Velocity P-wave (km/s) = 4.25670 7.75739 6.25686
#
# Compressibility (1/GPa) = 0.02167713
#
# Stress axis : x y z
#
# Youngs Moduli (GPa) = 113.66605 37.86491 92.04690
#
# Poissons Ratio (x) = 0.14423 0.43026
# Poissons Ratio (y) = 0.43296 0.34184
# Poissons Ratio (z) = 0.53131 0.14062
#
# Static dielectric constant tensor:
#      x y z
#    x 1.635440 0.000000 0.000000 
#    y 0.000000 1.627090 0.000000 
#    z 0.000000 0.000000 1.606940 
# 
# From -- ./inp_files/5331.got.cif
#   From: 2010.05.17/outbox.cif.g08.bks.cpg/sg35_3_cif.got.tgz:5331.got - 2010.06.03 17:29:28.
