data_PCOD9350965
_publ_section_title
;
Structure prediction by ZEFSAII (Michael W. Deem and Ramdas Pophale) SiO2 
 PCOD9350965
Probable space group: C M C 21
;
_chemical_formula_sum "Si O2"
_cell_formula_units_Z 64
_cell_length_a 7.809018
_cell_length_b 20.996505
_cell_length_c 19.955404
_cell_angle_alpha 90.000000
_cell_angle_beta 90.000000
_cell_angle_gamma 90.000000
_cell_volume 3271.929656
_symmetry_space_group_name_H-M "C M C 21"
_symmetry_group_IT_number 36
_symmetry_cell_setting 'orthorhombic'
loop_
_space_group_symop_operation_xyz
x,y,z
-x,-y,1/2+z
x,-y,1/2+z
-x,y,z
1/2+x,1/2+y,z
1/2-x,1/2-y,1/2+z
1/2+x,1/2-y,1/2+z
1/2-x,1/2+y,z
loop_
_atom_site_type_symbol
_atom_site_label
_atom_site_fract_x
_atom_site_fract_y
_atom_site_fract_z
Si Si1 0.791958 0.262330 0.690540
Si Si2 0.710008 0.191443 0.900989
Si Si3 0.292895 0.065652 0.822613
Si Si4 0.200611 0.269518 0.542387
Si Si5 0.301190 0.944535 0.903538
Si Si6 0.298724 0.320431 0.827850
Si Si7 0.296890 0.383687 0.182695
Si Si8 0.298309 0.876650 0.033962
O O1 0.729108 0.281741 0.616535
O O2 0.727549 0.306686 0.749688
O O3 0.736101 0.188485 0.700463
O O4 0.000000 0.263096 0.691504
O O5 0.500000 0.191408 0.900901
O O6 0.766218 0.129822 0.860097
O O7 0.764470 0.256648 0.865139
O O8 0.771180 0.194517 0.977710
O O9 0.500000 0.064841 0.823828
O O10 0.243116 0.070942 0.744835
O O11 0.227051 0.004455 0.863314
O O12 0.215559 0.193468 0.530332
O O13 0.000000 0.285328 0.545584
O O14 0.500000 0.960815 0.916245
O O15 0.290731 0.882710 0.856319
O O16 0.228619 0.922539 0.975572
O O17 0.500000 0.327576 0.842236
O O18 0.500000 0.379861 0.174158
O O19 0.224104 0.401047 0.109821
O O20 0.500000 0.867079 0.021429
#
# Coordination Sequence:
#
# PCOD9350965 Si02
#       8
#     8   8   8   8   8   8   8   8
#     4   9  18  31  50  77 110 139 173 220 270 322
#     4   9  17  31  54  80 103 133 176 222 267 314
#     4  10  20  37  57  79 109 144 182 222 267 323
#     4   9  17  32  52  78 107 138 176 223 275 321
#     4  10  22  37  54  79 112 147 182 222 268 320
#     4  11  20  32  55  80 106 139 178 223 268 317
#     4  10  20  34  54  80 108 141 179 222 269 321
#     4  10  19  32  52  79 107 139 180 222 266 320
#
# _framework density 19.560320999999998
#
# number of rings (size 3 to 8) (size 9 to 14) (size 15 to 20)
#    0.000    2.250    2.500    1.875    0.000    3.000 
#    0.000    1.875    0.000    4.500    0.000    0.000 
#    0.000    0.000    0.000    0.000    0.000    0.000 
#
# Total GULP energy -178527.064903 kJ/mol
# GULP energy per Si atom -5578.970778 kJ/mol
# Density = 1.951580 g / cm^3
# Si number density = 19.560321 Si / 1000 Ang^3
#
#
#
# Elastic Constant Matrix: (Units=GPa)
#
#
# Indices 1 2 3 4 5 6 
#
# 1 24.3162 -10.2090 -11.0006 0.0000 0.0000 0.0000
# 2 -10.2090 72.9573 45.9161 0.0000 0.0000 0.0000
# 3 -11.0006 45.9161 154.5602 0.0000 0.0000 0.0000
# 4 0.0000 0.0000 0.0000 29.2003 0.0000 0.0000
# 5 0.0000 0.0000 0.0000 0.0000 16.8634 0.0000
# 6 0.0000 0.0000 0.0000 0.0000 0.0000 14.4632
#
#
#
# Elastic Compliance Matrix: (Units=1/GPa)
#
#
# Indices 1 2 3 4 5 6 
#
# 1 0.044012 0.005150 0.001603 0.000000 0.000000 0.000000
# 2 0.005150 0.017461 -0.004821 0.000000 0.000000 0.000000
# 3 0.001603 -0.004821 0.008016 0.000000 0.000000 0.000000
# 4 0.000000 0.000000 0.000000 0.034246 0.000000 0.000000
# 5 0.000000 0.000000 0.000000 0.000000 0.059300 0.000000
# 6 0.000000 0.000000 0.000000 0.000000 0.000000 0.069141
#
#
# Mechanical properties :
#
#
# Convention : Reuss Voigt Hill
#
# Bulk Modulus (GPa) = 13.63268 33.47185 23.55226
# Shear Modulus (GPa) = 19.78129 27.24720 23.51424
#
# Velocity S-wave (km/s) = 3.18354 3.73632 3.47095
# Velocity P-wave (km/s) = 4.52746 5.98019 5.30380
#
# Compressibility (1/GPa) = 0.07335316
#
# Stress axis : x y z
#
# Youngs Moduli (GPa) = 22.72105 57.26959 124.74792
#
# Poissons Ratio (x) = -0.29494 -0.19991
# Poissons Ratio (y) = -0.11701 0.60138
# Poissons Ratio (z) = -0.03641 0.27608
#
# Static dielectric constant tensor:
#      x y z
#    x 1.714360 0.000000 0.000000 
#    y 0.000000 1.657590 0.000000 
#    z 0.000000 0.000000 1.714370 
# 
# From -- ./inp_files/13840.got.cif
#   From: 2010.05.17/outbox.cif.g08.bks.cpg/sg36_7_cif.got.tgz:13840.got - 2010.06.03 17:41:39.
