data_PCOD9350900
_publ_section_title
;
Structure prediction by ZEFSAII (Michael W. Deem and Ramdas Pophale) SiO2 
 PCOD9350900
Probable space group: C M C 21
;
_chemical_formula_sum "Si O2"
_cell_formula_units_Z 48
_cell_length_a 8.878165
_cell_length_b 32.262151
_cell_length_c 9.621546
_cell_angle_alpha 90.000000
_cell_angle_beta 90.000000
_cell_angle_gamma 90.000000
_cell_volume 2755.886911
_symmetry_space_group_name_H-M "C M C 21"
_symmetry_group_IT_number 36
_symmetry_cell_setting 'orthorhombic'
loop_
_space_group_symop_operation_xyz
x,y,z
-x,-y,1/2+z
x,-y,1/2+z
-x,y,z
1/2+x,1/2+y,z
1/2-x,1/2-y,1/2+z
1/2+x,1/2-y,1/2+z
1/2-x,1/2+y,z
loop_
_atom_site_type_symbol
_atom_site_label
_atom_site_fract_x
_atom_site_fract_y
_atom_site_fract_z
Si Si1 0.820471 0.036013 0.031640
Si Si2 0.182158 0.287584 0.532764
Si Si3 0.179645 0.788605 0.838731
Si Si4 0.817879 0.465056 0.840114
Si Si5 0.826098 0.621390 0.018174
Si Si6 0.673053 0.126623 0.355911
O O1 0.752849 0.031626 0.186708
O O2 0.773345 0.081971 0.979926
O O3 0.000000 0.031862 0.034283
O O4 0.745320 0.001346 0.935422
O O5 0.227529 0.249272 0.436871
O O6 0.249833 0.283444 0.686146
O O7 0.225043 0.332871 0.471988
O O8 0.000000 0.288255 0.544483
O O9 0.231428 0.833382 0.895856
O O10 0.000000 0.788035 0.827219
O O11 0.777278 0.419342 0.900059
O O12 0.000000 0.533531 0.329818
O O13 0.824722 0.624327 0.186967
O O14 0.000000 0.614239 0.976237
O O15 0.500000 0.133109 0.398554
#
# Coordination Sequence:
#
# PCOD9350900 Si02
#       6
#     8   8   8   8   8   8
#     4  11  21  33  52  80 106 127 163 216 260 290
#     4   9  19  34  50  72 101 131 165 203 242 293
#     4  10  19  31  51  76  99 128 165 205 249 290
#     4  10  20  36  55  74 100 138 174 200 243 309
#     4   8  15  31  51  68  94 134 171 199 237 298
#     4   8  16  31  51  72  96 130 168 201 237 292
#
# _framework density 17.417259000000001
#
# number of rings (size 3 to 8) (size 9 to 14) (size 15 to 20)
#    0.000    2.667    0.000    4.500    0.000    8.000 
#    0.000    1.667    0.000    6.000    0.000    0.000 
#    0.000    0.000    0.000    0.000    0.000    0.000 
#
# Total GULP energy -133754.344227 kJ/mol
# GULP energy per Si atom -5573.097676 kJ/mol
# Density = 1.737762 g / cm^3
# Si number density = 17.417259 Si / 1000 Ang^3
#
#
#
# Elastic Constant Matrix: (Units=GPa)
#
#
# Indices 1 2 3 4 5 6 
#
# 1 66.9394 64.9268 28.1669 0.0000 0.0000 0.0000
# 2 64.9268 192.7504 61.6031 0.0000 0.0000 0.0000
# 3 28.1669 61.6031 42.0621 0.0000 0.0000 0.0000
# 4 0.0000 0.0000 0.0000 31.9847 0.0000 0.0000
# 5 0.0000 0.0000 0.0000 0.0000 21.7461 0.0000
# 6 0.0000 0.0000 0.0000 0.0000 0.0000 31.5730
#
#
#
# Elastic Compliance Matrix: (Units=1/GPa)
#
#
# Indices 1 2 3 4 5 6 
#
# 1 0.023468 -0.005419 -0.007779 0.000000 0.000000 0.000000
# 2 -0.005419 0.011005 -0.012488 0.000000 0.000000 0.000000
# 3 -0.007779 -0.012488 0.047274 0.000000 0.000000 0.000000
# 4 0.000000 0.000000 0.000000 0.031265 0.000000 0.000000
# 5 0.000000 0.000000 0.000000 0.000000 0.045985 0.000000
# 6 0.000000 0.000000 0.000000 0.000000 0.000000 0.031673
#
#
# Mechanical properties :
#
#
# Convention : Reuss Voigt Hill
#
# Bulk Modulus (GPa) = 32.92291 67.90505 50.41398
# Shear Modulus (GPa) = 19.82811 26.86444 23.34627
#
# Velocity S-wave (km/s) = 3.37770 3.93160 3.66513
# Velocity P-wave (km/s) = 5.84426 7.72540 6.84972
#
# Compressibility (1/GPa) = 0.03037399
#
# Stress axis : x y z
#
# Youngs Moduli (GPa) = 42.61086 90.87012 21.15329
#
# Poissons Ratio (x) = 0.49242 0.16455
# Poissons Ratio (y) = 0.23091 0.26417
# Poissons Ratio (z) = 0.33147 1.13483
#
# Static dielectric constant tensor:
#      x y z
#    x 1.582030 0.000000 0.000000 
#    y 0.000000 1.632260 0.000000 
#    z 0.000000 0.000000 1.566450 
# 
# From -- ./inp_files/2664.got.cif
#   From: 2010.05.17/outbox.cif.g08.bks.cpg/sg36_2_cif.got.tgz:2664.got - 2010.06.03 17:41:39.
