data_PCOD9350386
_publ_section_title
;
Structure prediction by ZEFSAII (Michael W. Deem and Ramdas Pophale) SiO2 
 PCOD9350386
Probable space group: C M M 2
;
_chemical_formula_sum "Si O2"
_cell_formula_units_Z 56
_cell_length_a 7.618612
_cell_length_b 22.786132
_cell_length_c 14.853001
_cell_angle_alpha 90.000000
_cell_angle_beta 90.000000
_cell_angle_gamma 90.000000
_cell_volume 2578.461645
_symmetry_space_group_name_H-M "C M M 2"
_symmetry_group_IT_number 35
_symmetry_cell_setting 'orthorhombic'
loop_
_space_group_symop_operation_xyz
x,y,z
-x,-y,z
-x,y,z
x,-y,z
1/2+x,1/2+y,z
1/2-x,1/2-y,z
1/2-x,1/2+y,z
1/2+x,1/2-y,z
loop_
_atom_site_type_symbol
_atom_site_label
_atom_site_fract_x
_atom_site_fract_y
_atom_site_fract_z
Si Si1 0.214296 0.500000 0.099090
Si Si2 0.796894 0.065856 0.583505
Si Si3 0.793629 0.431623 0.788417
Si Si4 0.710309 0.315840 0.489905
Si Si5 0.202877 0.000000 0.308788
Si Si6 0.207908 0.183334 0.128896
Si Si7 0.704948 0.893636 0.974367
Si Si8 0.715246 0.627684 0.311275
O O1 0.287217 0.500000 0.199822
O O2 0.000000 0.500000 0.106561
O O3 0.274231 0.443813 0.041492
O O4 0.793376 0.074041 0.691453
O O5 0.721545 0.125964 0.541619
O O6 0.000000 0.062824 0.553716
O O7 0.720880 0.000000 0.565222
O O8 0.779575 0.500000 0.816252
O O9 0.722055 0.395367 0.873477
O O10 0.000000 0.418592 0.773296
O O11 0.500000 0.319690 0.492439
O O12 0.750000 0.250000 0.522264
O O13 0.767851 0.325520 0.386402
O O14 0.277219 0.937453 0.338303
O O15 0.000000 0.000000 0.337148
O O16 0.250000 0.250000 0.150376
O O17 0.277335 0.144139 0.211542
O O18 0.000000 0.175417 0.124689
O O19 0.280317 0.164958 0.032061
O O20 0.500000 0.908234 0.962030
O O21 0.500000 0.626409 0.308382
#
# Coordination Sequence:
#
# PCOD9350386 Si02
#       8
#     4   8   8   8   4   8   8   8
#     4  10  18  30  50  77 108 138 170 211 260 307
#     4   9  19  35  56  83 111 139 177 227 278 325
#     4   9  17  32  55  81 109 140 173 212 266 327
#     4  10  21  38  58  81 108 143 183 223 272 329
#     4  10  18  32  52  79 110 140 178 221 266 317
#     4  11  22  36  52  74 104 143 187 227 267 313
#     4  10  19  33  53  78 108 142 176 214 261 316
#     4   9  19  33  54  80 107 140 178 219 266 320
#
# _framework density 21.718377
#
# number of rings (size 3 to 8) (size 9 to 14) (size 15 to 20)
#    0.000    2.286    2.143    0.857    1.000    1.143 
#    0.000    2.143    0.000    1.714    0.000    0.000 
#    0.000    0.000    0.000    0.000    0.000    0.000 
#
# Total GULP energy -156203.918561 kJ/mol
# GULP energy per Si atom -5578.711377 kJ/mol
# Density = 2.166894 g / cm^3
# Si number density = 21.718377 Si / 1000 Ang^3
#
#
#
# Elastic Constant Matrix: (Units=GPa)
#
#
# Indices 1 2 3 4 5 6 
#
# 1 47.5634 -0.3024 3.9277 0.0000 0.0000 0.0000
# 2 -0.3024 138.3081 47.9928 0.0000 0.0000 0.0000
# 3 3.9277 47.9928 90.8627 0.0000 0.0000 0.0000
# 4 0.0000 0.0000 0.0000 29.4881 0.0000 0.0000
# 5 0.0000 0.0000 0.0000 0.0000 37.5270 0.0000
# 6 0.0000 0.0000 0.0000 0.0000 0.0000 10.4816
#
#
#
# Elastic Compliance Matrix: (Units=1/GPa)
#
#
# Indices 1 2 3 4 5 6 
#
# 1 0.021122 0.000444 -0.001148 0.000000 0.000000 0.000000
# 2 0.000444 0.008862 -0.004700 0.000000 0.000000 0.000000
# 3 -0.001148 -0.004700 0.013538 0.000000 0.000000 0.000000
# 4 0.000000 0.000000 0.000000 0.033912 0.000000 0.000000
# 5 0.000000 0.000000 0.000000 0.000000 0.026647 0.000000
# 6 0.000000 0.000000 0.000000 0.000000 0.000000 0.095405
#
#
# Mechanical properties :
#
#
# Convention : Reuss Voigt Hill
#
# Bulk Modulus (GPa) = 30.56682 42.21892 36.39287
# Shear Modulus (GPa) = 22.60410 30.50709 26.55560
#
# Velocity S-wave (km/s) = 3.22962 3.75195 3.50054
# Velocity P-wave (km/s) = 5.29263 6.18474 5.75600
#
# Compressibility (1/GPa) = 0.03271521
#
# Stress axis : x y z
#
# Youngs Moduli (GPa) = 47.34362 112.83964 73.86739
#
# Poissons Ratio (x) = -0.05015 0.08479
# Poissons Ratio (y) = -0.02104 0.34718
# Poissons Ratio (z) = 0.05434 0.53036
#
# Static dielectric constant tensor:
#      x y z
#    x 1.832310 0.000000 0.000000 
#    y 0.000000 1.792750 0.000000 
#    z 0.000000 0.000000 1.791870 
# 
# From -- ./inp_files/15774.got.cif
#   From: 2010.05.17/outbox.cif.g08.bks.cpg/sg35_8_cif.got.tgz:15774.got - 2010.06.03 17:29:28.
