data_PCOD9350974
_publ_section_title
;
Structure prediction by ZEFSAII (Michael W. Deem and Ramdas Pophale) SiO2 
 PCOD9350974
Probable space group: C M C 21
;
_chemical_formula_sum "Si O2"
_cell_formula_units_Z 48
_cell_length_a 15.621558
_cell_length_b 17.820519
_cell_length_c 8.699920
_cell_angle_alpha 90.000000
_cell_angle_beta 90.000000
_cell_angle_gamma 90.000000
_cell_volume 2421.920888
_symmetry_space_group_name_H-M "C M C 21"
_symmetry_group_IT_number 36
_symmetry_cell_setting 'orthorhombic'
loop_
_space_group_symop_operation_xyz
x,y,z
-x,-y,1/2+z
x,-y,1/2+z
-x,y,z
1/2+x,1/2+y,z
1/2-x,1/2-y,1/2+z
1/2+x,1/2-y,1/2+z
1/2-x,1/2+y,z
loop_
_atom_site_type_symbol
_atom_site_label
_atom_site_fract_x
_atom_site_fract_y
_atom_site_fract_z
Si Si1 0.654571 0.457685 0.050170
Si Si2 0.261584 0.169634 0.100718
Si Si3 0.095855 0.605112 0.688278
Si Si4 0.732356 0.322434 0.235948
Si Si5 0.661722 0.025721 0.995734
Si Si6 0.906038 0.101451 0.234023
O O1 0.680629 0.394100 0.173337
O O2 0.743054 0.490745 0.977958
O O3 0.607586 0.526120 0.133242
O O4 0.602620 0.421784 0.911427
O O5 0.302082 0.244886 0.168042
O O6 0.321744 0.096028 0.110318
O O7 0.174112 0.153295 0.191510
O O8 0.239104 0.178401 0.920075
O O9 0.171066 0.665678 0.670625
O O10 0.104905 0.541258 0.559631
O O11 0.000000 0.634905 0.696797
O O12 0.122275 0.561129 0.843703
O O13 0.000000 0.133452 0.202957
#
# Coordination Sequence:
#
# PCOD9350974 Si02
#       6
#     8   8   8   8   8   8
#     4  10  19  35  55  79 106 140 180 216 263 323
#     4  10  20  36  55  77 105 141 182 218 260 318
#     4  10  19  32  53  79 105 130 164 213 261 304
#     4  10  21  36  56  77 105 143 181 217 259 320
#     4   9  18  33  53  76 102 135 171 207 251 311
#     4  11  21  34  56  82 109 137 174 227 276 318
#
# _framework density 19.818978999999999
#
# number of rings (size 3 to 8) (size 9 to 14) (size 15 to 20)
#    0.000    2.000    0.000    7.000    0.000    2.000 
#    0.000    0.833    0.000    8.000    0.000    0.000 
#    0.000    0.000    0.000    0.000    0.000    0.000 
#
# Total GULP energy -133993.219319 kJ/mol
# GULP energy per Si atom -5583.050805 kJ/mol
# Density = 1.977387 g / cm^3
# Si number density = 19.818979 Si / 1000 Ang^3
#
#
#
# Elastic Constant Matrix: (Units=GPa)
#
#
# Indices 1 2 3 4 5 6 
#
# 1 44.2142 -16.4694 -15.6410 0.0000 0.0000 0.0000
# 2 -16.4694 58.9364 -7.7806 0.0000 0.0000 0.0000
# 3 -15.6410 -7.7806 44.7714 0.0000 0.0000 0.0000
# 4 0.0000 0.0000 0.0000 24.8911 0.0000 0.0000
# 5 0.0000 0.0000 0.0000 0.0000 11.5451 0.0000
# 6 0.0000 0.0000 0.0000 0.0000 0.0000 5.5259
#
#
#
# Elastic Compliance Matrix: (Units=1/GPa)
#
#
# Indices 1 2 3 4 5 6 
#
# 1 0.030906 0.010298 0.012587 0.000000 0.000000 0.000000
# 2 0.010298 0.020797 0.007212 0.000000 0.000000 0.000000
# 3 0.012587 0.007212 0.027986 0.000000 0.000000 0.000000
# 4 0.000000 0.000000 0.000000 0.040175 0.000000 0.000000
# 5 0.000000 0.000000 0.000000 0.000000 0.086617 0.000000
# 6 0.000000 0.000000 0.000000 0.000000 0.000000 0.180965
#
#
# Mechanical properties :
#
#
# Convention : Reuss Voigt Hill
#
# Bulk Modulus (GPa) = 7.14888 7.57112 7.36000
# Shear Modulus (GPa) = 13.37328 20.91331 17.14330
#
# Velocity S-wave (km/s) = 2.60045 3.25193 2.94427
# Velocity P-wave (km/s) = 3.55407 4.23421 3.90896
#
# Compressibility (1/GPa) = 0.13988212
#
# Stress axis : x y z
#
# Youngs Moduli (GPa) = 32.35654 48.08331 35.73193
#
# Poissons Ratio (x) = -0.49516 -0.44974
# Poissons Ratio (y) = -0.33321 -0.25769
# Poissons Ratio (z) = -0.40726 -0.34677
#
# Static dielectric constant tensor:
#      x y z
#    x 1.725280 0.000000 0.000000 
#    y 0.000000 1.694290 0.000000 
#    z 0.000000 0.000000 1.697250 
# 
# From -- ./inp_files/3976.got.cif
#   From: 2010.05.17/outbox.cif.g08.bks.cpg/sg36_2_cif.got.tgz:3976.got - 2010.06.03 17:41:39.
