data_PCOD9350511
_publ_section_title
;
Structure prediction by ZEFSAII (Michael W. Deem and Ramdas Pophale) SiO2 
 PCOD9350511
Probable space group: C M C 21
;
_chemical_formula_sum "Si O2"
_cell_formula_units_Z 64
_cell_length_a 7.558186
_cell_length_b 24.676168
_cell_length_c 15.949545
_cell_angle_alpha 90.000000
_cell_angle_beta 90.000000
_cell_angle_gamma 90.000000
_cell_volume 2974.702866
_symmetry_space_group_name_H-M "C M C 21"
_symmetry_group_IT_number 36
_symmetry_cell_setting 'orthorhombic'
loop_
_space_group_symop_operation_xyz
x,y,z
-x,-y,1/2+z
x,-y,1/2+z
-x,y,z
1/2+x,1/2+y,z
1/2-x,1/2-y,1/2+z
1/2+x,1/2-y,1/2+z
1/2-x,1/2+y,z
loop_
_atom_site_type_symbol
_atom_site_label
_atom_site_fract_x
_atom_site_fract_y
_atom_site_fract_z
Si Si1 0.789762 0.319356 0.917150
Si Si2 0.283512 0.622789 0.768576
Si Si3 0.710661 0.619327 0.073758
Si Si4 0.213373 0.114072 0.584175
Si Si5 0.290295 0.494589 0.328200
Si Si6 0.789964 0.610206 0.261937
Si Si7 0.716988 0.696308 0.924587
Si Si8 0.283246 0.499224 0.519274
O O1 0.716779 0.354650 0.839556
O O2 0.720758 0.258166 0.922589
O O3 0.000000 0.314718 0.903154
O O4 0.763954 0.350632 0.004147
O O5 0.500000 0.622960 0.768899
O O6 0.225815 0.635837 0.674165
O O7 0.222918 0.561911 0.791417
O O8 0.228821 0.663831 0.841274
O O9 0.500000 0.616705 0.061170
O O10 0.742193 0.632333 0.170648
O O11 0.777924 0.558656 0.054000
O O12 0.777099 0.662889 0.006428
O O13 0.274102 0.052134 0.570042
O O14 0.000000 0.112833 0.586023
O O15 0.500000 0.486843 0.336603
O O16 0.264569 0.547603 0.272305
O O17 0.224395 0.504885 0.422603
O O18 0.000000 0.610596 0.268419
O O19 0.500000 0.696778 0.926139
O O20 0.500000 0.499298 0.521151
#
# Coordination Sequence:
#
# PCOD9350511 Si02
#       8
#     8   8   8   8   8   8   8   8
#     4  10  22  38  53  72 106 147 182 215 258 316
#     4   9  17  31  56  85 106 130 171 224 271 310
#     4  10  19  35  60  84 104 133 179 229 270 310
#     4  10  19  32  54  83 108 132 170 216 265 315
#     4  10  17  32  59  83 106 134 173 221 265 315
#     4  11  23  36  51  78 115 150 177 207 262 327
#     4   9  18  35  57  79 103 137 180 224 268 310
#     4   9  16  29  54  86 108 127 166 222 271 309
#
# _framework density 21.514752999999999
#
# number of rings (size 3 to 8) (size 9 to 14) (size 15 to 20)
#    0.000    2.250    2.500    1.125    0.000    3.500 
#    0.000    5.000    0.000    2.250    0.000    0.000 
#    0.000    0.000    0.000    0.000    0.000    0.000 
#
# Total GULP energy -178747.826571 kJ/mol
# GULP energy per Si atom -5585.869580 kJ/mol
# Density = 2.146578 g / cm^3
# Si number density = 21.514753 Si / 1000 Ang^3
#
#
#
# Elastic Constant Matrix: (Units=GPa)
#
#
# Indices 1 2 3 4 5 6 
#
# 1 46.7685 0.9396 -10.6700 0.0000 0.0000 0.0000
# 2 0.9396 152.7761 60.1146 0.0000 0.0000 0.0000
# 3 -10.6700 60.1146 142.0631 0.0000 0.0000 0.0000
# 4 0.0000 0.0000 0.0000 7.5274 0.0000 0.0000
# 5 0.0000 0.0000 0.0000 0.0000 3.6566 0.0000
# 6 0.0000 0.0000 0.0000 0.0000 0.0000 3.5910
#
#
#
# Elastic Compliance Matrix: (Units=1/GPa)
#
#
# Indices 1 2 3 4 5 6 
#
# 1 0.021866 -0.000937 0.002039 0.000000 0.000000 0.000000
# 2 -0.000937 0.007893 -0.003410 0.000000 0.000000 0.000000
# 3 0.002039 -0.003410 0.008635 0.000000 0.000000 0.000000
# 4 0.000000 0.000000 0.000000 0.132847 0.000000 0.000000
# 5 0.000000 0.000000 0.000000 0.000000 0.273475 0.000000
# 6 0.000000 0.000000 0.000000 0.000000 0.000000 0.278471
#
#
# Mechanical properties :
#
#
# Convention : Reuss Voigt Hill
#
# Bulk Modulus (GPa) = 29.60543 49.15289 39.37916
# Shear Modulus (GPa) = 6.76531 22.36992 14.56762
#
# Velocity S-wave (km/s) = 1.77520 3.22801 2.60494
# Velocity P-wave (km/s) = 4.24172 6.06540 5.23361
#
# Compressibility (1/GPa) = 0.03377759
#
# Stress axis : x y z
#
# Youngs Moduli (GPa) = 45.73348 126.69105 115.80281
#
# Poissons Ratio (x) = 0.11866 -0.23608
# Poissons Ratio (y) = 0.04284 0.39493
# Poissons Ratio (z) = -0.09323 0.43207
#
# Static dielectric constant tensor:
#      x y z
#    x 1.824980 0.000000 0.000000 
#    y 0.000000 1.741600 0.000000 
#    z 0.000000 0.000000 1.751750 
# 
# From -- ./inp_files/10922.got.cif
#   From: 2010.05.17/outbox.cif.g08.bks.cpg/sg36_6_cif.got.tgz:10922.got - 2010.06.03 17:41:39.
