data_PCOD9350082
_publ_section_title
;
Structure prediction by ZEFSAII (Michael W. Deem and Ramdas Pophale) SiO2 
 PCOD9350082
Probable space group: C M M 2
;
_chemical_formula_sum "Si O2"
_cell_formula_units_Z 48
_cell_length_a 8.643291
_cell_length_b 18.861115
_cell_length_c 15.817967
_cell_angle_alpha 90.000000
_cell_angle_beta 90.000000
_cell_angle_gamma 90.000000
_cell_volume 2578.678286
_symmetry_space_group_name_H-M "C M M 2"
_symmetry_group_IT_number 35
_symmetry_cell_setting 'orthorhombic'
loop_
_space_group_symop_operation_xyz
x,y,z
-x,-y,z
-x,y,z
x,-y,z
1/2+x,1/2+y,z
1/2-x,1/2-y,z
1/2-x,1/2+y,z
1/2+x,1/2-y,z
loop_
_atom_site_type_symbol
_atom_site_label
_atom_site_fract_x
_atom_site_fract_y
_atom_site_fract_z
Si Si1 0.315308 0.829700 0.563120
Si Si2 0.188399 0.418456 0.040502
Si Si3 0.816936 0.828277 0.382511
Si Si4 0.686206 0.170659 0.878001
Si Si5 0.817992 0.585125 0.229963
Si Si6 0.685721 0.582906 0.719725
O O1 0.500000 0.827335 0.566723
O O2 0.250000 0.750000 0.575645
O O3 0.260453 0.853407 0.470041
O O4 0.249871 0.880427 0.635350
O O5 0.238347 0.500000 0.025644
O O6 0.235720 0.395706 0.134938
O O7 0.000000 0.419554 0.041552
O O8 0.237230 0.367207 0.965203
O O9 0.750000 0.750000 0.365741
O O10 0.775026 0.877644 0.304001
O O11 0.000000 0.823710 0.395079
O O12 0.500000 0.172259 0.876024
O O13 0.750000 0.250000 0.872543
O O14 0.746373 0.124435 0.799813
O O15 0.806915 0.500000 0.235900
O O16 0.000000 0.603958 0.238343
O O17 0.500000 0.588426 0.720529
O O18 0.728419 0.500000 0.723130
#
# Coordination Sequence:
#
# PCOD9350082 Si02
#       6
#     8   8   8   8   8   8
#     4  11  22  39  62  85 112 146 186 229 277 332
#     4   8  16  33  57  82 109 145 188 233 279 328
#     4  11  22  37  57  82 114 149 188 232 279 330
#     4  11  22  37  58  84 115 149 188 230 276 331
#     4   9  18  35  58  83 113 149 188 230 279 333
#     4  11  24  41  60  84 114 146 183 229 279 330
#
# _framework density 18.614186
#
# number of rings (size 3 to 8) (size 9 to 14) (size 15 to 20)
#    0.000    1.833    0.000    7.000    0.000    3.667 
#    0.000    3.333    0.000    2.000    0.000    0.000 
#    0.000    0.000    0.000    0.000    0.000    0.000 
#
# Total GULP energy -134094.665233 kJ/mol
# GULP energy per Si atom -5587.277718 kJ/mol
# Density = 1.857182 g / cm^3
# Si number density = 18.614186 Si / 1000 Ang^3
#
#
#
# Elastic Constant Matrix: (Units=GPa)
#
#
# Indices 1 2 3 4 5 6 
#
# 1 84.3618 47.2424 48.7116 0.0000 0.0000 0.0000
# 2 47.2424 107.0847 100.6452 0.0000 0.0000 0.0000
# 3 48.7116 100.6452 172.1698 0.0000 0.0000 0.0000
# 4 0.0000 0.0000 0.0000 40.0865 0.0000 0.0000
# 5 0.0000 0.0000 0.0000 0.0000 -6.5282 0.0000
# 6 0.0000 0.0000 0.0000 0.0000 0.0000 11.3632
#
#
#
# Elastic Compliance Matrix: (Units=1/GPa)
#
#
# Indices 1 2 3 4 5 6 
#
# 1 0.015803 -0.006146 -0.000878 0.000000 0.000000 0.000000
# 2 -0.006146 0.023116 -0.011774 0.000000 0.000000 0.000000
# 3 -0.000878 -0.011774 0.012939 0.000000 0.000000 0.000000
# 4 0.000000 0.000000 0.000000 0.024946 0.000000 0.000000
# 5 0.000000 0.000000 0.000000 0.000000 -0.153181 0.000000
# 6 0.000000 0.000000 0.000000 0.000000 0.000000 0.088004
#
#
# Mechanical properties :
#
#
# Convention : Reuss Voigt Hill
#
# Bulk Modulus (GPa) = 70.12012 84.09052 77.10532
# Shear Modulus (GPa) = 92.63378 20.11878 56.37628
#
# Velocity S-wave (km/s) = 7.06210 3.29117 5.50931
# Velocity P-wave (km/s) = 10.21027 7.72761 9.05443
#
# Compressibility (1/GPa) = 0.01426124
#
# Stress axis : x y z
#
# Youngs Moduli (GPa) = 63.28050 43.26048 77.28438
#
# Poissons Ratio (x) = 0.26590 0.06786
# Poissons Ratio (y) = 0.38895 0.90993
# Poissons Ratio (z) = 0.05556 0.50934
#
# Static dielectric constant tensor:
#      x y z
#    x 1.625340 0.000000 0.000000 
#    y 0.000000 1.613830 0.000000 
#    z 0.000000 0.000000 1.632240 
# 
# From -- ./inp_files/15110.got.cif
#   From: 2010.05.17/outbox.cif.g08.bks.cpg/sg35_8_cif.got.tgz:15110.got - 2010.06.03 17:29:28.
