data_PCOD9350961
_publ_section_title
;
Structure prediction by ZEFSAII (Michael W. Deem and Ramdas Pophale) SiO2 
 PCOD9350961
Probable space group: C M C 21
;
_chemical_formula_sum "Si O2"
_cell_formula_units_Z 48
_cell_length_a 8.447465
_cell_length_b 14.103649
_cell_length_c 16.545474
_cell_angle_alpha 90.000000
_cell_angle_beta 90.000000
_cell_angle_gamma 90.000000
_cell_volume 1971.229118
_symmetry_space_group_name_H-M "C M C 21"
_symmetry_group_IT_number 36
_symmetry_cell_setting 'orthorhombic'
loop_
_space_group_symop_operation_xyz
x,y,z
-x,-y,1/2+z
x,-y,1/2+z
-x,y,z
1/2+x,1/2+y,z
1/2-x,1/2-y,1/2+z
1/2+x,1/2-y,1/2+z
1/2-x,1/2+y,z
loop_
_atom_site_type_symbol
_atom_site_label
_atom_site_fract_x
_atom_site_fract_y
_atom_site_fract_z
Si Si1 0.318774 0.210819 0.509360
Si Si2 0.310847 0.029671 0.138128
Si Si3 0.187049 0.166458 0.338030
Si Si4 0.674695 0.433872 0.474434
Si Si5 0.181073 0.466166 0.302992
Si Si6 0.311165 0.258700 0.677182
O O1 0.500000 0.172825 0.503509
O O2 0.216121 0.183019 0.432258
O O3 0.331603 0.324576 0.499892
O O4 0.248285 0.200875 0.599670
O O5 0.500000 0.038247 0.145657
O O6 0.272601 0.011844 0.043917
O O7 0.260537 0.957926 0.210241
O O8 0.230738 0.130845 0.159208
O O9 0.300879 0.079349 0.316761
O O10 0.228640 0.249507 0.272792
O O11 0.000000 0.144577 0.324791
O O12 0.500000 0.475743 0.475691
O O13 0.733453 0.430914 0.382916
O O14 0.000000 0.434403 0.306415
O O15 0.500000 0.245385 0.670953
#
# Coordination Sequence:
#
# PCOD9350961 Si02
#       6
#     8   8   8   8   8   8
#     4   9  18  33  51  72  99 130 163 202 247 291
#     4   9  17  30  50  74  98 128 166 206 248 297
#     4  10  19  32  52  76 100 129 166 205 246 295
#     4  10  20  34  53  75 101 134 169 207 249 295
#     4  10  20  34  53  76 102 132 166 206 251 298
#     4   8  16  31  49  69  96 131 166 200 243 296
#
# _framework density 24.350289
#
# number of rings (size 3 to 8) (size 9 to 14) (size 15 to 20)
#    0.000    2.667    0.000    3.000    0.000    6.000 
#    0.000    1.667    0.000    6.000    0.000    0.000 
#    0.000    0.000    0.000    0.000    0.000    0.000 
#
# Total GULP energy -133834.451401 kJ/mol
# GULP energy per Si atom -5576.435475 kJ/mol
# Density = 2.429487 g / cm^3
# Si number density = 24.350289 Si / 1000 Ang^3
#
#
#
# Elastic Constant Matrix: (Units=GPa)
#
#
# Indices 1 2 3 4 5 6 
#
# 1 41.5677 -1.7114 30.2651 0.0000 0.0000 0.0000
# 2 -1.7114 33.7591 36.5127 0.0000 0.0000 0.0000
# 3 30.2651 36.5127 227.6479 0.0000 0.0000 0.0000
# 4 0.0000 0.0000 0.0000 52.4393 0.0000 0.0000
# 5 0.0000 0.0000 0.0000 0.0000 33.9056 0.0000
# 6 0.0000 0.0000 0.0000 0.0000 0.0000 15.7314
#
#
#
# Elastic Compliance Matrix: (Units=1/GPa)
#
#
# Indices 1 2 3 4 5 6 
#
# 1 0.027778 0.006536 -0.004741 0.000000 0.000000 0.000000
# 2 0.006536 0.037377 -0.006864 0.000000 0.000000 0.000000
# 3 -0.004741 -0.006864 0.006124 0.000000 0.000000 0.000000
# 4 0.000000 0.000000 0.000000 0.019070 0.000000 0.000000
# 5 0.000000 0.000000 0.000000 0.000000 0.029494 0.000000
# 6 0.000000 0.000000 0.000000 0.000000 0.000000 0.063567
#
#
# Mechanical properties :
#
#
# Convention : Reuss Voigt Hill
#
# Bulk Modulus (GPa) = 16.35556 48.12308 32.23932
# Shear Modulus (GPa) = 23.37237 36.27582 29.82409
#
# Velocity S-wave (km/s) = 3.10149 3.86391 3.50350
# Velocity P-wave (km/s) = 4.42233 6.30176 5.44377
#
# Compressibility (1/GPa) = 0.06114129
#
# Stress axis : x y z
#
# Youngs Moduli (GPa) = 35.99911 26.75462 163.29152
#
# Poissons Ratio (x) = -0.17488 0.77424
# Poissons Ratio (y) = -0.23530 1.12082
# Poissons Ratio (z) = 0.17069 0.18364
#
# Static dielectric constant tensor:
#      x y z
#    x 1.859330 0.000000 0.000000 
#    y 0.000000 2.038550 0.000000 
#    z 0.000000 0.000000 2.077760 
# 
# From -- ./inp_files/10344.got.cif
#   From: 2010.05.17/outbox.cif.g08.bks.cpg/sg36_6_cif.got.tgz:10344.got - 2010.06.03 17:41:39.
