data_PCOD9350192
_publ_section_title
;
Structure prediction by ZEFSAII (Michael W. Deem and Ramdas Pophale) SiO2 
 PCOD9350192
Probable space group: C M M 2
;
_chemical_formula_sum "Si O2"
_cell_formula_units_Z 24
_cell_length_a 15.000000
_cell_length_b 9.000000
_cell_length_c 18.000000
_cell_angle_alpha 90.000000
_cell_angle_beta 90.000000
_cell_angle_gamma 90.000000
_cell_volume 2430.000000
_symmetry_space_group_name_H-M "C M M 2"
_symmetry_group_IT_number 35
_symmetry_cell_setting 'orthorhombic'
loop_
_space_group_symop_operation_xyz
x,y,z
-x,-y,z
-x,y,z
x,-y,z
1/2+x,1/2+y,z
1/2-x,1/2-y,z
1/2-x,1/2+y,z
1/2+x,1/2-y,z
loop_
_atom_site_type_symbol
_atom_site_label
_atom_site_fract_x
_atom_site_fract_y
_atom_site_fract_z
Si Si1 0.832571 0.164323 0.054330
Si Si2 0.154605 0.177383 0.548913
Si Si3 0.666313 0.334150 0.877453
Si Si4 0.000000 0.820489 0.657975
Si Si5 0.000000 0.674935 0.112312
Si Si6 0.000000 0.326103 0.817874
Si Si7 0.847026 0.177917 0.379833
Si Si8 0.500000 0.821326 0.283636
O O1 0.750000 0.250000 0.088231
O O2 0.916569 0.261791 0.070101
O O3 0.842780 0.000000 0.085187
O O4 0.820441 0.151935 0.965779
O O5 0.250000 0.250000 0.559159
O O6 0.122933 0.208600 0.464867
O O7 0.085494 0.227491 0.610664
O O8 0.163444 0.000000 0.554211
O O9 0.653193 0.500000 0.847196
O O10 0.750000 0.250000 0.843450
O O11 0.583811 0.230685 0.863088
O O12 0.000000 0.752896 0.738728
O O13 0.000000 0.000000 0.662172
O O14 0.000000 0.500000 0.110744
O O15 0.000000 0.722956 0.197644
O O16 0.000000 0.500000 0.808635
O O17 0.750000 0.250000 0.371558
O O18 0.914508 0.253145 0.323680
O O19 0.843594 0.000000 0.369945
O O20 0.500000 0.000000 0.289160
#
# Coordination Sequence:
#
# PCOD9350192 Si02
#       8
#     8   8   8   4   4   4   8   4
#     4  10  21  38  62  88 113 144 186 232 281 334
#     4   9  19  36  59  84 109 141 183 229 279 331
#     4  10  21  39  62  87 113 145 186 233 281 332
#     4  10  21  38  56  77 112 152 185 226 278 332
#     4  11  24  39  56  81 116 153 190 231 278 332
#     4  12  25  38  55  83 117 154 191 228 276 334
#     4  10  20  37  61  87 113 145 186 233 282 334
#     4  11  24  39  55  81 115 153 192 231 278 332
#
# _framework density 9.8765429999999999
#
# number of rings (size 3 to 8) (size 9 to 14) (size 15 to 20)
#    0.000    1.833    0.000    3.750    0.000    9.333 
#    0.000    2.500    0.000    0.000    0.000    0.000 
#    0.000    0.000    0.000    0.000    0.000    0.000 
#
# Total GULP energy -133892.346155 kJ/mol
# GULP energy per Si atom -5578.847756 kJ/mol
# Density = 0.985406 g / cm^3
# Si number density = 9.876543 Si / 1000 Ang^3
#
#
#
# Elastic Constant Matrix: (Units=GPa)
#
#
# Indices 1 2 3 4 5 6 
#
# 1 73.4176 23.6419 -11.1290 0.0000 0.0000 0.0000
# 2 23.6419 38.4732 35.2945 0.0000 0.0000 0.0000
# 3 -11.1290 35.2945 -8.4562 0.0000 0.0000 0.0000
# 4 0.0000 0.0000 0.0000 19.2725 0.0000 0.0000
# 5 0.0000 0.0000 0.0000 0.0000 108.1549 0.0000
# 6 0.0000 0.0000 0.0000 0.0000 0.0000 18.4668
#
#
#
# Elastic Compliance Matrix: (Units=1/GPa)
#
#
# Indices 1 2 3 4 5 6 
#
# 1 0.011728 0.001440 -0.009426 0.000000 0.000000 0.000000
# 2 0.001440 0.005559 0.021309 0.000000 0.000000 0.000000
# 3 -0.009426 0.021309 -0.016914 0.000000 0.000000 0.000000
# 4 0.000000 0.000000 0.000000 0.051887 0.000000 0.000000
# 5 0.000000 0.000000 0.000000 0.000000 0.009246 0.000000
# 6 0.000000 0.000000 0.000000 0.000000 0.000000 0.054151
#
#
# Mechanical properties :
#
#
# Convention : Reuss Voigt Hill
#
# Bulk Modulus (GPa) = 37.01071 22.11659 29.56365
# Shear Modulus (GPa) = 51.01048 32.88733 41.94890
#
# Velocity S-wave (km/s) = 5.08725 4.08477 4.61332
# Velocity P-wave (km/s) = 7.29960 5.78515 6.58605
#
# Compressibility (1/GPa) = 0.02701921
#
# Stress axis : x y z
#
# Youngs Moduli (GPa) = 85.26404 179.87784 -59.12299
#
# Poissons Ratio (x) = -0.25899 -0.55727
# Poissons Ratio (y) = -0.12277 1.25983
# Poissons Ratio (z) = 0.80367 -3.83294
#
# Static dielectric constant tensor:
#      x y z
#    x 1.688430 0.000000 0.000000 
#    y 0.000000 1.684120 0.000000 
#    z 0.000000 0.000000 1.676840 
# 
# From -- ./inp_files/17949.got.cif
#   From: 2010.05.17/outbox.ucp.g08.bks.cvg/sg35_9_cif.got.tgz:17949.got - 2010.06.11 10:36:28.
