data_PCOD9350097
_publ_section_title
;
Structure prediction by ZEFSAII (Michael W. Deem and Ramdas Pophale) SiO2 
 PCOD9350097
Probable space group: C M M 2
;
_chemical_formula_sum "Si O2"
_cell_formula_units_Z 48
_cell_length_a 18.151438
_cell_length_b 7.463438
_cell_length_c 18.140704
_cell_angle_alpha 90.000000
_cell_angle_beta 90.000000
_cell_angle_gamma 90.000000
_cell_volume 2457.559849
_symmetry_space_group_name_H-M "C M M 2"
_symmetry_group_IT_number 35
_symmetry_cell_setting 'orthorhombic'
loop_
_space_group_symop_operation_xyz
x,y,z
-x,-y,z
-x,y,z
x,-y,z
1/2+x,1/2+y,z
1/2-x,1/2-y,z
1/2-x,1/2+y,z
1/2+x,1/2-y,z
loop_
_atom_site_type_symbol
_atom_site_label
_atom_site_fract_x
_atom_site_fract_y
_atom_site_fract_z
Si Si1 0.089527 0.000000 0.905910
Si Si2 0.163043 0.285274 0.334347
Si Si3 0.663127 0.785838 0.172082
Si Si4 0.163150 0.712306 0.632984
Si Si5 0.911387 0.708294 0.022643
Si Si6 0.911282 0.000000 0.735936
Si Si7 0.084394 0.281707 0.481860
O O1 0.112682 0.827737 0.953604
O O2 0.112940 0.000000 0.821320
O O3 0.000000 0.000000 0.904689
O O4 0.153440 0.500000 0.332804
O O5 0.250000 0.250000 0.343668
O O6 0.140597 0.216624 0.253142
O O7 0.118788 0.217396 0.404887
O O8 0.750000 0.750000 0.164615
O O9 0.651573 0.000000 0.173450
O O10 0.621502 0.720822 0.099580
O O11 0.150102 0.500000 0.642028
O O12 0.250000 0.750000 0.636863
O O13 0.132579 0.768606 0.552631
O O14 0.120767 0.827720 0.693784
O O15 0.890242 0.500000 0.013217
O O16 0.000000 0.716377 0.027551
O O17 0.000000 0.000000 0.732341
O O18 0.084744 0.500000 0.479741
O O19 0.000000 0.224239 0.490568
#
# Coordination Sequence:
#
# PCOD9350097 Si02
#       7
#     4   8   8   8   8   4   8
#     4   9  20  38  60  85 113 146 181 229 291 348
#     4   9  17  31  49  72 105 146 187 230 279 336
#     4   9  18  30  49  75 106 144 186 229 281 334
#     4  11  22  40  65  89 122 163 199 246 302 365
#     4   9  18  34  56  81 109 143 188 230 275 340
#     4  11  24  42  66  95 122 154 201 251 304 366
#     4   9  18  32  53  82 113 147 193 240 288 343
#
# _framework density 19.531569999999999
#
# number of rings (size 3 to 8) (size 9 to 14) (size 15 to 20)
#    0.000    2.500    0.833    1.000    1.167    2.333 
#    1.500    5.833    0.000    0.000    0.000    0.000 
#    0.000    0.000    0.000    0.000    0.000    0.000 
#
# Total GULP energy -133945.556361 kJ/mol
# GULP energy per Si atom -5581.064848 kJ/mol
# Density = 1.948711 g / cm^3
# Si number density = 19.531570 Si / 1000 Ang^3
#
#
#
# Elastic Constant Matrix: (Units=GPa)
#
#
# Indices 1 2 3 4 5 6 
#
# 1 73.6966 23.0878 71.5910 0.0000 0.0000 0.0000
# 2 23.0878 96.0630 66.3077 0.0000 0.0000 0.0000
# 3 71.5910 66.3077 214.9388 0.0000 0.0000 0.0000
# 4 0.0000 0.0000 0.0000 -172.4472 0.0000 0.0000
# 5 0.0000 0.0000 0.0000 0.0000-2869.9256 0.0000
# 6 0.0000 0.0000 0.0000 0.0000 0.0000 13.7753
#
#
#
# Elastic Compliance Matrix: (Units=1/GPa)
#
#
# Indices 1 2 3 4 5 6 
#
# 1 0.020065 -0.000266 -0.006601 0.000000 0.000000 0.000000
# 2 -0.000266 0.013230 -0.003993 0.000000 0.000000 0.000000
# 3 -0.006601 -0.003993 0.008083 0.000000 0.000000 0.000000
# 4 0.000000 0.000000 0.000000 -0.005799 0.000000 0.000000
# 5 0.000000 0.000000 0.000000 0.000000 -0.000348 0.000000
# 6 0.000000 0.000000 0.000000 0.000000 0.000000 0.072594
#
#
# Mechanical properties :
#
#
# Convention : Reuss Voigt Hill
#
# Bulk Modulus (GPa) = 50.86993 78.51906 64.69449
# Shear Modulus (GPa) = 36.73874 -590.80536 -277.03331
#
# Velocity S-wave (km/s) = 4.34175 -17.41103 -11.92253
# Velocity P-wave (km/s) = 7.15792 19.07626 12.50336
#
# Compressibility (1/GPa) = 0.01965798
#
# Stress axis : x y z
#
# Youngs Moduli (GPa) = 49.83809 75.58725 123.71799
#
# Poissons Ratio (x) = 0.02010 0.81668
# Poissons Ratio (y) = 0.01326 0.49397
# Poissons Ratio (z) = 0.32899 0.30180
#
# Static dielectric constant tensor:
#      x y z
#    x 1.654730 0.000000 0.000000 
#    y 0.000000 1.753270 0.000000 
#    z 0.000000 0.000000 1.677740 
# 
# From -- ./inp_files/15213.got.cif
#   From: 2010.05.17/outbox.cif.g08.bks.cpg/sg35_8_cif.got.tgz:15213.got - 2010.06.03 17:29:28.
