data_PCOD9350433
_publ_section_title
;
Structure prediction by ZEFSAII (Michael W. Deem and Ramdas Pophale) SiO2 
 PCOD9350433
Probable space group: C M M 2
;
_chemical_formula_sum "Si O2"
_cell_formula_units_Z 64
_cell_length_a 8.791795
_cell_length_b 30.009794
_cell_length_c 12.641098
_cell_angle_alpha 90.000000
_cell_angle_beta 90.000000
_cell_angle_gamma 90.000000
_cell_volume 3335.226751
_symmetry_space_group_name_H-M "C M M 2"
_symmetry_group_IT_number 35
_symmetry_cell_setting 'orthorhombic'
loop_
_space_group_symop_operation_xyz
x,y,z
-x,-y,z
-x,y,z
x,-y,z
1/2+x,1/2+y,z
1/2-x,1/2-y,z
1/2-x,1/2+y,z
1/2+x,1/2-y,z
loop_
_atom_site_type_symbol
_atom_site_label
_atom_site_fract_x
_atom_site_fract_y
_atom_site_fract_z
Si Si1 0.174765 0.431360 0.473340
Si Si2 0.818571 0.146591 0.763384
Si Si3 0.183116 0.705287 0.329631
Si Si4 0.183149 0.951522 0.697847
Si Si5 0.675587 0.170698 0.545899
Si Si6 0.683041 0.136152 0.154258
Si Si7 0.182587 0.700188 0.959408
Si Si8 0.318494 0.550274 0.243993
O O1 0.259739 0.449686 0.576738
O O2 0.172867 0.378416 0.493839
O O3 0.251400 0.442252 0.361826
O O4 0.000000 0.446611 0.471649
O O5 0.766400 0.094418 0.754897
O O6 0.774665 0.168148 0.650705
O O7 0.739140 0.174927 0.854492
O O8 0.000000 0.147259 0.778442
O O9 0.250000 0.750000 0.281125
O O10 0.235992 0.700569 0.450428
O O11 0.227885 0.663202 0.259671
O O12 0.000000 0.707076 0.330498
O O13 0.000000 0.950055 0.697186
O O14 0.230420 0.000000 0.742708
O O15 0.500000 0.182322 0.572301
O O16 0.500000 0.131631 0.153177
O O17 0.755229 0.087674 0.165055
O O18 0.727218 0.167617 0.056465
O O19 0.250000 0.750000 0.967838
O O20 0.000000 0.703839 0.959155
O O21 0.500000 0.554076 0.250135
O O22 0.278749 0.500000 0.210714
#
# Coordination Sequence:
#
# PCOD9350433 Si02
#       8
#     8   8   8   8   8   8   8   8
#     4  10  18  31  52  79 115 159 200 240 285 337
#     4  10  21  37  59  86 118 154 197 242 292 346
#     4  10  20  35  55  83 115 148 185 231 288 350
#     4   9  18  33  53  81 118 158 199 241 286 341
#     4   9  18  34  54  78 117 157 192 237 288 343
#     4  10  22  42  63  85 115 150 192 242 292 345
#     4  11  24  43  68  91 114 146 192 246 297 351
#     4  11  23  36  54  84 120 157 197 240 286 341
#
# _framework density 19.189098999999999
#
# number of rings (size 3 to 8) (size 9 to 14) (size 15 to 20)
#    0.000    2.000    1.250    2.250    0.000    6.250 
#    0.000    1.875    0.000    2.250    0.000    0.000 
#    0.000    0.000    0.000    0.000    0.000    0.000 
#
# Total GULP energy -178565.831034 kJ/mol
# GULP energy per Si atom -5580.182220 kJ/mol
# Density = 1.914542 g / cm^3
# Si number density = 19.189099 Si / 1000 Ang^3
#
#
#
# Elastic Constant Matrix: (Units=GPa)
#
#
# Indices 1 2 3 4 5 6 
#
# 1 32.1503 40.1134 32.8877 0.0000 0.0000 0.0000
# 2 40.1134 146.3635 70.7829 0.0000 0.0000 0.0000
# 3 32.8877 70.7829 101.2673 0.0000 0.0000 0.0000
# 4 0.0000 0.0000 0.0000 15.6506 0.0000 0.0000
# 5 0.0000 0.0000 0.0000 0.0000 15.1817 0.0000
# 6 0.0000 0.0000 0.0000 0.0000 0.0000 27.4927
#
#
#
# Elastic Compliance Matrix: (Units=1/GPa)
#
#
# Indices 1 2 3 4 5 6 
#
# 1 0.054223 -0.009584 -0.010910 0.000000 0.000000 0.000000
# 2 -0.009584 0.012015 -0.005286 0.000000 0.000000 0.000000
# 3 -0.010910 -0.005286 0.017113 0.000000 0.000000 0.000000
# 4 0.000000 0.000000 0.000000 0.063895 0.000000 0.000000
# 5 0.000000 0.000000 0.000000 0.000000 0.065869 0.000000
# 6 0.000000 0.000000 0.000000 0.000000 0.000000 0.036373
#
#
# Mechanical properties :
#
#
# Convention : Reuss Voigt Hill
#
# Bulk Modulus (GPa) = 31.45643 63.03879 47.24761
# Shear Modulus (GPa) = 16.04387 20.73147 18.38767
#
# Velocity S-wave (km/s) = 2.89466 3.29048 3.09890
# Velocity P-wave (km/s) = 5.25362 6.88179 6.12207
#
# Compressibility (1/GPa) = 0.03179000
#
# Stress axis : x y z
#
# Youngs Moduli (GPa) = 18.44246 83.22732 58.43635
#
# Poissons Ratio (x) = 0.79768 0.63755
# Poissons Ratio (y) = 0.17676 0.30888
# Poissons Ratio (z) = 0.20121 0.43992
#
# Static dielectric constant tensor:
#      x y z
#    x 1.650990 0.000000 0.000000 
#    y 0.000000 1.720410 0.000000 
#    z 0.000000 0.000000 1.648530 
# 
# From -- ./inp_files/11911.got.cif
#   From: 2010.05.17/outbox.cif.g08.bks.cpg/sg35_6_cif.got.tgz:11911.got - 2010.06.03 17:29:28.
