data_PCOD9350711
_publ_section_title
;
Structure prediction by ZEFSAII (Michael W. Deem and Ramdas Pophale) SiO2 
 PCOD9350711
Probable space group: C M C 21
;
_chemical_formula_sum "Si O2"
_cell_formula_units_Z 64
_cell_length_a 7.837339
_cell_length_b 21.324493
_cell_length_c 19.993648
_cell_angle_alpha 90.000000
_cell_angle_beta 90.000000
_cell_angle_gamma 90.000000
_cell_volume 3341.484020
_symmetry_space_group_name_H-M "C M C 21"
_symmetry_group_IT_number 36
_symmetry_cell_setting 'orthorhombic'
loop_
_space_group_symop_operation_xyz
x,y,z
-x,-y,1/2+z
x,-y,1/2+z
-x,y,z
1/2+x,1/2+y,z
1/2-x,1/2-y,1/2+z
1/2+x,1/2-y,1/2+z
1/2-x,1/2+y,z
loop_
_atom_site_type_symbol
_atom_site_label
_atom_site_fract_x
_atom_site_fract_y
_atom_site_fract_z
Si Si1 0.705690 0.068384 0.977060
Si Si2 0.199740 0.305525 0.408276
Si Si3 0.209231 0.181921 0.483847
Si Si4 0.208196 0.759233 0.119735
Si Si5 0.205226 0.940040 0.904348
Si Si6 0.297265 0.382138 0.767608
Si Si7 0.205870 0.386085 0.617894
Si Si8 0.300539 0.262649 0.267766
O O1 0.500000 0.071300 0.979081
O O2 0.771123 0.130274 0.938287
O O3 0.749343 0.005794 0.937343
O O4 0.765015 0.073535 0.054320
O O5 0.269757 0.241989 0.441279
O O6 0.215691 0.298035 0.329103
O O7 0.000000 0.305695 0.426268
O O8 0.261484 0.195697 0.559865
O O9 0.267583 0.117664 0.450309
O O10 0.000000 0.180871 0.482177
O O11 0.259160 0.686779 0.106984
O O12 0.267466 0.777584 0.193718
O O13 0.000000 0.758819 0.121013
O O14 0.263269 0.926464 0.828137
O O15 0.000000 0.937139 0.903072
O O16 0.500000 0.373630 0.774705
O O17 0.262397 0.405087 0.692265
O O18 0.219128 0.312608 0.775276
O O19 0.000000 0.386369 0.618649
O O20 0.500000 0.277899 0.269966
#
# Coordination Sequence:
#
# PCOD9350711 Si02
#       8
#     8   8   8   8   8   8   8   8
#     4  10  21  36  56  79 107 144 180 220 268 320
#     4  10  18  33  56  77 101 137 178 214 259 316
#     4   9  15  30  54  75  97 131 175 214 253 311
#     4   8  14  27  50  76 100 129 170 212 257 311
#     4  10  21  35  53  77 107 142 178 220 263 313
#     4  10  19  33  53  78 106 141 181 219 264 320
#     4   9  17  32  54  79 103 133 175 223 271 318
#     4  10  19  30  50  81 111 137 171 222 271 313
#
# _framework density 19.153167
#
# number of rings (size 3 to 8) (size 9 to 14) (size 15 to 20)
#    0.000    2.500    2.500    1.500    0.000    2.000 
#    0.000    1.250    0.000    8.250    0.000    0.000 
#    0.000    0.000    0.000    0.000    0.000    0.000 
#
# Total GULP energy -178436.890399 kJ/mol
# GULP energy per Si atom -5576.152825 kJ/mol
# Density = 1.910957 g / cm^3
# Si number density = 19.153167 Si / 1000 Ang^3
#
#
#
# Elastic Constant Matrix: (Units=GPa)
#
#
# Indices 1 2 3 4 5 6 
#
# 1 18.6081 1.1029 -3.7647 0.0000 0.0000 0.0000
# 2 1.1029 106.7233 75.6565 0.0000 0.0000 0.0000
# 3 -3.7647 75.6565 166.4869 0.0000 0.0000 0.0000
# 4 0.0000 0.0000 0.0000 29.0012 0.0000 0.0000
# 5 0.0000 0.0000 0.0000 0.0000 23.3682 0.0000
# 6 0.0000 0.0000 0.0000 0.0000 0.0000 7.3820
#
#
#
# Elastic Compliance Matrix: (Units=1/GPa)
#
#
# Indices 1 2 3 4 5 6 
#
# 1 0.054308 -0.002112 0.002188 0.000000 0.000000 0.000000
# 2 -0.002112 0.013905 -0.006367 0.000000 0.000000 0.000000
# 3 0.002188 -0.006367 0.008949 0.000000 0.000000 0.000000
# 4 0.000000 0.000000 0.000000 0.034481 0.000000 0.000000
# 5 0.000000 0.000000 0.000000 0.000000 0.042793 0.000000
# 6 0.000000 0.000000 0.000000 0.000000 0.000000 0.135465
#
#
# Mechanical properties :
#
#
# Convention : Reuss Voigt Hill
#
# Bulk Modulus (GPa) = 15.48460 48.64530 32.06495
# Shear Modulus (GPa) = 15.43160 26.53852 20.98506
#
# Velocity S-wave (km/s) = 2.84156 3.72640 3.31364
# Velocity P-wave (km/s) = 4.34374 6.63083 5.60517
#
# Compressibility (1/GPa) = 0.06458029
#
# Stress axis : x y z
#
# Youngs Moduli (GPa) = 18.41351 71.91540 111.74217
#
# Poissons Ratio (x) = 0.15190 -0.24448
# Poissons Ratio (y) = 0.03889 0.71143
# Poissons Ratio (z) = -0.04029 0.45786
#
# Static dielectric constant tensor:
#      x y z
#    x 1.709000 0.000000 0.000000 
#    y 0.000000 1.632410 0.000000 
#    z 0.000000 0.000000 1.696700 
# 
# From -- ./inp_files/15655.got.cif
#   From: 2010.05.17/outbox.cif.g08.bks.cpg/sg36_8_cif.got.tgz:15655.got - 2010.06.03 17:41:39.
