data_PCOD9350547
_publ_section_title
;
Structure prediction by ZEFSAII (Michael W. Deem and Ramdas Pophale) SiO2 
 PCOD9350547
Probable space group: C M C 21
;
_chemical_formula_sum "Si O2"
_cell_formula_units_Z 64
_cell_length_a 7.362828
_cell_length_b 21.293486
_cell_length_c 19.999803
_cell_angle_alpha 90.000000
_cell_angle_beta 90.000000
_cell_angle_gamma 90.000000
_cell_volume 3135.574613
_symmetry_space_group_name_H-M "C M C 21"
_symmetry_group_IT_number 36
_symmetry_cell_setting 'orthorhombic'
loop_
_space_group_symop_operation_xyz
x,y,z
-x,-y,1/2+z
x,-y,1/2+z
-x,y,z
1/2+x,1/2+y,z
1/2-x,1/2-y,1/2+z
1/2+x,1/2-y,1/2+z
1/2-x,1/2+y,z
loop_
_atom_site_type_symbol
_atom_site_label
_atom_site_fract_x
_atom_site_fract_y
_atom_site_fract_z
Si Si1 0.278169 0.882536 0.953810
Si Si2 0.720647 0.883120 0.803867
Si Si3 0.718699 0.262523 0.452363
Si Si4 0.779267 0.237538 0.803146
Si Si5 0.722798 0.934551 0.665084
Si Si6 0.210349 0.555754 0.587089
Si Si7 0.710845 0.191587 0.093866
Si Si8 0.720190 0.682392 0.665185
O O1 0.500000 0.882473 0.955062
O O2 0.221969 0.901094 0.878825
O O3 0.222944 0.809795 0.964376
O O4 0.212216 0.925103 0.014776
O O5 0.500000 0.883175 0.804272
O O6 0.774266 0.810333 0.791716
O O7 0.779504 0.925785 0.742130
O O8 0.500000 0.262441 0.452097
O O9 0.779430 0.280903 0.377815
O O10 0.777447 0.304862 0.514058
O O11 0.722139 0.194482 0.741590
O O12 0.000000 0.237405 0.803088
O O13 0.500000 0.936095 0.665546
O O14 0.783546 0.872175 0.625514
O O15 0.787175 0.996894 0.627553
O O16 0.216858 0.618190 0.632134
O O17 0.000000 0.539919 0.574370
O O18 0.500000 0.192155 0.113945
O O19 0.785451 0.256765 0.123422
O O20 0.500000 0.680662 0.663017
#
# Coordination Sequence:
#
# PCOD9350547 Si02
#       8
#     8   8   8   8   8   8   8   8
#     4   8  14  24  42  66  91 117 151 191 226 266
#     4   8  12  23  43  65  86 116 158 193 218 260
#     4   9  16  28  47  70  93 120 156 196 230 271
#     4   8  14  26  46  69  90 118 161 197 221 264
#     4   9  17  29  45  67  96 125 156 192 230 275
#     4  10  19  31  46  70  99 123 150 192 239 278
#     4  10  18  29  47  71  95 119 150 193 239 276
#     4  10  18  30  49  70  92 120 156 194 229 274
#
# _framework density 20.410931999999999
#
# number of rings (size 3 to 8) (size 9 to 14) (size 15 to 20)
#    0.000    3.000    2.500    1.500    0.000    0.000 
#    0.000    2.500    0.000    3.000    0.000    2.625 
#    0.000    0.000    0.000    0.000    0.000    0.000 
#
# Total GULP energy -178503.150634 kJ/mol
# GULP energy per Si atom -5578.223457 kJ/mol
# Density = 2.036448 g / cm^3
# Si number density = 20.410932 Si / 1000 Ang^3
#
#
#
# Elastic Constant Matrix: (Units=GPa)
#
#
# Indices 1 2 3 4 5 6 
#
# 1 70.8046 -1.6958 -6.7075 0.0000 0.0000 0.0000
# 2 -1.6958 112.7075 86.5120 0.0000 0.0000 0.0000
# 3 -6.7075 86.5120 190.0692 0.0000 0.0000 0.0000
# 4 0.0000 0.0000 0.0000 30.9129 0.0000 0.0000
# 5 0.0000 0.0000 0.0000 0.0000 8.5777 0.0000
# 6 0.0000 0.0000 0.0000 0.0000 0.0000 5.4705
#
#
#
# Elastic Compliance Matrix: (Units=1/GPa)
#
#
# Indices 1 2 3 4 5 6 
#
# 1 0.014176 -0.000262 0.000620 0.000000 0.000000 0.000000
# 2 -0.000262 0.013642 -0.006218 0.000000 0.000000 0.000000
# 3 0.000620 -0.006218 0.008113 0.000000 0.000000 0.000000
# 4 0.000000 0.000000 0.000000 0.032349 0.000000 0.000000
# 5 0.000000 0.000000 0.000000 0.000000 0.116581 0.000000
# 6 0.000000 0.000000 0.000000 0.000000 0.000000 0.182800
#
#
# Mechanical properties :
#
#
# Convention : Reuss Voigt Hill
#
# Bulk Modulus (GPa) = 41.30734 58.86651 50.08692
# Shear Modulus (GPa) = 12.90480 28.69040 20.79760
#
# Velocity S-wave (km/s) = 2.51718 3.75325 3.19555
# Velocity P-wave (km/s) = 5.36004 6.90549 6.18126
#
# Compressibility (1/GPa) = 0.02420877
#
# Stress axis : x y z
#
# Youngs Moduli (GPa) = 70.54282 73.30455 123.25151
#
# Poissons Ratio (x) = 0.01923 -0.07638
# Poissons Ratio (y) = 0.01851 0.76643
# Poissons Ratio (z) = -0.04371 0.45584
#
# Static dielectric constant tensor:
#      x y z
#    x 1.844490 0.000000 0.000000 
#    y 0.000000 1.676860 0.000000 
#    z 0.000000 0.000000 1.740270 
# 
# From -- ./inp_files/14080.got.cif
#   From: 2010.05.17/outbox.cif.g08.bks.cpg/sg36_8_cif.got.tgz:14080.got - 2010.06.03 17:41:39.
