data_PCOD9350427
_publ_section_title
;
Structure prediction by ZEFSAII (Michael W. Deem and Ramdas Pophale) SiO2 
 PCOD9350427
Probable space group: C M M 2
;
_chemical_formula_sum "Si O2"
_cell_formula_units_Z 64
_cell_length_a 13.934849
_cell_length_b 20.316704
_cell_length_c 8.945856
_cell_angle_alpha 90.000000
_cell_angle_beta 90.000000
_cell_angle_gamma 90.000000
_cell_volume 2532.663103
_symmetry_space_group_name_H-M "C M M 2"
_symmetry_group_IT_number 35
_symmetry_cell_setting 'orthorhombic'
loop_
_space_group_symop_operation_xyz
x,y,z
-x,-y,z
-x,y,z
x,-y,z
1/2+x,1/2+y,z
1/2-x,1/2-y,z
1/2-x,1/2+y,z
1/2+x,1/2-y,z
loop_
_atom_site_type_symbol
_atom_site_label
_atom_site_fract_x
_atom_site_fract_y
_atom_site_fract_z
Si Si1 0.605736 0.879483 0.232800
Si Si2 0.113045 0.922296 0.793960
Si Si3 0.392147 0.599256 0.140612
Si Si4 0.390680 0.782846 0.452275
Si Si5 0.343650 0.793345 0.775002
Si Si6 0.618344 0.367894 0.463924
Si Si7 0.134419 0.755088 0.067135
Si Si8 0.117882 0.572312 0.929969
O O1 0.500000 0.905896 0.272605
O O2 0.655900 0.847552 0.375710
O O3 0.599170 0.811157 0.140409
O O4 0.648120 0.925498 0.105299
O O5 0.148026 0.889123 0.634999
O O6 0.000000 0.904146 0.803132
O O7 0.121270 0.000000 0.765905
O O8 0.148418 0.913768 0.970100
O O9 0.500000 0.571759 0.138325
O O10 0.353960 0.589509 0.313115
O O11 0.396346 0.678281 0.139153
O O12 0.500000 0.779115 0.396186
O O13 0.396506 0.800177 0.623261
O O14 0.350597 0.708960 0.441355
O O15 0.250000 0.750000 0.744654
O O16 0.335245 0.865798 0.846695
O O17 0.395627 0.748317 0.896431
O O18 0.500000 0.369218 0.464977
O O19 0.250000 0.750000 0.070878
O O20 0.139709 0.500000 0.867562
O O21 0.000000 0.580357 0.927552
#
# Coordination Sequence:
#
# PCOD9350427 Si02
#       8
#     8   8   8   8   8   8   8   8
#     4   9  17  31  53  79 108 142 183 233 291 361
#     4   9  18  30  46  73 106 141 183 230 282 339
#     4  10  18  31  52  74 102 143 184 231 289 350
#     4  10  18  31  51  79 112 144 186 243 307 367
#     4  10  21  34  52  82 122 157 201 243 303 372
#     4   9  17  29  47  72 103 137 180 237 296 352
#     4  10  19  31  49  74 108 134 177 227 288 347
#     4   9  18  35  60  90 123 161 204 253 313 379
#
# _framework density 25.269843999999999
#
# number of rings (size 3 to 8) (size 9 to 14) (size 15 to 20)
#    0.000    2.500    1.250    1.500    0.000    3.500 
#    0.000    3.125    0.000   14.250    0.000    0.000 
#    0.000    1.500    0.000    0.000    0.000    0.000 
#
# Total GULP energy -178190.909818 kJ/mol
# GULP energy per Si atom -5568.465932 kJ/mol
# Density = 2.521233 g / cm^3
# Si number density = 25.269844 Si / 1000 Ang^3
#
#
#
# Elastic Constant Matrix: (Units=GPa)
#
#
# Indices 1 2 3 4 5 6 
#
# 1 98.1933 19.1647 26.4017 0.0000 0.0000 0.0000
# 2 19.1647 133.5272 37.5446 0.0000 0.0000 0.0000
# 3 26.4017 37.5446 216.7077 0.0000 0.0000 0.0000
# 4 0.0000 0.0000 0.0000 19.3998 0.0000 0.0000
# 5 0.0000 0.0000 0.0000 0.0000 23.3984 0.0000
# 6 0.0000 0.0000 0.0000 0.0000 0.0000 -6.6112
#
#
#
# Elastic Compliance Matrix: (Units=1/GPa)
#
#
# Indices 1 2 3 4 5 6 
#
# 1 0.010718 -0.001231 -0.001092 0.000000 0.000000 0.000000
# 2 -0.001231 0.008014 -0.001238 0.000000 0.000000 0.000000
# 3 -0.001092 -0.001238 0.004962 0.000000 0.000000 0.000000
# 4 0.000000 0.000000 0.000000 0.051547 0.000000 0.000000
# 5 0.000000 0.000000 0.000000 0.000000 0.042738 0.000000
# 6 0.000000 0.000000 0.000000 0.000000 0.000000 -0.151259
#
#
# Mechanical properties :
#
#
# Convention : Reuss Voigt Hill
#
# Bulk Modulus (GPa) = 60.34971 68.29446 64.32208
# Shear Modulus (GPa) = -242.34260 31.59187 -105.37536
#
# Velocity S-wave (km/s) = -9.80358 3.53963 -6.46456
# Velocity P-wave (km/s) = 10.20847 6.61740 5.49649
#
# Compressibility (1/GPa) = 0.01657009
#
# Stress axis : x y z
#
# Youngs Moduli (GPa) = 93.30076 124.78113 201.52475
#
# Poissons Ratio (x) = 0.15362 0.22016
# Poissons Ratio (y) = 0.11487 0.24958
# Poissons Ratio (z) = 0.10193 0.15453
#
# Static dielectric constant tensor:
#      x y z
#    x 2.047860 0.000000 0.000000 
#    y 0.000000 1.954800 0.000000 
#    z 0.000000 0.000000 2.121760 
# 
# From -- ./inp_files/8721.got.cif
#   From: 2010.05.17/outbox.cif.g08.bks.cpg/sg35_5_cif.got.tgz:8721.got - 2010.06.03 17:29:28.
