data_PCOD9350700
_publ_section_title
;
Structure prediction by ZEFSAII (Michael W. Deem and Ramdas Pophale) SiO2 
 PCOD9350700
Probable space group: C M C 21
;
_chemical_formula_sum "Si O2"
_cell_formula_units_Z 64
_cell_length_a 7.645440
_cell_length_b 15.142211
_cell_length_c 21.364295
_cell_angle_alpha 90.000000
_cell_angle_beta 90.000000
_cell_angle_gamma 90.000000
_cell_volume 2473.320198
_symmetry_space_group_name_H-M "C M C 21"
_symmetry_group_IT_number 36
_symmetry_cell_setting 'orthorhombic'
loop_
_space_group_symop_operation_xyz
x,y,z
-x,-y,1/2+z
x,-y,1/2+z
-x,y,z
1/2+x,1/2+y,z
1/2-x,1/2-y,1/2+z
1/2+x,1/2-y,1/2+z
1/2-x,1/2+y,z
loop_
_atom_site_type_symbol
_atom_site_label
_atom_site_fract_x
_atom_site_fract_y
_atom_site_fract_z
Si Si1 0.287999 0.735723 0.592820
Si Si2 0.203159 0.531759 0.361627
Si Si3 0.699794 0.324569 0.762174
Si Si4 0.298057 0.855345 0.410716
Si Si5 0.706600 0.351419 0.223382
Si Si6 0.710987 0.331814 0.959042
Si Si7 0.216104 0.968956 0.674105
Si Si8 0.801768 0.076715 0.043878
O O1 0.500000 0.748555 0.593436
O O2 0.234526 0.692856 0.657935
O O3 0.248556 0.676761 0.532010
O O4 0.196975 0.828065 0.578184
O O5 0.290117 0.604344 0.317315
O O6 0.279665 0.432735 0.366838
O O7 0.216387 0.580507 0.428406
O O8 0.000000 0.525094 0.344555
O O9 0.500000 0.310477 0.746502
O O10 0.764512 0.225600 0.774047
O O11 0.785036 0.378481 0.704820
O O12 0.500000 0.843339 0.391310
O O13 0.223655 0.757699 0.423713
O O14 0.295874 0.901122 0.479795
O O15 0.500000 0.361485 0.220024
O O16 0.775143 0.451000 0.219241
O O17 0.500000 0.332187 0.952856
O O18 0.267532 0.981923 0.601666
O O19 0.000000 0.966012 0.673673
O O20 0.000000 0.048352 0.027976
#
# Coordination Sequence:
#
# PCOD9350700 Si02
#       8
#     8   8   8   8   8   8   8   8
#     4   9  18  33  57  85 121 156 187 229 288 348
#     4  11  24  41  61  85 114 153 199 243 287 343
#     4  11  23  42  60  82 118 154 195 244 289 340
#     4   9  21  40  58  83 120 155 190 234 288 347
#     4  10  20  37  60  86 116 154 193 235 287 344
#     4   9  19  37  59  86 118 154 191 233 287 343
#     4   9  20  36  57  86 117 150 189 237 287 340
#     4  10  18  32  58  87 120 152 190 237 285 339
#
# _framework density 25.876148000000001
#
# number of rings (size 3 to 8) (size 9 to 14) (size 15 to 20)
#    0.000    2.250    1.250    1.875    1.750    4.000 
#    0.000    5.000    0.000    0.000    0.000    0.000 
#    0.000    0.000    0.000    0.000    0.000    0.000 
#
# Total GULP energy -178771.909868 kJ/mol
# GULP energy per Si atom -5586.622183 kJ/mol
# Density = 2.581725 g / cm^3
# Si number density = 25.876148 Si / 1000 Ang^3
#
#
#
# Elastic Constant Matrix: (Units=GPa)
#
#
# Indices 1 2 3 4 5 6 
#
# 1 56.7436 5.9693 -3.6869 0.0000 0.0000 0.0000
# 2 5.9693 170.3512 8.7592 0.0000 0.0000 0.0000
# 3 -3.6869 8.7592 36.8498 0.0000 0.0000 0.0000
# 4 0.0000 0.0000 0.0000 44.9101 0.0000 0.0000
# 5 0.0000 0.0000 0.0000 0.0000 22.5672 0.0000
# 6 0.0000 0.0000 0.0000 0.0000 0.0000 12.6461
#
#
#
# Elastic Compliance Matrix: (Units=1/GPa)
#
#
# Indices 1 2 3 4 5 6 
#
# 1 0.017827 -0.000725 0.001956 0.000000 0.000000 0.000000
# 2 -0.000725 0.005972 -0.001492 0.000000 0.000000 0.000000
# 3 0.001956 -0.001492 0.027688 0.000000 0.000000 0.000000
# 4 0.000000 0.000000 0.000000 0.022267 0.000000 0.000000
# 5 0.000000 0.000000 0.000000 0.000000 0.044312 0.000000
# 6 0.000000 0.000000 0.000000 0.000000 0.000000 0.079076
#
#
# Mechanical properties :
#
#
# Convention : Reuss Voigt Hill
#
# Bulk Modulus (GPa) = 19.62188 31.78088 25.70138
# Shear Modulus (GPa) = 23.29353 32.88486 28.08919
#
# Velocity S-wave (km/s) = 3.00358 3.56877 3.29830
# Velocity P-wave (km/s) = 4.43036 5.41203 4.94561
#
# Compressibility (1/GPa) = 0.05096352
#
# Stress axis : x y z
#
# Youngs Moduli (GPa) = 56.09622 167.43784 36.11724
#
# Poissons Ratio (x) = 0.12143 -0.07064
# Poissons Ratio (y) = 0.04068 0.05389
# Poissons Ratio (z) = -0.10972 0.24985
#
# Static dielectric constant tensor:
#      x y z
#    x 1.942500 0.000000 0.000000 
#    y 0.000000 2.069460 0.000000 
#    z 0.000000 0.000000 2.150580 
# 
# From -- ./inp_files/16566.got.cif
#   From: 2010.05.17/outbox.cif.g08.bks.cpg/sg36_9_cif.got.tgz:16566.got - 2010.06.03 17:41:39.
