data_PCOD9350713
_publ_section_title
;
Structure prediction by ZEFSAII (Michael W. Deem and Ramdas Pophale) SiO2 
 PCOD9350713
Probable space group: C M C 21
;
_chemical_formula_sum "Si O2"
_cell_formula_units_Z 64
_cell_length_a 7.924484
_cell_length_b 20.914192
_cell_length_c 20.415392
_cell_angle_alpha 90.000000
_cell_angle_beta 90.000000
_cell_angle_gamma 90.000000
_cell_volume 3383.528250
_symmetry_space_group_name_H-M "C M C 21"
_symmetry_group_IT_number 36
_symmetry_cell_setting 'orthorhombic'
loop_
_space_group_symop_operation_xyz
x,y,z
-x,-y,1/2+z
x,-y,1/2+z
-x,y,z
1/2+x,1/2+y,z
1/2-x,1/2-y,1/2+z
1/2+x,1/2-y,1/2+z
1/2-x,1/2+y,z
loop_
_atom_site_type_symbol
_atom_site_label
_atom_site_fract_x
_atom_site_fract_y
_atom_site_fract_z
Si Si1 0.207146 0.169813 0.569390
Si Si2 0.299260 0.726020 0.324174
Si Si3 0.704383 0.415628 0.830491
Si Si4 0.293387 0.776276 0.465621
Si Si5 0.796834 0.581529 0.947349
Si Si6 0.202028 0.944805 0.979182
Si Si7 0.802531 0.829092 0.217289
Si Si8 0.800386 0.552892 0.799173
O O1 0.258558 0.228834 0.523335
O O2 0.263615 0.104565 0.533702
O O3 0.267515 0.175226 0.643803
O O4 0.000000 0.168889 0.570565
O O5 0.500000 0.719680 0.332706
O O6 0.237135 0.654484 0.308183
O O7 0.234941 0.750372 0.394744
O O8 0.270324 0.778266 0.268546
O O9 0.500000 0.418166 0.829131
O O10 0.761011 0.424470 0.906316
O O11 0.767224 0.477581 0.791584
O O12 0.500000 0.775926 0.464800
O O13 0.238850 0.849756 0.472902
O O14 0.745979 0.518981 0.987622
O O15 0.736234 0.571495 0.872240
O O16 0.000000 0.582538 0.944801
O O17 0.000000 0.939295 0.977737
O O18 0.778581 0.899944 0.246441
O O19 0.000000 0.815071 0.213696
O O20 0.000000 0.564644 0.798196
#
# Coordination Sequence:
#
# PCOD9350713 Si02
#       8
#     8   8   8   8   8   8   8   8
#     4   9  18  33  53  75 101 138 176 213 258 313
#     4  10  18  33  56  79 104 138 176 216 266 317
#     4   9  17  30  54  82 103 128 169 220 265 307
#     4   9  15  30  54  76  99 132 175 212 253 311
#     4   9  17  29  50  77 102 127 163 212 259 304
#     4   9  16  30  52  75  99 128 167 211 255 306
#     4  11  22  34  51  77 109 142 179 218 261 313
#     4  10  19  33  52  75 105 139 173 212 261 313
#
# _framework density 18.915165999999999
#
# number of rings (size 3 to 8) (size 9 to 14) (size 15 to 20)
#    0.000    2.500    2.500    0.750    0.000    1.000 
#    0.000    2.500    0.000    6.750    0.000    0.000 
#    0.000    0.000    0.000    0.000    0.000    0.000 
#
# Total GULP energy -178457.448803 kJ/mol
# GULP energy per Si atom -5576.795275 kJ/mol
# Density = 1.887211 g / cm^3
# Si number density = 18.915166 Si / 1000 Ang^3
#
#
#
# Elastic Constant Matrix: (Units=GPa)
#
#
# Indices 1 2 3 4 5 6 
#
# 1 8.9197 -7.2089 -4.5142 0.0000 0.0000 0.0000
# 2 -7.2089 157.0363 61.9225 0.0000 0.0000 0.0000
# 3 -4.5142 61.9225 99.5069 0.0000 0.0000 0.0000
# 4 0.0000 0.0000 0.0000 23.9724 0.0000 0.0000
# 5 0.0000 0.0000 0.0000 0.0000 11.6762 0.0000
# 6 0.0000 0.0000 0.0000 0.0000 0.0000 25.0002
#
#
#
# Elastic Compliance Matrix: (Units=1/GPa)
#
#
# Indices 1 2 3 4 5 6 
#
# 1 0.116938 0.004342 0.002603 0.000000 0.000000 0.000000
# 2 0.004342 0.008600 -0.005155 0.000000 0.000000 0.000000
# 3 0.002603 -0.005155 0.013375 0.000000 0.000000 0.000000
# 4 0.000000 0.000000 0.000000 0.041715 0.000000 0.000000
# 5 0.000000 0.000000 0.000000 0.000000 0.085644 0.000000
# 6 0.000000 0.000000 0.000000 0.000000 0.000000 0.040000
#
#
# Mechanical properties :
#
#
# Convention : Reuss Voigt Hill
#
# Bulk Modulus (GPa) = 7.01786 40.65130 23.83458
# Shear Modulus (GPa) = 14.27798 26.48066 20.37932
#
# Velocity S-wave (km/s) = 2.75042 3.74568 3.28595
# Velocity P-wave (km/s) = 3.71546 6.34388 5.19853
#
# Compressibility (1/GPa) = 0.14249367
#
# Stress axis : x y z
#
# Youngs Moduli (GPa) = 8.55153 116.28109 74.76427
#
# Poissons Ratio (x) = -0.50485 -0.19462
# Poissons Ratio (y) = -0.03713 0.38539
# Poissons Ratio (z) = -0.02226 0.59939
#
# Static dielectric constant tensor:
#      x y z
#    x 1.691470 0.000000 0.000000 
#    y 0.000000 1.664970 0.000000 
#    z 0.000000 0.000000 1.638310 
# 
# From -- ./inp_files/13829.got.cif
#   From: 2010.05.17/outbox.cif.g08.bks.cpg/sg36_7_cif.got.tgz:13829.got - 2010.06.03 17:41:39.
