data_PCOD9350463
_publ_section_title
;
Structure prediction by ZEFSAII (Michael W. Deem and Ramdas Pophale) SiO2 
 PCOD9350463
Probable space group: C M C 21
;
_chemical_formula_sum "Si O2"
_cell_formula_units_Z 56
_cell_length_a 12.945088
_cell_length_b 31.255494
_cell_length_c 5.537309
_cell_angle_alpha 90.000000
_cell_angle_beta 90.000000
_cell_angle_gamma 90.000000
_cell_volume 2240.423574
_symmetry_space_group_name_H-M "C M C 21"
_symmetry_group_IT_number 36
_symmetry_cell_setting 'orthorhombic'
loop_
_space_group_symop_operation_xyz
x,y,z
-x,-y,1/2+z
x,-y,1/2+z
-x,y,z
1/2+x,1/2+y,z
1/2-x,1/2-y,1/2+z
1/2+x,1/2-y,1/2+z
1/2-x,1/2+y,z
loop_
_atom_site_type_symbol
_atom_site_label
_atom_site_fract_x
_atom_site_fract_y
_atom_site_fract_z
Si Si1 0.819424 0.082703 0.408920
Si Si2 0.651563 0.296431 0.408920
Si Si3 0.609529 0.876297 0.408920
Si Si4 0.657047 0.601132 0.908920
Si Si5 0.327372 0.161162 0.408920
Si Si6 0.671628 0.736517 0.408920
Si Si7 0.886906 0.473522 0.908919
O O1 0.877570 0.079344 0.661675
O O2 0.774724 0.131113 0.408920
O O3 0.715111 0.055082 0.408920
O O4 0.877570 0.079344 0.156165
O O5 0.636140 0.347586 0.408920
O O6 0.615108 0.276454 0.662555
O O7 0.774209 0.282927 0.408920
O O8 0.615108 0.276454 0.155286
O O9 0.500000 0.900387 0.408920
O O10 0.716604 0.902447 0.408920
O O11 0.614363 0.850412 0.661943
O O12 0.614363 0.850412 0.155898
O O13 0.276166 0.207352 0.408920
O O14 0.883723 0.500000 0.658919
O O15 0.000000 0.450951 0.908919
#
# Coordination Sequence:
#
# PCOD9350463 Si02
#       7
#     8   8   8   8   8   8   8
#     4  10  18  27  43  53  67  86 100 138 178 206
#     4  10  16  25  39  55  73  95 109 129 162 200
#     4  10  18  25  34  46  67  90 108 136 166 194
#     4  10  17  28  38  57  75  85 112 136 164 219
#     4  10  17  29  37  54  71  84 113 138 163 215
#     4  10  16  25  40  53  73  95 110 131 161 198
#     4  10  21  35  45  54  66  83 114 150 186 232
#
# _framework density 24.995273000000001
#
# number of rings (size 3 to 8) (size 9 to 14) (size 15 to 20)
#    0.000    2.000    5.714    1.286    0.000    4.571 
#    0.000    1.429    0.000    0.000    0.000    0.000 
#    0.000    0.000    0.000    0.000    0.000    0.000 
#
# Total GULP energy -156196.642956 kJ/mol
# GULP energy per Si atom -5578.451534 kJ/mol
# Density = 2.493838 g / cm^3
# Si number density = 24.995273 Si / 1000 Ang^3
#
#
#
# Elastic Constant Matrix: (Units=GPa)
#
#
# Indices 1 2 3 4 5 6 
#
# 1 92.5589 6.9236 33.4725 0.0000 0.0000 0.0000
# 2 6.9236 43.3541 35.5840 0.0000 0.0000 0.0000
# 3 33.4725 35.5840 305.6810 0.0000 0.0000 0.0000
# 4 0.0000 0.0000 0.0000 42.7092 0.0000 0.0000
# 5 0.0000 0.0000 0.0000 0.0000 -18.0821 0.0000
# 6 0.0000 0.0000 0.0000 0.0000 0.0000 -18.7701
#
#
#
# Elastic Compliance Matrix: (Units=1/GPa)
#
#
# Indices 1 2 3 4 5 6 
#
# 1 0.011279 -0.000871 -0.001134 0.000000 0.000000 0.000000
# 2 -0.000871 0.025570 -0.002881 0.000000 0.000000 0.000000
# 3 -0.001134 -0.002881 0.003731 0.000000 0.000000 0.000000
# 4 0.000000 0.000000 0.000000 0.023414 0.000000 0.000000
# 5 0.000000 0.000000 0.000000 0.000000 -0.055303 0.000000
# 6 0.000000 0.000000 0.000000 0.000000 0.000000 -0.053276
#
#
# Mechanical properties :
#
#
# Convention : Reuss Voigt Hill
#
# Bulk Modulus (GPa) = 32.45868 65.95050 49.20459
# Shear Modulus (GPa) = -203.70730 25.54566 -89.08082
#
# Velocity S-wave (km/s) = -9.03744 3.20037 -5.97632
# Velocity P-wave (km/s) = 9.79215 6.33238 5.28144
#
# Compressibility (1/GPa) = 0.03080840
#
# Stress axis : x y z
#
# Youngs Moduli (GPa) = 88.65995 39.10876 268.02999
#
# Poissons Ratio (x) = 0.03405 0.30387
# Poissons Ratio (y) = 0.07720 0.77225
# Poissons Ratio (z) = 0.10051 0.11268
#
# Static dielectric constant tensor:
#      x y z
#    x 1.886390 0.000000 0.000000 
#    y 0.000000 2.031360 0.000000 
#    z 0.000000 0.000000 2.141940 
# 
# From -- ./inp_files/1672.got.cif
#   From: 2010.05.17/outbox.cif.g08.bks.cpg/sg36_1_cif.got.tgz:1672.got - 2010.06.03 17:41:39.
