data_PCOD9350682
_publ_section_title
;
Structure prediction by ZEFSAII (Michael W. Deem and Ramdas Pophale) SiO2 
 PCOD9350682
Probable space group: C M C 21
;
_chemical_formula_sum "Si O2"
_cell_formula_units_Z 48
_cell_length_a 16.912473
_cell_length_b 18.782263
_cell_length_c 8.151436
_cell_angle_alpha 90.000000
_cell_angle_beta 90.000000
_cell_angle_gamma 90.000000
_cell_volume 2589.340456
_symmetry_space_group_name_H-M "C M C 21"
_symmetry_group_IT_number 36
_symmetry_cell_setting 'orthorhombic'
loop_
_space_group_symop_operation_xyz
x,y,z
-x,-y,1/2+z
x,-y,1/2+z
-x,y,z
1/2+x,1/2+y,z
1/2-x,1/2-y,1/2+z
1/2+x,1/2-y,1/2+z
1/2-x,1/2+y,z
loop_
_atom_site_type_symbol
_atom_site_label
_atom_site_fract_x
_atom_site_fract_y
_atom_site_fract_z
Si Si1 0.239275 0.059254 0.206540
Si Si2 0.909715 0.308583 0.215309
Si Si3 0.091399 0.850744 0.597905
Si Si4 0.174838 0.680502 0.034532
Si Si5 0.731969 0.902623 0.083043
Si Si6 0.176877 0.796175 0.299176
O O1 0.152104 0.088507 0.156622
O O2 0.255794 0.081592 0.392752
O O3 0.255890 0.976578 0.179065
O O4 0.297227 0.102784 0.087122
O O5 0.890215 0.225177 0.185055
O O6 0.896758 0.320989 0.408332
O O7 0.849859 0.361319 0.121857
O O8 0.000000 0.319646 0.164562
O O9 0.108511 0.830516 0.408602
O O10 0.000000 0.868946 0.625692
O O11 0.248801 0.711622 0.925842
O O12 0.160191 0.724501 0.200050
O O13 0.797227 0.850246 0.157777
#
# Coordination Sequence:
#
# PCOD9350682 Si02
#       6
#     8   8   8   8   8   8
#     4  11  21  37  58  81 109 147 191 228 271 330
#     4  10  21  37  57  84 116 145 180 230 280 324
#     4  10  21  37  57  84 116 145 180 230 280 324
#     4  10  18  32  55  81 110 147 190 227 265 323
#     4  11  21  37  58  81 109 147 191 228 271 330
#     4  10  18  32  55  81 110 147 190 227 265 323
#
# _framework density 18.537538999999999
#
# number of rings (size 3 to 8) (size 9 to 14) (size 15 to 20)
#    0.000    1.667    0.000   10.000    0.000    0.667 
#    0.000    8.333    0.000    0.000    0.000    0.000 
#    0.000    0.000    0.000    0.000    0.000    0.000 
#
# Total GULP energy -133914.916573 kJ/mol
# GULP energy per Si atom -5579.788191 kJ/mol
# Density = 1.849535 g / cm^3
# Si number density = 18.537539 Si / 1000 Ang^3
#
#
#
# Elastic Constant Matrix: (Units=GPa)
#
#
# Indices 1 2 3 4 5 6 
#
# 1 41.7016 10.3726 -12.4825 0.0000 0.0000 0.0000
# 2 10.3726 61.0016 -16.7426 0.0000 0.0000 0.0000
# 3 -12.4825 -16.7426 58.0169 0.0000 0.0000 0.0000
# 4 0.0000 0.0000 0.0000 40.2430 0.0000 0.0000
# 5 0.0000 0.0000 0.0000 0.0000 11.0959 0.0000
# 6 0.0000 0.0000 0.0000 0.0000 0.0000 14.0675
#
#
#
# Elastic Compliance Matrix: (Units=1/GPa)
#
#
# Indices 1 2 3 4 5 6 
#
# 1 0.026178 -0.003155 0.004722 0.000000 0.000000 0.000000
# 2 -0.003155 0.018183 0.004569 0.000000 0.000000 0.000000
# 3 0.004722 0.004569 0.019571 0.000000 0.000000 0.000000
# 4 0.000000 0.000000 0.000000 0.024849 0.000000 0.000000
# 5 0.000000 0.000000 0.000000 0.000000 0.090123 0.000000
# 6 0.000000 0.000000 0.000000 0.000000 0.000000 0.071086
#
#
# Mechanical properties :
#
#
# Convention : Reuss Voigt Hill
#
# Bulk Modulus (GPa) = 13.12304 13.66835 13.39570
# Shear Modulus (GPa) = 19.00265 25.05279 22.02772
#
# Velocity S-wave (km/s) = 3.20518 3.68021 3.45088
# Velocity P-wave (km/s) = 4.55983 5.04460 4.80833
#
# Compressibility (1/GPa) = 0.07620186
#
# Stress axis : x y z
#
# Youngs Moduli (GPa) = 38.19991 54.99516 51.09695
#
# Poissons Ratio (x) = 0.17353 -0.24126
# Poissons Ratio (y) = 0.12053 -0.23344
# Poissons Ratio (z) = -0.18037 -0.25125
#
# Static dielectric constant tensor:
#      x y z
#    x 1.642110 0.000000 0.000000 
#    y 0.000000 1.659470 0.000000 
#    z 0.000000 0.000000 1.656080 
# 
# From -- ./inp_files/4732.got.cif
#   From: 2010.05.17/outbox.cif.g08.bks.cpg/sg36_3_cif.got.tgz:4732.got - 2010.06.03 17:41:39.
