data_PCOD9350148
_publ_section_title
;
Structure prediction by ZEFSAII (Michael W. Deem and Ramdas Pophale) SiO2 
 PCOD9350148
Probable space group: C M M 2
;
_chemical_formula_sum "Si O2"
_cell_formula_units_Z 28
_cell_length_a 9.000000
_cell_length_b 21.000000
_cell_length_c 15.000000
_cell_angle_alpha 90.000000
_cell_angle_beta 90.000000
_cell_angle_gamma 90.000000
_cell_volume 2835.000000
_symmetry_space_group_name_H-M "C M M 2"
_symmetry_group_IT_number 35
_symmetry_cell_setting 'orthorhombic'
loop_
_space_group_symop_operation_xyz
x,y,z
-x,-y,z
-x,y,z
x,-y,z
1/2+x,1/2+y,z
1/2-x,1/2-y,z
1/2-x,1/2+y,z
1/2+x,1/2-y,z
loop_
_atom_site_type_symbol
_atom_site_label
_atom_site_fract_x
_atom_site_fract_y
_atom_site_fract_z
Si Si1 0.675864 0.000000 0.299901
Si Si2 0.823884 0.134628 0.084174
Si Si3 0.823385 0.313893 0.249976
Si Si4 0.174851 0.000000 0.107561
Si Si5 0.174398 0.074933 0.596294
Si Si6 0.322425 0.926213 0.786984
Si Si7 0.822443 0.621589 0.423191
Si Si8 0.678490 0.314379 0.899446
O O1 0.751627 0.000000 0.204499
O O2 0.709879 0.060163 0.361781
O O3 0.500000 0.000000 0.283453
O O4 0.739741 0.137939 0.177600
O O5 0.793606 0.062951 0.052574
O O6 0.000000 0.143832 0.099993
O O7 0.777082 0.179248 0.003685
O O8 0.750000 0.250000 0.216677
O O9 0.780578 0.324130 0.352686
O O10 0.000000 0.313983 0.245892
O O11 0.000000 0.000000 0.126388
O O12 0.267669 0.085331 0.685697
O O13 0.234516 0.116287 0.514365
O O14 0.000000 0.086217 0.612477
O O15 0.192645 0.000000 0.571829
O O16 0.500000 0.918799 0.793028
O O17 0.240275 0.875449 0.848309
O O18 0.285100 0.000000 0.807983
O O19 0.000000 0.623188 0.440555
O O20 0.500000 0.312682 0.894754
O O21 0.750000 0.250000 0.862462
#
# Coordination Sequence:
#
# PCOD9350148 Si02
#       8
#     4   8   8   4   8   8   8   8
#     4  10  18  32  52  79 112 147 186 233 284 334
#     4  10  22  38  59  86 119 156 194 241 295 352
#     4  11  23  38  56  78 111 155 202 247 291 343
#     4  10  20  34  54  85 120 153 192 239 294 348
#     4  10  20  34  57  89 120 151 189 236 293 355
#     4  10  22  41  65  93 124 157 197 249 307 365
#     4  10  20  34  54  80 113 151 189 234 287 343
#     4  11  24  42  65  90 121 159 203 252 303 365
#
# _framework density 9.8765429999999999
#
# number of rings (size 3 to 8) (size 9 to 14) (size 15 to 20)
#    0.000    1.714    2.143    2.143    1.000    5.429 
#    0.000    0.714    0.000    1.714    0.000    0.000 
#    0.000    0.000    0.000    0.000    0.000    0.000 
#
# Total GULP energy -156098.671318 kJ/mol
# GULP energy per Si atom -5574.952547 kJ/mol
# Density = 0.985406 g / cm^3
# Si number density = 9.876543 Si / 1000 Ang^3
#
#
#
# Elastic Constant Matrix: (Units=GPa)
#
#
# Indices 1 2 3 4 5 6 
#
# 1 36.6486 45.7056 34.1255 0.0000 0.0000 0.0000
# 2 45.7056 89.6350 51.0546 0.0000 0.0000 0.0000
# 3 34.1255 51.0546 81.9882 0.0000 0.0000 0.0000
# 4 0.0000 0.0000 0.0000 15.3990 0.0000 0.0000
# 5 0.0000 0.0000 0.0000 0.0000 24.6298 0.0000
# 6 0.0000 0.0000 0.0000 0.0000 0.0000 19.4272
#
#
#
# Elastic Compliance Matrix: (Units=1/GPa)
#
#
# Indices 1 2 3 4 5 6 
#
# 1 0.082609 -0.034926 -0.012635 0.000000 0.000000 0.000000
# 2 -0.034926 0.032055 -0.005424 0.000000 0.000000 0.000000
# 3 -0.012635 -0.005424 0.020833 0.000000 0.000000 0.000000
# 4 0.000000 0.000000 0.000000 0.064939 0.000000 0.000000
# 5 0.000000 0.000000 0.000000 0.000000 0.040601 0.000000
# 6 0.000000 0.000000 0.000000 0.000000 0.000000 0.051474
#
#
# Mechanical properties :
#
#
# Convention : Reuss Voigt Hill
#
# Bulk Modulus (GPa) = 33.86715 52.22701 43.04708
# Shear Modulus (GPa) = 12.24521 17.05026 14.64773
#
# Velocity S-wave (km/s) = 2.49251 2.94116 2.72608
# Velocity P-wave (km/s) = 5.04638 6.16695 5.63459
#
# Compressibility (1/GPa) = 0.02952714
#
# Stress axis : x y z
#
# Youngs Moduli (GPa) = 12.10526 31.19678 48.00039
#
# Poissons Ratio (x) = 1.08958 0.60649
# Poissons Ratio (y) = 0.42279 0.26033
# Poissons Ratio (z) = 0.15295 0.16920
#
# Static dielectric constant tensor:
#      x y z
#    x 1.666630 0.000000 0.000000 
#    y 0.000000 1.714560 0.000000 
#    z 0.000000 0.000000 1.666430 
# 
# From -- ./inp_files/15732.got.cif
#   From: 2010.05.17/outbox.ucp.g08.bks.cvg/sg35_8_cif.got.tgz:15732.got - 2010.06.11 10:36:28.
