data_PCOD9350701
_publ_section_title
;
Structure prediction by ZEFSAII (Michael W. Deem and Ramdas Pophale) SiO2 
 PCOD9350701
Probable space group: C M C 21
;
_chemical_formula_sum "Si O2"
_cell_formula_units_Z 40
_cell_length_a 12.051743
_cell_length_b 14.854430
_cell_length_c 9.131828
_cell_angle_alpha 90.000000
_cell_angle_beta 90.000000
_cell_angle_gamma 90.000000
_cell_volume 1634.796037
_symmetry_space_group_name_H-M "C M C 21"
_symmetry_group_IT_number 36
_symmetry_cell_setting 'orthorhombic'
loop_
_space_group_symop_operation_xyz
x,y,z
-x,-y,1/2+z
x,-y,1/2+z
-x,y,z
1/2+x,1/2+y,z
1/2-x,1/2-y,1/2+z
1/2+x,1/2-y,1/2+z
1/2-x,1/2+y,z
loop_
_atom_site_type_symbol
_atom_site_label
_atom_site_fract_x
_atom_site_fract_y
_atom_site_fract_z
Si Si1 0.500000 0.521427 0.002151
Si Si2 0.243039 0.084237 0.028829
Si Si3 0.373715 0.819236 0.099733
Si Si4 0.791362 0.247698 0.817280
Si Si5 0.628150 0.991806 0.778798
Si Si6 0.500000 0.636188 0.705782
O O1 0.616131 0.559485 0.064216
O O2 0.500000 0.416569 0.051420
O O3 0.500000 0.558331 0.833673
O O4 0.322631 0.081820 0.168405
O O5 0.249383 0.173678 0.935075
O O6 0.291774 0.011896 0.913592
O O7 0.500000 0.788782 0.088357
O O8 0.307494 0.748738 0.201603
O O9 0.369527 0.915210 0.181768
O O10 0.329555 0.822453 0.933420
O O11 0.893665 0.199144 0.733765
O O12 0.500000 0.976158 0.821369
#
# Coordination Sequence:
#
# PCOD9350701 Si02
#       6
#     4   8   8   8   8   4
#     4  10  18  32  58  88 118 150 194 238 308 366
#     4  10  20  35  58  88 117 153 193 247 304 356
#     4  10  21  40  61  86 120 160 204 250 300 360
#     4  10  21  39  62  83 124 159 200 253 303 360
#     4  10  21  37  60  85 117 156 199 248 296 356
#     4  10  20  38  60  88 122 160 194 254 310 362
#
# _framework density 24.467881999999999
#
# number of rings (size 3 to 8) (size 9 to 14) (size 15 to 20)
#    0.000    2.000    1.000    4.200    0.000    2.400 
#    1.800    4.000    4.400    0.000    0.000    0.000 
#    0.000    0.000    0.000    0.000    0.000    0.000 
#
# Total GULP energy -111842.654066 kJ/mol
# GULP energy per Si atom -5592.132703 kJ/mol
# Density = 2.441219 g / cm^3
# Si number density = 24.467882 Si / 1000 Ang^3
#
#
#
# Elastic Constant Matrix: (Units=GPa)
#
#
# Indices 1 2 3 4 5 6 
#
# 1 131.4440 26.3798 71.8012 0.0000 0.0000 0.0000
# 2 26.3798 47.5163 6.7261 0.0000 0.0000 0.0000
# 3 71.8012 6.7261 89.6548 0.0000 0.0000 0.0000
# 4 0.0000 0.0000 0.0000 53.3700 0.0000 0.0000
# 5 0.0000 0.0000 0.0000 0.0000 25.3991 0.0000
# 6 0.0000 0.0000 0.0000 0.0000 0.0000 12.0731
#
#
#
# Elastic Compliance Matrix: (Units=1/GPa)
#
#
# Indices 1 2 3 4 5 6 
#
# 1 0.015488 -0.006916 -0.011885 0.000000 0.000000 0.000000
# 2 -0.006916 0.024360 0.003711 0.000000 0.000000 0.000000
# 3 -0.011885 0.003711 0.020394 0.000000 0.000000 0.000000
# 4 0.000000 0.000000 0.000000 0.018737 0.000000 0.000000
# 5 0.000000 0.000000 0.000000 0.000000 0.039371 0.000000
# 6 0.000000 0.000000 0.000000 0.000000 0.000000 0.082829
#
#
# Mechanical properties :
#
#
# Convention : Reuss Voigt Hill
#
# Bulk Modulus (GPa) = 33.26461 53.15884 43.21172
# Shear Modulus (GPa) = 20.71434 29.08230 24.89832
#
# Velocity S-wave (km/s) = 2.91278 3.45133 3.19343
# Velocity P-wave (km/s) = 4.99371 6.13640 5.59431
#
# Compressibility (1/GPa) = 0.03006198
#
# Stress axis : x y z
#
# Youngs Moduli (GPa) = 64.56655 41.05140 49.03505
#
# Poissons Ratio (x) = 0.28392 0.58277
# Poissons Ratio (y) = 0.44655 -0.18199
# Poissons Ratio (z) = 0.76736 -0.15236
#
# Static dielectric constant tensor:
#      x y z
#    x 1.895220 0.000000 0.000000 
#    y 0.000000 2.112670 0.000000 
#    z 0.000000 0.000000 1.962730 
# 
# From -- ./inp_files/3070.got.cif
#   From: 2010.05.17/outbox.cif.g08.bks.cpg/sg36_2_cif.got.tgz:3070.got - 2010.06.03 17:41:39.
