data_PCOD9350850
_publ_section_title
;
Structure prediction by ZEFSAII (Michael W. Deem and Ramdas Pophale) SiO2 
 PCOD9350850
Probable space group: C M C 21
;
_chemical_formula_sum "Si O2"
_cell_formula_units_Z 64
_cell_length_a 8.654030
_cell_length_b 20.635781
_cell_length_c 20.457602
_cell_angle_alpha 90.000000
_cell_angle_beta 90.000000
_cell_angle_gamma 90.000000
_cell_volume 3653.373143
_symmetry_space_group_name_H-M "C M C 21"
_symmetry_group_IT_number 36
_symmetry_cell_setting 'orthorhombic'
loop_
_space_group_symop_operation_xyz
x,y,z
-x,-y,1/2+z
x,-y,1/2+z
-x,y,z
1/2+x,1/2+y,z
1/2-x,1/2-y,1/2+z
1/2+x,1/2-y,1/2+z
1/2-x,1/2+y,z
loop_
_atom_site_type_symbol
_atom_site_label
_atom_site_fract_x
_atom_site_fract_y
_atom_site_fract_z
Si Si1 0.685240 0.549683 0.782200
Si Si2 0.686685 0.722432 0.616846
Si Si3 0.184866 0.415009 0.139985
Si Si4 0.815065 0.731677 0.262364
Si Si5 0.814594 0.663698 0.863658
Si Si6 0.311852 0.829664 0.512417
Si Si7 0.313750 0.057353 0.106327
Si Si8 0.315328 0.406565 0.747831
O O1 0.500000 0.554896 0.783503
O O2 0.744357 0.576691 0.712440
O O3 0.757167 0.594258 0.837834
O O4 0.728206 0.473677 0.783942
O O5 0.500000 0.720503 0.616341
O O6 0.750761 0.650324 0.608921
O O7 0.734343 0.748369 0.688627
O O8 0.738182 0.771708 0.560334
O O9 0.224929 0.481361 0.101924
O O10 0.000000 0.411141 0.145696
O O11 0.747954 0.782197 0.314095
O O12 0.759135 0.658696 0.274981
O O13 0.000000 0.734440 0.264305
O O14 0.000000 0.664975 0.862190
O O15 0.760435 0.675835 0.937805
O O16 0.500000 0.828459 0.511732
O O17 0.266003 0.897327 0.546413
O O18 0.500000 0.062447 0.113283
O O19 0.240617 0.084026 0.173178
O O20 0.500000 0.400845 0.749154
#
# Coordination Sequence:
#
# PCOD9350850 Si02
#       8
#     8   8   8   8   8   8   8   8
#     4  10  20  35  53  77 111 145 177 221 276 326
#     4  10  19  34  56  78 108 146 180 220 274 331
#     4  10  19  30  53  84 110 136 177 230 269 313
#     4  11  21  35  57  81 111 147 181 226 278 327
#     4  11  22  36  57  81 109 146 188 227 270 329
#     4   9  19  37  57  77 105 146 185 221 272 331
#     4   9  17  34  55  77 107 142 179 219 272 326
#     4  10  20  33  54  83 111 138 179 230 271 317
#
# _framework density 17.518058
#
# number of rings (size 3 to 8) (size 9 to 14) (size 15 to 20)
#    0.000    2.000    2.500    1.875    0.000    2.500 
#    0.000    3.750    0.000    3.000    0.000    0.000 
#    0.000    0.000    0.000    0.000    0.000    0.000 
#
# Total GULP energy -178582.041366 kJ/mol
# GULP energy per Si atom -5580.688793 kJ/mol
# Density = 1.747819 g / cm^3
# Si number density = 17.518058 Si / 1000 Ang^3
#
#
#
# Elastic Constant Matrix: (Units=GPa)
#
#
# Indices 1 2 3 4 5 6 
#
# 1 31.0969 37.4588 30.9472 0.0000 0.0000 0.0000
# 2 37.4588 148.6858 75.3371 0.0000 0.0000 0.0000
# 3 30.9472 75.3371 116.3038 0.0000 0.0000 0.0000
# 4 0.0000 0.0000 0.0000 24.8589 0.0000 0.0000
# 5 0.0000 0.0000 0.0000 0.0000 18.1778 0.0000
# 6 0.0000 0.0000 0.0000 0.0000 0.0000 30.4463
#
#
#
# Elastic Compliance Matrix: (Units=1/GPa)
#
#
# Indices 1 2 3 4 5 6 
#
# 1 0.050437 -0.008792 -0.007725 0.000000 0.000000 0.000000
# 2 -0.008792 0.011544 -0.005138 0.000000 0.000000 0.000000
# 3 -0.007725 -0.005138 0.013982 0.000000 0.000000 0.000000
# 4 0.000000 0.000000 0.000000 0.040227 0.000000 0.000000
# 5 0.000000 0.000000 0.000000 0.000000 0.055012 0.000000
# 6 0.000000 0.000000 0.000000 0.000000 0.000000 0.032845
#
#
# Mechanical properties :
#
#
# Convention : Reuss Voigt Hill
#
# Bulk Modulus (GPa) = 30.62672 64.84142 47.73407
# Shear Modulus (GPa) = 19.36160 24.85283 22.10722
#
# Velocity S-wave (km/s) = 3.32812 3.77065 3.55627
# Velocity P-wave (km/s) = 5.68237 7.48675 6.64608
#
# Compressibility (1/GPa) = 0.03265122
#
# Stress axis : x y z
#
# Youngs Moduli (GPa) = 19.82673 86.62350 71.51944
#
# Poissons Ratio (x) = 0.76163 0.55251
# Poissons Ratio (y) = 0.17432 0.36749
# Poissons Ratio (z) = 0.15317 0.44510
#
# Static dielectric constant tensor:
#      x y z
#    x 1.592490 0.000000 0.000000 
#    y 0.000000 1.606530 0.000000 
#    z 0.000000 0.000000 1.573110 
# 
# From -- ./inp_files/13977.got.cif
#   From: 2010.05.17/outbox.cif.g08.bks.cpg/sg36_7_cif.got.tgz:13977.got - 2010.06.03 17:41:39.
