data_PCOD9350722
_publ_section_title
;
Structure prediction by ZEFSAII (Michael W. Deem and Ramdas Pophale) SiO2 
 PCOD9350722
Probable space group: C M C 21
;
_chemical_formula_sum "Si O2"
_cell_formula_units_Z 48
_cell_length_a 15.061935
_cell_length_b 10.606960
_cell_length_c 13.395874
_cell_angle_alpha 90.000000
_cell_angle_beta 90.000000
_cell_angle_gamma 90.000000
_cell_volume 2140.142808
_symmetry_space_group_name_H-M "C M C 21"
_symmetry_group_IT_number 36
_symmetry_cell_setting 'orthorhombic'
loop_
_space_group_symop_operation_xyz
x,y,z
-x,-y,1/2+z
x,-y,1/2+z
-x,y,z
1/2+x,1/2+y,z
1/2-x,1/2-y,1/2+z
1/2+x,1/2-y,1/2+z
1/2-x,1/2+y,z
loop_
_atom_site_type_symbol
_atom_site_label
_atom_site_fract_x
_atom_site_fract_y
_atom_site_fract_z
Si Si1 0.404745 0.478493 0.907410
Si Si2 0.765542 0.683644 0.393135
Si Si3 0.599862 0.935320 0.753047
Si Si4 0.896908 0.202315 0.056117
Si Si5 0.097693 0.859817 0.200338
Si Si6 0.209528 0.663338 0.703502
O O1 0.500000 0.412509 0.900756
O O2 0.325843 0.382316 0.917219
O O3 0.400515 0.568597 0.808447
O O4 0.402519 0.567726 0.003806
O O5 0.826914 0.581454 0.337785
O O6 0.829094 0.726329 0.482043
O O7 0.738072 0.794095 0.315078
O O8 0.500000 0.966208 0.785940
O O9 0.595803 0.793448 0.709422
O O10 0.640502 0.049100 0.689779
O O11 0.843710 0.216216 0.159297
O O12 0.000000 0.247808 0.061739
O O13 0.196114 0.878243 0.155928
O O14 0.000000 0.894715 0.157630
#
# Coordination Sequence:
#
# PCOD9350722 Si02
#       6
#     8   8   8   8   8   8
#     4  10  20  39  62  87 120 165 208 247 307 380
#     4  11  21  39  63  87 123 166 207 259 311 373
#     4  10  18  33  57  85 117 156 204 248 301 365
#     4  11  23  41  63  91 126 166 211 252 316 382
#     4   9  18  36  61  82 113 163 202 238 300 374
#     4  11  22  36  62  96 123 156 210 268 311 362
#
# _framework density 22.42841
#
# number of rings (size 3 to 8) (size 9 to 14) (size 15 to 20)
#    0.000    1.667    5.000    1.000    0.000    4.000 
#    0.000    0.833    0.000    1.000    0.000    0.000 
#    0.000    0.000    0.000    0.000    0.000    0.000 
#
# Total GULP energy -133700.895587 kJ/mol
# GULP energy per Si atom -5570.870649 kJ/mol
# Density = 2.237736 g / cm^3
# Si number density = 22.428410 Si / 1000 Ang^3
#
#
#
# Elastic Constant Matrix: (Units=GPa)
#
#
# Indices 1 2 3 4 5 6 
#
# 1 219.4304 60.0285 37.7837 0.0000 0.0000 0.0000
# 2 60.0285 55.8489 13.1874 0.0000 0.0000 0.0000
# 3 37.7837 13.1874 39.4383 0.0000 0.0000 0.0000
# 4 0.0000 0.0000 0.0000 19.8875 0.0000 0.0000
# 5 0.0000 0.0000 0.0000 0.0000 27.8655 0.0000
# 6 0.0000 0.0000 0.0000 0.0000 0.0000 49.1516
#
#
#
# Elastic Compliance Matrix: (Units=1/GPa)
#
#
# Indices 1 2 3 4 5 6 
#
# 1 0.007165 -0.006602 -0.004657 0.000000 0.000000 0.000000
# 2 -0.006602 0.025523 -0.002210 0.000000 0.000000 0.000000
# 3 -0.004657 -0.002210 0.030557 0.000000 0.000000 0.000000
# 4 0.000000 0.000000 0.000000 0.050283 0.000000 0.000000
# 5 0.000000 0.000000 0.000000 0.000000 0.035887 0.000000
# 6 0.000000 0.000000 0.000000 0.000000 0.000000 0.020345
#
#
# Mechanical properties :
#
#
# Convention : Reuss Voigt Hill
#
# Bulk Modulus (GPa) = 27.54223 59.63519 43.58871
# Shear Modulus (GPa) = 23.94649 32.96212 28.45430
#
# Velocity S-wave (km/s) = 3.27109 3.83777 3.56571
# Velocity P-wave (km/s) = 5.15494 6.80330 6.03566
#
# Compressibility (1/GPa) = 0.03630789
#
# Stress axis : x y z
#
# Youngs Moduli (GPa) = 139.56440 39.18034 32.72619
#
# Poissons Ratio (x) = 0.25866 0.15241
# Poissons Ratio (y) = 0.92137 0.07231
# Poissons Ratio (z) = 0.64996 0.08657
#
# Static dielectric constant tensor:
#      x y z
#    x 1.837190 0.000000 0.000000 
#    y 0.000000 1.890680 0.000000 
#    z 0.000000 0.000000 1.921920 
# 
# From -- ./inp_files/12083.got.cif
#   From: 2010.05.17/outbox.cif.g08.bks.cpg/sg36_7_cif.got.tgz:12083.got - 2010.06.03 17:41:39.
