data_PCOD9350604
_publ_section_title
;
Structure prediction by ZEFSAII (Michael W. Deem and Ramdas Pophale) SiO2 
 PCOD9350604
Probable space group: C M C 21
;
_chemical_formula_sum "Si O2"
_cell_formula_units_Z 64
_cell_length_a 9.087495
_cell_length_b 23.415376
_cell_length_c 16.327239
_cell_angle_alpha 90.000000
_cell_angle_beta 90.000000
_cell_angle_gamma 90.000000
_cell_volume 3474.226039
_symmetry_space_group_name_H-M "C M C 21"
_symmetry_group_IT_number 36
_symmetry_cell_setting 'orthorhombic'
loop_
_space_group_symop_operation_xyz
x,y,z
-x,-y,1/2+z
x,-y,1/2+z
-x,y,z
1/2+x,1/2+y,z
1/2-x,1/2-y,1/2+z
1/2+x,1/2-y,1/2+z
1/2-x,1/2+y,z
loop_
_atom_site_type_symbol
_atom_site_label
_atom_site_fract_x
_atom_site_fract_y
_atom_site_fract_z
Si Si1 0.325532 0.412703 0.017810
Si Si2 0.333446 0.373383 0.605442
Si Si3 0.671451 0.692521 0.413412
Si Si4 0.324014 0.725289 0.224104
Si Si5 0.824352 0.534247 0.001268
Si Si6 0.163590 0.797417 0.443399
Si Si7 0.325036 0.109886 0.844401
Si Si8 0.176290 0.847593 0.187009
O O1 0.500000 0.425800 0.021453
O O2 0.289420 0.375720 0.098946
O O3 0.298776 0.371973 0.939735
O O4 0.237192 0.470957 0.010484
O O5 0.500000 0.391342 0.628636
O O6 0.272418 0.330329 0.673495
O O7 0.239831 0.426808 0.574570
O O8 0.343868 0.333626 0.525446
O O9 0.500000 0.703715 0.433934
O O10 0.695120 0.708499 0.318953
O O11 0.777036 0.734985 0.462016
O O12 0.500000 0.732025 0.208842
O O13 0.245489 0.784384 0.199514
O O14 0.781783 0.562844 0.913074
O O15 0.000000 0.535393 0.004464
O O16 0.278612 0.830034 0.385704
O O17 0.000000 0.796056 0.405873
O O18 0.500000 0.107445 0.831759
O O19 0.240791 0.111397 0.758379
O O20 0.000000 0.843451 0.194342
#
# Coordination Sequence:
#
# PCOD9350604 Si02
#       8
#     8   8   8   8   8   8   8   8
#     4  10  23  41  58  81 116 157 195 236 285 344
#     4   9  19  35  56  82 113 148 184 226 279 338
#     4  10  20  35  55  80 115 153 185 225 282 341
#     4  10  20  35  57  86 119 151 184 227 284 345
#     4  10  22  40  61  83 109 148 196 240 285 337
#     4  10  18  30  53  83 112 144 183 226 276 334
#     4  10  20  36  58  83 113 148 187 235 286 337
#     4  11  22  36  58  88 117 149 192 237 287 342
#
# _framework density 18.42137
#
# number of rings (size 3 to 8) (size 9 to 14) (size 15 to 20)
#    0.000    2.000    1.250    2.250    0.000    4.000 
#    2.250    0.000    0.000    0.000    0.000    0.000 
#    0.000    0.000    0.000    0.000    0.000    0.000 
#
# Total GULP energy -178475.816223 kJ/mol
# GULP energy per Si atom -5577.369257 kJ/mol
# Density = 1.837944 g / cm^3
# Si number density = 18.421370 Si / 1000 Ang^3
#
#
#
# Elastic Constant Matrix: (Units=GPa)
#
#
# Indices 1 2 3 4 5 6 
#
# 1 55.6671 60.8754 32.2611 0.0000 0.0000 0.0000
# 2 60.8754 135.6281 48.6798 0.0000 0.0000 0.0000
# 3 32.2611 48.6798 65.6449 0.0000 0.0000 0.0000
# 4 0.0000 0.0000 0.0000 22.9123 0.0000 0.0000
# 5 0.0000 0.0000 0.0000 0.0000 20.8128 0.0000
# 6 0.0000 0.0000 0.0000 0.0000 0.0000 24.7242
#
#
#
# Elastic Compliance Matrix: (Units=1/GPa)
#
#
# Indices 1 2 3 4 5 6 
#
# 1 0.038324 -0.014228 -0.008283 0.000000 0.000000 0.000000
# 2 -0.014228 0.015330 -0.004376 0.000000 0.000000 0.000000
# 3 -0.008283 -0.004376 0.022549 0.000000 0.000000 0.000000
# 4 0.000000 0.000000 0.000000 0.043645 0.000000 0.000000
# 5 0.000000 0.000000 0.000000 0.000000 0.048047 0.000000
# 6 0.000000 0.000000 0.000000 0.000000 0.000000 0.040446
#
#
# Mechanical properties :
#
#
# Convention : Reuss Voigt Hill
#
# Bulk Modulus (GPa) = 44.58554 60.06362 52.32458
# Shear Modulus (GPa) = 18.54664 21.36480 19.95572
#
# Velocity S-wave (km/s) = 3.17645 3.40925 3.29491
# Velocity P-wave (km/s) = 6.14075 6.94072 6.55295
#
# Compressibility (1/GPa) = 0.02242880
#
# Stress axis : x y z
#
# Youngs Moduli (GPa) = 26.09344 65.23233 44.34810
#
# Poissons Ratio (x) = 0.92815 0.36734
# Poissons Ratio (y) = 0.37127 0.19405
# Poissons Ratio (z) = 0.21613 0.28543
#
# Static dielectric constant tensor:
#      x y z
#    x 1.637090 0.000000 0.000000 
#    y 0.000000 1.621210 0.000000 
#    z 0.000000 0.000000 1.673250 
# 
# From -- ./inp_files/13943.got.cif
#   From: 2010.05.17/outbox.cif.g08.bks.cpg/sg36_7_cif.got.tgz:13943.got - 2010.06.03 17:41:39.
