data_PCOD9350584
_publ_section_title
;
Structure prediction by ZEFSAII (Michael W. Deem and Ramdas Pophale) SiO2 
 PCOD9350584
Probable space group: C M C 21
;
_chemical_formula_sum "Si O2"
_cell_formula_units_Z 64
_cell_length_a 7.698397
_cell_length_b 21.145579
_cell_length_c 20.059465
_cell_angle_alpha 90.000000
_cell_angle_beta 90.000000
_cell_angle_gamma 90.000000
_cell_volume 3265.421371
_symmetry_space_group_name_H-M "C M C 21"
_symmetry_group_IT_number 36
_symmetry_cell_setting 'orthorhombic'
loop_
_space_group_symop_operation_xyz
x,y,z
-x,-y,1/2+z
x,-y,1/2+z
-x,y,z
1/2+x,1/2+y,z
1/2-x,1/2-y,1/2+z
1/2+x,1/2-y,1/2+z
1/2-x,1/2+y,z
loop_
_atom_site_type_symbol
_atom_site_label
_atom_site_fract_x
_atom_site_fract_y
_atom_site_fract_z
Si Si1 0.712971 0.678209 0.116380
Si Si2 0.793944 0.861894 0.758212
Si Si3 0.286526 0.194575 0.543568
Si Si4 0.793833 0.637192 0.407724
Si Si5 0.703371 0.548880 0.047534
Si Si6 0.789285 0.507837 0.905823
Si Si7 0.297922 0.925720 0.126191
Si Si8 0.290553 0.010396 0.757882
O O1 0.500000 0.678453 0.116139
O O2 0.771409 0.675416 0.193388
O O3 0.770058 0.739690 0.075912
O O4 0.768826 0.613213 0.080904
O O5 0.733645 0.841838 0.831658
O O6 0.000000 0.856316 0.758670
O O7 0.750588 0.936176 0.748612
O O8 0.500000 0.195079 0.543549
O O9 0.228632 0.180892 0.467707
O O10 0.226229 0.135377 0.588589
O O11 0.727102 0.564995 0.414192
O O12 0.000000 0.632233 0.417107
O O13 0.500000 0.543408 0.063632
O O14 0.790030 0.486434 0.077892
O O15 0.726928 0.547981 0.968220
O O16 0.732106 0.528949 0.832154
O O17 0.000000 0.507604 0.906771
O O18 0.500000 0.910865 0.138580
O O19 0.220869 0.948305 0.196713
O O20 0.500000 0.014632 0.757061
#
# Coordination Sequence:
#
# PCOD9350584 Si02
#       8
#     8   8   8   8   8   8   8   8
#     4   9  19  33  49  73 103 136 170 201 245 306
#     4  10  18  30  49  74 103 132 163 203 251 304
#     4   9  17  33  54  73  98 133 173 209 244 296
#     4   9  17  31  52  75  96 126 170 213 247 292
#     4  11  20  31  49  75 104 132 164 204 253 305
#     4   9  17  31  48  74 102 127 167 209 250 297
#     4  10  18  32  55  77  95 126 171 214 251 288
#     4   9  18  31  50  75 101 128 166 211 253 298
#
# _framework density 19.599308000000001
#
# number of rings (size 3 to 8) (size 9 to 14) (size 15 to 20)
#    0.000    2.500    2.500    1.500    0.000    2.000 
#    0.000    1.250    0.000    7.500    0.000    0.000 
#    0.000    0.000    0.000    0.000    0.000    0.000 
#
# Total GULP energy -178470.668723 kJ/mol
# GULP energy per Si atom -5577.208398 kJ/mol
# Density = 1.955470 g / cm^3
# Si number density = 19.599308 Si / 1000 Ang^3
#
#
#
# Elastic Constant Matrix: (Units=GPa)
#
#
# Indices 1 2 3 4 5 6 
#
# 1 10.6968 -40.6137 -65.6909 0.0000 0.0000 0.0000
# 2 -40.6137 10.5622 -66.5732 0.0000 0.0000 0.0000
# 3 -65.6909 -66.5732 -36.4371 0.0000 0.0000 0.0000
# 4 0.0000 0.0000 0.0000 28.9476 0.0000 0.0000
# 5 0.0000 0.0000 0.0000 0.0000 17.4473 0.0000
# 6 0.0000 0.0000 0.0000 0.0000 0.0000 9.1299
#
#
#
# Elastic Compliance Matrix: (Units=1/GPa)
#
#
# Indices 1 2 3 4 5 6 
#
# 1 0.012281 -0.007377 -0.008662 0.000000 0.000000 0.000000
# 2 -0.007377 0.011996 -0.008618 0.000000 0.000000 0.000000
# 3 -0.008662 -0.008618 0.003917 0.000000 0.000000 0.000000
# 4 0.000000 0.000000 0.000000 0.034545 0.000000 0.000000
# 5 0.000000 0.000000 0.000000 0.000000 0.057316 0.000000
# 6 0.000000 0.000000 0.000000 0.000000 0.000000 0.109530
#
#
# Mechanical properties :
#
#
# Convention : Reuss Voigt Hill
#
# Bulk Modulus (GPa) = -47.34892 -40.10374 -43.72633
# Shear Modulus (GPa) = 18.39195 21.61827 20.00511
#
# Velocity S-wave (km/s) = 3.06665 3.32477 3.19831
# Velocity P-wave (km/s) = 3.41640 2.40156 2.95290
#
# Compressibility (1/GPa) = -0.02111980
#
# Stress axis : x y z
#
# Youngs Moduli (GPa) = 81.42875 83.36356 255.27572
#
# Poissons Ratio (x) = 0.61496 2.21128
# Poissons Ratio (y) = 0.60068 2.19986
# Poissons Ratio (z) = 0.70536 0.71839
#
# Static dielectric constant tensor:
#      x y z
#    x 1.728750 0.000000 0.000000 
#    y 0.000000 1.657910 0.000000 
#    z 0.000000 0.000000 1.787820 
# 
# From -- ./inp_files/15835.got.cif
#   From: 2010.05.17/outbox.cif.g08.bks.cpg/sg36_8_cif.got.tgz:15835.got - 2010.06.03 17:41:39.
