data_PCOD9350639
_publ_section_title
;
Structure prediction by ZEFSAII (Michael W. Deem and Ramdas Pophale) SiO2 
 PCOD9350639
Probable space group: C M C 21
;
_chemical_formula_sum "Si O2"
_cell_formula_units_Z 52
_cell_length_a 8.025032
_cell_length_b 18.447313
_cell_length_c 13.700889
_cell_angle_alpha 90.000000
_cell_angle_beta 90.000000
_cell_angle_gamma 90.000000
_cell_volume 2028.283405
_symmetry_space_group_name_H-M "C M C 21"
_symmetry_group_IT_number 36
_symmetry_cell_setting 'orthorhombic'
loop_
_space_group_symop_operation_xyz
x,y,z
-x,-y,1/2+z
x,-y,1/2+z
-x,y,z
1/2+x,1/2+y,z
1/2-x,1/2-y,1/2+z
1/2+x,1/2-y,1/2+z
1/2-x,1/2+y,z
loop_
_atom_site_type_symbol
_atom_site_label
_atom_site_fract_x
_atom_site_fract_y
_atom_site_fract_z
Si Si1 0.500000 0.058132 0.478310
Si Si2 0.800373 0.130263 0.238113
Si Si3 0.680644 0.380308 0.395807
Si Si4 0.819797 0.775153 0.145018
Si Si5 0.190296 0.224891 0.412575
Si Si6 0.500000 0.037911 0.808396
Si Si7 0.308803 0.524980 0.078899
Si Si8 0.000000 0.360682 0.147855
O O1 0.500000 0.038940 0.364068
O O2 0.329894 0.023560 0.525339
O O3 0.500000 0.135991 0.529867
O O4 0.770101 0.152409 0.350973
O O5 0.000000 0.137335 0.222489
O O6 0.705123 0.193227 0.180031
O O7 0.761265 0.053490 0.187297
O O8 0.500000 0.405884 0.358960
O O9 0.698302 0.294060 0.387012
O O10 0.835924 0.421587 0.349834
O O11 0.685210 0.403497 0.510031
O O12 0.812818 0.781841 0.028409
O O13 0.000000 0.802365 0.176933
O O14 0.663871 0.820034 0.182061
O O15 0.000000 0.244631 0.384398
O O16 0.500000 0.060341 0.696093
O O17 0.500000 0.494749 0.079657
#
# Coordination Sequence:
#
# PCOD9350639 Si02
#       8
#     4   8   8   8   8   4   8   4
#     4  10  24  44  66  86 114 162 211 260 303 348
#     4  10  19  35  58  90 127 156 196 246 307 366
#     4  10  18  31  57  89 122 156 198 244 296 361
#     4  11  24  39  59  90 130 167 196 245 311 369
#     4  10  20  33  53  86 128 165 186 237 308 369
#     4  10  22  42  64  86 118 162 209 262 299 346
#     4   9  19  36  61  87 114 149 200 258 300 350
#     4  12  26  46  62  88 126 166 208 254 306 370
#
# _framework density 25.637442
#
# number of rings (size 3 to 8) (size 9 to 14) (size 15 to 20)
#    0.000    1.846    3.077    0.923    2.154    3.077 
#    2.769    0.000    0.000    0.000    0.000    0.000 
#    0.000    0.000    0.000    0.000    0.000    0.000 
#
# Total GULP energy -145346.676256 kJ/mol
# GULP energy per Si atom -5590.256779 kJ/mol
# Density = 2.557909 g / cm^3
# Si number density = 25.637442 Si / 1000 Ang^3
#
#
#
# Elastic Constant Matrix: (Units=GPa)
#
#
# Indices 1 2 3 4 5 6 
#
# 1 168.7373 44.1452 9.8965 0.0000 0.0000 0.0000
# 2 44.1452 39.9495 -16.5584 0.0000 0.0000 0.0000
# 3 9.8965 -16.5584 101.4977 0.0000 0.0000 0.0000
# 4 0.0000 0.0000 0.0000 33.6974 0.0000 0.0000
# 5 0.0000 0.0000 0.0000 0.0000 -8.1074 0.0000
# 6 0.0000 0.0000 0.0000 0.0000 0.0000 22.2560
#
#
#
# Elastic Compliance Matrix: (Units=1/GPa)
#
#
# Indices 1 2 3 4 5 6 
#
# 1 0.008964 -0.011012 -0.002671 0.000000 0.000000 0.000000
# 2 -0.011012 0.040376 0.007661 0.000000 0.000000 0.000000
# 3 -0.002671 0.007661 0.011363 0.000000 0.000000 0.000000
# 4 0.000000 0.000000 0.000000 0.029676 0.000000 0.000000
# 5 0.000000 0.000000 0.000000 0.000000 -0.123344 0.000000
# 6 0.000000 0.000000 0.000000 0.000000 0.000000 0.044932
#
#
# Mechanical properties :
#
#
# Convention : Reuss Voigt Hill
#
# Bulk Modulus (GPa) = 20.55170 42.79458 31.67314
# Shear Modulus (GPa) = 124.28414 27.74929 76.01671
#
# Velocity S-wave (km/s) = 6.97014 3.29351 5.45115
# Velocity P-wave (km/s) = 8.53292 5.58493 7.21118
#
# Compressibility (1/GPa) = 0.04865778
#
# Stress axis : x y z
#
# Youngs Moduli (GPa) = 111.55616 24.76729 88.00797
#
# Poissons Ratio (x) = 0.27275 0.23504
# Poissons Ratio (y) = 1.22851 -0.67420
# Poissons Ratio (z) = 0.29792 -0.18973
#
# Static dielectric constant tensor:
#      x y z
#    x 2.018200 0.000000 0.000000 
#    y 0.000000 1.974270 0.000000 
#    z 0.000000 0.000000 2.067190 
# 
# From -- ./inp_files/10610.got.cif
#   From: 2010.05.17/outbox.cif.g08.bks.cpg/sg36_6_cif.got.tgz:10610.got - 2010.06.03 17:41:39.
