data_PCOD9350600
_publ_section_title
;
Structure prediction by ZEFSAII (Michael W. Deem and Ramdas Pophale) SiO2 
 PCOD9350600
Probable space group: C M C 21
;
_chemical_formula_sum "Si O2"
_cell_formula_units_Z 64
_cell_length_a 7.340804
_cell_length_b 25.875851
_cell_length_c 14.547689
_cell_angle_alpha 90.000000
_cell_angle_beta 90.000000
_cell_angle_gamma 90.000000
_cell_volume 2763.326987
_symmetry_space_group_name_H-M "C M C 21"
_symmetry_group_IT_number 36
_symmetry_cell_setting 'orthorhombic'
loop_
_space_group_symop_operation_xyz
x,y,z
-x,-y,1/2+z
x,-y,1/2+z
-x,y,z
1/2+x,1/2+y,z
1/2-x,1/2-y,1/2+z
1/2+x,1/2-y,1/2+z
1/2-x,1/2+y,z
loop_
_atom_site_type_symbol
_atom_site_label
_atom_site_fract_x
_atom_site_fract_y
_atom_site_fract_z
Si Si1 0.217261 0.178284 0.560640
Si Si2 0.792732 0.447199 0.356256
Si Si3 0.277872 0.958687 0.741093
Si Si4 0.723683 0.908793 0.547059
Si Si5 0.780425 0.291289 0.569439
Si Si6 0.715431 0.873046 0.882974
Si Si7 0.279619 0.772659 0.784822
Si Si8 0.279286 0.339001 0.269574
O O1 0.285653 0.235685 0.530201
O O2 0.259062 0.132194 0.491092
O O3 0.278643 0.164976 0.663221
O O4 0.000000 0.183191 0.566127
O O5 0.717035 0.485279 0.277921
O O6 0.713303 0.441406 0.458521
O O7 0.793268 0.389397 0.317720
O O8 0.000000 0.465565 0.370867
O O9 0.500000 0.959111 0.734089
O O10 0.219216 0.935317 0.643051
O O11 0.217848 0.920445 0.823104
O O12 0.500000 0.907757 0.546166
O O13 0.783349 0.848396 0.539952
O O14 0.739590 0.284882 0.678276
O O15 0.000000 0.292537 0.559122
O O16 0.500000 0.872641 0.865952
O O17 0.792390 0.819552 0.843940
O O18 0.500000 0.771761 0.790423
O O19 0.219087 0.715532 0.812597
O O20 0.500000 0.341674 0.272860
#
# Coordination Sequence:
#
# PCOD9350600 Si02
#       8
#     8   8   8   8   8   8   8   8
#     4   9  19  32  49  75 106 139 174 208 253 313
#     4  10  21  33  52  82 103 127 174 223 259 293
#     4   9  18  33  51  75 108 139 170 210 257 309
#     4   9  16  29  49  73 102 134 167 207 254 304
#     4   8  13  26  47  69  96 134 172 201 240 302
#     4  10  18  30  52  78 102 135 174 212 255 300
#     4   8  14  27  48  72  96 129 172 206 242 303
#     4   9  19  36  52  70 103 141 171 205 256 318
#
# _framework density 23.160488999999998
#
# number of rings (size 3 to 8) (size 9 to 14) (size 15 to 20)
#    0.000    3.000    1.250    1.500    1.750    1.500 
#    0.000    3.125    0.000    2.250    0.000    0.000 
#    0.000    0.000    0.000    0.000    0.000    0.000 
#
# Total GULP energy -178534.812644 kJ/mol
# GULP energy per Si atom -5579.212895 kJ/mol
# Density = 2.310777 g / cm^3
# Si number density = 23.160489 Si / 1000 Ang^3
#
#
#
# Elastic Constant Matrix: (Units=GPa)
#
#
# Indices 1 2 3 4 5 6 
#
# 1 86.6753 -0.0125 -1.6116 0.0000 0.0000 0.0000
# 2 -0.0125 88.5215 33.4740 0.0000 0.0000 0.0000
# 3 -1.6116 33.4740 69.7710 0.0000 0.0000 0.0000
# 4 0.0000 0.0000 0.0000 30.5647 0.0000 0.0000
# 5 0.0000 0.0000 0.0000 0.0000 3.1469 0.0000
# 6 0.0000 0.0000 0.0000 0.0000 0.0000 5.3030
#
#
#
# Elastic Compliance Matrix: (Units=1/GPa)
#
#
# Indices 1 2 3 4 5 6 
#
# 1 0.011543 -0.000121 0.000325 0.000000 0.000000 0.000000
# 2 -0.000121 0.013802 -0.006624 0.000000 0.000000 0.000000
# 3 0.000325 -0.006624 0.017518 0.000000 0.000000 0.000000
# 4 0.000000 0.000000 0.000000 0.032717 0.000000 0.000000
# 5 0.000000 0.000000 0.000000 0.000000 0.317772 0.000000
# 6 0.000000 0.000000 0.000000 0.000000 0.000000 0.188572
#
#
# Mechanical properties :
#
#
# Convention : Reuss Voigt Hill
#
# Bulk Modulus (GPa) = 33.30930 34.29639 33.80285
# Shear Modulus (GPa) = 8.26755 22.01079 15.13917
#
# Velocity S-wave (km/s) = 1.89141 3.08613 2.55946
# Velocity P-wave (km/s) = 4.37985 5.24779 4.83334
#
# Compressibility (1/GPa) = 0.03002165
#
# Stress axis : x y z
#
# Youngs Moduli (GPa) = 86.63012 72.45501 57.08320
#
# Poissons Ratio (x) = 0.00878 -0.01854
# Poissons Ratio (y) = 0.01050 0.37814
# Poissons Ratio (z) = -0.02814 0.47997
#
# Static dielectric constant tensor:
#      x y z
#    x 1.920450 0.000000 0.000000 
#    y 0.000000 1.854900 0.000000 
#    z 0.000000 0.000000 1.866830 
# 
# From -- ./inp_files/8026.got.cif
#   From: 2010.05.17/outbox.cif.g08.bks.cpg/sg36_5_cif.got.tgz:8026.got - 2010.06.03 17:41:39.
