data_PCOD9350470
_publ_section_title
;
Structure prediction by ZEFSAII (Michael W. Deem and Ramdas Pophale) SiO2 
 PCOD9350470
Probable space group: C M C 21
;
_chemical_formula_sum "Si O2"
_cell_formula_units_Z 48
_cell_length_a 26.639224
_cell_length_b 11.979664
_cell_length_c 5.535301
_cell_angle_alpha 90.000000
_cell_angle_beta 90.000000
_cell_angle_gamma 90.000000
_cell_volume 1766.474811
_symmetry_space_group_name_H-M "C M C 21"
_symmetry_group_IT_number 36
_symmetry_cell_setting 'orthorhombic'
loop_
_space_group_symop_operation_xyz
x,y,z
-x,-y,1/2+z
x,-y,1/2+z
-x,y,z
1/2+x,1/2+y,z
1/2-x,1/2-y,1/2+z
1/2+x,1/2-y,1/2+z
1/2-x,1/2+y,z
loop_
_atom_site_type_symbol
_atom_site_label
_atom_site_fract_x
_atom_site_fract_y
_atom_site_fract_z
Si Si1 0.444999 0.383105 0.641360
Si Si2 0.943843 0.254731 0.641354
Si Si3 0.203042 0.138910 0.641144
Si Si4 0.306109 0.065786 0.641173
Si Si5 0.915151 0.516744 0.141192
Si Si6 0.835188 0.893157 0.641149
O O1 0.500000 0.440693 0.641319
O O2 0.442297 0.313488 0.391752
O O3 0.391644 0.443191 0.641237
O O4 0.442292 0.313575 0.891068
O O5 0.902607 0.351829 0.641247
O O6 0.000000 0.305663 0.641291
O O7 0.262562 0.159843 0.641163
O O8 0.175917 0.171205 0.891232
O O9 0.198511 0.003599 0.641129
O O10 0.175926 0.171217 0.391044
O O11 0.297006 0.999998 0.391174
O O12 0.367314 0.067454 0.641181
O O13 0.942445 0.499983 0.391187
#
# Coordination Sequence:
#
# PCOD9350470 Si02
#       6
#     8   8   8   8   8   8
#     4  10  21  37  55  74 104 148 178 208 257 316
#     4  10  21  38  56  76 107 141 177 212 258 317
#     4  10  17  30  50  80 101 135 173 225 258 294
#     4  10  16  30  49  78 103 133 167 204 264 318
#     4  10  21  33  56  86 103 135 166 222 266 308
#     4  10  18  30  52  78 102 134 183 211 257 307
#
# _framework density 27.172761000000001
#
# number of rings (size 3 to 8) (size 9 to 14) (size 15 to 20)
#    0.000    2.000    3.333    2.000    0.000    0.667 
#    0.000    3.333    0.000    2.000    0.000    0.000 
#    0.000    0.000    0.000    0.000    0.000    0.000 
#
# Total GULP energy -133902.703791 kJ/mol
# GULP energy per Si atom -5579.279325 kJ/mol
# Density = 2.711091 g / cm^3
# Si number density = 27.172761 Si / 1000 Ang^3
#
#
#
# Elastic Constant Matrix: (Units=GPa)
#
#
# Indices 1 2 3 4 5 6 
#
# 1 175.0329 22.7732 47.1054 0.0000 0.0000 0.0000
# 2 22.7732 35.0034 36.9772 0.0000 0.0000 0.0000
# 3 47.1054 36.9772 316.6296 0.0000 0.0000 0.0000
# 4 0.0000 0.0000 0.0000 40.9419 0.0000 0.0000
# 5 0.0000 0.0000 0.0000 0.0000 23.5926 0.0000
# 6 0.0000 0.0000 0.0000 0.0000 0.0000 -19.9739
#
#
#
# Elastic Compliance Matrix: (Units=1/GPa)
#
#
# Indices 1 2 3 4 5 6 
#
# 1 0.006317 -0.003556 -0.000525 0.000000 0.000000 0.000000
# 2 -0.003556 0.034591 -0.003511 0.000000 0.000000 0.000000
# 3 -0.000525 -0.003511 0.003646 0.000000 0.000000 0.000000
# 4 0.000000 0.000000 0.000000 0.024425 0.000000 0.000000
# 5 0.000000 0.000000 0.000000 0.000000 0.042386 0.000000
# 6 0.000000 0.000000 0.000000 0.000000 0.000000 -0.050065
#
#
# Mechanical properties :
#
#
# Convention : Reuss Voigt Hill
#
# Bulk Modulus (GPa) = 34.04594 82.26419 58.15507
# Shear Modulus (GPa) = 57.95615 36.89945 47.42780
#
# Velocity S-wave (km/s) = 4.62332 3.68904 4.18235
# Velocity P-wave (km/s) = 6.40755 6.96316 6.69113
#
# Compressibility (1/GPa) = 0.02937208
#
# Stress axis : x y z
#
# Youngs Moduli (GPa) = 158.30284 28.90960 274.25172
#
# Poissons Ratio (x) = 0.10279 0.14386
# Poissons Ratio (y) = 0.56288 0.96280
# Poissons Ratio (z) = 0.08304 0.10149
#
# Static dielectric constant tensor:
#      x y z
#    x 2.121380 0.000000 0.000000 
#    y 0.000000 2.153400 0.000000 
#    z 0.000000 0.000000 2.191060 
# 
# From -- ./inp_files/1565.got.cif
#   From: 2010.05.17/outbox.cif.g08.bks.cpg/sg36_1_cif.got.tgz:1565.got - 2010.06.03 17:41:39.
