data_PCOD9350040
_publ_section_title
;
Structure prediction by ZEFSAII (Michael W. Deem and Ramdas Pophale) SiO2 
 PCOD9350040
Probable space group: C M M 2
;
_chemical_formula_sum "Si O2"
_cell_formula_units_Z 56
_cell_length_a 8.500076
_cell_length_b 22.435019
_cell_length_c 14.985328
_cell_angle_alpha 90.000000
_cell_angle_beta 90.000000
_cell_angle_gamma 90.000000
_cell_volume 2857.692557
_symmetry_space_group_name_H-M "C M M 2"
_symmetry_group_IT_number 35
_symmetry_cell_setting 'orthorhombic'
loop_
_space_group_symop_operation_xyz
x,y,z
-x,-y,z
-x,y,z
x,-y,z
1/2+x,1/2+y,z
1/2-x,1/2-y,z
1/2-x,1/2+y,z
1/2+x,1/2-y,z
loop_
_atom_site_type_symbol
_atom_site_label
_atom_site_fract_x
_atom_site_fract_y
_atom_site_fract_z
Si Si1 0.311921 0.110845 0.105650
Si Si2 0.687370 0.373344 0.437162
Si Si3 0.307701 0.931638 0.715647
Si Si4 0.812718 0.685312 0.606737
Si Si5 0.690486 0.068113 0.919814
Si Si6 0.314377 0.500000 0.218208
Si Si7 0.187811 0.813862 0.255429
Si Si8 0.814696 0.500000 0.418109
O O1 0.500000 0.102167 0.108065
O O2 0.265654 0.168277 0.162192
O O3 0.231559 0.056984 0.159463
O O4 0.259453 0.108955 0.002464
O O5 0.500000 0.369001 0.444227
O O6 0.764319 0.326975 0.504721
O O7 0.731755 0.359049 0.334929
O O8 0.743125 0.439932 0.458289
O O9 0.500000 0.932202 0.712459
O O10 0.254713 0.874315 0.658803
O O11 0.257414 0.920849 0.818666
O O12 0.259531 0.000000 0.690776
O O13 0.750000 0.750000 0.636335
O O14 0.000000 0.686685 0.614699
O O15 0.500000 0.070475 0.916543
O O16 0.733756 0.000000 0.943194
O O17 0.500000 0.500000 0.238162
O O18 0.225119 0.500000 0.312538
O O19 0.250000 0.750000 0.283954
O O20 0.000000 0.814367 0.246461
O O21 0.000000 0.500000 0.432331
#
# Coordination Sequence:
#
# PCOD9350040 Si02
#       8
#     8   8   8   8   8   4   8   4
#     4  11  20  33  57  86 114 149 194 239 285 343
#     4  11  24  41  61  86 120 154 191 244 301 350
#     4   8  16  33  58  88 119 149 192 251 306 357
#     4  11  23  39  62  89 118 157 204 249 302 364
#     4   8  14  28  53  86 116 144 186 240 295 347
#     4  12  22  34  52  81 120 155 188 231 282 332
#     4  11  24  40  57  77 110 154 198 242 291 345
#     4  12  24  38  60  89 120 155 198 239 288 352
#
# _framework density 19.596231
#
# number of rings (size 3 to 8) (size 9 to 14) (size 15 to 20)
#    0.000    1.714    2.143    4.286    1.000    2.857 
#    0.000    0.714    0.000    5.143    0.000    0.000 
#    0.000    0.000    0.000    0.000    0.000    0.000 
#
# Total GULP energy -156290.577877 kJ/mol
# GULP energy per Si atom -5581.806353 kJ/mol
# Density = 1.955163 g / cm^3
# Si number density = 19.596231 Si / 1000 Ang^3
#
#
#
# Elastic Constant Matrix: (Units=GPa)
#
#
# Indices 1 2 3 4 5 6 
#
# 1 23.1491 16.8728 12.6823 0.0000 0.0000 0.0000
# 2 16.8728 115.4082 40.1712 0.0000 0.0000 0.0000
# 3 12.6823 40.1712 88.5576 0.0000 0.0000 0.0000
# 4 0.0000 0.0000 0.0000 30.1797 0.0000 0.0000
# 5 0.0000 0.0000 0.0000 0.0000 9.2020 0.0000
# 6 0.0000 0.0000 0.0000 0.0000 0.0000 30.5113
#
#
#
# Elastic Compliance Matrix: (Units=1/GPa)
#
#
# Indices 1 2 3 4 5 6 
#
# 1 0.049849 -0.005704 -0.004552 0.000000 0.000000 0.000000
# 2 -0.005704 0.010942 -0.004147 0.000000 0.000000 0.000000
# 3 -0.004552 -0.004147 0.013825 0.000000 0.000000 0.000000
# 4 0.000000 0.000000 0.000000 0.033135 0.000000 0.000000
# 5 0.000000 0.000000 0.000000 0.000000 0.108672 0.000000
# 6 0.000000 0.000000 0.000000 0.000000 0.000000 0.032775
#
#
# Mechanical properties :
#
#
# Convention : Reuss Voigt Hill
#
# Bulk Modulus (GPa) = 21.82824 40.72973 31.27898
# Shear Modulus (GPa) = 17.04896 24.47117 20.76007
#
# Velocity S-wave (km/s) = 2.95280 3.53763 3.25836
# Velocity P-wave (km/s) = 4.77373 6.12503 5.49111
#
# Compressibility (1/GPa) = 0.04581221
#
# Stress axis : x y z
#
# Youngs Moduli (GPa) = 20.06054 91.38956 72.33307
#
# Poissons Ratio (x) = 0.52126 0.32923
# Poissons Ratio (y) = 0.11442 0.29994
# Poissons Ratio (z) = 0.09131 0.37897
#
# Static dielectric constant tensor:
#      x y z
#    x 1.667780 0.000000 0.000000 
#    y 0.000000 1.663370 0.000000 
#    z 0.000000 0.000000 1.695000 
# 
# From -- ./inp_files/15728.got.cif
#   From: 2010.05.17/outbox.cif.g08.bks.cpg/sg35_8_cif.got.tgz:15728.got - 2010.06.03 17:29:28.
