data_PCOD9350028
_publ_section_title
;
Structure prediction by ZEFSAII (Michael W. Deem and Ramdas Pophale) SiO2 
 PCOD9350028
Probable space group: C M M 2
;
_chemical_formula_sum "Si O2"
_cell_formula_units_Z 40
_cell_length_a 8.855203
_cell_length_b 15.773187
_cell_length_c 14.650925
_cell_angle_alpha 90.000000
_cell_angle_beta 90.000000
_cell_angle_gamma 90.000000
_cell_volume 2046.364621
_symmetry_space_group_name_H-M "C M M 2"
_symmetry_group_IT_number 35
_symmetry_cell_setting 'orthorhombic'
loop_
_space_group_symop_operation_xyz
x,y,z
-x,-y,z
-x,y,z
x,-y,z
1/2+x,1/2+y,z
1/2-x,1/2-y,z
1/2-x,1/2+y,z
1/2+x,1/2-y,z
loop_
_atom_site_type_symbol
_atom_site_label
_atom_site_fract_x
_atom_site_fract_y
_atom_site_fract_z
Si Si1 0.820550 0.839487 0.438330
Si Si2 0.819549 0.500000 0.542639
Si Si3 0.179547 0.836861 0.863668
Si Si4 0.180270 0.399043 0.048217
Si Si5 0.317583 0.500000 0.742982
Si Si6 0.678351 0.897455 0.254289
O O1 0.750000 0.750000 0.467553
O O2 0.747612 0.917071 0.493521
O O3 0.775967 0.855056 0.332697
O O4 0.000000 0.839243 0.449615
O O5 0.766165 0.500000 0.647052
O O6 0.000000 0.500000 0.534289
O O7 0.250000 0.750000 0.828300
O O8 0.000000 0.830431 0.864099
O O9 0.222556 0.917185 0.801935
O O10 0.236585 0.852917 0.966413
O O11 0.210145 0.500000 0.040614
O O12 0.222360 0.372761 0.151152
O O13 0.000000 0.387184 0.039068
O O14 0.500000 0.500000 0.728922
O O15 0.500000 0.878032 0.267810
O O16 0.692430 0.000000 0.260829
#
# Coordination Sequence:
#
# PCOD9350028 Si02
#       6
#     8   4   8   8   4   8
#     4  12  25  42  66  96 129 168 211 259 312 373
#     4  12  26  46  71  96 125 162 203 258 322 382
#     4  11  23  40  63  92 126 164 206 257 308 366
#     4   9  18  34  59  90 125 167 210 255 304 362
#     4  10  24  46  67  90 123 160 203 258 316 374
#     4   9  18  35  60  90 127 168 210 257 308 365
#
# _framework density 19.546858
#
# number of rings (size 3 to 8) (size 9 to 14) (size 15 to 20)
#    0.000    1.600    2.000    4.500    0.000    4.000 
#    0.000    4.000    0.000    0.000    0.000    0.000 
#    0.000    0.000    0.000    0.000    0.000    0.000 
#
# Total GULP energy -111837.329806 kJ/mol
# GULP energy per Si atom -5591.866490 kJ/mol
# Density = 1.950237 g / cm^3
# Si number density = 19.546858 Si / 1000 Ang^3
#
#
#
# Elastic Constant Matrix: (Units=GPa)
#
#
# Indices 1 2 3 4 5 6 
#
# 1 100.3538 76.6512 65.2481 0.0000 0.0000 0.0000
# 2 76.6512 157.5472 78.0707 0.0000 0.0000 0.0000
# 3 65.2481 78.0707 119.1681 0.0000 0.0000 0.0000
# 4 0.0000 0.0000 0.0000 -7.1335 0.0000 0.0000
# 5 0.0000 0.0000 0.0000 0.0000 36.9589 0.0000
# 6 0.0000 0.0000 0.0000 0.0000 0.0000 30.5918
#
#
#
# Elastic Compliance Matrix: (Units=1/GPa)
#
#
# Indices 1 2 3 4 5 6 
#
# 1 0.018579 -0.005920 -0.006294 0.000000 0.000000 0.000000
# 2 -0.005920 0.011285 -0.004152 0.000000 0.000000 0.000000
# 3 -0.006294 -0.004152 0.014557 0.000000 0.000000 0.000000
# 4 0.000000 0.000000 0.000000 -0.140184 0.000000 0.000000
# 5 0.000000 0.000000 0.000000 0.000000 0.027057 0.000000
# 6 0.000000 0.000000 0.000000 0.000000 0.000000 0.032688
#
#
# Mechanical properties :
#
#
# Convention : Reuss Voigt Hill
#
# Bulk Modulus (GPa) = 85.54544 90.77878 88.16211
# Shear Modulus (GPa) = 8184.90155 22.55674 4103.72914
#
# Velocity S-wave (km/s) = 64.77973 3.40072 45.86926
# Velocity P-wave (km/s) = 75.09379 7.87161 53.39026
#
# Compressibility (1/GPa) = 0.01168969
#
# Stress axis : x y z
#
# Youngs Moduli (GPa) = 53.82446 88.61349 68.69318
#
# Poissons Ratio (x) = 0.52462 0.43235
# Poissons Ratio (y) = 0.31866 0.28519
# Poissons Ratio (z) = 0.33877 0.36789
#
# Static dielectric constant tensor:
#      x y z
#    x 1.648380 0.000000 0.000000 
#    y 0.000000 1.694470 0.000000 
#    z 0.000000 0.000000 1.665160 
# 
# From -- ./inp_files/14741.got.cif
#   From: 2010.05.17/outbox.cif.g08.bks.cpg/sg35_8_cif.got.tgz:14741.got - 2010.06.03 17:29:28.
