data_PCOD9350136
_publ_section_title
;
Structure prediction by ZEFSAII (Michael W. Deem and Ramdas Pophale) SiO2 
 PCOD9350136
Probable space group: C M M 2
;
_chemical_formula_sum "Si O2"
_cell_formula_units_Z 48
_cell_length_a 31.043855
_cell_length_b 10.427515
_cell_length_c 7.455964
_cell_angle_alpha 90.000000
_cell_angle_beta 90.000000
_cell_angle_gamma 90.000000
_cell_volume 2413.572072
_symmetry_space_group_name_H-M "C M M 2"
_symmetry_group_IT_number 35
_symmetry_cell_setting 'orthorhombic'
loop_
_space_group_symop_operation_xyz
x,y,z
-x,-y,z
-x,y,z
x,-y,z
1/2+x,1/2+y,z
1/2-x,1/2-y,z
1/2-x,1/2+y,z
1/2+x,1/2-y,z
loop_
_atom_site_type_symbol
_atom_site_label
_atom_site_fract_x
_atom_site_fract_y
_atom_site_fract_z
Si Si1 0.617461 0.645272 0.520740
Si Si2 0.117461 0.145272 0.950853
Si Si3 0.783441 0.145047 0.021229
Si Si4 0.549263 0.854099 0.954641
Si Si5 0.716559 0.354953 0.450364
Si Si6 0.450737 0.145901 0.516952
O O1 0.610580 0.500000 0.452494
O O2 0.612680 0.640489 0.735797
O O3 0.666920 0.681286 0.483500
O O4 0.583393 0.749272 0.453439
O O5 0.083394 0.249272 0.018154
O O6 0.110580 0.000000 0.019100
O O7 0.166920 0.181285 0.988093
O O8 0.750000 0.250000 0.950840
O O9 0.777706 0.139010 0.235797
O O10 0.776930 0.000000 0.951198
O O11 0.500000 0.825405 0.007934
O O12 0.549913 0.853431 0.735797
O O13 0.559581 0.000000 0.009920
O O14 0.723069 0.500000 0.520395
O O15 0.750000 0.250000 0.520754
O O16 0.500000 0.174594 0.463659
O O17 0.440419 0.000000 0.461673
#
# Coordination Sequence:
#
# PCOD9350136 Si02
#       6
#     8   8   8   8   8   8
#     4   9  17  28  43  65  89 110 137 175 213 246
#     4   9  17  28  43  65  89 110 137 175 213 246
#     4   9  18  32  47  62  83 112 143 173 208 252
#     4   8  14  25  41  62  88 115 141 170 206 248
#     4   9  18  32  47  62  83 112 143 173 208 252
#     4   8  14  25  41  62  88 115 141 170 206 248
#
# _framework density 19.887536000000001
#
# number of rings (size 3 to 8) (size 9 to 14) (size 15 to 20)
#    0.000    3.333    0.000    1.000    0.000    2.667 
#    0.000    3.333    0.000    1.000    0.000    7.000 
#    0.000    0.000    0.000    0.000    0.000    0.000 
#
# Total GULP energy -133837.450329 kJ/mol
# GULP energy per Si atom -5576.560430 kJ/mol
# Density = 1.984227 g / cm^3
# Si number density = 19.887536 Si / 1000 Ang^3
#
#
#
# Elastic Constant Matrix: (Units=GPa)
#
#
# Indices 1 2 3 4 5 6 
#
# 1 186.6685 167.4286 0.1969 0.0000 0.0000 0.0000
# 2 167.4286 172.8953 6.2482 0.0000 0.0000 0.0000
# 3 0.1969 6.2482 60.0562 0.0000 0.0000 0.0000
# 4 0.0000 0.0000 0.0000 -2.6798 0.0000 0.0000
# 5 0.0000 0.0000 0.0000 0.0000 29.6754 0.0000
# 6 0.0000 0.0000 0.0000 0.0000 0.0000 37.7100
#
#
#
# Elastic Compliance Matrix: (Units=1/GPa)
#
#
# Indices 1 2 3 4 5 6 
#
# 1 0.041734 -0.040562 0.004083 0.000000 0.000000 0.000000
# 2 -0.040562 0.045229 -0.004573 0.000000 0.000000 0.000000
# 3 0.004083 -0.004573 0.017113 0.000000 0.000000 0.000000
# 4 0.000000 0.000000 0.000000 -0.373156 0.000000 0.000000
# 5 0.000000 0.000000 0.000000 0.000000 0.033698 0.000000
# 6 0.000000 0.000000 0.000000 0.000000 0.000000 0.026518
#
#
# Mechanical properties :
#
#
# Convention : Reuss Voigt Hill
#
# Bulk Modulus (GPa) = 45.50978 85.26307 65.38643
# Shear Modulus (GPa) = -41.86371 29.32419 -6.26976
#
# Velocity S-wave (km/s) = -4.59303 3.84409 -1.77748
# Velocity P-wave (km/s) = 2.27918 7.91634 5.36068
#
# Compressibility (1/GPa) = 0.02197330
#
# Stress axis : x y z
#
# Youngs Moduli (GPa) = 23.96100 22.10970 58.43369
#
# Poissons Ratio (x) = 0.89682 -0.23860
# Poissons Ratio (y) = 0.97192 0.26720
# Poissons Ratio (z) = -0.09784 0.10110
#
# Static dielectric constant tensor:
#      x y z
#    x 1.654010 0.000000 0.000000 
#    y 0.000000 1.702300 0.000000 
#    z 0.000000 0.000000 1.750040 
# 
# From -- ./inp_files/6248.got.cif
#   From: 2010.05.17/outbox.cif.g08.bks.cpg/sg35_4_cif.got.tgz:6248.got - 2010.06.03 17:29:28.
