data_PCOD9350168
_publ_section_title
;
Structure prediction by ZEFSAII (Michael W. Deem and Ramdas Pophale) SiO2 
 PCOD9350168
Probable space group: C M M 2
;
_chemical_formula_sum "Si O2"
_cell_formula_units_Z 32
_cell_length_a 9.000000
_cell_length_b 30.000000
_cell_length_c 15.000000
_cell_angle_alpha 90.000000
_cell_angle_beta 90.000000
_cell_angle_gamma 90.000000
_cell_volume 4050.000000
_symmetry_space_group_name_H-M "C M M 2"
_symmetry_group_IT_number 35
_symmetry_cell_setting 'orthorhombic'
loop_
_space_group_symop_operation_xyz
x,y,z
-x,-y,z
-x,y,z
x,-y,z
1/2+x,1/2+y,z
1/2-x,1/2-y,z
1/2-x,1/2+y,z
1/2+x,1/2-y,z
loop_
_atom_site_type_symbol
_atom_site_label
_atom_site_fract_x
_atom_site_fract_y
_atom_site_fract_z
Si Si1 0.176502 0.052288 0.885060
Si Si2 0.322754 0.392879 0.412200
Si Si3 0.322272 0.703768 0.473050
Si Si4 0.173495 0.447552 0.261658
Si Si5 0.334645 0.553733 0.087959
Si Si6 0.822838 0.203492 0.684360
Si Si7 0.676425 0.112932 0.740156
Si Si8 0.178353 0.551649 0.570379
O O1 0.269614 0.084408 0.823384
O O2 0.000000 0.055151 0.865095
O O3 0.218793 0.000000 0.875154
O O4 0.196732 0.066964 0.987252
O O5 0.500000 0.393030 0.419657
O O6 0.271967 0.341746 0.425709
O O7 0.269500 0.415071 0.321615
O O8 0.254914 0.424502 0.487837
O O9 0.500000 0.707494 0.464278
O O10 0.250000 0.750000 0.442080
O O11 0.288375 0.698557 0.578525
O O12 0.213011 0.500000 0.276248
O O13 0.210941 0.435785 0.159919
O O14 0.000000 0.442914 0.281852
O O15 0.500000 0.569568 0.114905
O O16 0.342746 0.500000 0.084660
O O17 0.750000 0.250000 0.714019
O O18 0.757298 0.160185 0.731847
O O19 0.000000 0.205428 0.694241
O O20 0.500000 0.119918 0.740864
O O21 0.714239 0.081657 0.655727
O O22 0.223823 0.500000 0.580646
O O23 0.000000 0.552126 0.558135
#
# Coordination Sequence:
#
# PCOD9350168 Si02
#       8
#     8   8   8   8   8   8   8   8
#     4   9  18  32  50  72  99 131 166 204 245 289
#     4  11  21  33  48  70  95 125 163 200 239 287
#     4   9  19  33  50  70  92 119 157 201 245 287
#     4  10  20  32  47  70  99 130 163 199 240 286
#     4   8  15  30  50  70  93 124 162 203 245 285
#     4  10  19  34  52  71  95 123 162 207 250 293
#     4  11  21  32  48  71  99 132 166 201 244 291
#     4  10  21  34  45  62  94 133 168 199 232 275
#
# _framework density 7.9012349999999998
#
# number of rings (size 3 to 8) (size 9 to 14) (size 15 to 20)
#    0.000    2.250    1.250    3.000    0.000    5.750 
#    0.000    1.250    0.000    0.000    0.000    0.875 
#    0.000    4.000    0.000    0.000    0.000    0.000 
#
# Total GULP energy -178382.110757 kJ/mol
# GULP energy per Si atom -5574.440961 kJ/mol
# Density = 0.788325 g / cm^3
# Si number density = 7.901235 Si / 1000 Ang^3
#
#
#
# Elastic Constant Matrix: (Units=GPa)
#
#
# Indices 1 2 3 4 5 6 
#
# 1 -5.2938 25.4100 12.3986 0.0000 0.0000 0.0000
# 2 25.4100 104.7755 19.8074 0.0000 0.0000 0.0000
# 3 12.3986 19.8074 36.4748 0.0000 0.0000 0.0000
# 4 0.0000 0.0000 0.0000 589.6788 0.0000 0.0000
# 5 0.0000 0.0000 0.0000 0.0000 23.8544 0.0000
# 6 0.0000 0.0000 0.0000 0.0000 0.0000 25.8557
#
#
#
# Elastic Compliance Matrix: (Units=1/GPa)
#
#
# Indices 1 2 3 4 5 6 
#
# 1 -0.075651 0.015028 0.017555 0.000000 0.000000 0.000000
# 2 0.015028 0.007651 -0.009263 0.000000 0.000000 0.000000
# 3 0.017555 -0.009263 0.026479 0.000000 0.000000 0.000000
# 4 0.000000 0.000000 0.000000 0.001696 0.000000 0.000000
# 5 0.000000 0.000000 0.000000 0.000000 0.041921 0.000000
# 6 0.000000 0.000000 0.000000 0.000000 0.000000 0.038676
#
#
# Mechanical properties :
#
#
# Convention : Reuss Voigt Hill
#
# Bulk Modulus (GPa) = 195.37672 27.90985 111.64328
# Shear Modulus (GPa) = -1201.67653 133.10047 -534.28803
#
# Velocity S-wave (km/s) = -27.60592 9.18752 -18.40756
# Velocity P-wave (km/s) = 29.86989 11.41260 19.51875
#
# Compressibility (1/GPa) = 0.00511832
#
# Stress axis : x y z
#
# Youngs Moduli (GPa) = -13.21862 130.70572 37.76545
#
# Poissons Ratio (x) = -1.96426 -0.66296
# Poissons Ratio (y) = 0.19865 0.34983
# Poissons Ratio (z) = 0.23205 1.21074
#
# Static dielectric constant tensor:
#      x y z
#    x 1.534390 0.000000 0.000000 
#    y 0.000000 1.500190 0.000000 
#    z 0.000000 0.000000 1.548730 
# 
# From -- ./inp_files/15971.got.cif
#   From: 2010.05.17/outbox.ucp.g08.bks.cvg/sg35_8_cif.got.tgz:15971.got - 2010.06.11 10:36:28.
