data_PCOD9350369
_publ_section_title
;
Structure prediction by ZEFSAII (Michael W. Deem and Ramdas Pophale) SiO2 
 PCOD9350369
Probable space group: C M M 2
;
_chemical_formula_sum "Si O2"
_cell_formula_units_Z 64
_cell_length_a 29.529303
_cell_length_b 8.322444
_cell_length_c 16.214550
_cell_angle_alpha 90.000000
_cell_angle_beta 90.000000
_cell_angle_gamma 90.000000
_cell_volume 3984.822473
_symmetry_space_group_name_H-M "C M M 2"
_symmetry_group_IT_number 35
_symmetry_cell_setting 'orthorhombic'
loop_
_space_group_symop_operation_xyz
x,y,z
-x,-y,z
-x,y,z
x,-y,z
1/2+x,1/2+y,z
1/2-x,1/2-y,z
1/2-x,1/2+y,z
1/2+x,1/2-y,z
loop_
_atom_site_type_symbol
_atom_site_label
_atom_site_fract_x
_atom_site_fract_y
_atom_site_fract_z
Si Si1 0.802003 0.305539 0.736730
Si Si2 0.449496 0.195843 0.506780
Si Si3 0.697927 0.192165 0.917828
Si Si4 0.801658 0.807005 0.415439
Si Si5 0.644163 0.306525 0.252818
Si Si6 0.550762 0.193736 0.315182
Si Si7 0.855532 0.305705 0.576370
Si Si8 0.801971 0.808111 0.092774
O O1 0.801632 0.500000 0.735584
O O2 0.750000 0.250000 0.726992
O O3 0.819580 0.255493 0.827713
O O4 0.832342 0.247766 0.660652
O O5 0.500000 0.248346 0.532045
O O6 0.442406 0.243269 0.411042
O O7 0.406929 0.250881 0.560379
O O8 0.449595 0.000000 0.507908
O O9 0.750000 0.250000 0.917831
O O10 0.696885 0.000000 0.921346
O O11 0.678641 0.256787 0.003669
O O12 0.750000 0.750000 0.411849
O O13 0.828885 0.749828 0.334347
O O14 0.825776 0.743973 0.497734
O O15 0.802589 0.000000 0.416773
O O16 0.646498 0.500000 0.252476
O O17 0.592105 0.257102 0.261801
O O18 0.668668 0.247646 0.169901
O O19 0.500000 0.245284 0.290559
O O20 0.551705 0.000000 0.313822
O O21 0.856329 0.500000 0.579299
O O22 0.750000 0.750000 0.100176
O O23 0.800914 0.000000 0.094961
#
# Coordination Sequence:
#
# PCOD9350369 Si02
#       8
#     8   8   8   8   8   8   8   8
#     4   9  18  29  43  64  89 117 149 182 222 266
#     4   8  14  26  45  67  88 112 146 186 223 260
#     4   9  16  28  44  63  86 113 146 186 228 268
#     4  11  22  33  43  60  89 123 155 183 215 258
#     4  10  21  33  45  65  92 120 151 186 224 266
#     4   9  17  30  49  70  89 114 151 190 226 266
#     4  10  18  30  47  66  89 120 152 185 221 262
#     4  10  19  31  46  66  90 118 153 188 224 269
#
# _framework density 16.060941
#
# number of rings (size 3 to 8) (size 9 to 14) (size 15 to 20)
#    0.000    2.500    1.250    3.375    0.000    3.750 
#    0.000    0.000    0.000    0.375    0.000    0.875 
#    0.000    3.000    0.000    0.000    0.000    0.000 
#
# Total GULP energy -178331.030034 kJ/mol
# GULP energy per Si atom -5572.844689 kJ/mol
# Density = 1.602439 g / cm^3
# Si number density = 16.060941 Si / 1000 Ang^3
#
#
#
# Elastic Constant Matrix: (Units=GPa)
#
#
# Indices 1 2 3 4 5 6 
#
# 1 117.4488 9.0773 77.9265 0.0000 0.0000 0.0000
# 2 9.0773 13.1282 18.5152 0.0000 0.0000 0.0000
# 3 77.9265 18.5152 156.7537 0.0000 0.0000 0.0000
# 4 0.0000 0.0000 0.0000 17.3636 0.0000 0.0000
# 5 0.0000 0.0000 0.0000 0.0000 8.6229 0.0000
# 6 0.0000 0.0000 0.0000 0.0000 0.0000 15.5206
#
#
#
# Elastic Compliance Matrix: (Units=1/GPa)
#
#
# Indices 1 2 3 4 5 6 
#
# 1 0.012705 0.000148 -0.006334 0.000000 0.000000 0.000000
# 2 0.000148 0.091399 -0.010869 0.000000 0.000000 0.000000
# 3 -0.006334 -0.010869 0.010812 0.000000 0.000000 0.000000
# 4 0.000000 0.000000 0.000000 0.057592 0.000000 0.000000
# 5 0.000000 0.000000 0.000000 0.000000 0.115970 0.000000
# 6 0.000000 0.000000 0.000000 0.000000 0.000000 0.064431
#
#
# Mechanical properties :
#
#
# Convention : Reuss Voigt Hill
#
# Bulk Modulus (GPa) = 12.37534 55.37433 33.87483
# Shear Modulus (GPa) = 12.07863 20.42218 16.25040
#
# Velocity S-wave (km/s) = 2.74533 3.56974 3.18433
# Velocity P-wave (km/s) = 4.21557 7.17936 5.88703
#
# Compressibility (1/GPa) = 0.08080588
#
# Stress axis : x y z
#
# Youngs Moduli (GPa) = 78.70793 10.94104 92.49128
#
# Poissons Ratio (x) = -0.00161 0.58580
# Poissons Ratio (y) = -0.01161 1.00530
# Poissons Ratio (z) = 0.49850 0.11892
#
# Static dielectric constant tensor:
#      x y z
#    x 1.523620 0.000000 0.000000 
#    y 0.000000 1.560140 0.000000 
#    z 0.000000 0.000000 1.561080 
# 
# From -- ./inp_files/16224.got.cif
#   From: 2010.05.17/outbox.cif.g08.bks.cpg/sg35_9_cif.got.tgz:16224.got - 2010.06.03 17:29:28.
