data_PCOD9350114
_publ_section_title
;
Structure prediction by ZEFSAII (Michael W. Deem and Ramdas Pophale) SiO2 
 PCOD9350114
Probable space group: C M M 2
;
_chemical_formula_sum "Si O2"
_cell_formula_units_Z 40
_cell_length_a 17.278193
_cell_length_b 7.863223
_cell_length_c 15.251864
_cell_angle_alpha 90.000000
_cell_angle_beta 90.000000
_cell_angle_gamma 90.000000
_cell_volume 2072.153087
_symmetry_space_group_name_H-M "C M M 2"
_symmetry_group_IT_number 35
_symmetry_cell_setting 'orthorhombic'
loop_
_space_group_symop_operation_xyz
x,y,z
-x,-y,z
-x,y,z
x,-y,z
1/2+x,1/2+y,z
1/2-x,1/2-y,z
1/2-x,1/2+y,z
1/2+x,1/2-y,z
loop_
_atom_site_type_symbol
_atom_site_label
_atom_site_fract_x
_atom_site_fract_y
_atom_site_fract_z
Si Si1 0.910052 0.700705 0.607250
Si Si2 0.094752 0.500000 0.913856
Si Si3 0.905502 0.812744 0.794268
Si Si4 0.407949 0.000000 0.114170
Si Si5 0.660388 0.296277 0.231686
Si Si6 0.911246 0.204139 0.419080
O O1 0.910680 0.500000 0.624208
O O2 0.877140 0.786388 0.694385
O O3 0.875974 0.733933 0.511172
O O4 0.000000 0.759716 0.599657
O O5 0.119931 0.334913 0.859271
O O6 0.000000 0.500000 0.914568
O O7 0.121534 0.500000 0.014012
O O8 0.000000 0.802358 0.789864
O O9 0.884606 0.000000 0.825676
O O10 0.382169 0.170435 0.164731
O O11 0.500000 0.000000 0.111198
O O12 0.647516 0.500000 0.217781
O O13 0.750000 0.250000 0.224411
O O14 0.632788 0.251778 0.330307
O O15 0.000000 0.268494 0.411909
O O16 0.913753 0.000000 0.423889
#
# Coordination Sequence:
#
# PCOD9350114 Si02
#       6
#     8   4   8   4   8   8
#     4   9  15  23  40  70 108 147 184 223 275 341
#     4   9  18  32  47  75 111 142 185 238 294 345
#     4   9  15  25  43  67 105 149 181 220 282 346
#     4  11  24  40  63  91 120 152 197 260 311 351
#     4  11  23  41  62  85 118 157 204 244 298 365
#     4   9  18  31  49  78 114 149 190 238 285 339
#
# _framework density 19.303592999999999
#
# number of rings (size 3 to 8) (size 9 to 14) (size 15 to 20)
#    0.000    2.400    2.000    1.200    1.400    4.400 
#    0.000    2.000    0.000    0.000    0.000    1.400 
#    0.000    0.000    0.000    0.000    0.000    0.000 
#
# Total GULP energy -111514.115556 kJ/mol
# GULP energy per Si atom -5575.705778 kJ/mol
# Density = 1.925966 g / cm^3
# Si number density = 19.303593 Si / 1000 Ang^3
#
#
#
# Elastic Constant Matrix: (Units=GPa)
#
#
# Indices 1 2 3 4 5 6 
#
# 1 25.8763 15.1627 21.2905 0.0000 0.0000 0.0000
# 2 15.1627 129.7751 92.8466 0.0000 0.0000 0.0000
# 3 21.2905 92.8466 169.1533 0.0000 0.0000 0.0000
# 4 0.0000 0.0000 0.0000 -322.0992 0.0000 0.0000
# 5 0.0000 0.0000 0.0000 0.0000 -10.8405 0.0000
# 6 0.0000 0.0000 0.0000 0.0000 0.0000 10.9245
#
#
#
# Elastic Compliance Matrix: (Units=1/GPa)
#
#
# Indices 1 2 3 4 5 6 
#
# 1 0.043397 -0.001914 -0.004411 0.000000 0.000000 0.000000
# 2 -0.001914 0.012773 -0.006770 0.000000 0.000000 0.000000
# 3 -0.004411 -0.006770 0.010183 0.000000 0.000000 0.000000
# 4 0.000000 0.000000 0.000000 -0.003105 0.000000 0.000000
# 5 0.000000 0.000000 0.000000 0.000000 -0.092246 0.000000
# 6 0.000000 0.000000 0.000000 0.000000 0.000000 0.091538
#
#
# Mechanical properties :
#
#
# Convention : Reuss Voigt Hill
#
# Bulk Modulus (GPa) = 24.89958 64.82270 44.86114
# Shear Modulus (GPa) = 48.96306 -51.36940 -1.20317
#
# Velocity S-wave (km/s) = 5.04181 -5.16421 -0.79034
# Velocity P-wave (km/s) = 6.84251 1.38031 4.73892
#
# Compressibility (1/GPa) = 0.04016132
#
# Stress axis : x y z
#
# Youngs Moduli (GPa) = 23.04316 78.29142 98.20311
#
# Poissons Ratio (x) = 0.14988 0.43321
# Poissons Ratio (y) = 0.04411 0.66483
# Poissons Ratio (z) = 0.10165 0.53003
#
# Static dielectric constant tensor:
#      x y z
#    x 1.665100 0.000000 0.000000 
#    y 0.000000 1.802050 0.000000 
#    z 0.000000 0.000000 1.683900 
# 
# From -- ./inp_files/13806.got.cif
#   From: 2010.05.17/outbox.cif.g08.bks.cpg/sg35_7_cif.got.tgz:13806.got - 2010.06.03 17:29:28.
