data_PCOD9350207
_publ_section_title
;
Structure prediction by ZEFSAII (Michael W. Deem and Ramdas Pophale) SiO2 
 PCOD9350207
Probable space group: C M M 2
;
_chemical_formula_sum "Si O2"
_cell_formula_units_Z 24
_cell_length_a 9.000000
_cell_length_b 30.000000
_cell_length_c 9.000000
_cell_angle_alpha 90.000000
_cell_angle_beta 90.000000
_cell_angle_gamma 90.000000
_cell_volume 2430.000000
_symmetry_space_group_name_H-M "C M M 2"
_symmetry_group_IT_number 35
_symmetry_cell_setting 'orthorhombic'
loop_
_space_group_symop_operation_xyz
x,y,z
-x,-y,z
-x,y,z
x,-y,z
1/2+x,1/2+y,z
1/2-x,1/2-y,z
1/2-x,1/2+y,z
1/2+x,1/2-y,z
loop_
_atom_site_type_symbol
_atom_site_label
_atom_site_fract_x
_atom_site_fract_y
_atom_site_fract_z
Si Si1 0.175148 0.373051 0.633440
Si Si2 0.169614 0.050754 0.474977
Si Si3 0.825354 0.952749 0.119993
Si Si4 0.320266 0.700665 0.432374
Si Si5 0.322180 0.798382 0.129583
Si Si6 0.821898 0.868976 0.941136
O O1 0.207753 0.415656 0.531761
O O2 0.249561 0.330199 0.557167
O O3 0.271403 0.382030 0.778879
O O4 0.000000 0.366731 0.659505
O O5 0.178668 0.049612 0.296954
O O6 0.000000 0.065464 0.512967
O O7 0.187986 0.000000 0.529285
O O8 0.000000 0.953613 0.077890
O O9 0.757809 0.000000 0.071790
O O10 0.766470 0.908425 0.047734
O O11 0.500000 0.701757 0.434412
O O12 0.250000 0.750000 0.445321
O O13 0.258949 0.681822 0.275519
O O14 0.500000 0.796677 0.147874
O O15 0.250000 0.750000 0.116041
O O16 0.269257 0.825785 0.988663
O O17 0.000000 0.862012 0.954002
#
# Coordination Sequence:
#
# PCOD9350207 Si02
#       6
#     8   8   8   8   8   8
#     4  12  25  39  55  82 120 158 195 240 295 348
#     4   9  18  36  62  88 113 147 193 242 292 348
#     4   8  16  33  59  87 111 140 185 237 283 333
#     4  11  22  40  64  89 115 148 192 239 289 345
#     4  11  22  39  62  89 118 150 190 236 287 341
#     4  11  22  37  58  85 117 155 196 238 287 343
#
# _framework density 9.8765429999999999
#
# number of rings (size 3 to 8) (size 9 to 14) (size 15 to 20)
#    0.000    1.667    0.000    8.000    0.000    3.000 
#    0.000    5.833    0.000    3.500    0.000    0.000 
#    0.000    0.000    0.000    0.000    0.000    0.000 
#
# Total GULP energy -133863.970959 kJ/mol
# GULP energy per Si atom -5577.665457 kJ/mol
# Density = 0.985406 g / cm^3
# Si number density = 9.876543 Si / 1000 Ang^3
#
#
#
# Elastic Constant Matrix: (Units=GPa)
#
#
# Indices 1 2 3 4 5 6 
#
# 1 114.8586 25.7727 7.6174 0.0000 0.0000 0.0000
# 2 25.7727 61.6525 22.0400 0.0000 0.0000 0.0000
# 3 7.6174 22.0400 16.8198 0.0000 0.0000 0.0000
# 4 0.0000 0.0000 0.0000 134.4043 0.0000 0.0000
# 5 0.0000 0.0000 0.0000 0.0000 23.9971 0.0000
# 6 0.0000 0.0000 0.0000 0.0000 0.0000 24.2299
#
#
#
# Elastic Compliance Matrix: (Units=1/GPa)
#
#
# Indices 1 2 3 4 5 6 
#
# 1 0.009634 -0.004642 0.001720 0.000000 0.000000 0.000000
# 2 -0.004642 0.032750 -0.040813 0.000000 0.000000 0.000000
# 3 0.001720 -0.040813 0.112154 0.000000 0.000000 0.000000
# 4 0.000000 0.000000 0.000000 0.007440 0.000000 0.000000
# 5 0.000000 0.000000 0.000000 0.000000 0.041672 0.000000
# 6 0.000000 0.000000 0.000000 0.000000 0.000000 0.041271
#
#
# Mechanical properties :
#
#
# Convention : Reuss Voigt Hill
#
# Bulk Modulus (GPa) = 14.91011 33.79899 24.35455
# Shear Modulus (GPa) = 14.09454 45.71965 29.90710
#
# Velocity S-wave (km/s) = 2.67411 4.81620 3.89530
# Velocity P-wave (km/s) = 4.13511 6.93366 5.70854
#
# Compressibility (1/GPa) = 0.06706858
#
# Stress axis : x y z
#
# Youngs Moduli (GPa) = 103.79981 30.53392 8.91633
#
# Poissons Ratio (x) = 0.14174 -0.01533
# Poissons Ratio (y) = 0.48185 0.36390
# Poissons Ratio (z) = -0.17851 1.24617
#
# Static dielectric constant tensor:
#      x y z
#    x 1.647860 0.000000 0.000000 
#    y 0.000000 1.765480 0.000000 
#    z 0.000000 0.000000 1.784160 
# 
# From -- ./inp_files/5299.got.cif
#   From: 2010.05.17/outbox.ucp.g08.bks.cvg/sg35_3_cif.got.tgz:5299.got - 2010.06.11 10:36:28.
