data_PCOD9350909
_publ_section_title
;
Structure prediction by ZEFSAII (Michael W. Deem and Ramdas Pophale) SiO2 
 PCOD9350909
Probable space group: C M C 21
;
_chemical_formula_sum "Si O2"
_cell_formula_units_Z 64
_cell_length_a 13.144814
_cell_length_b 14.881866
_cell_length_c 14.703335
_cell_angle_alpha 90.000000
_cell_angle_beta 90.000000
_cell_angle_gamma 90.000000
_cell_volume 2876.256991
_symmetry_space_group_name_H-M "C M C 21"
_symmetry_group_IT_number 36
_symmetry_cell_setting 'orthorhombic'
loop_
_space_group_symop_operation_xyz
x,y,z
-x,-y,1/2+z
x,-y,1/2+z
-x,y,z
1/2+x,1/2+y,z
1/2-x,1/2-y,1/2+z
1/2+x,1/2-y,1/2+z
1/2-x,1/2+y,z
loop_
_atom_site_type_symbol
_atom_site_label
_atom_site_fract_x
_atom_site_fract_y
_atom_site_fract_z
Si Si1 0.677173 0.722602 0.056070
Si Si2 0.615500 0.920078 0.110961
Si Si3 0.617430 0.359229 0.727926
Si Si4 0.622660 0.553048 0.711000
Si Si5 0.878688 0.252688 0.480612
Si Si6 0.120720 0.117621 0.893934
Si Si7 0.123153 0.666271 0.790213
Si Si8 0.193880 0.055770 0.504463
O O1 0.625673 0.815311 0.083595
O O2 0.625862 0.647781 0.118548
O O3 0.799993 0.722561 0.061447
O O4 0.654180 0.702063 0.952211
O O5 0.500000 0.952477 0.105681
O O6 0.650834 0.912456 0.217435
O O7 0.689687 0.962595 0.036070
O O8 0.500000 0.358937 0.758601
O O9 0.661711 0.456259 0.747229
O O10 0.663455 0.264749 0.758887
O O11 0.500000 0.548122 0.713456
O O12 0.654634 0.622352 0.789246
O O13 0.647670 0.567597 0.606163
O O14 0.864231 0.325686 0.399057
O O15 0.837978 0.150788 0.457054
O O16 0.000000 0.247792 0.499992
O O17 0.000000 0.113609 0.895711
O O18 0.157965 0.027564 0.944947
O O19 0.000000 0.668521 0.776985
#
# Coordination Sequence:
#
# PCOD9350909 Si02
#       8
#     8   8   8   8   8   8   8   8
#     4  10  19  31  52  75  98 135 168 211 255 306
#     4   9  19  35  55  77 102 138 179 216 257 310
#     4   9  15  29  50  72  98 130 168 208 252 304
#     4  10  20  31  50  78 108 136 168 219 271 313
#     4  10  20  33  50  76 108 137 170 215 264 313
#     4  11  21  34  54  80 107 136 175 219 267 317
#     4   8  15  29  51  74  98 132 174 212 249 303
#     4  11  21  34  55  80 107 140 173 222 270 314
#
# _framework density 22.251141000000001
#
# number of rings (size 3 to 8) (size 9 to 14) (size 15 to 20)
#    0.000    2.250    1.250    3.750    1.750    2.000 
#    0.000    0.625    0.000    0.750    0.000    0.000 
#    0.000    0.000    0.000    0.000    0.000    0.000 
#
# Total GULP energy -178164.438376 kJ/mol
# GULP energy per Si atom -5567.638699 kJ/mol
# Density = 2.220050 g / cm^3
# Si number density = 22.251141 Si / 1000 Ang^3
#
#
#
# Elastic Constant Matrix: (Units=GPa)
#
#
# Indices 1 2 3 4 5 6 
#
# 1 108.3903 -8.5627 13.0580 0.0000 0.0000 0.0000
# 2 -8.5627 26.2571 -2.1208 0.0000 0.0000 0.0000
# 3 13.0580 -2.1208 52.0633 0.0000 0.0000 0.0000
# 4 0.0000 0.0000 0.0000 14.2007 0.0000 0.0000
# 5 0.0000 0.0000 0.0000 0.0000 35.4475 0.0000
# 6 0.0000 0.0000 0.0000 0.0000 0.0000 18.6583
#
#
#
# Elastic Compliance Matrix: (Units=1/GPa)
#
#
# Indices 1 2 3 4 5 6 
#
# 1 0.009742 0.002989 -0.002322 0.000000 0.000000 0.000000
# 2 0.002989 0.039128 0.000844 0.000000 0.000000 0.000000
# 3 -0.002322 0.000844 0.019824 0.000000 0.000000 0.000000
# 4 0.000000 0.000000 0.000000 0.070419 0.000000 0.000000
# 5 0.000000 0.000000 0.000000 0.000000 0.028211 0.000000
# 6 0.000000 0.000000 0.000000 0.000000 0.000000 0.053595
#
#
# Mechanical properties :
#
#
# Convention : Reuss Voigt Hill
#
# Bulk Modulus (GPa) = 13.94357 21.27330 17.60843
# Shear Modulus (GPa) = 20.67817 25.95039 23.31428
#
# Velocity S-wave (km/s) = 3.05176 3.41875 3.24045
# Velocity P-wave (km/s) = 4.32409 5.01648 4.68310
#
# Compressibility (1/GPa) = 0.07171765
#
# Stress axis : x y z
#
# Youngs Moduli (GPa) = 102.65090 25.55718 50.44375
#
# Poissons Ratio (x) = -0.07640 0.11711
# Poissons Ratio (y) = -0.30686 -0.04258
# Poissons Ratio (z) = 0.23831 -0.02157
#
# Static dielectric constant tensor:
#      x y z
#    x 1.926470 0.000000 0.000000 
#    y 0.000000 1.830110 0.000000 
#    z 0.000000 0.000000 1.933190 
# 
# From -- ./inp_files/12335.got.cif
#   From: 2010.05.17/outbox.cif.g08.bks.cpg/sg36_7_cif.got.tgz:12335.got - 2010.06.03 17:41:39.
