data_PCOD9350822
_publ_section_title
;
Structure prediction by ZEFSAII (Michael W. Deem and Ramdas Pophale) SiO2 
 PCOD9350822
Probable space group: C M C 21
;
_chemical_formula_sum "Si O2"
_cell_formula_units_Z 64
_cell_length_a 8.949846
_cell_length_b 15.989158
_cell_length_c 19.101970
_cell_angle_alpha 90.000000
_cell_angle_beta 90.000000
_cell_angle_gamma 90.000000
_cell_volume 2733.501492
_symmetry_space_group_name_H-M "C M C 21"
_symmetry_group_IT_number 36
_symmetry_cell_setting 'orthorhombic'
loop_
_space_group_symop_operation_xyz
x,y,z
-x,-y,1/2+z
x,-y,1/2+z
-x,y,z
1/2+x,1/2+y,z
1/2-x,1/2-y,1/2+z
1/2+x,1/2-y,1/2+z
1/2-x,1/2+y,z
loop_
_atom_site_type_symbol
_atom_site_label
_atom_site_fract_x
_atom_site_fract_y
_atom_site_fract_z
Si Si1 0.329380 0.165257 0.645400
Si Si2 0.678284 0.147873 0.400698
Si Si3 0.319149 0.315152 0.487130
Si Si4 0.328012 0.429280 0.024568
Si Si5 0.820120 0.756266 0.781603
Si Si6 0.321020 0.593039 0.854627
Si Si7 0.674188 0.401845 0.618036
Si Si8 0.330069 0.994462 0.739314
O O1 0.500000 0.176877 0.619726
O O2 0.227029 0.140214 0.580549
O O3 0.292462 0.240820 0.698768
O O4 0.329450 0.081497 0.694303
O O5 0.500000 0.145468 0.391847
O O6 0.718877 0.229934 0.447935
O O7 0.734260 0.076177 0.453130
O O8 0.757026 0.166107 0.326285
O O9 0.500000 0.318140 0.491287
O O10 0.274290 0.389302 0.434212
O O11 0.264806 0.331011 0.565565
O O12 0.500000 0.415899 0.005311
O O13 0.318594 0.515565 0.067980
O O14 0.735583 0.677101 0.815942
O O15 0.000000 0.750638 0.790723
O O16 0.500000 0.588001 0.851620
O O17 0.252218 0.517605 0.810961
O O18 0.500000 0.387218 0.634920
O O19 0.756925 0.426963 0.688455
O O20 0.500000 0.972500 0.754332
#
# Coordination Sequence:
#
# PCOD9350822 Si02
#       8
#     8   8   8   8   8   8   8   8
#     4   8  15  27  43  63  89 118 147 184 226 269
#     4  10  19  31  48  68  94 125 154 187 227 276
#     4   8  16  30  48  69  90 117 154 189 222 266
#     4  10  19  29  46  70  94 120 150 189 230 269
#     4   9  16  27  44  67  93 117 148 192 234 270
#     4   9  15  25  43  66  90 118 152 188 227 269
#     4   9  17  31  49  68  91 119 153 190 227 270
#     4   9  16  26  41  65  93 118 148 187 229 269
#
# _framework density 23.413193
#
# number of rings (size 3 to 8) (size 9 to 14) (size 15 to 20)
#    0.000    3.000    0.000    3.375    0.000    4.000 
#    0.000    3.750    0.000    1.500    0.000    5.250 
#    0.000    0.000    0.000    0.000    0.000    0.000 
#
# Total GULP energy -178791.465574 kJ/mol
# GULP energy per Si atom -5587.233299 kJ/mol
# Density = 2.335990 g / cm^3
# Si number density = 23.413193 Si / 1000 Ang^3
#
#
#
# Elastic Constant Matrix: (Units=GPa)
#
#
# Indices 1 2 3 4 5 6 
#
# 1 66.3352 7.4422 38.3956 0.0000 0.0000 0.0000
# 2 7.4422 93.1533 24.0032 0.0000 0.0000 0.0000
# 3 38.3956 24.0032 153.8868 0.0000 0.0000 0.0000
# 4 0.0000 0.0000 0.0000 52.7652 0.0000 0.0000
# 5 0.0000 0.0000 0.0000 0.0000 27.9580 0.0000
# 6 0.0000 0.0000 0.0000 0.0000 0.0000 -0.7983
#
#
#
# Elastic Compliance Matrix: (Units=1/GPa)
#
#
# Indices 1 2 3 4 5 6 
#
# 1 0.017627 -0.000287 -0.004353 0.000000 0.000000 0.000000
# 2 -0.000287 0.011189 -0.001674 0.000000 0.000000 0.000000
# 3 -0.004353 -0.001674 0.007846 0.000000 0.000000 0.000000
# 4 0.000000 0.000000 0.000000 0.018952 0.000000 0.000000
# 5 0.000000 0.000000 0.000000 0.000000 0.035768 0.000000
# 6 0.000000 0.000000 0.000000 0.000000 0.000000 -1.252709
#
#
# Mechanical properties :
#
#
# Convention : Reuss Voigt Hill
#
# Bulk Modulus (GPa) = 41.60717 50.33972 45.97345
# Shear Modulus (GPa) = -4.38331 32.22061 13.91865
#
# Velocity S-wave (km/s) = -1.36975 3.71371 2.44084
# Velocity P-wave (km/s) = 3.91252 6.31950 5.25566
#
# Compressibility (1/GPa) = 0.02403432
#
# Stress axis : x y z
#
# Youngs Moduli (GPa) = 56.73170 89.37210 127.46107
#
# Poissons Ratio (x) = 0.02561 0.55488
# Poissons Ratio (y) = 0.01625 0.21334
# Poissons Ratio (z) = 0.24697 0.14959
#
# Static dielectric constant tensor:
#      x y z
#    x 1.780380 0.000000 0.000000 
#    y 0.000000 2.002400 0.000000 
#    z 0.000000 0.000000 1.887620 
# 
# From -- ./inp_files/14052.got.cif
#   From: 2010.05.17/outbox.cif.g08.bks.cpg/sg36_8_cif.got.tgz:14052.got - 2010.06.03 17:41:39.
