data_PCOD9350880
_publ_section_title
;
Structure prediction by ZEFSAII (Michael W. Deem and Ramdas Pophale) SiO2 
 PCOD9350880
Probable space group: C M C 21
;
_chemical_formula_sum "Si O2"
_cell_formula_units_Z 64
_cell_length_a 7.553004
_cell_length_b 23.842587
_cell_length_c 16.894361
_cell_angle_alpha 90.000000
_cell_angle_beta 90.000000
_cell_angle_gamma 90.000000
_cell_volume 3042.389830
_symmetry_space_group_name_H-M "C M C 21"
_symmetry_group_IT_number 36
_symmetry_cell_setting 'orthorhombic'
loop_
_space_group_symop_operation_xyz
x,y,z
-x,-y,1/2+z
x,-y,1/2+z
-x,y,z
1/2+x,1/2+y,z
1/2-x,1/2-y,1/2+z
1/2+x,1/2-y,1/2+z
1/2-x,1/2+y,z
loop_
_atom_site_type_symbol
_atom_site_label
_atom_site_fract_x
_atom_site_fract_y
_atom_site_fract_z
Si Si1 0.282381 0.845046 0.761630
Si Si2 0.797087 0.126293 0.843109
Si Si3 0.699783 0.902333 0.605422
Si Si4 0.786911 0.314594 0.050829
Si Si5 0.793163 0.217554 0.728427
Si Si6 0.296573 0.696899 0.001544
Si Si7 0.783024 0.597001 0.426469
Si Si8 0.708167 0.027941 0.956353
O O1 0.500000 0.844347 0.757972
O O2 0.220835 0.886377 0.690531
O O3 0.223842 0.780361 0.746650
O O4 0.230325 0.870421 0.846473
O O5 0.713450 0.163716 0.774037
O O6 0.793032 0.169029 0.916595
O O7 0.722340 0.069943 0.881855
O O8 0.000000 0.112652 0.821609
O O9 0.500000 0.922905 0.620688
O O10 0.691673 0.842168 0.561353
O O11 0.781946 0.942544 0.537008
O O12 0.717674 0.298086 0.136616
O O13 0.000000 0.318681 0.057187
O O14 0.740702 0.260765 0.997600
O O15 0.725603 0.369290 0.004674
O O16 0.000000 0.219660 0.752962
O O17 0.500000 0.695628 0.030366
O O18 0.721076 0.532980 0.433886
O O19 0.000000 0.596988 0.424817
O O20 0.500000 0.021396 0.972252
#
# Coordination Sequence:
#
# PCOD9350880 Si02
#       8
#     8   8   8   8   8   8   8   8
#     4   9  16  29  51  74  97 129 167 203 243 296
#     4   9  18  32  51  72  95 128 165 201 242 296
#     4   9  16  28  49  74  96 124 163 205 239 282
#     4  10  19  31  49  73 103 130 158 202 251 295
#     4  10  19  32  51  75 100 128 165 203 246 302
#     4   9  16  28  48  72  97 125 156 195 247 295
#     4   9  18  33  50  73 102 134 168 204 245 296
#     4   9  18  33  51  73 100 128 166 207 243 286
#
# _framework density 21.036093000000001
#
# number of rings (size 3 to 8) (size 9 to 14) (size 15 to 20)
#    0.000    2.750    1.250    0.750    0.000    3.500 
#    2.250    0.625    0.000    4.500    0.000    0.000 
#    0.000    0.000    0.000    0.000    0.000    0.000 
#
# Total GULP energy -178263.302473 kJ/mol
# GULP energy per Si atom -5570.728202 kJ/mol
# Density = 2.098821 g / cm^3
# Si number density = 21.036093 Si / 1000 Ang^3
#
#
#
# Elastic Constant Matrix: (Units=GPa)
#
#
# Indices 1 2 3 4 5 6 
#
# 1 42.5460 6.0064 5.5979 0.0000 0.0000 0.0000
# 2 6.0064 171.9848 80.9030 0.0000 0.0000 0.0000
# 3 5.5979 80.9030 86.9503 0.0000 0.0000 0.0000
# 4 0.0000 0.0000 0.0000 20.6623 0.0000 0.0000
# 5 0.0000 0.0000 0.0000 0.0000 12.3145 0.0000
# 6 0.0000 0.0000 0.0000 0.0000 0.0000 15.4335
#
#
#
# Elastic Compliance Matrix: (Units=1/GPa)
#
#
# Indices 1 2 3 4 5 6 
#
# 1 0.023708 -0.000196 -0.001344 0.000000 0.000000 0.000000
# 2 -0.000196 0.010342 -0.009610 0.000000 0.000000 0.000000
# 3 -0.001344 -0.009610 0.020529 0.000000 0.000000 0.000000
# 4 0.000000 0.000000 0.000000 0.048397 0.000000 0.000000
# 5 0.000000 0.000000 0.000000 0.000000 0.081205 0.000000
# 6 0.000000 0.000000 0.000000 0.000000 0.000000 0.064794
#
#
# Mechanical properties :
#
#
# Convention : Reuss Voigt Hill
#
# Bulk Modulus (GPa) = 30.97950 54.05508 42.51729
# Shear Modulus (GPa) = 17.72825 23.61366 20.67095
#
# Velocity S-wave (km/s) = 2.90617 3.35405 3.13811
# Velocity P-wave (km/s) = 5.10097 6.38371 5.77805
#
# Compressibility (1/GPa) = 0.03227941
#
# Stress axis : x y z
#
# Youngs Moduli (GPa) = 42.17904 96.69337 48.71129
#
# Poissons Ratio (x) = 0.01891 0.06549
# Poissons Ratio (y) = 0.00825 0.46812
# Poissons Ratio (z) = 0.05670 0.92923
#
# Static dielectric constant tensor:
#      x y z
#    x 1.848440 0.000000 0.000000 
#    y 0.000000 1.757140 0.000000 
#    z 0.000000 0.000000 1.768740 
# 
# From -- ./inp_files/13997.got.cif
#   From: 2010.05.17/outbox.cif.g08.bks.cpg/sg36_7_cif.got.tgz:13997.got - 2010.06.03 17:41:39.
