data_PCOD9350056
_publ_section_title
;
Structure prediction by ZEFSAII (Michael W. Deem and Ramdas Pophale) SiO2 
 PCOD9350056
Probable space group: C M M 2
;
_chemical_formula_sum "Si O2"
_cell_formula_units_Z 56
_cell_length_a 22.920655
_cell_length_b 8.678066
_cell_length_c 15.276127
_cell_angle_alpha 90.000000
_cell_angle_beta 90.000000
_cell_angle_gamma 90.000000
_cell_volume 3038.527934
_symmetry_space_group_name_H-M "C M M 2"
_symmetry_group_IT_number 35
_symmetry_cell_setting 'orthorhombic'
loop_
_space_group_symop_operation_xyz
x,y,z
-x,-y,z
-x,y,z
x,-y,z
1/2+x,1/2+y,z
1/2-x,1/2-y,z
1/2-x,1/2+y,z
1/2+x,1/2-y,z
loop_
_atom_site_type_symbol
_atom_site_label
_atom_site_fract_x
_atom_site_fract_y
_atom_site_fract_z
Si Si1 0.500000 0.675743 0.192720
Si Si2 0.891223 0.683115 0.286568
Si Si3 0.685920 0.814596 0.796806
Si Si4 0.686190 0.316862 0.142933
Si Si5 0.068926 0.687443 0.481858
Si Si6 0.000000 0.175404 0.984216
Si Si7 0.683131 0.813271 0.597794
Si Si8 0.877195 0.316647 0.972890
O O1 0.500000 0.500000 0.227500
O O2 0.555463 0.768262 0.225329
O O3 0.500000 0.665707 0.089152
O O4 0.882779 0.500000 0.287945
O O5 0.836885 0.759445 0.237265
O O6 0.910812 0.732026 0.383693
O O7 0.750000 0.750000 0.805956
O O8 0.667683 0.769727 0.698352
O O9 0.653102 0.761370 0.883594
O O10 0.685184 0.000000 0.798204
O O11 0.686111 0.500000 0.142430
O O12 0.750000 0.250000 0.127752
O O13 0.647098 0.259205 0.061564
O O14 0.066824 0.500000 0.486020
O O15 0.125345 0.734005 0.541568
O O16 0.000000 0.736712 0.497983
O O17 0.056533 0.269774 0.959828
O O18 0.000000 0.000000 0.950101
O O19 0.750000 0.750000 0.578357
O O20 0.687709 0.000000 0.590890
O O21 0.869808 0.500000 0.981851
#
# Coordination Sequence:
#
# PCOD9350056 Si02
#       8
#     4   8   8   8   8   4   8   8
#     4  11  21  35  55  80 108 145 189 228 270 326
#     4  11  21  36  59  83 109 146 190 232 278 331
#     4   9  19  35  57  85 110 144 186 227 278 335
#     4  12  25  40  56  81 114 150 190 232 283 333
#     4   9  18  34  58  88 114 146 191 238 287 343
#     4  11  23  37  55  80 112 151 191 228 280 336
#     4   9  18  36  60  85 115 147 186 233 287 346
#     4  11  22  37  57  83 113 146 189 235 281 331
#
# _framework density 18.429977000000001
#
# number of rings (size 3 to 8) (size 9 to 14) (size 15 to 20)
#    0.000    1.714    2.143    3.000    0.000    3.429 
#    1.286    2.857    0.000    0.000    0.000    0.000 
#    0.000    0.000    0.000    0.000    0.000    0.000 
#
# Total GULP energy -155979.332418 kJ/mol
# GULP energy per Si atom -5570.690444 kJ/mol
# Density = 1.838803 g / cm^3
# Si number density = 18.429977 Si / 1000 Ang^3
#
#
#
# Elastic Constant Matrix: (Units=GPa)
#
#
# Indices 1 2 3 4 5 6 
#
# 1 112.6515 19.8788 68.4758 0.0000 0.0000 0.0000
# 2 19.8788 46.9795 26.1938 0.0000 0.0000 0.0000
# 3 68.4758 26.1938 113.1712 0.0000 0.0000 0.0000
# 4 0.0000 0.0000 0.0000 8.9371 0.0000 0.0000
# 5 0.0000 0.0000 0.0000 0.0000 -91.7931 0.0000
# 6 0.0000 0.0000 0.0000 0.0000 0.0000 25.5791
#
#
#
# Elastic Compliance Matrix: (Units=1/GPa)
#
#
# Indices 1 2 3 4 5 6 
#
# 1 0.014120 -0.001391 -0.008222 0.000000 0.000000 0.000000
# 2 -0.001391 0.024577 -0.004847 0.000000 0.000000 0.000000
# 3 -0.008222 -0.004847 0.014933 0.000000 0.000000 0.000000
# 4 0.000000 0.000000 0.000000 0.111893 0.000000 0.000000
# 5 0.000000 0.000000 0.000000 0.000000 -0.010894 0.000000
# 6 0.000000 0.000000 0.000000 0.000000 0.000000 0.039094
#
#
# Mechanical properties :
#
#
# Convention : Reuss Voigt Hill
#
# Bulk Modulus (GPa) = 40.46793 55.76655 48.11724
# Shear Modulus (GPa) = 21.65650 -0.90512 10.37569
#
# Velocity S-wave (km/s) = 3.43165 -0.70156 2.37529
# Velocity P-wave (km/s) = 6.14060 5.44684 5.80409
#
# Compressibility (1/GPa) = 0.02471092
#
# Stress axis : x y z
#
# Youngs Moduli (GPa) = 70.82234 40.68884 66.96778
#
# Poissons Ratio (x) = 0.05658 0.55058
# Poissons Ratio (y) = 0.09849 0.32459
# Poissons Ratio (z) = 0.58227 0.19722
#
# Static dielectric constant tensor:
#      x y z
#    x 1.633610 0.000000 0.000000 
#    y 0.000000 1.633240 0.000000 
#    z 0.000000 0.000000 1.649480 
# 
# From -- ./inp_files/17424.got.cif
#   From: 2010.05.17/outbox.cif.g08.bks.cpg/sg35_9_cif.got.tgz:17424.got - 2010.06.03 17:29:28.
