data_PCOD9350769
_publ_section_title
;
Structure prediction by ZEFSAII (Michael W. Deem and Ramdas Pophale) SiO2 
 PCOD9350769
Probable space group: C M C 21
;
_chemical_formula_sum "Si O2"
_cell_formula_units_Z 64
_cell_length_a 8.593133
_cell_length_b 20.803400
_cell_length_c 20.346840
_cell_angle_alpha 90.000000
_cell_angle_beta 90.000000
_cell_angle_gamma 90.000000
_cell_volume 3637.330993
_symmetry_space_group_name_H-M "C M C 21"
_symmetry_group_IT_number 36
_symmetry_cell_setting 'orthorhombic'
loop_
_space_group_symop_operation_xyz
x,y,z
-x,-y,1/2+z
x,-y,1/2+z
-x,y,z
1/2+x,1/2+y,z
1/2-x,1/2-y,1/2+z
1/2+x,1/2-y,1/2+z
1/2-x,1/2+y,z
loop_
_atom_site_type_symbol
_atom_site_label
_atom_site_fract_x
_atom_site_fract_y
_atom_site_fract_z
Si Si1 0.686928 0.830401 0.951490
Si Si2 0.688648 0.025176 0.465582
Si Si3 0.685942 0.840614 0.334546
Si Si4 0.688519 0.082770 0.222047
Si Si5 0.812680 0.293286 0.802367
Si Si6 0.189958 0.579567 0.071842
Si Si7 0.687232 0.196996 0.983228
Si Si8 0.684848 0.520838 0.824757
O O1 0.500000 0.828562 0.954791
O O2 0.739142 0.900872 0.973803
O O3 0.730758 0.820245 0.874800
O O4 0.752120 0.769270 0.990074
O O5 0.500000 0.024152 0.463310
O O6 0.747059 0.999043 0.395774
O O7 0.739160 0.978663 0.524506
O O8 0.500000 0.846786 0.333296
O O9 0.737808 0.776770 0.296087
O O10 0.735021 0.828519 0.410782
O O11 0.760803 0.906538 0.310516
O O12 0.500000 0.079729 0.224394
O O13 0.733458 0.153006 0.249719
O O14 0.740276 0.073731 0.147018
O O15 0.752621 0.028574 0.270498
O O16 0.000000 0.286483 0.800962
O O17 0.000000 0.579693 0.072003
O O18 0.239810 0.646255 0.037803
O O19 0.500000 0.198501 0.983557
O O20 0.500000 0.517750 0.827393
#
# Coordination Sequence:
#
# PCOD9350769 Si02
#       8
#     8   8   8   8   8   8   8   8
#     4   9  17  29  50  77 105 136 170 216 266 311
#     4  10  18  35  57  80 109 144 185 226 270 326
#     4  10  19  33  55  79 106 138 177 225 274 319
#     4  10  20  37  58  79 109 150 184 221 276 334
#     4   9  17  31  51  78 108 137 175 218 267 322
#     4   9  18  34  58  81 104 142 187 221 267 333
#     4   9  17  31  52  78 105 133 171 220 264 319
#     4  12  23  34  53  82 112 144 185 231 276 322
#
# _framework density 17.595317999999999
#
# number of rings (size 3 to 8) (size 9 to 14) (size 15 to 20)
#    0.000    2.250    2.500    1.500    0.000    1.500 
#    0.000    2.500    0.000    3.000    0.000    0.000 
#    0.000    0.000    0.000    0.000    0.000    0.000 
#
# Total GULP energy -178523.000025 kJ/mol
# GULP energy per Si atom -5578.843751 kJ/mol
# Density = 1.755527 g / cm^3
# Si number density = 17.595318 Si / 1000 Ang^3
#
#
#
# Elastic Constant Matrix: (Units=GPa)
#
#
# Indices 1 2 3 4 5 6 
#
# 1 14.6332 26.9988 18.9424 0.0000 0.0000 0.0000
# 2 26.9988 167.7479 73.4670 0.0000 0.0000 0.0000
# 3 18.9424 73.4670 108.8416 0.0000 0.0000 0.0000
# 4 0.0000 0.0000 0.0000 25.3214 0.0000 0.0000
# 5 0.0000 0.0000 0.0000 0.0000 10.5184 0.0000
# 6 0.0000 0.0000 0.0000 0.0000 0.0000 27.0911
#
#
#
# Elastic Compliance Matrix: (Units=1/GPa)
#
#
# Indices 1 2 3 4 5 6 
#
# 1 0.103876 -0.012495 -0.009644 0.000000 0.000000 0.000000
# 2 -0.012495 0.009966 -0.004553 0.000000 0.000000 0.000000
# 3 -0.009644 -0.004553 0.013939 0.000000 0.000000 0.000000
# 4 0.000000 0.000000 0.000000 0.039492 0.000000 0.000000
# 5 0.000000 0.000000 0.000000 0.000000 0.095071 0.000000
# 6 0.000000 0.000000 0.000000 0.000000 0.000000 0.036913
#
#
# Mechanical properties :
#
#
# Convention : Reuss Voigt Hill
#
# Bulk Modulus (GPa) = 13.44129 58.89322 36.16726
# Shear Modulus (GPa) = 13.24716 24.04047 18.64381
#
# Velocity S-wave (km/s) = 2.74684 3.70036 3.25867
# Velocity P-wave (km/s) = 4.20903 7.19726 5.89561
#
# Compressibility (1/GPa) = 0.07439762
#
# Stress axis : x y z
#
# Youngs Moduli (GPa) = 9.62690 100.33928 71.74119
#
# Poissons Ratio (x) = 1.25373 0.69189
# Poissons Ratio (y) = 0.12029 0.32660
# Poissons Ratio (z) = 0.09284 0.45680
#
# Static dielectric constant tensor:
#      x y z
#    x 1.596590 0.000000 0.000000 
#    y 0.000000 1.601290 0.000000 
#    z 0.000000 0.000000 1.581260 
# 
# From -- ./inp_files/13852.got.cif
#   From: 2010.05.17/outbox.cif.g08.bks.cpg/sg36_7_cif.got.tgz:13852.got - 2010.06.03 17:41:39.
