data_PCOD9350610
_publ_section_title
;
Structure prediction by ZEFSAII (Michael W. Deem and Ramdas Pophale) SiO2 
 PCOD9350610
Probable space group: C M C 21
;
_chemical_formula_sum "Si O2"
_cell_formula_units_Z 64
_cell_length_a 28.294217
_cell_length_b 9.392052
_cell_length_c 12.078807
_cell_angle_alpha 90.000000
_cell_angle_beta 90.000000
_cell_angle_gamma 90.000000
_cell_volume 3209.831320
_symmetry_space_group_name_H-M "C M C 21"
_symmetry_group_IT_number 36
_symmetry_cell_setting 'orthorhombic'
loop_
_space_group_symop_operation_xyz
x,y,z
-x,-y,1/2+z
x,-y,1/2+z
-x,y,z
1/2+x,1/2+y,z
1/2-x,1/2-y,1/2+z
1/2+x,1/2-y,1/2+z
1/2-x,1/2+y,z
loop_
_atom_site_type_symbol
_atom_site_label
_atom_site_fract_x
_atom_site_fract_y
_atom_site_fract_z
Si Si1 0.401563 0.674253 0.922570
Si Si2 0.704846 0.760758 0.926233
Si Si3 0.868301 0.125945 0.518536
Si Si4 0.772263 0.463990 0.308356
Si Si5 0.858397 0.272852 0.294576
Si Si6 0.298833 0.423853 0.639554
Si Si7 0.445704 0.719180 0.158067
Si Si8 0.946667 0.876132 0.191806
O O1 0.350723 0.744571 0.898479
O O2 0.434117 0.673945 0.815063
O O3 0.390351 0.510041 0.953962
O O4 0.425400 0.736294 0.033601
O O5 0.737041 0.659288 0.849723
O O6 0.721755 0.920018 0.904957
O O7 0.709215 0.698591 0.049300
O O8 0.857338 0.239213 0.424524
O O9 0.906747 0.176384 0.607173
O O10 0.822984 0.059216 0.580262
O O11 0.822522 0.400755 0.275633
O O12 0.747960 0.537517 0.204126
O O13 0.836153 0.137937 0.228682
O O14 0.910192 0.292525 0.244232
O O15 0.500000 0.765338 0.165212
O O16 0.444458 0.549213 0.185225
O O17 0.000000 0.834906 0.160797
#
# Coordination Sequence:
#
# PCOD9350610 Si02
#       8
#     8   8   8   8   8   8   8   8
#     4  10  18  36  58  86 129 162 218 267 331 384
#     4  11  25  40  64  93 131 167 220 266 330 391
#     4  10  19  35  59  86 129 173 203 267 327 383
#     4  12  27  41  65  99 127 176 215 271 331 398
#     4  12  22  41  61  94 134 170 222 271 328 399
#     4  11  22  43  62  89 131 173 213 263 331 394
#     4  10  20  34  60  93 125 172 221 276 331 386
#     4  10  18  30  56  92 127 163 211 273 337 381
#
# _framework density 19.938742000000001
#
# number of rings (size 3 to 8) (size 9 to 14) (size 15 to 20)
#    0.000    1.250    6.250    2.625    1.750    1.000 
#    2.250    0.000    0.000    1.500    0.000    0.000 
#    0.000    0.000    0.000    0.000    0.000    0.000 
#
# Total GULP energy -178862.391847 kJ/mol
# GULP energy per Si atom -5589.449745 kJ/mol
# Density = 1.989336 g / cm^3
# Si number density = 19.938742 Si / 1000 Ang^3
#
#
#
# Elastic Constant Matrix: (Units=GPa)
#
#
# Indices 1 2 3 4 5 6 
#
# 1 134.9088 42.6209 44.4466 0.0000 0.0000 0.0000
# 2 42.6209 27.4576 15.1310 0.0000 0.0000 0.0000
# 3 44.4466 15.1310 94.8752 0.0000 0.0000 0.0000
# 4 0.0000 0.0000 0.0000 9.9639 0.0000 0.0000
# 5 0.0000 0.0000 0.0000 0.0000 34.1135 0.0000
# 6 0.0000 0.0000 0.0000 0.0000 0.0000 19.7701
#
#
#
# Elastic Compliance Matrix: (Units=1/GPa)
#
#
# Indices 1 2 3 4 5 6 
#
# 1 0.015705 -0.022282 -0.003804 0.000000 0.000000 0.000000
# 2 -0.022282 0.071542 -0.000971 0.000000 0.000000 0.000000
# 3 -0.003804 -0.000971 0.012477 0.000000 0.000000 0.000000
# 4 0.000000 0.000000 0.000000 0.100363 0.000000 0.000000
# 5 0.000000 0.000000 0.000000 0.000000 0.029314 0.000000
# 6 0.000000 0.000000 0.000000 0.000000 0.000000 0.050581
#
#
# Mechanical properties :
#
#
# Convention : Reuss Voigt Hill
#
# Bulk Modulus (GPa) = 21.92492 51.29316 36.60904
# Shear Modulus (GPa) = 14.31437 23.10569 18.71003
#
# Velocity S-wave (km/s) = 2.68231 3.40786 3.06662
# Velocity P-wave (km/s) = 4.54016 6.42385 5.56232
#
# Compressibility (1/GPa) = 0.04561019
#
# Stress axis : x y z
#
# Youngs Moduli (GPa) = 63.67407 13.97781 80.14718
#
# Poissons Ratio (x) = 0.31145 0.30486
# Poissons Ratio (y) = 1.41878 0.07784
# Poissons Ratio (z) = 0.24220 0.01358
#
# Static dielectric constant tensor:
#      x y z
#    x 1.705630 0.000000 0.000000 
#    y 0.000000 1.696470 0.000000 
#    z 0.000000 0.000000 1.713660 
# 
# From -- ./inp_files/9664.got.cif
#   From: 2010.05.17/outbox.cif.g08.bks.cpg/sg36_5_cif.got.tgz:9664.got - 2010.06.03 17:41:39.
