data_PCOD9350803
_publ_section_title
;
Structure prediction by ZEFSAII (Michael W. Deem and Ramdas Pophale) SiO2 
 PCOD9350803
Probable space group: C M C 21
;
_chemical_formula_sum "Si O2"
_cell_formula_units_Z 48
_cell_length_a 12.449291
_cell_length_b 17.297996
_cell_length_c 10.110269
_cell_angle_alpha 90.000000
_cell_angle_beta 90.000000
_cell_angle_gamma 90.000000
_cell_volume 2177.224044
_symmetry_space_group_name_H-M "C M C 21"
_symmetry_group_IT_number 36
_symmetry_cell_setting 'orthorhombic'
loop_
_space_group_symop_operation_xyz
x,y,z
-x,-y,1/2+z
x,-y,1/2+z
-x,y,z
1/2+x,1/2+y,z
1/2-x,1/2-y,1/2+z
1/2+x,1/2-y,1/2+z
1/2-x,1/2+y,z
loop_
_atom_site_type_symbol
_atom_site_label
_atom_site_fract_x
_atom_site_fract_y
_atom_site_fract_z
Si Si1 0.346828 0.868574 0.692070
Si Si2 0.614337 0.654188 0.301454
Si Si3 0.195994 0.476889 0.288176
Si Si4 0.378792 0.777549 0.956125
Si Si5 0.270700 0.417388 0.030277
Si Si6 0.669517 0.816876 0.408063
O O1 0.216761 0.869010 0.714483
O O2 0.386797 0.816681 0.811836
O O3 0.375165 0.831261 0.554185
O O4 0.375462 0.958136 0.715304
O O5 0.500000 0.631332 0.245836
O O6 0.630972 0.618441 0.448337
O O7 0.623101 0.745304 0.327499
O O8 0.282920 0.452620 0.175383
O O9 0.230773 0.517534 0.425716
O O10 0.149209 0.395513 0.331036
O O11 0.500000 0.760504 0.003302
O O12 0.295451 0.706804 0.934951
O O13 0.315023 0.845623 0.035542
#
# Coordination Sequence:
#
# PCOD9350803 Si02
#       6
#     8   8   8   8   8   8
#     4   9  20  38  59  79 114 149 186 237 280 333
#     4   9  21  37  57  84 113 145 188 235 280 334
#     4  10  18  38  61  80 110 152 184 231 287 330
#     4   9  21  37  57  84 113 145 188 235 280 334
#     4   9  20  37  62  80 115 148 188 233 284 336
#     4  10  20  35  60  83 109 149 188 229 287 335
#
# _framework density 22.046420999999999
#
# number of rings (size 3 to 8) (size 9 to 14) (size 15 to 20)
#    0.000    3.333    1.667    0.000    9.333    1.333 
#    0.000   13.333    0.000    0.000    0.000    0.000 
#    0.000    0.000    0.000    0.000    0.000    0.000 
#
# Total GULP energy -133657.541448 kJ/mol
# GULP energy per Si atom -5569.064227 kJ/mol
# Density = 2.199624 g / cm^3
# Si number density = 22.046421 Si / 1000 Ang^3
#
#
#
# Elastic Constant Matrix: (Units=GPa)
#
#
# Indices 1 2 3 4 5 6 
#
# 1 132.5968 -8.7702 -11.6010 0.0000 0.0000 0.0000
# 2 -8.7702 88.7752 7.6669 0.0000 0.0000 0.0000
# 3 -11.6010 7.6669 74.0193 0.0000 0.0000 0.0000
# 4 0.0000 0.0000 0.0000 21.7422 0.0000 0.0000
# 5 0.0000 0.0000 0.0000 0.0000 -9.2407 0.0000
# 6 0.0000 0.0000 0.0000 0.0000 0.0000 -14.0213
#
#
#
# Elastic Compliance Matrix: (Units=1/GPa)
#
#
# Indices 1 2 3 4 5 6 
#
# 1 0.007685 0.000661 0.001136 0.000000 0.000000 0.000000
# 2 0.000661 0.011423 -0.001080 0.000000 0.000000 0.000000
# 3 0.001136 -0.001080 0.013800 0.000000 0.000000 0.000000
# 4 0.000000 0.000000 0.000000 0.045994 0.000000 0.000000
# 5 0.000000 0.000000 0.000000 0.000000 -0.108217 0.000000
# 6 0.000000 0.000000 0.000000 0.000000 0.000000 -0.071320
#
#
# Mechanical properties :
#
#
# Convention : Reuss Voigt Hill
#
# Bulk Modulus (GPa) = 29.11844 29.99808 29.55826
# Shear Modulus (GPa) = -55.17320 20.23576 -17.46872
#
# Velocity S-wave (km/s) = -5.00802 3.03292 -2.81794
# Velocity P-wave (km/s) = 4.49487 5.08932 1.68779
#
# Compressibility (1/GPa) = 0.03434250
#
# Stress axis : x y z
#
# Youngs Moduli (GPa) = 130.12754 87.54309 72.46460
#
# Poissons Ratio (x) = -0.05787 -0.08232
# Poissons Ratio (y) = -0.08603 0.07823
# Poissons Ratio (z) = -0.14782 0.09451
#
# Static dielectric constant tensor:
#      x y z
#    x 1.941440 0.000000 0.000000 
#    y 0.000000 1.832190 0.000000 
#    z 0.000000 0.000000 1.812240 
# 
# From -- ./inp_files/8520.got.cif
#   From: 2010.05.17/outbox.cif.g08.bks.cpg/sg36_5_cif.got.tgz:8520.got - 2010.06.03 17:41:39.
