data_PCOD9350416
_publ_section_title
;
Structure prediction by ZEFSAII (Michael W. Deem and Ramdas Pophale) SiO2 
 PCOD9350416
Probable space group: C M M 2
;
_chemical_formula_sum "Si O2"
_cell_formula_units_Z 64
_cell_length_a 23.675607
_cell_length_b 17.751633
_cell_length_c 8.524973
_cell_angle_alpha 90.000000
_cell_angle_beta 90.000000
_cell_angle_gamma 90.000000
_cell_volume 3582.881505
_symmetry_space_group_name_H-M "C M M 2"
_symmetry_group_IT_number 35
_symmetry_cell_setting 'orthorhombic'
loop_
_space_group_symop_operation_xyz
x,y,z
-x,-y,z
-x,y,z
x,-y,z
1/2+x,1/2+y,z
1/2-x,1/2-y,z
1/2-x,1/2+y,z
1/2+x,1/2-y,z
loop_
_atom_site_type_symbol
_atom_site_label
_atom_site_fract_x
_atom_site_fract_y
_atom_site_fract_z
Si Si1 0.437272 0.725122 0.602640
Si Si2 0.342661 0.318944 0.017612
Si Si3 0.717247 0.827212 0.499743
Si Si4 0.123310 0.414264 0.088150
Si Si5 0.391896 0.218032 0.293323
Si Si6 0.654274 0.182130 0.797561
Si Si7 0.246781 0.085716 0.209293
Si Si8 0.433378 0.588984 0.813293
O O1 0.500000 0.744114 0.656541
O O2 0.431686 0.742510 0.419342
O O3 0.394055 0.777658 0.695462
O O4 0.426860 0.638779 0.654674
O O5 0.373784 0.275655 0.158766
O O6 0.291139 0.364074 0.094498
O O7 0.322373 0.252034 0.901204
O O8 0.388136 0.372812 0.931064
O O9 0.750000 0.750000 0.526433
O O10 0.662932 0.805320 0.395126
O O11 0.697120 0.853700 0.671224
O O12 0.752527 0.881987 0.386729
O O13 0.103170 0.500000 0.089004
O O14 0.089602 0.357891 0.203147
O O15 0.188462 0.413665 0.149251
O O16 0.127871 0.377962 0.916281
O O17 0.226456 0.000000 0.207531
O O18 0.500000 0.597221 0.861935
O O19 0.422726 0.500000 0.794178
#
# Coordination Sequence:
#
# PCOD9350416 Si02
#       8
#     8   8   8   8   8   8   8   8
#     4   9  18  35  55  76 100 129 173 215 250 305
#     4  10  18  32  51  75 102 132 178 214 246 297
#     4  10  18  31  49  70  98 134 172 207 240 304
#     4   9  19  34  52  76 104 132 165 206 257 310
#     4   9  18  32  53  76  95 134 169 206 257 302
#     4   9  20  31  54  77  97 135 175 204 256 298
#     4  10  20  32  48  72 104 140 167 207 257 293
#     4   9  18  33  52  73 103 140 172 212 260 296
#
# _framework density 17.862718000000001
#
# number of rings (size 3 to 8) (size 9 to 14) (size 15 to 20)
#    0.000    2.625    1.250    0.375    1.750    1.000 
#    0.000    5.000    0.000    3.750    0.000    0.000 
#    0.000    0.000    0.000    0.000    0.000    0.000 
#
# Total GULP energy -178205.871226 kJ/mol
# GULP energy per Si atom -5568.933476 kJ/mol
# Density = 1.782206 g / cm^3
# Si number density = 17.862718 Si / 1000 Ang^3
#
#
#
# Elastic Constant Matrix: (Units=GPa)
#
#
# Indices 1 2 3 4 5 6 
#
# 1 23.4806 16.0318 18.0025 0.0000 0.0000 0.0000
# 2 16.0318 100.1423 51.6821 0.0000 0.0000 0.0000
# 3 18.0025 51.6821 119.3046 0.0000 0.0000 0.0000
# 4 0.0000 0.0000 0.0000 12.3196 0.0000 0.0000
# 5 0.0000 0.0000 0.0000 0.0000 14.5470 0.0000
# 6 0.0000 0.0000 0.0000 0.0000 0.0000 12.7504
#
#
#
# Elastic Compliance Matrix: (Units=1/GPa)
#
#
# Indices 1 2 3 4 5 6 
#
# 1 0.050271 -0.005323 -0.005280 0.000000 0.000000 0.000000
# 2 -0.005323 0.013425 -0.005012 0.000000 0.000000 0.000000
# 3 -0.005280 -0.005012 0.011350 0.000000 0.000000 0.000000
# 4 0.000000 0.000000 0.000000 0.081172 0.000000 0.000000
# 5 0.000000 0.000000 0.000000 0.000000 0.068743 0.000000
# 6 0.000000 0.000000 0.000000 0.000000 0.000000 0.078429
#
#
# Mechanical properties :
#
#
# Convention : Reuss Voigt Hill
#
# Bulk Modulus (GPa) = 22.82316 46.04003 34.43160
# Shear Modulus (GPa) = 14.31748 18.40414 16.36081
#
# Velocity S-wave (km/s) = 2.83420 3.21333 3.02970
# Velocity P-wave (km/s) = 4.84922 6.29266 5.61750
#
# Compressibility (1/GPa) = 0.04381514
#
# Stress axis : x y z
#
# Youngs Moduli (GPa) = 19.89235 74.48927 88.10667
#
# Poissons Ratio (x) = 0.39651 0.46517
# Poissons Ratio (y) = 0.10589 0.44162
# Poissons Ratio (z) = 0.10502 0.37336
#
# Static dielectric constant tensor:
#      x y z
#    x 1.632690 0.000000 0.000000 
#    y 0.000000 1.606270 0.000000 
#    z 0.000000 0.000000 1.629150 
# 
# From -- ./inp_files/8797.got.cif
#   From: 2010.05.17/outbox.cif.g08.bks.cpg/sg35_5_cif.got.tgz:8797.got - 2010.06.03 17:29:28.
