data_PCOD9350154
_publ_section_title
;
Structure prediction by ZEFSAII (Michael W. Deem and Ramdas Pophale) SiO2 
 PCOD9350154
Probable space group: C M M 2
;
_chemical_formula_sum "Si O2"
_cell_formula_units_Z 32
_cell_length_a 30.000000
_cell_length_b 9.000000
_cell_length_c 12.000000
_cell_angle_alpha 90.000000
_cell_angle_beta 90.000000
_cell_angle_gamma 90.000000
_cell_volume 3240.000000
_symmetry_space_group_name_H-M "C M M 2"
_symmetry_group_IT_number 35
_symmetry_cell_setting 'orthorhombic'
loop_
_space_group_symop_operation_xyz
x,y,z
-x,-y,z
-x,y,z
x,-y,z
1/2+x,1/2+y,z
1/2-x,1/2-y,z
1/2-x,1/2+y,z
1/2+x,1/2-y,z
loop_
_atom_site_type_symbol
_atom_site_label
_atom_site_fract_x
_atom_site_fract_y
_atom_site_fract_z
Si Si1 0.933291 0.170332 0.524780
Si Si2 0.709317 0.170614 0.386303
Si Si3 0.830823 0.830265 0.589792
Si Si4 0.951556 0.678680 0.759502
Si Si5 0.140420 0.327895 0.193107
Si Si6 0.951064 0.321741 0.289562
Si Si7 0.852967 0.677334 0.817333
Si Si8 0.701701 0.675974 0.014708
O O1 0.879851 0.168815 0.534965
O O2 0.949411 0.254468 0.635286
O O3 0.946839 0.249156 0.410981
O O4 0.948503 0.000000 0.525978
O O5 0.750000 0.250000 0.323426
O O6 0.701177 0.262247 0.497888
O O7 0.665099 0.172889 0.312050
O O8 0.720320 0.000000 0.409015
O O9 0.835019 0.725919 0.696715
O O10 0.819375 0.000000 0.620209
O O11 0.949969 0.500000 0.751061
O O12 0.905556 0.722735 0.820529
O O13 0.000000 0.719933 0.809037
O O14 0.140809 0.500000 0.152337
O O15 0.089991 0.276349 0.211979
O O16 0.169454 0.225993 0.114179
O O17 0.947144 0.500000 0.303239
O O18 0.000000 0.287938 0.243419
O O19 0.850120 0.500000 0.832194
O O20 0.823153 0.761388 0.906217
O O21 0.706732 0.500000 0.010167
O O22 0.750000 0.750000 0.026223
#
# Coordination Sequence:
#
# PCOD9350154 Si02
#       8
#     8   8   8   8   8   8   8   8
#     4  10  19  30  49  80 120 162 201 243 289 341
#     4  11  22  36  57  85 117 154 194 240 295 359
#     4  10  20  35  55  83 121 160 197 240 294 352
#     4   9  18  33  55  84 119 161 204 242 285 342
#     4  10  22  41  63  88 119 155 199 248 296 349
#     4  10  20  35  57  85 119 160 203 244 288 343
#     4  10  21  39  63  89 120 155 198 248 296 349
#     4  12  26  45  69  92 115 148 195 248 304 362
#
# _framework density 9.8765429999999999
#
# number of rings (size 3 to 8) (size 9 to 14) (size 15 to 20)
#    0.000    1.750    1.250    3.375    0.000    6.500 
#    0.000    3.125    0.000    3.750    0.000    0.000 
#    0.000    0.000    0.000    0.000    0.000    0.000 
#
# Total GULP energy -178648.411135 kJ/mol
# GULP energy per Si atom -5582.762848 kJ/mol
# Density = 0.985406 g / cm^3
# Si number density = 9.876543 Si / 1000 Ang^3
#
#
#
# Elastic Constant Matrix: (Units=GPa)
#
#
# Indices 1 2 3 4 5 6 
#
# 1 151.6552 58.9966 53.6473 0.0000 0.0000 0.0000
# 2 58.9966 83.7102 33.6642 0.0000 0.0000 0.0000
# 3 53.6473 33.6642 55.3453 0.0000 0.0000 0.0000
# 4 0.0000 0.0000 0.0000 16.9469 0.0000 0.0000
# 5 0.0000 0.0000 0.0000 0.0000 4.6017 0.0000
# 6 0.0000 0.0000 0.0000 0.0000 0.0000 53.8802
#
#
#
# Elastic Compliance Matrix: (Units=1/GPa)
#
#
# Indices 1 2 3 4 5 6 
#
# 1 0.011279 -0.004703 -0.008072 0.000000 0.000000 0.000000
# 2 -0.004703 0.017775 -0.006253 0.000000 0.000000 0.000000
# 3 -0.008072 -0.006253 0.029697 0.000000 0.000000 0.000000
# 4 0.000000 0.000000 0.000000 0.059008 0.000000 0.000000
# 5 0.000000 0.000000 0.000000 0.000000 0.217312 0.000000
# 6 0.000000 0.000000 0.000000 0.000000 0.000000 0.018560
#
#
# Mechanical properties :
#
#
# Convention : Reuss Voigt Hill
#
# Bulk Modulus (GPa) = 48.32375 64.81411 56.56893
# Shear Modulus (GPa) = 12.54436 24.71259 18.62847
#
# Velocity S-wave (km/s) = 2.52277 3.54089 3.07427
# Velocity P-wave (km/s) = 5.74481 7.04277 6.42664
#
# Compressibility (1/GPa) = 0.02069376
#
# Stress axis : x y z
#
# Youngs Moduli (GPa) = 88.66085 56.25832 33.67369
#
# Poissons Ratio (x) = 0.26457 0.27183
# Poissons Ratio (y) = 0.41695 0.21057
# Poissons Ratio (z) = 0.71571 0.35181
#
# Static dielectric constant tensor:
#      x y z
#    x 1.767190 0.000000 0.000000 
#    y 0.000000 1.668830 0.000000 
#    z 0.000000 0.000000 1.681700 
# 
# From -- ./inp_files/11925.got.cif
#   From: 2010.05.17/outbox.ucp.g08.bks.cvg/sg35_6_cif.got.tgz:11925.got - 2010.06.11 10:36:28.
