data_PCOD9350461
_publ_section_title
;
Structure prediction by ZEFSAII (Michael W. Deem and Ramdas Pophale) SiO2 
 PCOD9350461
Probable space group: C M C 21
;
_chemical_formula_sum "Si O2"
_cell_formula_units_Z 40
_cell_length_a 27.820066
_cell_length_b 7.111059
_cell_length_c 7.784815
_cell_angle_alpha 90.000000
_cell_angle_beta 90.000000
_cell_angle_gamma 90.000000
_cell_volume 1540.070969
_symmetry_space_group_name_H-M "C M C 21"
_symmetry_group_IT_number 36
_symmetry_cell_setting 'orthorhombic'
loop_
_space_group_symop_operation_xyz
x,y,z
-x,-y,1/2+z
x,-y,1/2+z
-x,y,z
1/2+x,1/2+y,z
1/2-x,1/2-y,1/2+z
1/2+x,1/2-y,1/2+z
1/2-x,1/2+y,z
loop_
_atom_site_type_symbol
_atom_site_label
_atom_site_fract_x
_atom_site_fract_y
_atom_site_fract_z
Si Si1 0.000000 0.704252 0.904410
Si Si2 0.197656 0.901910 0.538345
Si Si3 0.799650 0.292215 0.406547
Si Si4 0.500000 0.382858 0.529000
Si Si5 0.100699 0.296501 0.465131
Si Si6 0.400028 0.620839 0.842847
O O1 0.000000 0.792048 0.715259
O O2 0.050319 0.600897 0.933178
O O3 0.000000 0.887404 0.030489
O O4 0.201418 0.799571 0.719097
O O5 0.248502 0.881502 0.441586
O O6 0.149576 0.836293 0.441969
O O7 0.193714 0.127041 0.547105
O O8 0.849697 0.403653 0.425969
O O9 0.549934 0.333810 0.436233
O O10 0.099713 0.215860 0.657676
O O11 0.100575 0.110062 0.341543
#
# Coordination Sequence:
#
# PCOD9350461 Si02
#       6
#     4   8   8   4   8   8
#     4  10  16  24  38  60  89 122 155 194 241 292
#     4  11  21  35  52  74 101 133 168 207 249 296
#     4  11  21  35  52  74 101 133 168 207 249 296
#     4  10  16  24  38  60  89 122 155 194 241 292
#     4  10  17  27  42  64  92 124 158 198 243 292
#     4  10  17  27  42  64  92 124 158 198 243 292
#
# _framework density 25.972829999999998
#
# number of rings (size 3 to 8) (size 9 to 14) (size 15 to 20)
#    0.000    1.600    0.000   13.800    0.000    0.000 
#    0.000    0.000    0.000    0.000    0.000    1.400 
#    0.000    0.000    0.000    0.000    0.000    0.000 
#
# Total GULP energy -111967.181414 kJ/mol
# GULP energy per Si atom -5598.359071 kJ/mol
# Density = 2.591371 g / cm^3
# Si number density = 25.972830 Si / 1000 Ang^3
#
#
#
# Elastic Constant Matrix: (Units=GPa)
#
#
# Indices 1 2 3 4 5 6 
#
# 1 340.6827 18.8235 63.6176 0.0000 0.0000 0.0000
# 2 18.8235 65.9752 -15.4394 0.0000 0.0000 0.0000
# 3 63.6176 -15.4394 82.8814 0.0000 0.0000 0.0000
# 4 0.0000 0.0000 0.0000 5.1021 0.0000 0.0000
# 5 0.0000 0.0000 0.0000 0.0000 57.1456 0.0000
# 6 0.0000 0.0000 0.0000 0.0000 0.0000 8.8326
#
#
#
# Elastic Compliance Matrix: (Units=1/GPa)
#
#
# Indices 1 2 3 4 5 6 
#
# 1 0.003611 -0.001755 -0.003099 0.000000 0.000000 0.000000
# 2 -0.001755 0.016701 0.004459 0.000000 0.000000 0.000000
# 3 -0.003099 0.004459 0.015274 0.000000 0.000000 0.000000
# 4 0.000000 0.000000 0.000000 0.195998 0.000000 0.000000
# 5 0.000000 0.000000 0.000000 0.000000 0.017499 0.000000
# 6 0.000000 0.000000 0.000000 0.000000 0.000000 0.113216
#
#
# Mechanical properties :
#
#
# Convention : Reuss Voigt Hill
#
# Bulk Modulus (GPa) = 28.73902 69.28252 49.01077
# Shear Modulus (GPa) = 13.34437 42.38524 27.86480
#
# Velocity S-wave (km/s) = 2.26913 4.04407 3.27898
# Velocity P-wave (km/s) = 4.23726 6.96699 5.76599
#
# Compressibility (1/GPa) = 0.03479589
#
# Stress axis : x y z
#
# Youngs Moduli (GPa) = 276.93979 59.87515 65.46897
#
# Poissons Ratio (x) = 0.10510 0.20286
# Poissons Ratio (y) = 0.48613 -0.29190
# Poissons Ratio (z) = 0.85813 -0.26696
#
# Static dielectric constant tensor:
#      x y z
#    x 2.148230 0.000000 0.000000 
#    y 0.000000 2.104720 0.000000 
#    z 0.000000 0.000000 2.016920 
# 
# From -- ./inp_files/5762.got.cif
#   From: 2010.05.17/outbox.cif.g08.bks.cpg/sg36_3_cif.got.tgz:5762.got - 2010.06.03 17:41:39.
