data_PCOD9350049
_publ_section_title
;
Structure prediction by ZEFSAII (Michael W. Deem and Ramdas Pophale) SiO2 
 PCOD9350049
Probable space group: C M M 2
;
_chemical_formula_sum "Si O2"
_cell_formula_units_Z 40
_cell_length_a 8.618617
_cell_length_b 19.689832
_cell_length_c 13.471852
_cell_angle_alpha 90.000000
_cell_angle_beta 90.000000
_cell_angle_gamma 90.000000
_cell_volume 2286.161440
_symmetry_space_group_name_H-M "C M M 2"
_symmetry_group_IT_number 35
_symmetry_cell_setting 'orthorhombic'
loop_
_space_group_symop_operation_xyz
x,y,z
-x,-y,z
-x,y,z
x,-y,z
1/2+x,1/2+y,z
1/2-x,1/2-y,z
1/2-x,1/2+y,z
1/2+x,1/2-y,z
loop_
_atom_site_type_symbol
_atom_site_label
_atom_site_fract_x
_atom_site_fract_y
_atom_site_fract_z
Si Si1 0.687521 0.326454 0.932530
Si Si2 0.315949 0.173436 0.508265
Si Si3 0.685899 0.326935 0.714106
Si Si4 0.189145 0.077953 0.110502
Si Si5 0.813082 0.920221 0.335209
O O1 0.500000 0.323521 0.935679
O O2 0.750000 0.250000 0.941355
O O3 0.729030 0.355086 0.822870
O O4 0.742942 0.372715 0.023298
O O5 0.500000 0.177991 0.512718
O O6 0.250000 0.250000 0.497388
O O7 0.254228 0.143272 0.612914
O O8 0.262456 0.127204 0.417220
O O9 0.500000 0.325982 0.706119
O O10 0.750000 0.250000 0.716052
O O11 0.234943 0.098081 0.222379
O O12 0.000000 0.078352 0.109399
O O13 0.237275 0.000000 0.093632
O O14 0.000000 0.913695 0.341380
O O15 0.775995 0.000000 0.350076
#
# Coordination Sequence:
#
# PCOD9350049 Si02
#       5
#     8   8   8   8   8
#     4   9  17  29  48  73  98 124 157 196 236 281
#     4  11  21  33  51  73  99 129 164 206 246 289
#     4   9  16  28  46  69  97 127 159 195 239 288
#     4   8  15  30  51  72  95 125 159 194 234 282
#     4   9  18  34  54  73  97 130 165 201 243 291
#
# _framework density 17.496576999999998
#
# number of rings (size 3 to 8) (size 9 to 14) (size 15 to 20)
#    0.000    2.800    0.000    4.800    0.000    2.000 
#    0.000    4.000    0.000    5.400    0.000    0.000 
#    0.000    0.000    0.000    0.000    0.000    0.000 
#
# Total GULP energy -111416.927485 kJ/mol
# GULP energy per Si atom -5570.846374 kJ/mol
# Density = 1.745675 g / cm^3
# Si number density = 17.496577 Si / 1000 Ang^3
#
#
#
# Elastic Constant Matrix: (Units=GPa)
#
#
# Indices 1 2 3 4 5 6 
#
# 1 50.2066 28.2297 53.1831 0.0000 0.0000 0.0000
# 2 28.2297 58.7466 90.8966 0.0000 0.0000 0.0000
# 3 53.1831 90.8966 215.0064 0.0000 0.0000 0.0000
# 4 0.0000 0.0000 0.0000 -19.3126 0.0000 0.0000
# 5 0.0000 0.0000 0.0000 0.0000 19.8774 0.0000
# 6 0.0000 0.0000 0.0000 0.0000 0.0000 19.1256
#
#
#
# Elastic Compliance Matrix: (Units=1/GPa)
#
#
# Indices 1 2 3 4 5 6 
#
# 1 0.028227 -0.007982 -0.003608 0.000000 0.000000 0.000000
# 2 -0.007982 0.051473 -0.019786 0.000000 0.000000 0.000000
# 3 -0.003608 -0.019786 0.013908 0.000000 0.000000 0.000000
# 4 0.000000 0.000000 0.000000 -0.051780 0.000000 0.000000
# 5 0.000000 0.000000 0.000000 0.000000 0.050309 0.000000
# 6 0.000000 0.000000 0.000000 0.000000 0.000000 0.052286
#
#
# Mechanical properties :
#
#
# Convention : Reuss Voigt Hill
#
# Bulk Modulus (GPa) = 32.40863 74.28649 53.34756
# Shear Modulus (GPa) = 22.99266 14.04807 18.52036
#
# Velocity S-wave (km/s) = 3.62902 2.83663 3.25701
# Velocity P-wave (km/s) = 6.01022 7.29921 6.68585
#
# Compressibility (1/GPa) = 0.03085598
#
# Stress axis : x y z
#
# Youngs Moduli (GPa) = 35.42664 19.42780 71.89979
#
# Poissons Ratio (x) = 0.15508 0.25938
# Poissons Ratio (y) = 0.28279 1.42262
# Poissons Ratio (z) = 0.12780 0.38440
#
# Static dielectric constant tensor:
#      x y z
#    x 1.593300 0.000000 0.000000 
#    y 0.000000 1.555760 0.000000 
#    z 0.000000 0.000000 1.635770 
# 
# From -- ./inp_files/11168.got.cif
#   From: 2010.05.17/outbox.cif.g08.bks.cpg/sg35_6_cif.got.tgz:11168.got - 2010.06.03 17:29:28.
