data_PCOD9350660
_publ_section_title
;
Structure prediction by ZEFSAII (Michael W. Deem and Ramdas Pophale) SiO2 
 PCOD9350660
Probable space group: C M C 21
;
_chemical_formula_sum "Si O2"
_cell_formula_units_Z 64
_cell_length_a 16.699361
_cell_length_b 19.930605
_cell_length_c 8.971403
_cell_angle_alpha 90.000000
_cell_angle_beta 90.000000
_cell_angle_gamma 90.000000
_cell_volume 2985.937418
_symmetry_space_group_name_H-M "C M C 21"
_symmetry_group_IT_number 36
_symmetry_cell_setting 'orthorhombic'
loop_
_space_group_symop_operation_xyz
x,y,z
-x,-y,1/2+z
x,-y,1/2+z
-x,y,z
1/2+x,1/2+y,z
1/2-x,1/2-y,1/2+z
1/2+x,1/2-y,1/2+z
1/2-x,1/2+y,z
loop_
_atom_site_type_symbol
_atom_site_label
_atom_site_fract_x
_atom_site_fract_y
_atom_site_fract_z
Si Si1 0.127724 0.091003 0.808480
Si Si2 0.779504 0.706775 0.079867
Si Si3 0.653127 0.522837 0.517669
Si Si4 0.360901 0.261730 0.359103
Si Si5 0.908758 0.473648 0.830082
Si Si6 0.913282 0.643368 0.553964
Si Si7 0.754301 0.077483 0.237965
Si Si8 0.679572 0.113976 0.830872
O O1 0.110479 0.071219 0.637161
O O2 0.100030 0.164329 0.861692
O O3 0.225846 0.095886 0.822925
O O4 0.103345 0.029342 0.915567
O O5 0.829848 0.751827 0.191228
O O6 0.732888 0.652825 0.183444
O O7 0.715785 0.738735 0.968697
O O8 0.833532 0.663004 0.968600
O O9 0.705688 0.474197 0.623506
O O10 0.708867 0.563101 0.400821
O O11 0.408161 0.197871 0.421771
O O12 0.840449 0.436189 0.735958
O O13 0.873602 0.547742 0.848137
O O14 0.000000 0.473654 0.773749
O O15 0.908504 0.430468 0.982168
O O16 0.845524 0.649024 0.677504
O O17 0.000000 0.651059 0.627716
#
# Coordination Sequence:
#
# PCOD9350660 Si02
#       8
#     8   8   8   8   8   8   8   8
#     4  10  20  32  56  83 111 148 176 243 294 350
#     4  11  23  35  56  83 110 149 194 257 291 347
#     4  10  18  32  53  78 115 137 179 226 299 342
#     4  11  22  38  56  83 112 150 201 236 309 347
#     4  11  22  33  54  80 112 160 202 233 273 328
#     4  11  25  41  56  77 116 163 204 242 281 349
#     4  11  18  34  49  76 114 151 178 236 280 327
#     4  11  21  37  51  80 110 152 204 243 285 322
#
# _framework density 21.433803000000001
#
# number of rings (size 3 to 8) (size 9 to 14) (size 15 to 20)
#    0.000    1.250    6.250    2.625    3.500    0.000 
#    0.000    1.875    0.000    0.000    0.000    0.875 
#    0.000    0.000    0.000    0.000    0.000    0.000 
#
# Total GULP energy -178677.067710 kJ/mol
# GULP energy per Si atom -5583.658366 kJ/mol
# Density = 2.138502 g / cm^3
# Si number density = 21.433803 Si / 1000 Ang^3
#
#
#
# Elastic Constant Matrix: (Units=GPa)
#
#
# Indices 1 2 3 4 5 6 
#
# 1 43.7934 5.4162 11.3830 0.0000 0.0000 0.0000
# 2 5.4162 83.3259 33.9026 0.0000 0.0000 0.0000
# 3 11.3830 33.9026 110.4406 0.0000 0.0000 0.0000
# 4 0.0000 0.0000 0.0000 48.9078 0.0000 0.0000
# 5 0.0000 0.0000 0.0000 0.0000 7.5314 0.0000
# 6 0.0000 0.0000 0.0000 0.0000 0.0000 -0.1870
#
#
#
# Elastic Compliance Matrix: (Units=1/GPa)
#
#
# Indices 1 2 3 4 5 6 
#
# 1 0.023491 -0.000619 -0.002231 0.000000 0.000000 0.000000
# 2 -0.000619 0.013730 -0.004151 0.000000 0.000000 0.000000
# 3 -0.002231 -0.004151 0.010559 0.000000 0.000000 0.000000
# 4 0.000000 0.000000 0.000000 0.020447 0.000000 0.000000
# 5 0.000000 0.000000 0.000000 0.000000 0.132777 0.000000
# 6 0.000000 0.000000 0.000000 0.000000 0.000000 -5.346300
#
#
# Mechanical properties :
#
#
# Convention : Reuss Voigt Hill
#
# Bulk Modulus (GPa) = 29.60550 37.66259 33.63404
# Shear Modulus (GPa) = -0.97656 23.70764 11.36554
#
# Velocity S-wave (km/s) = -0.67572 3.32940 2.30524
# Velocity P-wave (km/s) = 3.63782 5.69118 4.77615
#
# Compressibility (1/GPa) = 0.03377750
#
# Stress axis : x y z
#
# Youngs Moduli (GPa) = 42.56950 72.83200 94.70712
#
# Poissons Ratio (x) = 0.04509 0.21130
# Poissons Ratio (y) = 0.02636 0.39313
# Poissons Ratio (z) = 0.09498 0.30233
#
# Static dielectric constant tensor:
#      x y z
#    x 1.774100 0.000000 0.000000 
#    y 0.000000 1.826060 0.000000 
#    z 0.000000 0.000000 1.801450 
# 
# From -- ./inp_files/4925.got.cif
#   From: 2010.05.17/outbox.cif.g08.bks.cpg/sg36_3_cif.got.tgz:4925.got - 2010.06.03 17:41:39.
