data_PCOD9350169
_publ_section_title
;
Structure prediction by ZEFSAII (Michael W. Deem and Ramdas Pophale) SiO2 
 PCOD9350169
Probable space group: C M M 2
;
_chemical_formula_sum "Si O2"
_cell_formula_units_Z 20
_cell_length_a 27.000000
_cell_length_b 9.000000
_cell_length_c 9.000000
_cell_angle_alpha 90.000000
_cell_angle_beta 90.000000
_cell_angle_gamma 90.000000
_cell_volume 2187.000000
_symmetry_space_group_name_H-M "C M M 2"
_symmetry_group_IT_number 35
_symmetry_cell_setting 'orthorhombic'
loop_
_space_group_symop_operation_xyz
x,y,z
-x,-y,z
-x,y,z
x,-y,z
1/2+x,1/2+y,z
1/2-x,1/2-y,z
1/2-x,1/2+y,z
1/2+x,1/2-y,z
loop_
_atom_site_type_symbol
_atom_site_label
_atom_site_fract_x
_atom_site_fract_y
_atom_site_fract_z
Si Si1 0.596050 0.823355 0.464100
Si Si2 0.099226 0.324426 0.818558
Si Si3 0.500000 0.180005 0.993032
Si Si4 0.000000 0.177583 0.315492
Si Si5 0.698994 0.327354 0.459624
Si Si6 0.300023 0.329689 0.822063
O O1 0.593145 0.799951 0.642110
O O2 0.549292 0.742995 0.391881
O O3 0.648879 0.756852 0.413190
O O4 0.594201 0.000000 0.435451
O O5 0.106352 0.500000 0.839787
O O6 0.148801 0.243759 0.871716
O O7 0.049325 0.279981 0.901982
O O8 0.500000 0.263308 0.147984
O O9 0.500000 0.000000 0.013774
O O10 0.000000 0.000000 0.323429
O O11 0.697625 0.500000 0.416147
O O12 0.750000 0.250000 0.409577
O O13 0.699666 0.322264 0.640896
O O14 0.298596 0.500000 0.866252
O O15 0.250000 0.250000 0.872739
#
# Coordination Sequence:
#
# PCOD9350169 Si02
#       6
#     8   8   4   4   8   8
#     4  10  19  34  56  80 105 136 173 215 260 307
#     4   9  18  33  55  80 104 132 171 214 256 304
#     4  10  21  38  56  74 100 136 173 212 260 312
#     4  12  25  38  52  74 104 138 175 216 260 312
#     4   9  16  27  45  74 108 139 170 208 253 302
#     4   9  16  26  44  72 106 138 168 205 251 299
#
# _framework density 9.1449470000000002
#
# number of rings (size 3 to 8) (size 9 to 14) (size 15 to 20)
#    0.000    2.400    0.000    3.300    0.000    8.000 
#    0.000    1.000    0.000    1.200    0.000    2.800 
#    0.000    0.000    0.000    0.000    0.000    0.000 
#
# Total GULP energy -111592.751978 kJ/mol
# GULP energy per Si atom -5579.637599 kJ/mol
# Density = 0.912413 g / cm^3
# Si number density = 9.144947 Si / 1000 Ang^3
#
#
#
# Elastic Constant Matrix: (Units=GPa)
#
#
# Indices 1 2 3 4 5 6 
#
# 1 245.6903 127.2624 55.9633 0.0000 0.0000 0.0000
# 2 127.2624 118.2242 53.6743 0.0000 0.0000 0.0000
# 3 55.9633 53.6743 17.3898 0.0000 0.0000 0.0000
# 4 0.0000 0.0000 0.0000 14.8800 0.0000 0.0000
# 5 0.0000 0.0000 0.0000 0.0000 -7.2477 0.0000
# 6 0.0000 0.0000 0.0000 0.0000 0.0000 41.9030
#
#
#
# Elastic Compliance Matrix: (Units=1/GPa)
#
#
# Indices 1 2 3 4 5 6 
#
# 1 0.009160 -0.008779 -0.002382 0.000000 0.000000 0.000000
# 2 -0.008779 -0.012664 0.067339 0.000000 0.000000 0.000000
# 3 -0.002382 0.067339 -0.142676 0.000000 0.000000 0.000000
# 4 0.000000 0.000000 0.000000 0.067204 0.000000 0.000000
# 5 0.000000 0.000000 0.000000 0.000000 -0.137975 0.000000
# 6 0.000000 0.000000 0.000000 0.000000 0.000000 0.023865
#
#
# Mechanical properties :
#
#
# Convention : Reuss Voigt Hill
#
# Bulk Modulus (GPa) = -29.56603 95.01158 32.72278
# Shear Modulus (GPa) = -15.78693 19.53401 1.87354
#
# Velocity S-wave (km/s) = -2.94113 3.27161 1.01320
# Velocity P-wave (km/s) = 5.26631 8.14442 4.39304
#
# Compressibility (1/GPa) = -0.03382260
#
# Stress axis : x y z
#
# Youngs Moduli (GPa) = 109.17048 -78.96604 -7.00886
#
# Poissons Ratio (x) = -0.69325 -0.01669
# Poissons Ratio (y) = 0.95841 0.47197
# Poissons Ratio (z) = 0.25999 5.31752
#
# Static dielectric constant tensor:
#      x y z
#    x 1.617300 0.000000 0.000000 
#    y 0.000000 1.614010 0.000000 
#    z 0.000000 0.000000 1.613280 
# 
# From -- ./inp_files/5002.got.cif
#   From: 2010.05.17/outbox.ucp.g08.bks.cvg/sg35_3_cif.got.tgz:5002.got - 2010.06.11 10:36:28.
