data_PCOD9350375
_publ_section_title
;
Structure prediction by ZEFSAII (Michael W. Deem and Ramdas Pophale) SiO2 
 PCOD9350375
Probable space group: C M M 2
;
_chemical_formula_sum "Si O2"
_cell_formula_units_Z 64
_cell_length_a 30.388313
_cell_length_b 7.935335
_cell_length_c 12.775550
_cell_angle_alpha 90.000000
_cell_angle_beta 90.000000
_cell_angle_gamma 90.000000
_cell_volume 3080.714572
_symmetry_space_group_name_H-M "C M M 2"
_symmetry_group_IT_number 35
_symmetry_cell_setting 'orthorhombic'
loop_
_space_group_symop_operation_xyz
x,y,z
-x,-y,z
-x,y,z
x,-y,z
1/2+x,1/2+y,z
1/2-x,1/2-y,z
1/2-x,1/2+y,z
1/2+x,1/2-y,z
loop_
_atom_site_type_symbol
_atom_site_label
_atom_site_fract_x
_atom_site_fract_y
_atom_site_fract_z
Si Si1 0.797074 0.798027 0.351200
Si Si2 0.698676 0.204130 0.717109
Si Si3 0.547593 0.800962 0.973834
Si Si4 0.862046 0.301262 0.528068
Si Si5 0.548222 0.202116 0.439660
Si Si6 0.170349 0.804155 0.138998
Si Si7 0.068903 0.804824 0.203605
Si Si8 0.856312 0.301367 0.915347
O O1 0.750000 0.750000 0.397293
O O2 0.835199 0.721154 0.421127
O O3 0.799806 0.733482 0.231782
O O4 0.802375 0.000000 0.349672
O O5 0.750000 0.250000 0.711130
O O6 0.668974 0.267686 0.620064
O O7 0.674157 0.265902 0.822452
O O8 0.697705 0.000000 0.716106
O O9 0.500000 0.729858 0.939655
O O10 0.593803 0.729597 0.928630
O O11 0.547287 0.000000 0.949778
O O12 0.550392 0.782743 0.099795
O O13 0.867349 0.500000 0.549690
O O14 0.910640 0.229342 0.506346
O O15 0.500000 0.268441 0.468692
O O16 0.555829 0.234172 0.316096
O O17 0.547862 0.000000 0.453158
O O18 0.121454 0.796502 0.188552
O O19 0.181379 0.000000 0.120610
O O20 0.167624 0.718530 0.026905
O O21 0.055609 0.000000 0.199888
O O22 0.861769 0.500000 0.895432
#
# Coordination Sequence:
#
# PCOD9350375 Si02
#       8
#     8   8   8   8   8   8   8   8
#     4  11  22  36  54  80 111 142 178 221 272 331
#     4  10  22  40  60  82 104 134 180 229 275 323
#     4   9  17  30  49  75 107 143 180 215 258 316
#     4  10  21  38  58  79 108 143 181 226 272 323
#     4  10  20  33  51  77 109 145 182 219 265 321
#     4   9  19  34  51  75 110 144 176 217 265 318
#     4  10  18  30  48  74 108 146 183 220 260 308
#     4   9  19  35  55  78 106 138 176 221 268 318
#
# _framework density 20.774401000000001
#
# number of rings (size 3 to 8) (size 9 to 14) (size 15 to 20)
#    0.000    2.250    1.250    1.500    0.000    6.000 
#    0.000    3.125    0.000    3.750    0.000    0.000 
#    0.000    5.000    0.000    0.000    0.000    0.000 
#
# Total GULP energy -178482.629633 kJ/mol
# GULP energy per Si atom -5577.582176 kJ/mol
# Density = 2.072712 g / cm^3
# Si number density = 20.774401 Si / 1000 Ang^3
#
#
#
# Elastic Constant Matrix: (Units=GPa)
#
#
# Indices 1 2 3 4 5 6 
#
# 1 162.7475 4.9370 81.9869 0.0000 0.0000 0.0000
# 2 4.9370 20.9348 0.6737 0.0000 0.0000 0.0000
# 3 81.9869 0.6737 112.6400 0.0000 0.0000 0.0000
# 4 0.0000 0.0000 0.0000 -74.2688 0.0000 0.0000
# 5 0.0000 0.0000 0.0000 0.0000 151.6356 0.0000
# 6 0.0000 0.0000 0.0000 0.0000 0.0000 1.6312
#
#
#
# Elastic Compliance Matrix: (Units=1/GPa)
#
#
# Indices 1 2 3 4 5 6 
#
# 1 0.009792 -0.002080 -0.007115 0.000000 0.000000 0.000000
# 2 -0.002080 0.048219 0.001226 0.000000 0.000000 0.000000
# 3 -0.007115 0.001226 0.014049 0.000000 0.000000 0.000000
# 4 0.000000 0.000000 0.000000 -0.013465 0.000000 0.000000
# 5 0.000000 0.000000 0.000000 0.000000 0.006595 0.000000
# 6 0.000000 0.000000 0.000000 0.000000 0.000000 0.613058
#
#
# Mechanical properties :
#
#
# Convention : Reuss Voigt Hill
#
# Bulk Modulus (GPa) = 17.81862 52.39084 35.10473
# Shear Modulus (GPa) = 7.01368 29.71458 18.36413
#
# Velocity S-wave (km/s) = 1.83941 3.78609 2.97640
# Velocity P-wave (km/s) = 3.62037 6.66231 5.36160
#
# Compressibility (1/GPa) = 0.05612108
#
# Stress axis : x y z
#
# Youngs Moduli (GPa) = 102.12730 20.73890 71.17948
#
# Poissons Ratio (x) = 0.04314 0.50641
# Poissons Ratio (y) = 0.21245 -0.08725
# Poissons Ratio (z) = 0.72660 -0.02542
#
# Static dielectric constant tensor:
#      x y z
#    x 0.995890 0.000000 0.000000 
#    y 0.000000 1.763090 0.000000 
#    z 0.000000 0.000000 1.726380 
# 
# From -- ./inp_files/11943.got.cif
#   From: 2010.05.17/outbox.cif.g08.bks.cpg/sg35_6_cif.got.tgz:11943.got - 2010.06.03 17:29:28.
