data_PCOD9350771
_publ_section_title
;
Structure prediction by ZEFSAII (Michael W. Deem and Ramdas Pophale) SiO2 
 PCOD9350771
Probable space group: C M C 21
;
_chemical_formula_sum "Si O2"
_cell_formula_units_Z 64
_cell_length_a 15.678482
_cell_length_b 11.216354
_cell_length_c 15.676918
_cell_angle_alpha 90.000000
_cell_angle_beta 90.000000
_cell_angle_gamma 90.000000
_cell_volume 2756.870753
_symmetry_space_group_name_H-M "C M C 21"
_symmetry_group_IT_number 36
_symmetry_cell_setting 'orthorhombic'
loop_
_space_group_symop_operation_xyz
x,y,z
-x,-y,1/2+z
x,-y,1/2+z
-x,y,z
1/2+x,1/2+y,z
1/2-x,1/2-y,1/2+z
1/2+x,1/2-y,1/2+z
1/2-x,1/2+y,z
loop_
_atom_site_type_symbol
_atom_site_label
_atom_site_fract_x
_atom_site_fract_y
_atom_site_fract_z
Si Si1 0.599326 0.287753 0.146840
Si Si2 0.904451 0.968179 0.540836
Si Si3 0.244628 0.517868 0.747518
Si Si4 0.664100 0.206180 0.335793
Si Si5 0.656887 0.805586 0.337906
Si Si6 0.905776 0.521950 0.450274
Si Si7 0.274172 0.898026 0.567693
Si Si8 0.906767 0.043710 0.344007
O O1 0.500000 0.252514 0.136288
O O2 0.604832 0.422948 0.109310
O O3 0.625081 0.254485 0.245576
O O4 0.663496 0.212959 0.085755
O O5 0.900164 0.021674 0.444942
O O6 0.000000 0.917968 0.552867
O O7 0.824437 0.879083 0.543010
O O8 0.204323 0.420374 0.809486
O O9 0.188584 0.636822 0.749526
O O10 0.238676 0.460798 0.657459
O O11 0.337209 0.524673 0.789309
O O12 0.746920 0.276724 0.373738
O O13 0.600361 0.153197 0.406450
O O14 0.607327 0.683755 0.329628
O O15 0.604075 0.906370 0.386841
O O16 0.824916 0.493228 0.509819
O O17 0.000000 0.512383 0.490524
O O18 0.000000 0.004779 0.315552
#
# Coordination Sequence:
#
# PCOD9350771 Si02
#       8
#     8   8   8   8   8   8   8   8
#     4  10  20  36  59  87 116 153 196 237 283 344
#     4  10  21  36  58  84 111 146 190 237 289 347
#     4   9  20  34  54  80 108 146 185 227 284 338
#     4   9  19  35  55  82 117 147 183 237 288 332
#     4  10  18  35  59  80 105 147 192 228 281 346
#     4  11  22  36  57  85 114 151 193 237 289 348
#     4  11  21  36  57  82 116 150 190 240 287 343
#     4  10  20  36  55  80 109 138 182 239 286 336
#
# _framework density 23.214727
#
# number of rings (size 3 to 8) (size 9 to 14) (size 15 to 20)
#    0.000    2.000    0.000    4.875    0.000    1.500 
#    0.000    3.125    0.000    6.000    0.000    0.000 
#    0.000    0.000    0.000    0.000    0.000    0.000 
#
# Total GULP energy -178299.267228 kJ/mol
# GULP energy per Si atom -5571.852101 kJ/mol
# Density = 2.316189 g / cm^3
# Si number density = 23.214727 Si / 1000 Ang^3
#
#
#
# Elastic Constant Matrix: (Units=GPa)
#
#
# Indices 1 2 3 4 5 6 
#
# 1 172.9526 27.0084 21.8013 0.0000 0.0000 0.0000
# 2 27.0084 47.5419 0.9736 0.0000 0.0000 0.0000
# 3 21.8013 0.9736 39.7535 0.0000 0.0000 0.0000
# 4 0.0000 0.0000 0.0000 -1.5779 0.0000 0.0000
# 5 0.0000 0.0000 0.0000 0.0000 28.0757 0.0000
# 6 0.0000 0.0000 0.0000 0.0000 0.0000 -5.9331
#
#
#
# Elastic Compliance Matrix: (Units=1/GPa)
#
#
# Indices 1 2 3 4 5 6 
#
# 1 0.006838 -0.003810 -0.003657 0.000000 0.000000 0.000000
# 2 -0.003810 0.023167 0.001522 0.000000 0.000000 0.000000
# 3 -0.003657 0.001522 0.027123 0.000000 0.000000 0.000000
# 4 0.000000 0.000000 0.000000 -0.633769 0.000000 0.000000
# 5 0.000000 0.000000 0.000000 0.000000 0.035618 0.000000
# 6 0.000000 0.000000 0.000000 0.000000 0.000000 -0.168545
#
#
# Mechanical properties :
#
#
# Convention : Reuss Voigt Hill
#
# Bulk Modulus (GPa) = 22.10471 39.97942 31.04207
# Shear Modulus (GPa) = -7.32494 18.14393 5.40949
#
# Velocity S-wave (km/s) = -1.77824 2.79869 1.52815
# Velocity P-wave (km/s) = 2.30788 5.26332 4.06379
#
# Compressibility (1/GPa) = 0.04523923
#
# Stress axis : x y z
#
# Youngs Moduli (GPa) = 146.24634 43.16458 36.86895
#
# Poissons Ratio (x) = 0.16444 0.13482
# Poissons Ratio (y) = 0.55715 -0.05611
# Poissons Ratio (z) = 0.53477 -0.06569
#
# Static dielectric constant tensor:
#      x y z
#    x 1.962130 0.000000 0.000000 
#    y 0.000000 1.878710 0.000000 
#    z 0.000000 0.000000 1.929550 
# 
# From -- ./inp_files/14720.got.cif
#   From: 2010.05.17/outbox.cif.g08.bks.cpg/sg36_8_cif.got.tgz:14720.got - 2010.06.03 17:41:39.
