data_PCOD9350503
_publ_section_title
;
Structure prediction by ZEFSAII (Michael W. Deem and Ramdas Pophale) SiO2 
 PCOD9350503
Probable space group: C M C 21
;
_chemical_formula_sum "Si O2"
_cell_formula_units_Z 64
_cell_length_a 13.841598
_cell_length_b 24.095340
_cell_length_c 9.648276
_cell_angle_alpha 90.000000
_cell_angle_beta 90.000000
_cell_angle_gamma 90.000000
_cell_volume 3217.873811
_symmetry_space_group_name_H-M "C M C 21"
_symmetry_group_IT_number 36
_symmetry_cell_setting 'orthorhombic'
loop_
_space_group_symop_operation_xyz
x,y,z
-x,-y,1/2+z
x,-y,1/2+z
-x,y,z
1/2+x,1/2+y,z
1/2-x,1/2-y,1/2+z
1/2+x,1/2-y,1/2+z
1/2-x,1/2+y,z
loop_
_atom_site_type_symbol
_atom_site_label
_atom_site_fract_x
_atom_site_fract_y
_atom_site_fract_z
Si Si1 0.116101 0.951190 0.948580
Si Si2 0.730506 0.477261 0.224463
Si Si3 0.394219 0.696572 0.784389
Si Si4 0.613293 0.676612 0.453217
Si Si5 0.391814 0.934005 0.653418
Si Si6 0.107038 0.396235 0.331501
Si Si7 0.108904 0.684334 0.195581
Si Si8 0.199042 0.291317 0.412001
O O1 0.136826 0.886416 0.910801
O O2 0.000000 0.958076 0.945647
O O3 0.169327 0.994946 0.848428
O O4 0.158388 0.960610 0.101917
O O5 0.806950 0.523540 0.175815
O O6 0.801987 0.426882 0.263784
O O7 0.500000 0.675314 0.826020
O O8 0.380332 0.681592 0.621929
O O9 0.393771 0.763814 0.796390
O O10 0.301548 0.682433 0.872316
O O11 0.500000 0.687335 0.420980
O O12 0.677770 0.726106 0.389615
O O13 0.500000 0.955354 0.685257
O O14 0.391469 0.914952 0.493070
O O15 0.375466 0.878137 0.743790
O O16 0.123498 0.330189 0.331205
O O17 0.000000 0.409900 0.275641
O O18 0.000000 0.683912 0.132045
O O19 0.182172 0.699006 0.074428
#
# Coordination Sequence:
#
# PCOD9350503 Si02
#       8
#     8   8   8   8   8   8   8   8
#     4  11  25  42  62  85 119 160 211 256 297 357
#     4  12  22  40  62  88 120 157 201 247 312 355
#     4   9  17  30  51  79 112 149 191 231 283 348
#     4   9  19  37  57  81 110 151 195 239 291 356
#     4   9  18  34  56  83 115 150 191 239 291 357
#     4  10  20  36  59  91 120 150 197 248 299 364
#     4   8  16  31  51  75 104 143 189 229 276 345
#     4  10  17  30  58  82 110 148 189 235 289 346
#
# _framework density 19.888909000000002
#
# number of rings (size 3 to 8) (size 9 to 14) (size 15 to 20)
#    0.000    2.250    1.250    4.125    1.750    0.000 
#    0.000    0.625    0.000   13.500    0.000    0.000 
#    0.000    0.000    0.000    0.000    0.000    0.000 
#
# Total GULP energy -178284.628902 kJ/mol
# GULP energy per Si atom -5571.394653 kJ/mol
# Density = 1.984364 g / cm^3
# Si number density = 19.888909 Si / 1000 Ang^3
#
#
#
# Elastic Constant Matrix: (Units=GPa)
#
#
# Indices 1 2 3 4 5 6 
#
# 1 121.9947 29.4761 30.3731 0.0000 0.0000 0.0000
# 2 29.4761 82.9894 13.4482 0.0000 0.0000 0.0000
# 3 30.3731 13.4482 31.0600 0.0000 0.0000 0.0000
# 4 0.0000 0.0000 0.0000 10.1233 0.0000 0.0000
# 5 0.0000 0.0000 0.0000 0.0000 26.6222 0.0000
# 6 0.0000 0.0000 0.0000 0.0000 0.0000 28.8896
#
#
#
# Elastic Compliance Matrix: (Units=1/GPa)
#
#
# Indices 1 2 3 4 5 6 
#
# 1 0.011256 -0.002381 -0.009976 0.000000 0.000000 0.000000
# 2 -0.002381 0.013463 -0.003500 0.000000 0.000000 0.000000
# 3 -0.009976 -0.003500 0.043467 0.000000 0.000000 0.000000
# 4 0.000000 0.000000 0.000000 0.098782 0.000000 0.000000
# 5 0.000000 0.000000 0.000000 0.000000 0.037563 0.000000
# 6 0.000000 0.000000 0.000000 0.000000 0.000000 0.034615
#
#
# Mechanical properties :
#
#
# Convention : Reuss Voigt Hill
#
# Bulk Modulus (GPa) = 27.41978 42.51544 34.96761
# Shear Modulus (GPa) = 17.66672 23.97678 20.82175
#
# Velocity S-wave (km/s) = 2.98362 3.47585 3.23910
# Velocity P-wave (km/s) = 5.06811 6.12630 5.62216
#
# Compressibility (1/GPa) = 0.03647003
#
# Stress axis : x y z
#
# Youngs Moduli (GPa) = 88.83959 74.27892 23.00602
#
# Poissons Ratio (x) = 0.17689 0.22951
# Poissons Ratio (y) = 0.21156 0.08053
# Poissons Ratio (z) = 0.88628 0.26000
#
# Static dielectric constant tensor:
#      x y z
#    x 1.719750 0.000000 0.000000 
#    y 0.000000 1.770170 0.000000 
#    z 0.000000 0.000000 1.687900 
# 
# From -- ./inp_files/4334.got.cif
#   From: 2010.05.17/outbox.cif.g08.bks.cpg/sg36_3_cif.got.tgz:4334.got - 2010.06.03 17:41:39.
