data_PCOD9350816
_publ_section_title
;
Structure prediction by ZEFSAII (Michael W. Deem and Ramdas Pophale) SiO2 
 PCOD9350816
Probable space group: C M C 21
;
_chemical_formula_sum "Si O2"
_cell_formula_units_Z 60
_cell_length_a 23.074284
_cell_length_b 36.972443
_cell_length_c 5.284374
_cell_angle_alpha 90.000000
_cell_angle_beta 90.000000
_cell_angle_gamma 90.000000
_cell_volume 4508.166306
_symmetry_space_group_name_H-M "C M C 21"
_symmetry_group_IT_number 36
_symmetry_cell_setting 'orthorhombic'
loop_
_space_group_symop_operation_xyz
x,y,z
-x,-y,1/2+z
x,-y,1/2+z
-x,y,z
1/2+x,1/2+y,z
1/2-x,1/2-y,1/2+z
1/2+x,1/2-y,1/2+z
1/2-x,1/2+y,z
loop_
_atom_site_type_symbol
_atom_site_label
_atom_site_fract_x
_atom_site_fract_y
_atom_site_fract_z
Si Si1 0.563745 0.353236 0.875000
Si Si2 0.500000 0.477469 0.918910
Si Si3 0.208589 0.291870 0.356328
Si Si4 0.779399 0.862140 0.376955
Si Si5 0.102058 0.184700 0.875051
Si Si6 0.627764 0.524428 0.335439
Si Si7 0.317715 0.399668 0.876780
Si Si8 0.671812 0.755215 0.856572
O O1 0.500000 0.370817 0.872550
O O2 0.570380 0.328016 0.628588
O O3 0.618615 0.380328 0.875119
O O4 0.569741 0.328799 0.125200
O O5 0.500000 0.489243 0.213957
O O6 0.438168 0.460049 0.858977
O O7 0.226907 0.333724 0.365502
O O8 0.268969 0.268905 0.356372
O O9 0.174159 0.278604 0.602268
O O10 0.175905 0.280371 0.102093
O O11 0.837203 0.837285 0.375704
O O12 0.783371 0.884815 0.634062
O O13 0.785623 0.887235 0.131431
O O14 0.119603 0.226634 0.868001
O O15 0.633497 0.503617 0.068833
O O16 0.671046 0.557744 0.360707
#
# Coordination Sequence:
#
# PCOD9350816 Si02
#       8
#     8   4   8   8   8   8   8   8
#     4  10  19  29  40  52  68  93 118 144 176 216
#     4   8  16  28  40  52  64  76  96 136 178 208
#     4   9  15  23  37  54  72  88 109 126 156 203
#     4   9  17  28  38  55  73  90 106 132 166 208
#     4   9  17  28  38  52  72  88 114 142 165 199
#     4  10  19  31  43  55  67  83 109 144 181 219
#     4  10  19  29  42  53  70  90 111 141 178 219
#     4   9  15  23  37  54  69  91 108 132 160 189
#
# _framework density 13.309181000000001
#
# number of rings (size 3 to 8) (size 9 to 14) (size 15 to 20)
#    0.000    2.667    0.000    2.800    0.933    6.400 
#    0.000    0.000    0.000    0.000    0.000    0.000 
#    0.000    0.000    0.000    0.000    0.000    0.000 
#
# Total GULP energy -167071.825939 kJ/mol
# GULP energy per Si atom -5569.060865 kJ/mol
# Density = 1.327889 g / cm^3
# Si number density = 13.309181 Si / 1000 Ang^3
#
#
#
# Elastic Constant Matrix: (Units=GPa)
#
#
# Indices 1 2 3 4 5 6 
#
# 1 6.9907 9.0997 4.8309 0.0000 0.0000 0.0000
# 2 9.0997 47.0394 12.2472 0.0000 0.0000 0.0000
# 3 4.8309 12.2472 89.2909 0.0000 0.0000 0.0000
# 4 0.0000 0.0000 0.0000 11.0136 0.0000 0.0000
# 5 0.0000 0.0000 0.0000 0.0000 12.5890 0.0000
# 6 0.0000 0.0000 0.0000 0.0000 0.0000 22.0925
#
#
#
# Elastic Compliance Matrix: (Units=1/GPa)
#
#
# Indices 1 2 3 4 5 6 
#
# 1 0.193799 -0.036047 -0.005541 0.000000 0.000000 0.000000
# 2 -0.036047 0.028751 -0.001993 0.000000 0.000000 0.000000
# 3 -0.005541 -0.001993 0.011773 0.000000 0.000000 0.000000
# 4 0.000000 0.000000 0.000000 0.090797 0.000000 0.000000
# 5 0.000000 0.000000 0.000000 0.000000 0.079434 0.000000
# 6 0.000000 0.000000 0.000000 0.000000 0.000000 0.045264
#
#
# Mechanical properties :
#
#
# Convention : Reuss Voigt Hill
#
# Bulk Modulus (GPa) = 6.79533 21.74182 14.26857
# Shear Modulus (GPa) = 8.53192 16.94858 12.74025
#
# Velocity S-wave (km/s) = 2.53465 3.57241 3.09731
# Velocity P-wave (km/s) = 3.69903 5.77820 4.85131
#
# Compressibility (1/GPa) = 0.14715992
#
# Stress axis : x y z
#
# Youngs Moduli (GPa) = 5.15998 34.78136 84.94363
#
# Poissons Ratio (x) = 1.25378 0.47065
# Poissons Ratio (y) = 0.18600 0.16931
# Poissons Ratio (z) = 0.02859 0.06933
#
# Static dielectric constant tensor:
#      x y z
#    x 1.414400 0.000000 0.000000 
#    y 0.000000 1.425720 0.000000 
#    z 0.000000 0.000000 1.446640 
# 
# From -- ./inp_files/1517.got.cif
#   From: 2010.05.17/outbox.cif.g08.bks.cpg/sg36_1_cif.got.tgz:1517.got - 2010.06.03 17:41:39.
