data_PCOD9350006
_publ_section_title
;
Structure prediction by ZEFSAII (Michael W. Deem and Ramdas Pophale) SiO2 
 PCOD9350006
Probable space group: C M M 2
;
_chemical_formula_sum "Si O2"
_cell_formula_units_Z 56
_cell_length_a 29.489063
_cell_length_b 14.409875
_cell_length_c 5.707275
_cell_angle_alpha 90.000000
_cell_angle_beta 90.000000
_cell_angle_gamma 90.000000
_cell_volume 2425.213549
_symmetry_space_group_name_H-M "C M M 2"
_symmetry_group_IT_number 35
_symmetry_cell_setting 'orthorhombic'
loop_
_space_group_symop_operation_xyz
x,y,z
-x,-y,z
-x,y,z
x,-y,z
1/2+x,1/2+y,z
1/2-x,1/2-y,z
1/2-x,1/2+y,z
1/2+x,1/2-y,z
loop_
_atom_site_type_symbol
_atom_site_label
_atom_site_fract_x
_atom_site_fract_y
_atom_site_fract_z
Si Si1 0.237500 0.359390 0.055030
Si Si2 0.573288 0.249961 0.764413
Si Si3 0.227831 0.851566 0.548450
Si Si4 0.450967 0.105273 0.384455
Si Si5 0.868970 0.393730 0.018412
Si Si6 0.548791 0.604765 0.113522
Si Si7 0.873713 0.893614 0.480371
O O1 0.250000 0.250000 0.057736
O O2 0.255730 0.397148 0.304000
O O3 0.183654 0.375585 0.066339
O O4 0.258293 0.393102 0.804030
O O5 0.548635 0.184435 0.579685
O O6 0.592299 0.342358 0.649340
O O7 0.614524 0.184687 0.842559
O O8 0.547290 0.298005 0.976031
O O9 0.250000 0.750000 0.554369
O O10 0.174199 0.843906 0.506945
O O11 0.500000 0.109557 0.254835
O O12 0.405749 0.115815 0.228575
O O13 0.448783 0.000000 0.484261
O O14 0.873300 0.500000 0.932935
O O15 0.500000 0.604132 0.250939
O O16 0.548889 0.500000 0.000939
O O17 0.597462 0.609275 0.241696
O O18 0.865299 0.000000 0.540733
#
# Coordination Sequence:
#
# PCOD9350006 Si02
#       7
#     8   8   8   8   8   8   8
#     4  10  23  42  70 102 141 189 240 304 368 439
#     4  12  23  40  73 100 136 190 237 298 353 434
#     4  10  23  42  70 102 141 189 240 304 368 439
#     4  10  24  45  69 103 145 187 236 296 365 441
#     4  11  26  44  68 102 143 187 238 298 365 438
#     4  10  24  45  69 103 145 187 236 296 365 441
#     4  11  26  44  68 102 143 187 238 298 365 438
#
# _framework density 23.090751000000001
#
# number of rings (size 3 to 8) (size 9 to 14) (size 15 to 20)
#    0.000    1.429    0.000    3.857   12.000    4.571 
#    0.000    2.857    0.000    0.000    0.000    0.000 
#    0.000    0.000    0.000    0.000    0.000    0.000 
#
# Total GULP energy -156012.164811 kJ/mol
# GULP energy per Si atom -5571.863029 kJ/mol
# Density = 2.303820 g / cm^3
# Si number density = 23.090751 Si / 1000 Ang^3
#
#
#
# Elastic Constant Matrix: (Units=GPa)
#
#
# Indices 1 2 3 4 5 6 
#
# 1 133.8785 8.7149 22.4629 0.0000 0.0000 0.0000
# 2 8.7149 113.4065 8.1617 0.0000 0.0000 0.0000
# 3 22.4629 8.1617 92.8744 0.0000 0.0000 0.0000
# 4 0.0000 0.0000 0.0000 42.3198 0.0000 0.0000
# 5 0.0000 0.0000 0.0000 0.0000 -165.2379 0.0000
# 6 0.0000 0.0000 0.0000 0.0000 0.0000 34.2244
#
#
#
# Elastic Compliance Matrix: (Units=1/GPa)
#
#
# Indices 1 2 3 4 5 6 
#
# 1 0.007810 -0.000467 -0.001848 0.000000 0.000000 0.000000
# 2 -0.000467 0.008902 -0.000669 0.000000 0.000000 0.000000
# 3 -0.001848 -0.000669 0.011273 0.000000 0.000000 0.000000
# 4 0.000000 0.000000 0.000000 0.023630 0.000000 0.000000
# 5 0.000000 0.000000 0.000000 0.000000 -0.006052 0.000000
# 6 0.000000 0.000000 0.000000 0.000000 0.000000 0.029219
#
#
# Mechanical properties :
#
#
# Convention : Reuss Voigt Hill
#
# Bulk Modulus (GPa) = 45.42131 46.53761 45.97946
# Shear Modulus (GPa) = 56.76084 2.31590 29.53837
#
# Velocity S-wave (km/s) = 4.96337 1.00256 3.58051
# Velocity P-wave (km/s) = 7.24984 4.64092 6.08680
#
# Compressibility (1/GPa) = 0.02201610
#
# Stress axis : x y z
#
# Youngs Moduli (GPa) = 128.04226 112.33548 88.70766
#
# Poissons Ratio (x) = 0.05248 0.16392
# Poissons Ratio (y) = 0.05982 0.05937
# Poissons Ratio (z) = 0.23661 0.07519
#
# Static dielectric constant tensor:
#      x y z
#    x 1.888710 0.000000 0.000000 
#    y 0.000000 1.812460 0.000000 
#    z 0.000000 0.000000 1.998300 
# 
# From -- ./inp_files/4022.got.cif
#   From: 2010.05.17/outbox.cif.g08.bks.cpg/sg35_3_cif.got.tgz:4022.got - 2010.06.03 17:29:28.
