data_PCOD9350734
_publ_section_title
;
Structure prediction by ZEFSAII (Michael W. Deem and Ramdas Pophale) SiO2 
 PCOD9350734
Probable space group: C M C 21
;
_chemical_formula_sum "Si O2"
_cell_formula_units_Z 64
_cell_length_a 7.592081
_cell_length_b 16.049495
_cell_length_c 24.216790
_cell_angle_alpha 90.000000
_cell_angle_beta 90.000000
_cell_angle_gamma 90.000000
_cell_volume 2950.793244
_symmetry_space_group_name_H-M "C M C 21"
_symmetry_group_IT_number 36
_symmetry_cell_setting 'orthorhombic'
loop_
_space_group_symop_operation_xyz
x,y,z
-x,-y,1/2+z
x,-y,1/2+z
-x,y,z
1/2+x,1/2+y,z
1/2-x,1/2-y,1/2+z
1/2+x,1/2-y,1/2+z
1/2-x,1/2+y,z
loop_
_atom_site_type_symbol
_atom_site_label
_atom_site_fract_x
_atom_site_fract_y
_atom_site_fract_z
Si Si1 0.285000 0.905328 0.957490
Si Si2 0.211521 0.343223 0.838551
Si Si3 0.213657 0.399764 0.465418
Si Si4 0.793520 0.012288 0.642836
Si Si5 0.206182 0.330505 0.071523
Si Si6 0.713821 0.003336 0.771069
Si Si7 0.796884 0.846709 0.587347
Si Si8 0.289955 0.843726 0.346779
O O1 0.500000 0.903223 0.957737
O O2 0.224312 0.864395 0.900447
O O3 0.238299 0.002821 0.959940
O O4 0.219834 0.858863 0.012298
O O5 0.273925 0.415755 0.797485
O O6 0.255533 0.248378 0.824233
O O7 0.000000 0.349323 0.839823
O O8 0.289182 0.363878 0.521883
O O9 0.274680 0.353406 0.409847
O O10 0.000000 0.394619 0.469270
O O11 0.715746 0.093005 0.613337
O O12 0.770659 0.013109 0.708204
O O13 0.000000 0.014972 0.628826
O O14 0.716474 0.926727 0.617651
O O15 0.283470 0.244798 0.095164
O O16 0.000000 0.312701 0.061316
O O17 0.500000 0.003741 0.771854
O O18 0.775836 0.080849 0.808617
O O19 0.000000 0.843785 0.606747
O O20 0.500000 0.854832 0.349953
#
# Coordination Sequence:
#
# PCOD9350734 Si02
#       8
#     8   8   8   8   8   8   8   8
#     4   9  16  31  58  86 112 146 186 222 264 332
#     4  10  20  37  61  87 115 149 189 228 273 338
#     4  10  18  33  59  87 115 149 187 225 272 336
#     4  11  24  40  57  82 115 145 186 245 290 322
#     4  10  20  37  61  84 111 153 191 220 273 346
#     4  10  22  41  61  79 108 153 196 229 273 339
#     4  10  22  38  57  85 117 147 183 233 288 333
#     4  10  21  37  58  86 117 146 182 232 283 328
#
# _framework density 21.689084999999999
#
# number of rings (size 3 to 8) (size 9 to 14) (size 15 to 20)
#    0.000    2.000    2.500    1.125    0.000    4.500 
#    0.000    5.000    0.000    0.000    0.000    0.000 
#    0.000    0.000    0.000    0.000    0.000    0.000 
#
# Total GULP energy -178797.553868 kJ/mol
# GULP energy per Si atom -5587.423558 kJ/mol
# Density = 2.163972 g / cm^3
# Si number density = 21.689085 Si / 1000 Ang^3
#
#
#
# Elastic Constant Matrix: (Units=GPa)
#
#
# Indices 1 2 3 4 5 6 
#
# 1 46.1679 -6.8720 -15.6971 0.0000 0.0000 0.0000
# 2 -6.8720 140.4863 27.5975 0.0000 0.0000 0.0000
# 3 -15.6971 27.5975 93.3577 0.0000 0.0000 0.0000
# 4 0.0000 0.0000 0.0000 2.8168 0.0000 0.0000
# 5 0.0000 0.0000 0.0000 0.0000 34.1445 0.0000
# 6 0.0000 0.0000 0.0000 0.0000 0.0000 10.3672
#
#
#
# Elastic Compliance Matrix: (Units=1/GPa)
#
#
# Indices 1 2 3 4 5 6 
#
# 1 0.022993 0.000388 0.003751 0.000000 0.000000 0.000000
# 2 0.000388 0.007564 -0.002171 0.000000 0.000000 0.000000
# 3 0.003751 -0.002171 0.011984 0.000000 0.000000 0.000000
# 4 0.000000 0.000000 0.000000 0.355010 0.000000 0.000000
# 5 0.000000 0.000000 0.000000 0.000000 0.029287 0.000000
# 6 0.000000 0.000000 0.000000 0.000000 0.000000 0.096458
#
#
# Mechanical properties :
#
#
# Convention : Reuss Voigt Hill
#
# Bulk Modulus (GPa) = 21.51563 32.22987 26.87275
# Shear Modulus (GPa) = 9.34839 27.79794 18.57316
#
# Velocity S-wave (km/s) = 2.07835 3.58391 2.92950
# Velocity P-wave (km/s) = 3.96244 5.65845 4.88462
#
# Compressibility (1/GPa) = 0.04647784
#
# Stress axis : x y z
#
# Youngs Moduli (GPa) = 43.49098 132.21380 83.44517
#
# Poissons Ratio (x) = -0.05127 -0.31304
# Poissons Ratio (y) = -0.01687 0.18113
# Poissons Ratio (z) = -0.16315 0.28699
#
# Static dielectric constant tensor:
#      x y z
#    x 1.801470 0.000000 0.000000 
#    y 0.000000 1.801500 0.000000 
#    z 0.000000 0.000000 1.738560 
# 
# From -- ./inp_files/16589.got.cif
#   From: 2010.05.17/outbox.cif.g08.bks.cpg/sg36_9_cif.got.tgz:16589.got - 2010.06.03 17:41:39.
