data_PCOD9350272
_publ_section_title
;
Structure prediction by ZEFSAII (Michael W. Deem and Ramdas Pophale) SiO2 
 PCOD9350272
Probable space group: C M M 2
;
_chemical_formula_sum "Si O2"
_cell_formula_units_Z 64
_cell_length_a 8.691500
_cell_length_b 29.397018
_cell_length_c 16.015000
_cell_angle_alpha 90.000000
_cell_angle_beta 90.000000
_cell_angle_gamma 90.000000
_cell_volume 4091.899474
_symmetry_space_group_name_H-M "C M M 2"
_symmetry_group_IT_number 35
_symmetry_cell_setting 'orthorhombic'
loop_
_space_group_symop_operation_xyz
x,y,z
-x,-y,z
-x,y,z
x,-y,z
1/2+x,1/2+y,z
1/2-x,1/2-y,z
1/2-x,1/2+y,z
1/2+x,1/2-y,z
loop_
_atom_site_type_symbol
_atom_site_label
_atom_site_fract_x
_atom_site_fract_y
_atom_site_fract_z
Si Si1 0.183026 0.946943 0.967020
Si Si2 0.813734 0.609117 0.487999
Si Si3 0.177366 0.555167 0.142822
Si Si4 0.687907 0.947393 0.326609
Si Si5 0.315696 0.890996 0.814059
Si Si6 0.815906 0.200968 0.554306
Si Si7 0.312595 0.947758 0.651163
Si Si8 0.815906 0.200957 0.749290
O O1 0.261213 0.916018 0.897414
O O2 0.000000 0.945113 0.957506
O O3 0.232100 0.000000 0.956771
O O4 0.228956 0.932210 0.060653
O O5 0.764236 0.584377 0.402876
O O6 0.749042 0.659393 0.501042
O O7 0.765003 0.578766 0.567728
O O8 0.000000 0.610985 0.488336
O O9 0.176533 0.500000 0.146439
O O10 0.236897 0.569026 0.234388
O O11 0.000000 0.569961 0.133025
O O12 0.500000 0.947894 0.324812
O O13 0.735843 0.000000 0.339780
O O14 0.500000 0.888736 0.812473
O O15 0.263573 0.920864 0.733929
O O16 0.248466 0.840726 0.802445
O O17 0.750000 0.250000 0.529188
O O18 0.769924 0.193555 0.651804
O O19 0.000000 0.201853 0.550521
O O20 0.500000 0.948404 0.651215
O O21 0.260228 0.000000 0.651614
O O22 0.750000 0.250000 0.774438
O O23 0.000000 0.201874 0.753201
#
# Coordination Sequence:
#
# PCOD9350272 Si02
#       8
#     8   8   8   8   8   8   8   8
#     4  10  20  32  46  67  96 129 163 200 242 284
#     4  10  17  28  47  70  96 125 159 195 234 277
#     4   8  14  27  46  67  91 121 159 200 238 277
#     4   8  14  25  45  72  98 125 159 197 233 274
#     4  11  20  31  48  70  96 126 162 198 236 281
#     4  10  20  33  49  67  91 121 158 200 242 281
#     4   9  17  27  41  64  94 127 161 191 220 264
#     4  10  20  34  51  69  92 121 158 201 245 285
#
# _framework density 15.640656999999999
#
# number of rings (size 3 to 8) (size 9 to 14) (size 15 to 20)
#    0.000    2.500    1.250    3.000    0.000    3.750 
#    0.000    0.625    0.000    3.000    0.000    0.875 
#    0.000    2.000    0.000    0.000    0.000    0.000 
#
# Total GULP energy -178417.439679 kJ/mol
# GULP energy per Si atom -5575.544990 kJ/mol
# Density = 1.560506 g / cm^3
# Si number density = 15.640657 Si / 1000 Ang^3
#
#
#
# Elastic Constant Matrix: (Units=GPa)
#
#
# Indices 1 2 3 4 5 6 
#
# 1 27.6059 29.9623 28.8166 0.0000 0.0000 0.0000
# 2 29.9623 122.5992 72.8886 0.0000 0.0000 0.0000
# 3 28.8166 72.8886 127.4976 0.0000 0.0000 0.0000
# 4 0.0000 0.0000 0.0000 8.4168 0.0000 0.0000
# 5 0.0000 0.0000 0.0000 0.0000 11.4271 0.0000
# 6 0.0000 0.0000 0.0000 0.0000 0.0000 20.3133
#
#
#
# Elastic Compliance Matrix: (Units=1/GPa)
#
#
# Indices 1 2 3 4 5 6 
#
# 1 0.053065 -0.008844 -0.006938 0.000000 0.000000 0.000000
# 2 -0.008844 0.013830 -0.005908 0.000000 0.000000 0.000000
# 3 -0.006938 -0.005908 0.012789 0.000000 0.000000 0.000000
# 4 0.000000 0.000000 0.000000 0.118809 0.000000 0.000000
# 5 0.000000 0.000000 0.000000 0.000000 0.087511 0.000000
# 6 0.000000 0.000000 0.000000 0.000000 0.000000 0.049229
#
#
# Mechanical properties :
#
#
# Convention : Reuss Voigt Hill
#
# Bulk Modulus (GPa) = 27.54419 60.11530 43.82975
# Shear Modulus (GPa) = 12.79708 17.76712 15.28210
#
# Velocity S-wave (km/s) = 2.86351 3.37405 3.12921
# Velocity P-wave (km/s) = 5.34619 7.32787 6.41403
#
# Compressibility (1/GPa) = 0.03630529
#
# Stress axis : x y z
#
# Youngs Moduli (GPa) = 18.84482 72.30447 78.19426
#
# Poissons Ratio (x) = 0.63947 0.54248
# Poissons Ratio (y) = 0.16667 0.46195
# Poissons Ratio (z) = 0.13074 0.42716
#
# Static dielectric constant tensor:
#      x y z
#    x 1.525920 0.000000 0.000000 
#    y 0.000000 1.498630 0.000000 
#    z 0.000000 0.000000 1.523140 
# 
# From -- ./inp_files/16226.got.cif
#   From: 2010.05.17/outbox.cif.g08.bks.cpg/sg35_9_cif.got.tgz:16226.got - 2010.06.03 17:29:28.
