data_PCOD9350159
_publ_section_title
;
Structure prediction by ZEFSAII (Michael W. Deem and Ramdas Pophale) SiO2 
 PCOD9350159
Probable space group: C M M 2
;
_chemical_formula_sum "Si O2"
_cell_formula_units_Z 28
_cell_length_a 9.000000
_cell_length_b 21.000000
_cell_length_c 18.000000
_cell_angle_alpha 90.000000
_cell_angle_beta 90.000000
_cell_angle_gamma 90.000000
_cell_volume 3402.000000
_symmetry_space_group_name_H-M "C M M 2"
_symmetry_group_IT_number 35
_symmetry_cell_setting 'orthorhombic'
loop_
_space_group_symop_operation_xyz
x,y,z
-x,-y,z
-x,y,z
x,-y,z
1/2+x,1/2+y,z
1/2-x,1/2-y,z
1/2-x,1/2+y,z
1/2+x,1/2-y,z
loop_
_atom_site_type_symbol
_atom_site_label
_atom_site_fract_x
_atom_site_fract_y
_atom_site_fract_z
Si Si1 0.179542 0.819744 0.704000
Si Si2 0.820580 0.925902 0.000207
Si Si3 0.679151 0.318952 0.878359
Si Si4 0.678727 0.074080 0.161914
Si Si5 0.180725 0.681041 0.286589
Si Si6 0.179858 0.076174 0.578761
Si Si7 0.180953 0.180303 0.450448
O O1 0.250000 0.750000 0.685072
O O2 0.215945 0.832968 0.791258
O O3 0.224398 0.878863 0.649850
O O4 0.000000 0.813681 0.697801
O O5 0.751970 0.911470 0.081582
O O6 0.000000 0.923208 0.005908
O O7 0.780981 0.000000 0.981958
O O8 0.776055 0.874850 0.936374
O O9 0.500000 0.313515 0.882370
O O10 0.750000 0.250000 0.896631
O O11 0.500000 0.076359 0.153458
O O12 0.716766 0.125659 0.226172
O O13 0.718244 0.000000 0.181090
O O14 0.250000 0.750000 0.264453
O O15 0.251143 0.667205 0.368201
O O16 0.000000 0.685704 0.292361
O O17 0.217332 0.121808 0.507271
O O18 0.000000 0.072848 0.580486
O O19 0.229136 0.000000 0.577818
O O20 0.250000 0.250000 0.473066
O O21 0.000000 0.185932 0.447121
#
# Coordination Sequence:
#
# PCOD9350159 Si02
#       7
#     8   8   8   8   8   8   8
#     4   9  17  31  51  71  95 128 161 195 235 280
#     4   9  18  32  49  70  96 125 159 198 237 279
#     4   9  18  31  48  72  98 125 159 197 237 280
#     4   9  19  35  52  70  94 126 161 194 234 285
#     4  10  20  34  52  73  97 124 157 197 237 281
#     4   9  18  31  48  73 100 125 158 198 237 278
#     4  10  19  32  51  72  96 126 159 195 235 282
#
# _framework density 8.2304530000000007
#
# number of rings (size 3 to 8) (size 9 to 14) (size 15 to 20)
#    0.000    2.714    0.000    2.143    0.000    3.429 
#    0.000    6.429    0.000    3.429    0.000    4.000 
#    0.000    0.000    0.000    0.000    0.000    0.000 
#
# Total GULP energy -155928.800383 kJ/mol
# GULP energy per Si atom -5568.885728 kJ/mol
# Density = 0.821172 g / cm^3
# Si number density = 8.230453 Si / 1000 Ang^3
#
#
#
# Elastic Constant Matrix: (Units=GPa)
#
#
# Indices 1 2 3 4 5 6 
#
# 1 40.1531 33.4802 30.1069 0.0000 0.0000 0.0000
# 2 33.4802 181.2491 108.9477 0.0000 0.0000 0.0000
# 3 30.1069 108.9477 138.5256 0.0000 0.0000 0.0000
# 4 0.0000 0.0000 0.0000 43.1767 0.0000 0.0000
# 5 0.0000 0.0000 0.0000 0.0000 26.2989 0.0000
# 6 0.0000 0.0000 0.0000 0.0000 0.0000 31.2785
#
#
#
# Elastic Compliance Matrix: (Units=1/GPa)
#
#
# Indices 1 2 3 4 5 6 
#
# 1 0.030671 -0.003146 -0.004192 0.000000 0.000000 0.000000
# 2 -0.003146 0.010787 -0.007800 0.000000 0.000000 0.000000
# 3 -0.004192 -0.007800 0.014264 0.000000 0.000000 0.000000
# 4 0.000000 0.000000 0.000000 0.023161 0.000000 0.000000
# 5 0.000000 0.000000 0.000000 0.000000 0.038024 0.000000
# 6 0.000000 0.000000 0.000000 0.000000 0.000000 0.031971
#
#
# Mechanical properties :
#
#
# Convention : Reuss Voigt Hill
#
# Bulk Modulus (GPa) = 39.29756 78.33305 58.81530
# Shear Modulus (GPa) = 26.64744 32.64369 29.64557
#
# Velocity S-wave (km/s) = 4.02784 4.45804 4.24839
# Velocity P-wave (km/s) = 6.74955 8.61333 7.73776
#
# Compressibility (1/GPa) = 0.02544687
#
# Stress axis : x y z
#
# Youngs Moduli (GPa) = 32.60441 92.70541 70.10447
#
# Poissons Ratio (x) = 0.29163 0.29386
# Poissons Ratio (y) = 0.10257 0.54681
# Poissons Ratio (z) = 0.13667 0.72310
#
# Static dielectric constant tensor:
#      x y z
#    x 1.556140 0.000000 0.000000 
#    y 0.000000 1.559390 0.000000 
#    z 0.000000 0.000000 1.564410 
# 
# From -- ./inp_files/18279.got.cif
#   From: 2010.05.17/outbox.ucp.g08.bks.cvg/sg35_10_cif.got.tgz:18279.got - 2010.06.11 10:36:28.
