data_PCOD9350156
_publ_section_title
;
Structure prediction by ZEFSAII (Michael W. Deem and Ramdas Pophale) SiO2 
 PCOD9350156
Probable space group: C M M 2
;
_chemical_formula_sum "Si O2"
_cell_formula_units_Z 32
_cell_length_a 30.000000
_cell_length_b 9.000000
_cell_length_c 12.000000
_cell_angle_alpha 90.000000
_cell_angle_beta 90.000000
_cell_angle_gamma 90.000000
_cell_volume 3240.000000
_symmetry_space_group_name_H-M "C M M 2"
_symmetry_group_IT_number 35
_symmetry_cell_setting 'orthorhombic'
loop_
_space_group_symop_operation_xyz
x,y,z
-x,-y,z
-x,y,z
x,-y,z
1/2+x,1/2+y,z
1/2-x,1/2-y,z
1/2-x,1/2+y,z
1/2+x,1/2-y,z
loop_
_atom_site_type_symbol
_atom_site_label
_atom_site_fract_x
_atom_site_fract_y
_atom_site_fract_z
Si Si1 0.550395 0.817705 0.954220
Si Si2 0.392390 0.177386 0.159798
Si Si3 0.294273 0.823706 0.699708
Si Si4 0.825627 0.672635 0.452305
Si Si5 0.911562 0.167738 0.374385
Si Si6 0.294348 0.827385 0.204038
Si Si7 0.048511 0.827660 0.599552
Si Si8 0.888779 0.677488 0.755771
O O1 0.500000 0.766610 0.951870
O O2 0.578714 0.765333 0.850001
O O3 0.549783 0.000000 0.953215
O O4 0.577190 0.767265 0.061369
O O5 0.415522 0.219028 0.274610
O O6 0.341640 0.235294 0.161759
O O7 0.388892 0.000000 0.151590
O O8 0.250000 0.750000 0.741868
O O9 0.300726 0.796493 0.567297
O O10 0.338763 0.765645 0.758311
O O11 0.291514 0.000000 0.714074
O O12 0.842037 0.500000 0.458405
O O13 0.865406 0.787815 0.434359
O O14 0.797296 0.681347 0.338970
O O15 0.949250 0.177069 0.466664
O O16 0.908764 0.000000 0.331653
O O17 0.250000 0.750000 0.163503
O O18 0.292285 0.000000 0.174033
O O19 0.087008 0.723296 0.643582
O O20 0.000000 0.780483 0.640929
O O21 0.056324 0.000000 0.631276
O O22 0.886466 0.500000 0.763354
#
# Coordination Sequence:
#
# PCOD9350156 Si02
#       8
#     8   8   8   8   8   8   8   8
#     4   9  18  35  60  84 102 130 178 230 276 320
#     4   9  19  35  53  75 106 137 172 221 272 315
#     4  10  20  32  50  77 110 145 180 219 265 319
#     4   9  17  31  48  71 105 142 179 217 258 306
#     4  10  19  31  50  76 107 143 177 213 261 319
#     4   9  17  28  45  69 100 137 172 208 250 304
#     4  10  21  35  51  76 111 146 175 211 270 335
#     4  10  20  36  58  82 107 136 180 232 271 315
#
# _framework density 9.8765429999999999
#
# number of rings (size 3 to 8) (size 9 to 14) (size 15 to 20)
#    0.000    2.500    1.250    1.875    0.000    4.750 
#    0.000    1.250    0.000    0.750    0.000    0.000 
#    0.000    0.000    0.000    0.000    0.000    0.000 
#
# Total GULP energy -178163.236641 kJ/mol
# GULP energy per Si atom -5567.601145 kJ/mol
# Density = 0.985406 g / cm^3
# Si number density = 9.876543 Si / 1000 Ang^3
#
#
#
# Elastic Constant Matrix: (Units=GPa)
#
#
# Indices 1 2 3 4 5 6 
#
# 1 132.9404 36.1053 60.4212 0.0000 0.0000 0.0000
# 2 36.1053 -14.5572 8.4806 0.0000 0.0000 0.0000
# 3 60.4212 8.4806 54.9019 0.0000 0.0000 0.0000
# 4 0.0000 0.0000 0.0000 -1.0573 0.0000 0.0000
# 5 0.0000 0.0000 0.0000 0.0000 -6.8470 0.0000
# 6 0.0000 0.0000 0.0000 0.0000 0.0000 -4.4860
#
#
#
# Elastic Compliance Matrix: (Units=1/GPa)
#
#
# Indices 1 2 3 4 5 6 
#
# 1 0.008959 0.015117 -0.012195 0.000000 0.000000 0.000000
# 2 0.015117 -0.037517 -0.010841 0.000000 0.000000 0.000000
# 3 -0.012195 -0.010841 0.033310 0.000000 0.000000 0.000000
# 4 0.000000 0.000000 0.000000 -0.945761 0.000000 0.000000
# 5 0.000000 0.000000 0.000000 0.000000 -0.146050 0.000000
# 6 0.000000 0.000000 0.000000 0.000000 0.000000 -0.222915
#
#
# Mechanical properties :
#
#
# Convention : Reuss Voigt Hill
#
# Bulk Modulus (GPa) = -90.19432 42.58882 -23.80275
# Shear Modulus (GPa) = -3.85258 2.07380 -0.88939
#
# Velocity S-wave (km/s) = -1.39807 1.02574 -0.67174
# Velocity P-wave (km/s) = 6.95458 4.79690 3.56061
#
# Compressibility (1/GPa) = -0.01108717
#
# Stress axis : x y z
#
# Youngs Moduli (GPa) = 111.61706 -26.65426 30.02126
#
# Poissons Ratio (x) = 0.40292 0.36611
# Poissons Ratio (y) = -1.68727 0.32546
# Poissons Ratio (z) = 1.36116 -0.28896
#
# Static dielectric constant tensor:
#      x y z
#    x 1.709830 0.000000 0.000000 
#    y 0.000000 1.689380 0.000000 
#    z 0.000000 0.000000 1.840220 
# 
# From -- ./inp_files/14587.got.cif
#   From: 2010.05.17/outbox.ucp.g08.bks.cvg/sg35_8_cif.got.tgz:14587.got - 2010.06.11 10:36:28.
