data_PCOD9350917
_publ_section_title
;
Structure prediction by ZEFSAII (Michael W. Deem and Ramdas Pophale) SiO2 
 PCOD9350917
Probable space group: C M C 21
;
_chemical_formula_sum "Si O2"
_cell_formula_units_Z 56
_cell_length_a 22.489955
_cell_length_b 18.359346
_cell_length_c 7.070817
_cell_angle_alpha 90.000000
_cell_angle_beta 90.000000
_cell_angle_gamma 90.000000
_cell_volume 2919.546458
_symmetry_space_group_name_H-M "C M C 21"
_symmetry_group_IT_number 36
_symmetry_cell_setting 'orthorhombic'
loop_
_space_group_symop_operation_xyz
x,y,z
-x,-y,1/2+z
x,-y,1/2+z
-x,y,z
1/2+x,1/2+y,z
1/2-x,1/2-y,1/2+z
1/2+x,1/2-y,1/2+z
1/2-x,1/2+y,z
loop_
_atom_site_type_symbol
_atom_site_label
_atom_site_fract_x
_atom_site_fract_y
_atom_site_fract_z
Si Si1 0.322952 0.438514 0.658930
Si Si2 0.625657 0.739041 0.801098
Si Si3 0.434016 0.792354 0.433671
Si Si4 0.432799 0.342307 0.659352
Si Si5 0.198611 0.897425 0.225782
Si Si6 0.190895 0.680266 0.820229
Si Si7 0.762560 0.676530 0.251280
O O1 0.387524 0.407132 0.708461
O O2 0.319298 0.524962 0.645811
O O3 0.311232 0.408893 0.449495
O O4 0.271680 0.399477 0.785214
O O5 0.583442 0.780036 0.652711
O O6 0.658451 0.673337 0.685360
O O7 0.680025 0.792372 0.863392
O O8 0.591606 0.703168 0.977383
O O9 0.500000 0.824413 0.414506
O O10 0.434889 0.713755 0.332657
O O11 0.379388 0.831884 0.327252
O O12 0.500000 0.367657 0.619629
O O13 0.267218 0.874381 0.203932
O O14 0.211527 0.761800 0.764647
O O15 0.211387 0.674159 0.039261
#
# Coordination Sequence:
#
# PCOD9350917 Si02
#       7
#     8   8   8   8   8   8   8
#     4  10  19  33  46  73 102 133 173 211 250 306
#     4   9  19  35  51  73 100 130 170 216 259 298
#     4  10  19  31  53  76  98 132 168 204 254 308
#     4  10  20  34  50  72 104 135 169 207 244 304
#     4   9  20  31  50  71 101 133 168 214 259 299
#     4   9  17  31  47  75  97 126 167 212 263 302
#     4   9  17  29  51  70  97 125 163 216 263 297
#
# _framework density 19.181063000000002
#
# number of rings (size 3 to 8) (size 9 to 14) (size 15 to 20)
#    0.000    2.571    1.429    1.286    2.000    1.143 
#    0.000    3.571    0.000    0.000    0.000   10.000 
#    0.000    0.000    0.000    0.000    0.000    0.000 
#
# Total GULP energy -156050.580234 kJ/mol
# GULP energy per Si atom -5573.235008 kJ/mol
# Density = 1.913741 g / cm^3
# Si number density = 19.181063 Si / 1000 Ang^3
#
#
#
# Elastic Constant Matrix: (Units=GPa)
#
#
# Indices 1 2 3 4 5 6 
#
# 1 146.2367 20.7154 21.5605 0.0000 0.0000 0.0000
# 2 20.7154 42.6110 2.1799 0.0000 0.0000 0.0000
# 3 21.5605 2.1799 34.8603 0.0000 0.0000 0.0000
# 4 0.0000 0.0000 0.0000 22.3583 0.0000 0.0000
# 5 0.0000 0.0000 0.0000 0.0000 25.9936 0.0000
# 6 0.0000 0.0000 0.0000 0.0000 0.0000 22.7458
#
#
#
# Elastic Compliance Matrix: (Units=1/GPa)
#
#
# Indices 1 2 3 4 5 6 
#
# 1 0.008060 -0.003675 -0.004755 0.000000 0.000000 0.000000
# 2 -0.003675 0.025219 0.000696 0.000000 0.000000 0.000000
# 3 -0.004755 0.000696 0.031583 0.000000 0.000000 0.000000
# 4 0.000000 0.000000 0.000000 0.044726 0.000000 0.000000
# 5 0.000000 0.000000 0.000000 0.000000 0.038471 0.000000
# 6 0.000000 0.000000 0.000000 0.000000 0.000000 0.043964
#
#
# Mechanical properties :
#
#
# Convention : Reuss Voigt Hill
#
# Bulk Modulus (GPa) = 20.24541 34.73552 27.49046
# Shear Modulus (GPa) = 22.32574 26.16969 24.24772
#
# Velocity S-wave (km/s) = 3.41537 3.69772 3.55934
# Velocity P-wave (km/s) = 5.11183 6.03154 5.59063
#
# Compressibility (1/GPa) = 0.04939392
#
# Stress axis : x y z
#
# Youngs Moduli (GPa) = 124.07110 39.65241 31.66229
#
# Poissons Ratio (x) = 0.14572 0.15056
# Poissons Ratio (y) = 0.45597 -0.02203
# Poissons Ratio (z) = 0.58997 -0.02760
#
# Static dielectric constant tensor:
#      x y z
#    x 1.714190 0.000000 0.000000 
#    y 0.000000 1.680070 0.000000 
#    z 0.000000 0.000000 1.773990 
# 
# From -- ./inp_files/5280.got.cif
#   From: 2010.05.17/outbox.cif.g08.bks.cpg/sg36_3_cif.got.tgz:5280.got - 2010.06.03 17:41:39.
