data_PCOD9350121
_publ_section_title
;
Structure prediction by ZEFSAII (Michael W. Deem and Ramdas Pophale) SiO2 
 PCOD9350121
Probable space group: C M M 2
;
_chemical_formula_sum "Si O2"
_cell_formula_units_Z 48
_cell_length_a 31.073400
_cell_length_b 8.871915
_cell_length_c 9.597350
_cell_angle_alpha 90.000000
_cell_angle_beta 90.000000
_cell_angle_gamma 90.000000
_cell_volume 2645.802857
_symmetry_space_group_name_H-M "C M M 2"
_symmetry_group_IT_number 35
_symmetry_cell_setting 'orthorhombic'
loop_
_space_group_symop_operation_xyz
x,y,z
-x,-y,z
-x,y,z
x,-y,z
1/2+x,1/2+y,z
1/2-x,1/2-y,z
1/2-x,1/2+y,z
1/2+x,1/2-y,z
loop_
_atom_site_type_symbol
_atom_site_label
_atom_site_fract_x
_atom_site_fract_y
_atom_site_fract_z
Si Si1 0.357025 0.329193 0.494540
Si Si2 0.593956 0.821078 0.237401
Si Si3 0.000000 0.667819 0.575583
Si Si4 0.500000 0.678611 0.282886
Si Si5 0.202959 0.182994 0.735123
Si Si6 0.866792 0.822676 0.969565
Si Si7 0.430591 0.334563 0.726891
O O1 0.348011 0.500000 0.442810
O O2 0.379826 0.235036 0.373606
O O3 0.316514 0.268904 0.584013
O O4 0.392027 0.342117 0.617036
O O5 0.545857 0.747018 0.231205
O O6 0.588487 0.000000 0.242131
O O7 0.623250 0.770723 0.107039
O O8 0.000000 0.784041 0.448141
O O9 0.960041 0.701697 0.673904
O O10 0.000000 0.500000 0.517606
O O11 0.500000 0.500000 0.258383
O O12 0.250000 0.250000 0.754775
O O13 0.171714 0.225655 0.864961
O O14 0.203435 0.000000 0.732527
O O15 0.909813 0.812006 0.876371
O O16 0.860093 0.000000 0.003473
O O17 0.451857 0.500000 0.723797
#
# Coordination Sequence:
#
# PCOD9350121 Si02
#       7
#     8   8   4   4   8   8   8
#     4   9  18  35  58  81 109 148 187 227 279 346
#     4  12  24  37  56  87 119 150 192 244 293 332
#     4  12  22  31  50  83 114 140 184 244 290 323
#     4  12  24  39  58  77 110 160 200 234 280 341
#     4   9  19  37  63  91 115 146 190 236 287 346
#     4   9  20  39  59  81 112 155 195 228 281 353
#     4   9  18  34  56  76 100 144 194 228 271 336
#
# _framework density 18.141940999999999
#
# number of rings (size 3 to 8) (size 9 to 14) (size 15 to 20)
#    0.000    2.000    1.667    5.000    0.000    2.667 
#    0.000    5.000    0.000    0.000    0.000    0.000 
#    0.000    0.000    0.000    0.000    0.000    0.000 
#
# Total GULP energy -133721.389498 kJ/mol
# GULP energy per Si atom -5571.724562 kJ/mol
# Density = 1.810065 g / cm^3
# Si number density = 18.141941 Si / 1000 Ang^3
#
#
#
# Elastic Constant Matrix: (Units=GPa)
#
#
# Indices 1 2 3 4 5 6 
#
# 1 106.3496 34.5089 37.1809 0.0000 0.0000 0.0000
# 2 34.5089 81.0264 41.4566 0.0000 0.0000 0.0000
# 3 37.1809 41.4566 99.0137 0.0000 0.0000 0.0000
# 4 0.0000 0.0000 0.0000 11.9341 0.0000 0.0000
# 5 0.0000 0.0000 0.0000 0.0000 24.4878 0.0000
# 6 0.0000 0.0000 0.0000 0.0000 0.0000 30.4235
#
#
#
# Elastic Compliance Matrix: (Units=1/GPa)
#
#
# Indices 1 2 3 4 5 6 
#
# 1 0.011527 -0.003429 -0.002893 0.000000 0.000000 0.000000
# 2 -0.003429 0.016727 -0.005716 0.000000 0.000000 0.000000
# 3 -0.002893 -0.005716 0.013579 0.000000 0.000000 0.000000
# 4 0.000000 0.000000 0.000000 0.083794 0.000000 0.000000
# 5 0.000000 0.000000 0.000000 0.000000 0.040837 0.000000
# 6 0.000000 0.000000 0.000000 0.000000 0.000000 0.032869
#
#
# Mechanical properties :
#
#
# Convention : Reuss Voigt Hill
#
# Bulk Modulus (GPa) = 56.31478 56.96472 56.63975
# Shear Modulus (GPa) = 21.80299 24.91863 23.36081
#
# Velocity S-wave (km/s) = 3.47046 3.71015 3.59230
# Velocity P-wave (km/s) = 6.86785 7.05841 6.96378
#
# Compressibility (1/GPa) = 0.01775733
#
# Stress axis : x y z
#
# Youngs Moduli (GPa) = 86.75260 59.78526 73.64335
#
# Poissons Ratio (x) = 0.20502 0.21303
# Poissons Ratio (y) = 0.29750 0.42092
# Poissons Ratio (z) = 0.25095 0.34171
#
# Static dielectric constant tensor:
#      x y z
#    x 1.621090 0.000000 0.000000 
#    y 0.000000 1.629760 0.000000 
#    z 0.000000 0.000000 1.614160 
# 
# From -- ./inp_files/10511.got.cif
#   From: 2010.05.17/outbox.cif.g08.bks.cpg/sg35_6_cif.got.tgz:10511.got - 2010.06.03 17:29:28.
