data_PCOD9350738
_publ_section_title
;
Structure prediction by ZEFSAII (Michael W. Deem and Ramdas Pophale) SiO2 
 PCOD9350738
Probable space group: C M C 21
;
_chemical_formula_sum "Si O2"
_cell_formula_units_Z 48
_cell_length_a 9.870280
_cell_length_b 25.637548
_cell_length_c 7.685456
_cell_angle_alpha 90.000000
_cell_angle_beta 90.000000
_cell_angle_gamma 90.000000
_cell_volume 1944.802929
_symmetry_space_group_name_H-M "C M C 21"
_symmetry_group_IT_number 36
_symmetry_cell_setting 'orthorhombic'
loop_
_space_group_symop_operation_xyz
x,y,z
-x,-y,1/2+z
x,-y,1/2+z
-x,y,z
1/2+x,1/2+y,z
1/2-x,1/2-y,1/2+z
1/2+x,1/2-y,1/2+z
1/2-x,1/2+y,z
loop_
_atom_site_type_symbol
_atom_site_label
_atom_site_fract_x
_atom_site_fract_y
_atom_site_fract_z
Si Si1 0.249675 0.828033 0.976900
Si Si2 0.500000 0.772069 0.842758
Si Si3 0.266703 0.394751 0.617487
Si Si4 0.000000 0.826869 0.496845
Si Si5 0.331414 0.929095 0.159048
Si Si6 0.000000 0.655491 0.003553
Si Si7 0.000000 0.235701 0.363624
Si Si8 0.834521 0.012051 0.353644
O O1 0.372464 0.789471 0.951979
O O2 0.239300 0.862744 0.800997
O O3 0.125132 0.788835 0.968747
O O4 0.284176 0.869494 0.126927
O O5 0.500000 0.806231 0.670452
O O6 0.500000 0.710486 0.833241
O O7 0.373966 0.364303 0.504272
O O8 0.318192 0.450998 0.681267
O O9 0.125163 0.383486 0.524216
O O10 0.000000 0.791482 0.673204
O O11 0.500000 0.932911 0.165135
O O12 0.243886 0.958436 0.307978
O O13 0.264541 0.958897 0.991493
O O14 0.000000 0.701147 0.859052
O O15 0.000000 0.009453 0.389648
#
# Coordination Sequence:
#
# PCOD9350738 Si02
#       8
#     8   4   8   4   8   4   4   8
#     4   9  19  34  57  80 109 148 196 230 283 352
#     4  10  18  34  55  78 108 144 187 236 281 344
#     4   9  19  34  57  80 109 148 196 230 283 352
#     4  10  18  34  55  78 108 144 187 236 281 344
#     4  11  23  40  64  91 120 157 201 249 302 360
#     4  10  20  34  53  82 110 148 191 236 285 342
#     4  10  20  34  53  82 110 148 191 236 285 342
#     4  11  23  40  64  91 120 157 201 249 302 360
#
# _framework density 24.681165
#
# number of rings (size 3 to 8) (size 9 to 14) (size 15 to 20)
#    0.000    2.000    1.667    2.000    9.333    0.000 
#    0.000    3.333    0.000    0.000    0.000    0.000 
#    0.000    0.000    0.000    0.000    0.000    0.000 
#
# Total GULP energy -133975.831105 kJ/mol
# GULP energy per Si atom -5582.326296 kJ/mol
# Density = 2.462499 g / cm^3
# Si number density = 24.681165 Si / 1000 Ang^3
#
#
#
# Elastic Constant Matrix: (Units=GPa)
#
#
# Indices 1 2 3 4 5 6 
#
# 1 219.0856 52.8354 27.6050 0.0000 0.0000 0.0000
# 2 52.8354 125.3920 14.2060 0.0000 0.0000 0.0000
# 3 27.6050 14.2060 74.3337 0.0000 0.0000 0.0000
# 4 0.0000 0.0000 0.0000 48.5468 0.0000 0.0000
# 5 0.0000 0.0000 0.0000 0.0000 59.3869 0.0000
# 6 0.0000 0.0000 0.0000 0.0000 0.0000 -14.5140
#
#
#
# Elastic Compliance Matrix: (Units=1/GPa)
#
#
# Indices 1 2 3 4 5 6 
#
# 1 0.005252 -0.002036 -0.001561 0.000000 0.000000 0.000000
# 2 -0.002036 0.008941 -0.000953 0.000000 0.000000 0.000000
# 3 -0.001561 -0.000953 0.014215 0.000000 0.000000 0.000000
# 4 0.000000 0.000000 0.000000 0.020599 0.000000 0.000000
# 5 0.000000 0.000000 0.000000 0.000000 0.016839 0.000000
# 6 0.000000 0.000000 0.000000 0.000000 0.000000 -0.068899
#
#
# Mechanical properties :
#
#
# Convention : Reuss Voigt Hill
#
# Bulk Modulus (GPa) = 51.79290 67.56714 59.68002
# Shear Modulus (GPa) = 400.56492 40.29493 220.42992
#
# Velocity S-wave (km/s) = 12.75336 4.04495 9.46070
# Velocity P-wave (km/s) = 15.42383 7.01790 11.98218
#
# Compressibility (1/GPa) = 0.01930766
#
# Stress axis : x y z
#
# Youngs Moduli (GPa) = 190.39589 111.84585 70.34958
#
# Poissons Ratio (x) = 0.22774 0.10984
# Poissons Ratio (y) = 0.38768 0.06701
# Poissons Ratio (z) = 0.29728 0.10654
#
# Static dielectric constant tensor:
#      x y z
#    x 0.096720 0.000000 0.000000 
#    y 0.000000 1.947660 0.000000 
#    z 0.000000 0.000000 2.077320 
# 
# From -- ./inp_files/6791.got.cif
#   From: 2010.05.17/outbox.cif.g08.bks.cpg/sg36_4_cif.got.tgz:6791.got - 2010.06.03 17:41:39.
