data_PCOD9350720
_publ_section_title
;
Structure prediction by ZEFSAII (Michael W. Deem and Ramdas Pophale) SiO2 
 PCOD9350720
Probable space group: C M C 21
;
_chemical_formula_sum "Si O2"
_cell_formula_units_Z 64
_cell_length_a 7.804740
_cell_length_b 21.057860
_cell_length_c 20.126827
_cell_angle_alpha 90.000000
_cell_angle_beta 90.000000
_cell_angle_gamma 90.000000
_cell_volume 3307.866605
_symmetry_space_group_name_H-M "C M C 21"
_symmetry_group_IT_number 36
_symmetry_cell_setting 'orthorhombic'
loop_
_space_group_symop_operation_xyz
x,y,z
-x,-y,1/2+z
x,-y,1/2+z
-x,y,z
1/2+x,1/2+y,z
1/2-x,1/2-y,1/2+z
1/2+x,1/2-y,1/2+z
1/2-x,1/2+y,z
loop_
_atom_site_type_symbol
_atom_site_label
_atom_site_fract_x
_atom_site_fract_y
_atom_site_fract_z
Si Si1 0.699792 0.837478 0.951490
Si Si2 0.707639 0.022191 0.461644
Si Si3 0.702412 0.835555 0.323697
Si Si4 0.699876 0.085880 0.218034
Si Si5 0.700480 0.302375 0.805859
Si Si6 0.296857 0.585225 0.067420
Si Si7 0.791102 0.197650 0.973833
Si Si8 0.210165 0.524590 0.815210
O O1 0.500000 0.838381 0.970185
O O2 0.772740 0.905753 0.971732
O O3 0.712215 0.831753 0.871346
O O4 0.770069 0.770664 0.979041
O O5 0.500000 0.024101 0.460416
O O6 0.762836 0.997375 0.389004
O O7 0.760960 0.973247 0.518283
O O8 0.500000 0.837349 0.309061
O O9 0.769798 0.768943 0.294709
O O10 0.728631 0.828856 0.402967
O O11 0.772697 0.903764 0.302248
O O12 0.500000 0.091699 0.234209
O O13 0.782038 0.150747 0.244373
O O14 0.720460 0.076166 0.140039
O O15 0.767494 0.026574 0.260982
O O16 0.500000 0.296762 0.823298
O O17 0.500000 0.591293 0.075753
O O18 0.234589 0.649541 0.031053
O O19 0.000000 0.197944 0.971694
O O20 0.000000 0.525840 0.814838
#
# Coordination Sequence:
#
# PCOD9350720 Si02
#       8
#     8   8   8   8   8   8   8   8
#     4   9  17  32  54  79 105 136 177 219 256 308
#     4  10  18  33  57  81 105 138 180 223 262 313
#     4   9  17  31  53  79 106 132 167 216 264 310
#     4  11  22  38  57  76 103 146 187 223 264 321
#     4  10  19  31  51  80 109 136 166 214 272 317
#     4  11  23  37  52  78 112 144 177 222 276 328
#     4   9  18  32  51  76 106 137 172 214 261 312
#     4   9  17  32  55  81 104 133 180 225 259 309
#
# _framework density 19.347818
#
# number of rings (size 3 to 8) (size 9 to 14) (size 15 to 20)
#    0.000    2.250    2.500    1.125    0.000    1.500 
#    0.000    2.500    0.000    7.500    0.000    0.000 
#    0.000    0.000    0.000    0.000    0.000    0.000 
#
# Total GULP energy -178495.725184 kJ/mol
# GULP energy per Si atom -5577.991412 kJ/mol
# Density = 1.930378 g / cm^3
# Si number density = 19.347818 Si / 1000 Ang^3
#
#
#
# Elastic Constant Matrix: (Units=GPa)
#
#
# Indices 1 2 3 4 5 6 
#
# 1 23.0836 3.8573 -10.0406 0.0000 0.0000 0.0000
# 2 3.8573 173.7113 67.5435 0.0000 0.0000 0.0000
# 3 -10.0406 67.5435 90.4120 0.0000 0.0000 0.0000
# 4 0.0000 0.0000 0.0000 24.7897 0.0000 0.0000
# 5 0.0000 0.0000 0.0000 0.0000 19.4372 0.0000
# 6 0.0000 0.0000 0.0000 0.0000 0.0000 11.5023
#
#
#
# Elastic Compliance Matrix: (Units=1/GPa)
#
#
# Indices 1 2 3 4 5 6 
#
# 1 0.047797 -0.004405 0.008599 0.000000 0.000000 0.000000
# 2 -0.004405 0.008519 -0.006854 0.000000 0.000000 0.000000
# 3 0.008599 -0.006854 0.017136 0.000000 0.000000 0.000000
# 4 0.000000 0.000000 0.000000 0.040339 0.000000 0.000000
# 5 0.000000 0.000000 0.000000 0.000000 0.051448 0.000000
# 6 0.000000 0.000000 0.000000 0.000000 0.000000 0.086939
#
#
# Mechanical properties :
#
#
# Convention : Reuss Voigt Hill
#
# Bulk Modulus (GPa) = 14.67734 45.54750 30.11242
# Shear Modulus (GPa) = 17.84387 26.20229 22.02308
#
# Velocity S-wave (km/s) = 3.04018 3.68404 3.37749
# Velocity P-wave (km/s) = 4.46387 6.45668 5.55044
#
# Compressibility (1/GPa) = 0.06813225
#
# Stress axis : x y z
#
# Youngs Moduli (GPa) = 20.92185 117.37951 58.35836
#
# Poissons Ratio (x) = 0.51702 -0.50180
# Poissons Ratio (y) = 0.09215 0.39997
# Poissons Ratio (z) = -0.17990 0.80448
#
# Static dielectric constant tensor:
#      x y z
#    x 1.733920 0.000000 0.000000 
#    y 0.000000 1.723790 0.000000 
#    z 0.000000 0.000000 1.621580 
# 
# From -- ./inp_files/13760.got.cif
#   From: 2010.05.17/outbox.cif.g08.bks.cpg/sg36_7_cif.got.tgz:13760.got - 2010.06.03 17:41:39.
