data_PCOD9350862
_publ_section_title
;
Structure prediction by ZEFSAII (Michael W. Deem and Ramdas Pophale) SiO2 
 PCOD9350862
Probable space group: C M C 21
;
_chemical_formula_sum "Si O2"
_cell_formula_units_Z 48
_cell_length_a 18.586458
_cell_length_b 12.095844
_cell_length_c 8.093258
_cell_angle_alpha 90.000000
_cell_angle_beta 90.000000
_cell_angle_gamma 90.000000
_cell_volume 1819.517332
_symmetry_space_group_name_H-M "C M C 21"
_symmetry_group_IT_number 36
_symmetry_cell_setting 'orthorhombic'
loop_
_space_group_symop_operation_xyz
x,y,z
-x,-y,1/2+z
x,-y,1/2+z
-x,y,z
1/2+x,1/2+y,z
1/2-x,1/2-y,1/2+z
1/2+x,1/2-y,1/2+z
1/2-x,1/2+y,z
loop_
_atom_site_type_symbol
_atom_site_label
_atom_site_fract_x
_atom_site_fract_y
_atom_site_fract_z
Si Si1 0.400142 0.833851 0.221040
Si Si2 0.891394 0.546802 0.388883
Si Si3 0.078189 0.112207 0.414884
Si Si4 0.211886 0.223549 0.027138
Si Si5 0.581116 0.272919 0.271265
Si Si6 0.271325 0.411088 0.829810
O O1 0.424250 0.714189 0.283698
O O2 0.318685 0.809673 0.163662
O O3 0.416557 0.924125 0.357087
O O4 0.422390 0.896101 0.052439
O O5 0.910017 0.639592 0.251223
O O6 0.804071 0.535822 0.380683
O O7 0.086695 0.162843 0.598550
O O8 0.149262 0.043402 0.366632
O O9 0.000000 0.055366 0.406909
O O10 0.233734 0.119609 0.136044
O O11 0.146079 0.202589 0.899889
O O12 0.270455 0.295771 0.934170
O O13 0.500000 0.292925 0.335879
#
# Coordination Sequence:
#
# PCOD9350862 Si02
#       6
#     8   8   8   8   8   8
#     4   9  19  31  45  68  95 129 164 194 239 287
#     4  10  19  31  48  69  99 133 164 202 239 290
#     4  10  19  32  50  71  99 130 161 201 246 295
#     4   9  18  30  48  67  96 128 160 206 241 292
#     4   9  18  30  45  67  96 129 162 197 242 294
#     4   9  17  30  47  70  94 125 165 202 243 284
#
# _framework density 26.380624000000001
#
# number of rings (size 3 to 8) (size 9 to 14) (size 15 to 20)
#    0.000    3.000    0.000    3.000    0.000    8.000 
#    0.000    1.667    0.000    0.000    0.000    4.667 
#    0.000    5.333    0.000    0.000    0.000    0.000 
#
# Total GULP energy -133857.989710 kJ/mol
# GULP energy per Si atom -5577.416238 kJ/mol
# Density = 2.632058 g / cm^3
# Si number density = 26.380624 Si / 1000 Ang^3
#
#
#
# Elastic Constant Matrix: (Units=GPa)
#
#
# Indices 1 2 3 4 5 6 
#
# 1 182.7253 9.4426 20.1796 0.0000 0.0000 0.0000
# 2 9.4426 82.8465 11.9383 0.0000 0.0000 0.0000
# 3 20.1796 11.9383 93.2932 0.0000 0.0000 0.0000
# 4 0.0000 0.0000 0.0000 25.0923 0.0000 0.0000
# 5 0.0000 0.0000 0.0000 0.0000 15.5688 0.0000
# 6 0.0000 0.0000 0.0000 0.0000 0.0000 -12.4877
#
#
#
# Elastic Compliance Matrix: (Units=1/GPa)
#
#
# Indices 1 2 3 4 5 6 
#
# 1 0.005625 -0.000475 -0.001156 0.000000 0.000000 0.000000
# 2 -0.000475 0.012337 -0.001476 0.000000 0.000000 0.000000
# 3 -0.001156 -0.001476 0.011158 0.000000 0.000000 0.000000
# 4 0.000000 0.000000 0.000000 0.039853 0.000000 0.000000
# 5 0.000000 0.000000 0.000000 0.000000 0.064231 0.000000
# 6 0.000000 0.000000 0.000000 0.000000 0.000000 -0.080079
#
#
# Mechanical properties :
#
#
# Convention : Reuss Voigt Hill
#
# Bulk Modulus (GPa) = 43.65512 49.10957 46.38235
# Shear Modulus (GPa) = 74.65583 26.78832 50.72208
#
# Velocity S-wave (km/s) = 5.32550 3.19008 4.38962
# Velocity P-wave (km/s) = 7.37555 5.67670 6.58117
#
# Compressibility (1/GPa) = 0.02290682
#
# Stress axis : x y z
#
# Youngs Moduli (GPa) = 177.78167 81.05494 89.62323
#
# Poissons Ratio (x) = 0.03846 0.10360
# Poissons Ratio (y) = 0.08436 0.13229
# Poissons Ratio (z) = 0.20551 0.11965
#
# Static dielectric constant tensor:
#      x y z
#    x 2.254310 0.000000 0.000000 
#    y 0.000000 2.063280 0.000000 
#    z 0.000000 0.000000 2.103580 
# 
# From -- ./inp_files/4728.got.cif
#   From: 2010.05.17/outbox.cif.g08.bks.cpg/sg36_3_cif.got.tgz:4728.got - 2010.06.03 17:41:39.
