data_PCOD9350819
_publ_section_title
;
Structure prediction by ZEFSAII (Michael W. Deem and Ramdas Pophale) SiO2 
 PCOD9350819
Probable space group: C M C 21
;
_chemical_formula_sum "Si O2"
_cell_formula_units_Z 64
_cell_length_a 13.859917
_cell_length_b 35.020937
_cell_length_c 9.446967
_cell_angle_alpha 90.000000
_cell_angle_beta 90.000000
_cell_angle_gamma 90.000000
_cell_volume 4585.437617
_symmetry_space_group_name_H-M "C M C 21"
_symmetry_group_IT_number 36
_symmetry_cell_setting 'orthorhombic'
loop_
_space_group_symop_operation_xyz
x,y,z
-x,-y,1/2+z
x,-y,1/2+z
-x,y,z
1/2+x,1/2+y,z
1/2-x,1/2-y,1/2+z
1/2+x,1/2-y,1/2+z
1/2-x,1/2+y,z
loop_
_atom_site_type_symbol
_atom_site_label
_atom_site_fract_x
_atom_site_fract_y
_atom_site_fract_z
Si Si1 0.617326 0.963447 0.077720
Si Si2 0.782307 0.690496 0.082491
Si Si3 0.887103 0.770861 0.081746
Si Si4 0.382674 0.963447 0.751524
Si Si5 0.717692 0.190496 0.746754
Si Si6 0.114901 0.377745 0.744485
Si Si7 0.112897 0.229139 0.247498
Si Si8 0.885099 0.377745 0.084760
O O1 0.500000 0.963772 0.080849
O O2 0.644577 0.920928 0.127298
O O3 0.651628 0.000000 0.164622
O O4 0.646428 0.967368 0.914622
O O5 0.852324 0.727189 0.103790
O O6 0.827312 0.654233 0.160792
O O7 0.681212 0.702737 0.152723
O O8 0.773080 0.684190 0.914622
O O9 0.818788 0.797263 0.176522
O O10 0.000000 0.774668 0.114086
O O11 0.872264 0.779325 0.914622
O O12 0.500000 0.963772 0.748395
O O13 0.355423 0.920928 0.701946
O O14 0.647676 0.227189 0.725455
O O15 0.672688 0.154233 0.668453
O O16 0.000000 0.373553 0.717934
O O17 0.128448 0.374322 0.914622
O O18 0.000000 0.225332 0.215158
O O19 0.000000 0.373553 0.111311
#
# Coordination Sequence:
#
# PCOD9350819 Si02
#       8
#     8   8   8   8   8   8   8   8
#     4   8  14  24  37  54  77 106 138 168 199 237
#     4  10  19  29  43  64  85 105 136 175 209 243
#     4   9  18  32  46  59  80 110 140 170 206 247
#     4   8  14  24  37  54  77 106 138 168 199 237
#     4  10  19  29  43  64  85 105 136 175 209 243
#     4   9  17  28  41  58  83 114 143 170 203 244
#     4   9  18  32  46  59  80 110 140 170 206 247
#     4   9  17  28  41  58  83 114 143 170 203 244
#
# _framework density 13.957228000000001
#
# number of rings (size 3 to 8) (size 9 to 14) (size 15 to 20)
#    0.000    3.000    0.000    3.000    0.000    4.000 
#    0.000    2.500    0.000    0.000    0.000    0.000 
#    0.000    1.000    0.000    3.250    0.000    4.000 
#
# Total GULP energy -178197.693367 kJ/mol
# GULP energy per Si atom -5568.677918 kJ/mol
# Density = 1.392546 g / cm^3
# Si number density = 13.957228 Si / 1000 Ang^3
#
#
#
# Elastic Constant Matrix: (Units=GPa)
#
#
# Indices 1 2 3 4 5 6 
#
# 1 73.9310 56.3441 49.8338 0.0000 0.0000 0.0000
# 2 56.3441 138.5379 79.5664 0.0000 0.0000 0.0000
# 3 49.8338 79.5664 67.0504 0.0000 0.0000 0.0000
# 4 0.0000 0.0000 0.0000 29.0996 0.0000 0.0000
# 5 0.0000 0.0000 0.0000 0.0000 19.0685 0.0000
# 6 0.0000 0.0000 0.0000 0.0000 0.0000 18.7012
#
#
#
# Elastic Compliance Matrix: (Units=1/GPa)
#
#
# Indices 1 2 3 4 5 6 
#
# 1 0.027236 0.001724 -0.022288 0.000000 0.000000 0.000000
# 2 0.001724 0.022775 -0.028307 0.000000 0.000000 0.000000
# 3 -0.022288 -0.028307 0.065070 0.000000 0.000000 0.000000
# 4 0.000000 0.000000 0.000000 0.034365 0.000000 0.000000
# 5 0.000000 0.000000 0.000000 0.000000 0.052443 0.000000
# 6 0.000000 0.000000 0.000000 0.000000 0.000000 0.053473
#
#
# Mechanical properties :
#
#
# Convention : Reuss Voigt Hill
#
# Bulk Modulus (GPa) = 57.67607 72.33418 65.00513
# Shear Modulus (GPa) = 13.93211 19.62552 16.77882
#
# Velocity S-wave (km/s) = 3.16286 3.75389 3.47098
# Velocity P-wave (km/s) = 7.39942 8.40994 7.92081
#
# Compressibility (1/GPa) = 0.01733821
#
# Stress axis : x y z
#
# Youngs Moduli (GPa) = 36.71640 43.90789 15.36800
#
# Poissons Ratio (x) = -0.07568 0.34252
# Poissons Ratio (y) = -0.06328 0.43503
# Poissons Ratio (z) = 0.81832 1.24291
#
# Static dielectric constant tensor:
#      x y z
#    x 1.430200 0.000000 0.000000 
#    y 0.000000 1.458830 0.000000 
#    z 0.000000 0.000000 1.463080 
# 
# From -- ./inp_files/4437.got.cif
#   From: 2010.05.17/outbox.cif.g08.bks.cpg/sg36_3_cif.got.tgz:4437.got - 2010.06.03 17:41:39.
