data_PCOD9350337
_publ_section_title
;
Structure prediction by ZEFSAII (Michael W. Deem and Ramdas Pophale) SiO2 
 PCOD9350337
Probable space group: C M M 2
;
_chemical_formula_sum "Si O2"
_cell_formula_units_Z 56
_cell_length_a 14.819066
_cell_length_b 19.011053
_cell_length_c 9.241387
_cell_angle_alpha 90.000000
_cell_angle_beta 90.000000
_cell_angle_gamma 90.000000
_cell_volume 2603.539448
_symmetry_space_group_name_H-M "C M M 2"
_symmetry_group_IT_number 35
_symmetry_cell_setting 'orthorhombic'
loop_
_space_group_symop_operation_xyz
x,y,z
-x,-y,z
-x,y,z
x,-y,z
1/2+x,1/2+y,z
1/2-x,1/2-y,z
1/2-x,1/2+y,z
1/2+x,1/2-y,z
loop_
_atom_site_type_symbol
_atom_site_label
_atom_site_fract_x
_atom_site_fract_y
_atom_site_fract_z
Si Si1 0.604018 0.356959 0.644020
Si Si2 0.395716 0.925719 0.846319
Si Si3 0.311574 0.317847 0.930264
Si Si4 0.264876 0.364918 0.400658
Si Si5 0.830857 0.614601 0.140450
Si Si6 0.894599 0.312670 0.607663
Si Si7 0.898840 0.231779 0.208560
O O1 0.500000 0.378574 0.640610
O O2 0.649241 0.362829 0.800412
O O3 0.663638 0.391563 0.518488
O O4 0.607699 0.271422 0.625448
O O5 0.500000 0.930497 0.807383
O O6 0.368984 0.856967 0.753100
O O7 0.350358 0.000000 0.803026
O O8 0.392733 0.920919 0.020792
O O9 0.250000 0.250000 0.889265
O O10 0.249338 0.364470 0.032105
O O11 0.388510 0.291162 0.040776
O O12 0.216884 0.415455 0.283249
O O13 0.182782 0.332460 0.493814
O O14 0.324301 0.309204 0.304406
O O15 0.877965 0.685521 0.199308
O O16 0.000000 0.329206 0.567564
O O17 0.000000 0.218371 0.263034
#
# Coordination Sequence:
#
# PCOD9350337 Si02
#       7
#     8   8   8   8   8   8   8
#     4  11  19  28  46  73 107 143 173 201 245 310
#     4  10  21  37  55  74  96 129 182 235 264 293
#     4   9  17  28  44  67  99 139 178 211 243 299
#     4  11  21  32  47  74 109 141 171 203 246 317
#     4  10  19  31  49  70 101 141 171 208 259 304
#     4  10  20  33  50  71 101 141 174 209 261 308
#     4  10  18  29  46  73 109 143 172 201 246 309
#
# _framework density 21.509180000000001
#
# number of rings (size 3 to 8) (size 9 to 14) (size 15 to 20)
#    0.000    1.857    0.000    8.143    0.000    3.429 
#    0.000    0.714    0.000    1.714    0.000    0.000 
#    0.000   75.429    0.000    0.000    0.000    0.000 
#
# Total GULP energy -156000.131828 kJ/mol
# GULP energy per Si atom -5571.433280 kJ/mol
# Density = 2.146022 g / cm^3
# Si number density = 21.509180 Si / 1000 Ang^3
#
#
#
# Elastic Constant Matrix: (Units=GPa)
#
#
# Indices 1 2 3 4 5 6 
#
# 1 123.3023 0.4692 32.3132 0.0000 0.0000 0.0000
# 2 0.4692 30.7223 6.4266 0.0000 0.0000 0.0000
# 3 32.3132 6.4266 105.4341 0.0000 0.0000 0.0000
# 4 0.0000 0.0000 0.0000 -9.0880 0.0000 0.0000
# 5 0.0000 0.0000 0.0000 0.0000 35.7654 0.0000
# 6 0.0000 0.0000 0.0000 0.0000 0.0000 -10.5216
#
#
#
# Elastic Compliance Matrix: (Units=1/GPa)
#
#
# Indices 1 2 3 4 5 6 
#
# 1 0.008824 0.000437 -0.002731 0.000000 0.000000 0.000000
# 2 0.000437 0.032992 -0.002145 0.000000 0.000000 0.000000
# 3 -0.002731 -0.002145 0.010452 0.000000 0.000000 0.000000
# 4 0.000000 0.000000 0.000000 -0.110035 0.000000 0.000000
# 5 0.000000 0.000000 0.000000 0.000000 0.027960 0.000000
# 6 0.000000 0.000000 0.000000 0.000000 0.000000 -0.095043
#
#
# Mechanical properties :
#
#
# Convention : Reuss Voigt Hill
#
# Bulk Modulus (GPa) = 23.04698 37.54187 30.29442
# Shear Modulus (GPa) = -49.25729 17.91446 -15.67141
#
# Velocity S-wave (km/s) = -4.79065 2.88909 -2.70217
# Velocity P-wave (km/s) = 4.45670 5.34985 2.09269
#
# Compressibility (1/GPa) = 0.04338964
#
# Stress axis : x y z
#
# Youngs Moduli (GPa) = 113.32478 30.31071 95.67246
#
# Poissons Ratio (x) = -0.01323 0.26128
# Poissons Ratio (y) = -0.04947 0.20519
# Poissons Ratio (z) = 0.30949 0.06501
#
# Static dielectric constant tensor:
#      x y z
#    x 1.833570 0.000000 0.000000 
#    y 0.000000 1.853510 0.000000 
#    z 0.000000 0.000000 1.875950 
# 
# From -- ./inp_files/7658.got.cif
#   From: 2010.05.17/outbox.cif.g08.bks.cpg/sg35_4_cif.got.tgz:7658.got - 2010.06.03 17:29:28.
