data_PCOD9350627
_publ_section_title
;
Structure prediction by ZEFSAII (Michael W. Deem and Ramdas Pophale) SiO2 
 PCOD9350627
Probable space group: C M C 21
;
_chemical_formula_sum "Si O2"
_cell_formula_units_Z 64
_cell_length_a 8.078733
_cell_length_b 23.392469
_cell_length_c 17.152798
_cell_angle_alpha 90.000000
_cell_angle_beta 90.000000
_cell_angle_gamma 90.000000
_cell_volume 3241.561688
_symmetry_space_group_name_H-M "C M C 21"
_symmetry_group_IT_number 36
_symmetry_cell_setting 'orthorhombic'
loop_
_space_group_symop_operation_xyz
x,y,z
-x,-y,1/2+z
x,-y,1/2+z
-x,y,z
1/2+x,1/2+y,z
1/2-x,1/2-y,1/2+z
1/2+x,1/2-y,1/2+z
1/2-x,1/2+y,z
loop_
_atom_site_type_symbol
_atom_site_label
_atom_site_fract_x
_atom_site_fract_y
_atom_site_fract_z
Si Si1 0.296879 0.594438 0.253810
Si Si2 0.809108 0.865025 0.174689
Si Si3 0.817039 0.215122 0.824069
Si Si4 0.202123 0.778512 0.047848
Si Si5 0.312920 0.321415 0.881568
Si Si6 0.302147 0.351137 0.589693
Si Si7 0.298933 0.536025 0.783908
Si Si8 0.694629 0.887632 0.425397
O O1 0.500000 0.597220 0.254042
O O2 0.235799 0.628933 0.329736
O O3 0.242540 0.624017 0.172925
O O4 0.250813 0.528354 0.263854
O O5 0.811730 0.819151 0.244218
O O6 0.736222 0.829769 0.103291
O O7 0.736302 0.921153 0.215796
O O8 0.000000 0.879201 0.153373
O O9 0.687817 0.265818 0.826618
O O10 0.785388 0.167945 0.890084
O O11 0.000000 0.240299 0.833105
O O12 0.254133 0.715174 0.074741
O O13 0.000000 0.777307 0.049427
O O14 0.259224 0.796324 0.961424
O O15 0.500000 0.339641 0.900790
O O16 0.500000 0.354327 0.589401
O O17 0.238623 0.388806 0.516506
O O18 0.500000 0.539845 0.784593
O O19 0.242288 0.560163 0.868099
O O20 0.500000 0.877711 0.417613
#
# Coordination Sequence:
#
# PCOD9350627 Si02
#       8
#     8   8   8   8   8   8   8   8
#     4   9  20  37  56  83 114 149 191 235 277 328
#     4   8  16  30  51  77 102 135 177 221 264 319
#     4  10  18  31  53  78 106 140 180 222 270 327
#     4  10  19  32  51  80 113 143 179 223 280 339
#     4  10  19  32  51  78 115 147 175 220 277 332
#     4  11  21  35  56  83 113 145 187 232 282 335
#     4   9  18  38  60  79 109 146 192 232 271 331
#     4  11  21  35  56  82 110 143 185 231 281 331
#
# _framework density 19.743570999999999
#
# number of rings (size 3 to 8) (size 9 to 14) (size 15 to 20)
#    0.000    2.250    1.250    3.375    0.000    0.000 
#    2.250    5.000    0.000    0.000    0.000    0.000 
#    0.000    0.000    0.000    0.000    0.000    0.000 
#
# Total GULP energy -178340.553362 kJ/mol
# GULP energy per Si atom -5573.142293 kJ/mol
# Density = 1.969863 g / cm^3
# Si number density = 19.743571 Si / 1000 Ang^3
#
#
#
# Elastic Constant Matrix: (Units=GPa)
#
#
# Indices 1 2 3 4 5 6 
#
# 1 31.0449 3.9467 11.6596 0.0000 0.0000 0.0000
# 2 3.9467 141.5423 87.4448 0.0000 0.0000 0.0000
# 3 11.6596 87.4448 107.4975 0.0000 0.0000 0.0000
# 4 0.0000 0.0000 0.0000 24.0316 0.0000 0.0000
# 5 0.0000 0.0000 0.0000 0.0000 13.1176 0.0000
# 6 0.0000 0.0000 0.0000 0.0000 0.0000 12.7535
#
#
#
# Elastic Compliance Matrix: (Units=1/GPa)
#
#
# Indices 1 2 3 4 5 6 
#
# 1 0.034078 0.002680 -0.005877 0.000000 0.000000 0.000000
# 2 0.002680 0.014413 -0.012015 0.000000 0.000000 0.000000
# 3 -0.005877 -0.012015 0.019714 0.000000 0.000000 0.000000
# 4 0.000000 0.000000 0.000000 0.041612 0.000000 0.000000
# 5 0.000000 0.000000 0.000000 0.000000 0.076234 0.000000
# 6 0.000000 0.000000 0.000000 0.000000 0.000000 0.078410
#
#
# Mechanical properties :
#
#
# Convention : Reuss Voigt Hill
#
# Bulk Modulus (GPa) = 26.46772 54.02074 40.24423
# Shear Modulus (GPa) = 16.26131 21.78276 19.02204
#
# Velocity S-wave (km/s) = 2.87300 3.32517 3.10732
# Velocity P-wave (km/s) = 4.94372 6.49330 5.77076
#
# Compressibility (1/GPa) = 0.03778187
#
# Stress axis : x y z
#
# Youngs Moduli (GPa) = 29.34464 69.37974 50.72534
#
# Poissons Ratio (x) = -0.18596 0.29809
# Poissons Ratio (y) = -0.07865 0.60949
# Poissons Ratio (z) = 0.17245 0.83363
#
# Static dielectric constant tensor:
#      x y z
#    x 1.722530 0.000000 0.000000 
#    y 0.000000 1.674060 0.000000 
#    z 0.000000 0.000000 1.739850 
# 
# From -- ./inp_files/14060.got.cif
#   From: 2010.05.17/outbox.cif.g08.bks.cpg/sg36_8_cif.got.tgz:14060.got - 2010.06.03 17:41:39.
