data_PCOD9350825
_publ_section_title
;
Structure prediction by ZEFSAII (Michael W. Deem and Ramdas Pophale) SiO2 
 PCOD9350825
Probable space group: C M C 21
;
_chemical_formula_sum "Si O2"
_cell_formula_units_Z 44
_cell_length_a 9.453721
_cell_length_b 36.341551
_cell_length_c 7.564787
_cell_angle_alpha 90.000000
_cell_angle_beta 90.000000
_cell_angle_gamma 90.000000
_cell_volume 2598.980038
_symmetry_space_group_name_H-M "C M C 21"
_symmetry_group_IT_number 36
_symmetry_cell_setting 'orthorhombic'
loop_
_space_group_symop_operation_xyz
x,y,z
-x,-y,1/2+z
x,-y,1/2+z
-x,y,z
1/2+x,1/2+y,z
1/2-x,1/2-y,1/2+z
1/2+x,1/2-y,1/2+z
1/2-x,1/2+y,z
loop_
_atom_site_type_symbol
_atom_site_label
_atom_site_fract_x
_atom_site_fract_y
_atom_site_fract_z
Si Si1 0.327925 0.963604 0.422340
Si Si2 0.500000 0.699168 0.467380
Si Si3 0.000000 0.728767 0.171152
Si Si4 0.000000 0.198858 0.873529
Si Si5 0.171558 0.403699 0.713889
Si Si6 0.223154 0.821427 0.670541
Si Si7 0.327702 0.954273 0.027766
O O1 0.500000 0.964655 0.423994
O O2 0.286564 0.934505 0.570546
O O3 0.281928 0.950823 0.229341
O O4 0.282179 0.005493 0.458548
O O5 0.500000 0.743070 0.505086
O O6 0.500000 0.683810 0.670198
O O7 0.367543 0.687975 0.346082
O O8 0.862579 0.703483 0.170818
O O9 0.000000 0.757139 0.336783
O O10 0.867357 0.187440 0.994458
O O11 0.236874 0.364273 0.676122
O O12 0.000000 0.400397 0.710427
O O13 0.215423 0.421161 0.901277
O O14 0.500000 0.954760 0.024353
#
# Coordination Sequence:
#
# PCOD9350825 Si02
#       7
#     8   4   4   4   8   8   8
#     4   9  15  25  42  66 103 148 182 211 266 335
#     4   9  23  38  61  81 110 153 192 215 289 349
#     4  10  20  40  64  84 112 144 186 242 278 344
#     4   9  23  38  61  81 110 153 192 215 289 349
#     4  10  19  29  48  77 113 144 180 233 278 317
#     4  11  20  39  58  87 116 145 186 240 283 328
#     4   9  15  25  42  66 103 148 182 211 266 335
#
# _framework density 16.929718000000001
#
# number of rings (size 3 to 8) (size 9 to 14) (size 15 to 20)
#    0.545    1.818    2.727    1.091    0.000    1.455 
#    0.000    0.000    0.000    0.000    0.000    5.091 
#    0.000    0.000    0.000    0.000    0.000    0.000 
#
# Total GULP energy -122496.930905 kJ/mol
# GULP energy per Si atom -5568.042314 kJ/mol
# Density = 1.689118 g / cm^3
# Si number density = 16.929718 Si / 1000 Ang^3
#
#
#
# Elastic Constant Matrix: (Units=GPa)
#
#
# Indices 1 2 3 4 5 6 
#
# 1 59.4171 22.1133 26.5121 0.0000 0.0000 0.0000
# 2 22.1133 70.5869 -0.7262 0.0000 0.0000 0.0000
# 3 26.5121 -0.7262 94.8967 0.0000 0.0000 0.0000
# 4 0.0000 0.0000 0.0000 18.7776 0.0000 0.0000
# 5 0.0000 0.0000 0.0000 0.0000 13.1182 0.0000
# 6 0.0000 0.0000 0.0000 0.0000 0.0000 3.8033
#
#
#
# Elastic Compliance Matrix: (Units=1/GPa)
#
#
# Indices 1 2 3 4 5 6 
#
# 1 0.022245 -0.007033 -0.006269 0.000000 0.000000 0.000000
# 2 -0.007033 0.016392 0.002090 0.000000 0.000000 0.000000
# 3 -0.006269 0.002090 0.012305 0.000000 0.000000 0.000000
# 4 0.000000 0.000000 0.000000 0.053255 0.000000 0.000000
# 5 0.000000 0.000000 0.000000 0.000000 0.076230 0.000000
# 6 0.000000 0.000000 0.000000 0.000000 0.000000 0.262929
#
#
# Mechanical properties :
#
#
# Convention : Reuss Voigt Hill
#
# Bulk Modulus (GPa) = 35.06459 35.63323 35.34891
# Shear Modulus (GPa) = 10.51999 18.93989 14.72994
#
# Velocity S-wave (km/s) = 2.49548 3.34838 2.95289
# Velocity P-wave (km/s) = 5.39074 6.00352 5.70536
#
# Compressibility (1/GPa) = 0.02851880
#
# Stress axis : x y z
#
# Youngs Moduli (GPa) = 44.95431 61.00604 81.26729
#
# Poissons Ratio (x) = 0.42907 0.50943
# Poissons Ratio (y) = 0.31618 -0.16988
# Poissons Ratio (z) = 0.28180 -0.12753
#
# Static dielectric constant tensor:
#      x y z
#    x 1.559500 0.000000 0.000000 
#    y 0.000000 1.545470 0.000000 
#    z 0.000000 0.000000 1.576810 
# 
# From -- ./inp_files/2603.got.cif
#   From: 2010.05.17/outbox.cif.g08.bks.cpg/sg36_2_cif.got.tgz:2603.got - 2010.06.03 17:41:39.
