data_PCOD9350941
_publ_section_title
;
Structure prediction by ZEFSAII (Michael W. Deem and Ramdas Pophale) SiO2 
 PCOD9350941
Probable space group: C M C 21
;
_chemical_formula_sum "Si O2"
_cell_formula_units_Z 56
_cell_length_a 23.174101
_cell_length_b 14.437442
_cell_length_c 7.362174
_cell_angle_alpha 90.000000
_cell_angle_beta 90.000000
_cell_angle_gamma 90.000000
_cell_volume 2463.197445
_symmetry_space_group_name_H-M "C M C 21"
_symmetry_group_IT_number 36
_symmetry_cell_setting 'orthorhombic'
loop_
_space_group_symop_operation_xyz
x,y,z
-x,-y,1/2+z
x,-y,1/2+z
-x,y,z
1/2+x,1/2+y,z
1/2-x,1/2-y,1/2+z
1/2+x,1/2-y,1/2+z
1/2-x,1/2+y,z
loop_
_atom_site_type_symbol
_atom_site_label
_atom_site_fract_x
_atom_site_fract_y
_atom_site_fract_z
Si Si1 0.262545 0.876572 0.222210
Si Si2 0.740278 0.165961 0.298578
Si Si3 0.640944 0.576349 0.815865
Si Si4 0.386077 0.171952 0.683391
Si Si5 0.878972 0.281126 0.745276
Si Si6 0.500000 0.864951 0.693991
Si Si7 0.500000 0.074522 0.612939
Si Si8 0.367013 0.624925 0.209376
O O1 0.248683 0.776556 0.308357
O O2 0.210471 0.937387 0.298933
O O3 0.330859 0.887207 0.248898
O O4 0.257609 0.872358 0.002978
O O5 0.678734 0.159558 0.196750
O O6 0.797383 0.132194 0.200012
O O7 0.630308 0.671211 0.700622
O O8 0.616850 0.472666 0.796937
O O9 0.614870 0.610219 0.003652
O O10 0.379649 0.196809 0.465793
O O11 0.443332 0.113985 0.708389
O O12 0.387120 0.274093 0.774321
O O13 0.939496 0.312997 0.662667
O O14 0.500000 0.964716 0.602289
O O15 0.500000 0.885438 0.910045
#
# Coordination Sequence:
#
# PCOD9350941 Si02
#       8
#     8   8   8   8   8   4   4   8
#     4   9  16  29  48  73 101 133 167 203 245 295
#     4   9  16  29  48  73 101 133 167 203 245 295
#     4  10  19  32  50  76 104 136 170 206 252 306
#     4   8  17  33  53  73 100 134 169 204 249 300
#     4   8  17  33  53  73 100 134 169 204 249 300
#     4  10  20  38  57  74  96 128 167 210 251 298
#     4  10  20  38  57  74  96 128 167 210 251 298
#     4  10  19  32  50  76 104 136 170 206 252 306
#
# _framework density 22.734679
#
# number of rings (size 3 to 8) (size 9 to 14) (size 15 to 20)
#    0.000    2.857    0.000    3.429    0.000    1.143 
#    0.000   12.143    0.000    0.000    0.000    0.000 
#    0.000    0.000    0.000    0.000    0.000    0.000 
#
# Total GULP energy -155940.209486 kJ/mol
# GULP energy per Si atom -5569.293196 kJ/mol
# Density = 2.268293 g / cm^3
# Si number density = 22.734679 Si / 1000 Ang^3
#
#
#
# Elastic Constant Matrix: (Units=GPa)
#
#
# Indices 1 2 3 4 5 6 
#
# 1 107.2654 27.3863 -5.3918 0.0000 0.0000 0.0000
# 2 27.3863 101.7659 -6.5303 0.0000 0.0000 0.0000
# 3 -5.3918 -6.5303 33.9928 0.0000 0.0000 0.0000
# 4 0.0000 0.0000 0.0000 10.4829 0.0000 0.0000
# 5 0.0000 0.0000 0.0000 0.0000 15.9228 0.0000
# 6 0.0000 0.0000 0.0000 0.0000 0.0000 10.1556
#
#
#
# Elastic Compliance Matrix: (Units=1/GPa)
#
#
# Indices 1 2 3 4 5 6 
#
# 1 0.010050 -0.002635 0.001088 0.000000 0.000000 0.000000
# 2 -0.002635 0.010640 0.001626 0.000000 0.000000 0.000000
# 3 0.001088 0.001626 0.029903 0.000000 0.000000 0.000000
# 4 0.000000 0.000000 0.000000 0.095393 0.000000 0.000000
# 5 0.000000 0.000000 0.000000 0.000000 0.062803 0.000000
# 6 0.000000 0.000000 0.000000 0.000000 0.000000 0.098468
#
#
# Mechanical properties :
#
#
# Convention : Reuss Voigt Hill
#
# Bulk Modulus (GPa) = 19.70389 30.43915 25.07152
# Shear Modulus (GPa) = 15.43139 22.48294 18.95716
#
# Velocity S-wave (km/s) = 2.60813 3.14813 2.89077
# Velocity P-wave (km/s) = 4.21373 5.16064 4.71104
#
# Compressibility (1/GPa) = 0.05075140
#
# Stress axis : x y z
#
# Youngs Moduli (GPa) = 99.50200 93.98614 33.44155
#
# Poissons Ratio (x) = 0.24763 -0.03638
# Poissons Ratio (y) = 0.26216 -0.05438
# Poissons Ratio (z) = -0.10825 -0.15283
#
# Static dielectric constant tensor:
#      x y z
#    x 1.850770 0.000000 0.000000 
#    y 0.000000 1.889100 0.000000 
#    z 0.000000 0.000000 1.918660 
# 
# From -- ./inp_files/5250.got.cif
#   From: 2010.05.17/outbox.cif.g08.bks.cpg/sg36_3_cif.got.tgz:5250.got - 2010.06.03 17:41:39.
