data_PCOD9350170
_publ_section_title
;
Structure prediction by ZEFSAII (Michael W. Deem and Ramdas Pophale) SiO2 
 PCOD9350170
Probable space group: C M M 2
;
_chemical_formula_sum "Si O2"
_cell_formula_units_Z 24
_cell_length_a 9.000000
_cell_length_b 27.000000
_cell_length_c 12.000000
_cell_angle_alpha 90.000000
_cell_angle_beta 90.000000
_cell_angle_gamma 90.000000
_cell_volume 2916.000000
_symmetry_space_group_name_H-M "C M M 2"
_symmetry_group_IT_number 35
_symmetry_cell_setting 'orthorhombic'
loop_
_space_group_symop_operation_xyz
x,y,z
-x,-y,z
-x,y,z
x,-y,z
1/2+x,1/2+y,z
1/2-x,1/2-y,z
1/2-x,1/2+y,z
1/2+x,1/2-y,z
loop_
_atom_site_type_symbol
_atom_site_label
_atom_site_fract_x
_atom_site_fract_y
_atom_site_fract_z
Si Si1 0.173790 0.124530 0.230770
Si Si2 0.820514 0.695790 0.408020
Si Si3 0.328808 0.115791 0.601028
Si Si4 0.836525 0.442678 0.385733
Si Si5 0.322330 0.557555 0.796581
Si Si6 0.178843 0.442118 0.040970
O O1 0.254727 0.170130 0.295314
O O2 0.201321 0.082007 0.322624
O O3 0.000000 0.134770 0.212011
O O4 0.249876 0.099328 0.122352
O O5 0.750000 0.750000 0.420863
O O6 0.784476 0.661186 0.517266
O O7 0.000000 0.698174 0.401095
O O8 0.500000 0.124850 0.635467
O O9 0.327161 0.069795 0.515224
O O10 0.234477 0.097832 0.706656
O O11 0.838074 0.500000 0.364199
O O12 0.000000 0.422114 0.347993
O O13 0.500000 0.561818 0.810066
O O14 0.290691 0.500000 0.761677
O O15 0.242350 0.564403 0.916037
O O16 0.213762 0.500000 0.074202
O O17 0.000000 0.437649 0.042317
#
# Coordination Sequence:
#
# PCOD9350170 Si02
#       6
#     8   8   8   8   8   8
#     4  11  21  32  49  74 103 133 167 209 257 306
#     4  10  21  38  58  79 102 130 168 213 262 313
#     4   9  18  32  50  72  99 132 168 205 249 303
#     4   9  17  29  45  67  98 134 169 205 247 298
#     4  10  20  32  48  74 107 140 175 213 250 294
#     4  10  20  34  52  73 102 142 181 213 250 300
#
# _framework density 8.2304530000000007
#
# number of rings (size 3 to 8) (size 9 to 14) (size 15 to 20)
#    0.000    2.167    0.000    5.000    0.000    8.333 
#    0.000    0.000    0.000    1.000    0.000    4.667 
#    0.000    0.000    0.000    0.000    0.000    0.000 
#
# Total GULP energy -133658.219634 kJ/mol
# GULP energy per Si atom -5569.092485 kJ/mol
# Density = 0.821172 g / cm^3
# Si number density = 8.230453 Si / 1000 Ang^3
#
#
#
# Elastic Constant Matrix: (Units=GPa)
#
#
# Indices 1 2 3 4 5 6 
#
# 1 98.0532 46.3722 51.9806 0.0000 0.0000 0.0000
# 2 46.3722 92.4722 49.8858 0.0000 0.0000 0.0000
# 3 51.9806 49.8858 101.2169 0.0000 0.0000 0.0000
# 4 0.0000 0.0000 0.0000 23.6774 0.0000 0.0000
# 5 0.0000 0.0000 0.0000 0.0000 25.8576 0.0000
# 6 0.0000 0.0000 0.0000 0.0000 0.0000 26.0368
#
#
#
# Elastic Compliance Matrix: (Units=1/GPa)
#
#
# Indices 1 2 3 4 5 6 
#
# 1 0.015381 -0.004702 -0.005582 0.000000 0.000000 0.000000
# 2 -0.004702 0.016168 -0.005554 0.000000 0.000000 0.000000
# 3 -0.005582 -0.005554 0.015484 0.000000 0.000000 0.000000
# 4 0.000000 0.000000 0.000000 0.042234 0.000000 0.000000
# 5 0.000000 0.000000 0.000000 0.000000 0.038673 0.000000
# 6 0.000000 0.000000 0.000000 0.000000 0.000000 0.038407
#
#
# Mechanical properties :
#
#
# Convention : Reuss Voigt Hill
#
# Bulk Modulus (GPa) = 65.11383 65.35770 65.23576
# Shear Modulus (GPa) = 24.61327 24.68127 24.64727
#
# Velocity S-wave (km/s) = 3.87105 3.87639 3.87372
# Velocity P-wave (km/s) = 7.72156 7.73474 7.72816
#
# Compressibility (1/GPa) = 0.01535772
#
# Stress axis : x y z
#
# Youngs Moduli (GPa) = 65.01390 61.84992 64.58479
#
# Poissons Ratio (x) = 0.29083 0.36049
# Poissons Ratio (y) = 0.30571 0.35869
# Poissons Ratio (z) = 0.36289 0.34350
#
# Static dielectric constant tensor:
#      x y z
#    x 1.589010 0.000000 0.000000 
#    y 0.000000 1.567820 0.000000 
#    z 0.000000 0.000000 1.554590 
# 
# From -- ./inp_files/11470.got.cif
#   From: 2010.05.17/outbox.ucp.g08.bks.cvg/sg35_6_cif.got.tgz:11470.got - 2010.06.11 10:36:28.
