data_PCOD9350070
_publ_section_title
;
Structure prediction by ZEFSAII (Michael W. Deem and Ramdas Pophale) SiO2 
 PCOD9350070
Probable space group: C M M 2
;
_chemical_formula_sum "Si O2"
_cell_formula_units_Z 64
_cell_length_a 8.637238
_cell_length_b 19.343033
_cell_length_c 21.371575
_cell_angle_alpha 90.000000
_cell_angle_beta 90.000000
_cell_angle_gamma 90.000000
_cell_volume 3570.557149
_symmetry_space_group_name_H-M "C M M 2"
_symmetry_group_IT_number 35
_symmetry_cell_setting 'orthorhombic'
loop_
_space_group_symop_operation_xyz
x,y,z
-x,-y,z
-x,y,z
x,-y,z
1/2+x,1/2+y,z
1/2-x,1/2-y,z
1/2-x,1/2+y,z
1/2+x,1/2-y,z
loop_
_atom_site_type_symbol
_atom_site_label
_atom_site_fract_x
_atom_site_fract_y
_atom_site_fract_z
Si Si1 0.684796 0.418254 0.044220
Si Si2 0.812258 0.581118 0.689391
Si Si3 0.816594 0.326858 0.934164
Si Si4 0.813023 0.080141 0.187337
Si Si5 0.184393 0.827505 0.801609
Si Si6 0.179469 0.584046 0.552596
Si Si7 0.689420 0.919909 0.415904
Si Si8 0.185641 0.327329 0.298634
O O1 0.500000 0.406301 0.038571
O O2 0.711607 0.500000 0.035248
O O3 0.771126 0.374194 0.992379
O O4 0.730376 0.401712 0.115829
O O5 0.773745 0.500000 0.696990
O O6 0.743979 0.625591 0.745168
O O7 0.754904 0.604560 0.620171
O O8 0.000000 0.586104 0.689663
O O9 0.750000 0.250000 0.944199
O O10 0.000000 0.322599 0.926943
O O11 0.744499 0.353525 0.869000
O O12 0.741193 0.130827 0.237880
O O13 0.000000 0.083121 0.190908
O O14 0.767647 0.000000 0.198980
O O15 0.250000 0.750000 0.794264
O O16 0.000000 0.825038 0.802274
O O17 0.178326 0.500000 0.552736
O O18 0.246409 0.603322 0.484890
O O19 0.000000 0.606664 0.552545
O O20 0.500000 0.919855 0.418055
O O21 0.738179 0.870252 0.359940
O O22 0.735260 0.000000 0.404997
O O23 0.250000 0.250000 0.298966
O O24 0.000000 0.325045 0.299155
#
# Coordination Sequence:
#
# PCOD9350070 Si02
#       8
#     8   8   8   8   8   8   8   8
#     4   9  19  37  59  82 108 136 167 207 256 307
#     4   9  17  31  53  80 107 135 170 212 257 307
#     4  11  22  37  57  79 105 137 174 214 255 304
#     4   9  19  37  59  80 104 135 170 210 257 309
#     4  11  22  37  55  74 102 139 177 216 258 306
#     4   7  11  23  46  74 101 129 164 208 256 306
#     4   8  14  27  49  75  99 128 170 215 259 308
#     4  11  22  34  50  74 106 141 176 217 259 303
#
# _framework density 17.924372999999999
#
# number of rings (size 3 to 8) (size 9 to 14) (size 15 to 20)
#    0.000    2.625    0.000    6.000    0.000    2.750 
#    0.000    1.875    0.000    3.000    0.000    3.500 
#    0.000    0.000    0.000    0.000    0.000    0.000 
#
# Total GULP energy -178429.154138 kJ/mol
# GULP energy per Si atom -5575.911067 kJ/mol
# Density = 1.788358 g / cm^3
# Si number density = 17.924373 Si / 1000 Ang^3
#
#
#
# Elastic Constant Matrix: (Units=GPa)
#
#
# Indices 1 2 3 4 5 6 
#
# 1 53.4265 36.3545 54.1622 0.0000 0.0000 0.0000
# 2 36.3545 76.2067 94.0330 0.0000 0.0000 0.0000
# 3 54.1622 94.0330 190.3141 0.0000 0.0000 0.0000
# 4 0.0000 0.0000 0.0000 -11.0390 0.0000 0.0000
# 5 0.0000 0.0000 0.0000 0.0000 15.9294 0.0000
# 6 0.0000 0.0000 0.0000 0.0000 0.0000 11.2707
#
#
#
# Elastic Compliance Matrix: (Units=1/GPa)
#
#
# Indices 1 2 3 4 5 6 
#
# 1 0.028638 -0.009236 -0.003587 0.000000 0.000000 0.000000
# 2 -0.009236 0.036597 -0.015454 0.000000 0.000000 0.000000
# 3 -0.003587 -0.015454 0.013911 0.000000 0.000000 0.000000
# 4 0.000000 0.000000 0.000000 -0.090588 0.000000 0.000000
# 5 0.000000 0.000000 0.000000 0.000000 0.062777 0.000000
# 6 0.000000 0.000000 0.000000 0.000000 0.000000 0.088725
#
#
# Mechanical properties :
#
#
# Convention : Reuss Voigt Hill
#
# Bulk Modulus (GPa) = 44.26195 76.56073 60.41134
# Shear Modulus (GPa) = 24.49237 12.25874 18.37555
#
# Velocity S-wave (km/s) = 3.70053 2.61801 3.20530
# Velocity P-wave (km/s) = 6.55789 7.20726 6.89023
#
# Compressibility (1/GPa) = 0.02259277
#
# Stress axis : x y z
#
# Youngs Moduli (GPa) = 34.91840 27.32452 71.88604
#
# Poissons Ratio (x) = 0.25237 0.25784
# Poissons Ratio (y) = 0.32251 1.11092
# Poissons Ratio (z) = 0.12524 0.42227
#
# Static dielectric constant tensor:
#      x y z
#    x 1.606340 0.000000 0.000000 
#    y 0.000000 1.581300 0.000000 
#    z 0.000000 0.000000 1.632390 
# 
# From -- ./inp_files/18401.got.cif
#   From: 2010.05.17/outbox.cif.g08.bks.cpg/sg35_10_cif.got.tgz:18401.got - 2010.06.03 17:29:28.
