data_PCOD9350739
_publ_section_title
;
Structure prediction by ZEFSAII (Michael W. Deem and Ramdas Pophale) SiO2 
 PCOD9350739
Probable space group: C M C 21
;
_chemical_formula_sum "Si O2"
_cell_formula_units_Z 48
_cell_length_a 14.917795
_cell_length_b 19.953347
_cell_length_c 9.061293
_cell_angle_alpha 90.000000
_cell_angle_beta 90.000000
_cell_angle_gamma 90.000000
_cell_volume 2697.183932
_symmetry_space_group_name_H-M "C M C 21"
_symmetry_group_IT_number 36
_symmetry_cell_setting 'orthorhombic'
loop_
_space_group_symop_operation_xyz
x,y,z
-x,-y,1/2+z
x,-y,1/2+z
-x,y,z
1/2+x,1/2+y,z
1/2-x,1/2-y,1/2+z
1/2+x,1/2-y,1/2+z
1/2-x,1/2+y,z
loop_
_atom_site_type_symbol
_atom_site_label
_atom_site_fract_x
_atom_site_fract_y
_atom_site_fract_z
Si Si1 0.183058 0.082853 0.753560
Si Si2 0.000000 0.786832 0.567966
Si Si3 0.303566 0.829699 0.769891
Si Si4 0.184809 0.941266 0.911652
Si Si5 0.500000 0.339633 0.196224
Si Si6 0.705347 0.302378 0.465934
Si Si7 0.000000 0.692184 0.336718
Si Si8 0.500000 0.638309 0.371883
O O1 0.209209 0.065112 0.585286
O O2 0.084880 0.115035 0.732528
O O3 0.232057 0.141389 0.845489
O O4 0.183452 0.016787 0.853238
O O5 0.900169 0.812211 0.513933
O O6 0.000000 0.709133 0.512696
O O7 0.000000 0.810704 0.736575
O O8 0.253329 0.896027 0.820442
O O9 0.285835 0.769354 0.886229
O O10 0.266102 0.807590 0.611080
O O11 0.409896 0.840375 0.778691
O O12 0.087566 0.908637 0.878190
O O13 0.500000 0.268996 0.277562
O O14 0.500000 0.322046 0.024631
#
# Coordination Sequence:
#
# PCOD9350739 Si02
#       8
#     8   4   8   8   4   8   4   4
#     4  11  21  38  56  86 119 156 188 245 295 360
#     4  10  18  34  55  83 115 155 186 229 291 344
#     4  11  22  37  57  88 113 161 196 243 286 344
#     4  11  23  35  58  86 122 154 196 237 298 353
#     4  10  19  37  54  86 123 156 185 228 301 362
#     4  11  21  36  60  81 121 150 200 240 294 350
#     4  10  22  37  59  79 123 159 193 239 285 341
#     4  10  21  32  52  90 121 154 186 232 289 361
#
# _framework density 17.796340000000001
#
# number of rings (size 3 to 8) (size 9 to 14) (size 15 to 20)
#    0.000    1.333    5.000    2.500    2.333    0.000 
#    0.000    0.000    0.000    4.000    0.000    0.000 
#    0.000    0.000    0.000    0.000    0.000    0.000 
#
# Total GULP energy -133739.851224 kJ/mol
# GULP energy per Si atom -5572.493801 kJ/mol
# Density = 1.775583 g / cm^3
# Si number density = 17.796340 Si / 1000 Ang^3
#
#
#
# Elastic Constant Matrix: (Units=GPa)
#
#
# Indices 1 2 3 4 5 6 
#
# 1 80.2762 7.7056 14.9275 0.0000 0.0000 0.0000
# 2 7.7056 41.9305 6.0888 0.0000 0.0000 0.0000
# 3 14.9275 6.0888 95.3221 0.0000 0.0000 0.0000
# 4 0.0000 0.0000 0.0000 32.0129 0.0000 0.0000
# 5 0.0000 0.0000 0.0000 0.0000 18.9399 0.0000
# 6 0.0000 0.0000 0.0000 0.0000 0.0000 -33.9338
#
#
#
# Elastic Compliance Matrix: (Units=1/GPa)
#
#
# Indices 1 2 3 4 5 6 
#
# 1 0.013014 -0.002115 -0.001903 0.000000 0.000000 0.000000
# 2 -0.002115 0.024416 -0.001228 0.000000 0.000000 0.000000
# 3 -0.001903 -0.001228 0.010867 0.000000 0.000000 0.000000
# 4 0.000000 0.000000 0.000000 0.031237 0.000000 0.000000
# 5 0.000000 0.000000 0.000000 0.000000 0.052799 0.000000
# 6 0.000000 0.000000 0.000000 0.000000 0.000000 -0.029469
#
#
# Mechanical properties :
#
#
# Convention : Reuss Voigt Hill
#
# Bulk Modulus (GPa) = 26.45206 30.55250 28.50228
# Shear Modulus (GPa) = 39.69562 15.99091 27.84326
#
# Velocity S-wave (km/s) = 4.72799 3.00083 3.95973
# Velocity P-wave (km/s) = 6.68590 5.40479 6.07919
#
# Compressibility (1/GPa) = 0.03780424
#
# Stress axis : x y z
#
# Youngs Moduli (GPa) = 76.84112 40.95658 92.01998
#
# Poissons Ratio (x) = 0.08663 0.17510
# Poissons Ratio (y) = 0.16254 0.11303
# Poissons Ratio (z) = 0.14622 0.05031
#
# Static dielectric constant tensor:
#      x y z
#    x 1.626980 0.000000 0.000000 
#    y 0.000000 1.570560 0.000000 
#    z 0.000000 0.000000 1.674800 
# 
# From -- ./inp_files/4030.got.cif
#   From: 2010.05.17/outbox.cif.g08.bks.cpg/sg36_3_cif.got.tgz:4030.got - 2010.06.03 17:41:39.
