data_PCOD9350081
_publ_section_title
;
Structure prediction by ZEFSAII (Michael W. Deem and Ramdas Pophale) SiO2 
 PCOD9350081
Probable space group: C M M 2
;
_chemical_formula_sum "Si O2"
_cell_formula_units_Z 48
_cell_length_a 15.256756
_cell_length_b 8.742305
_cell_length_c 19.474125
_cell_angle_alpha 90.000000
_cell_angle_beta 90.000000
_cell_angle_gamma 90.000000
_cell_volume 2597.443491
_symmetry_space_group_name_H-M "C M M 2"
_symmetry_group_IT_number 35
_symmetry_cell_setting 'orthorhombic'
loop_
_space_group_symop_operation_xyz
x,y,z
-x,-y,z
-x,y,z
x,-y,z
1/2+x,1/2+y,z
1/2-x,1/2-y,z
1/2-x,1/2+y,z
1/2+x,1/2-y,z
loop_
_atom_site_type_symbol
_atom_site_label
_atom_site_fract_x
_atom_site_fract_y
_atom_site_fract_z
Si Si1 0.394563 0.823004 0.203790
Si Si2 0.500000 0.686031 0.449126
Si Si3 0.000000 0.317734 0.971101
Si Si4 0.651040 0.315446 0.711103
Si Si5 0.500000 0.686579 0.606050
Si Si6 0.842838 0.183607 0.350141
Si Si7 0.342537 0.681944 0.059419
Si Si8 0.500000 0.315493 0.819259
O O1 0.500000 0.819915 0.201203
O O2 0.364968 0.748183 0.274864
O O3 0.359641 0.734469 0.137657
O O4 0.365398 0.000000 0.200900
O O5 0.500000 0.500000 0.451338
O O6 0.500000 0.739593 0.527509
O O7 0.415959 0.732389 0.404831
O O8 0.000000 0.500000 0.975405
O O9 0.000000 0.262915 0.892773
O O10 0.916858 0.251542 0.011316
O O11 0.658269 0.500000 0.709592
O O12 0.750000 0.250000 0.712014
O O13 0.588663 0.267758 0.646785
O O14 0.587948 0.275506 0.775908
O O15 0.500000 0.500000 0.607124
O O16 0.750000 0.250000 0.371483
O O17 0.841115 0.000000 0.346738
O O18 0.343328 0.500000 0.055567
O O19 0.250000 0.750000 0.037511
O O20 0.500000 0.500000 0.826748
#
# Coordination Sequence:
#
# PCOD9350081 Si02
#       8
#     8   4   4   8   4   8   8   4
#     4  11  22  38  61  85 113 148 193 247 296 348
#     4   9  19  35  56  79 112 152 192 233 282 348
#     4  12  25  42  62  89 122 156 195 240 290 348
#     4   9  18  34  60  87 115 148 189 232 278 336
#     4   8  16  34  56  82 114 153 189 226 280 342
#     4  11  22  37  56  81 111 149 196 242 293 349
#     4  12  25  42  64  88 118 155 196 244 295 351
#     4   9  20  39  58  82 116 157 192 227 280 342
#
# _framework density 18.479707999999999
#
# number of rings (size 3 to 8) (size 9 to 14) (size 15 to 20)
#    0.000    1.667    1.667    4.750    0.000    2.667 
#    0.000    2.917    0.000    3.000    0.000    0.000 
#    0.000    0.000    0.000    0.000    0.000    0.000 
#
# Total GULP energy -134062.773477 kJ/mol
# GULP energy per Si atom -5585.948895 kJ/mol
# Density = 1.843765 g / cm^3
# Si number density = 18.479708 Si / 1000 Ang^3
#
#
#
# Elastic Constant Matrix: (Units=GPa)
#
#
# Indices 1 2 3 4 5 6 
#
# 1 197.8343 65.1452 102.5736 0.0000 0.0000 0.0000
# 2 65.1452 102.7314 64.4429 0.0000 0.0000 0.0000
# 3 102.5736 64.4429 171.4073 0.0000 0.0000 0.0000
# 4 0.0000 0.0000 0.0000 -1.8856 0.0000 0.0000
# 5 0.0000 0.0000 0.0000 0.0000 -84.6845 0.0000
# 6 0.0000 0.0000 0.0000 0.0000 0.0000 33.1459
#
#
#
# Elastic Compliance Matrix: (Units=1/GPa)
#
#
# Indices 1 2 3 4 5 6 
#
# 1 0.007846 -0.002657 -0.003696 0.000000 0.000000 0.000000
# 2 -0.002657 0.013638 -0.003538 0.000000 0.000000 0.000000
# 3 -0.003696 -0.003538 0.009376 0.000000 0.000000 0.000000
# 4 0.000000 0.000000 0.000000 -0.530336 0.000000 0.000000
# 5 0.000000 0.000000 0.000000 0.000000 -0.011809 0.000000
# 6 0.000000 0.000000 0.000000 0.000000 0.000000 0.030170
#
#
# Mechanical properties :
#
#
# Convention : Reuss Voigt Hill
#
# Bulk Modulus (GPa) = 90.26315 104.03295 97.14805
# Shear Modulus (GPa) = -10.92560 5.30257 -2.81151
#
# Velocity S-wave (km/s) = -2.43414 1.69577 -1.23479
# Velocity P-wave (km/s) = 6.40706 7.76223 7.11697
#
# Compressibility (1/GPa) = 0.01107872
#
# Stress axis : x y z
#
# Youngs Moduli (GPa) = 127.45173 73.32505 106.65445
#
# Poissons Ratio (x) = 0.19480 0.39424
# Poissons Ratio (y) = 0.33860 0.37729
# Poissons Ratio (z) = 0.47112 0.25939
#
# Static dielectric constant tensor:
#      x y z
#    x 1.637710 0.000000 0.000000 
#    y 0.000000 1.623860 0.000000 
#    z 0.000000 0.000000 1.618760 
# 
# From -- ./inp_files/18842.got.cif
#   From: 2010.05.17/outbox.cif.g08.bks.cpg/sg35_10_cif.got.tgz:18842.got - 2010.06.03 17:29:28.
