data_PCOD9350776
_publ_section_title
;
Structure prediction by ZEFSAII (Michael W. Deem and Ramdas Pophale) SiO2 
 PCOD9350776
Probable space group: C M C 21
;
_chemical_formula_sum "Si O2"
_cell_formula_units_Z 40
_cell_length_a 10.861987
_cell_length_b 32.484379
_cell_length_c 4.919316
_cell_angle_alpha 90.000000
_cell_angle_beta 90.000000
_cell_angle_gamma 90.000000
_cell_volume 1735.755574
_symmetry_space_group_name_H-M "C M C 21"
_symmetry_group_IT_number 36
_symmetry_cell_setting 'orthorhombic'
loop_
_space_group_symop_operation_xyz
x,y,z
-x,-y,1/2+z
x,-y,1/2+z
-x,y,z
1/2+x,1/2+y,z
1/2-x,1/2-y,1/2+z
1/2+x,1/2-y,1/2+z
1/2-x,1/2+y,z
loop_
_atom_site_type_symbol
_atom_site_label
_atom_site_fract_x
_atom_site_fract_y
_atom_site_fract_z
Si Si1 0.500000 0.525191 0.632290
Si Si2 0.266620 0.775070 0.534732
Si Si3 0.000000 0.530269 0.627586
Si Si4 0.000000 0.355099 0.699451
Si Si5 0.734047 0.631026 0.129108
Si Si6 0.000000 0.695121 0.708795
Si Si7 0.265669 0.421620 0.102159
O O1 0.500000 0.515514 0.314172
O O2 0.628666 0.547215 0.700785
O O3 0.306740 0.751152 0.807744
O O4 0.211029 0.819630 0.621693
O O5 0.383072 0.783537 0.340455
O O6 0.869611 0.555584 0.593667
O O7 0.000000 0.491820 0.419787
O O8 0.871092 0.374794 0.754721
O O9 0.000000 0.347750 0.376152
O O10 0.000000 0.315130 0.893856
O O11 0.671295 0.599892 0.335549
O O12 0.737042 0.614539 0.826171
#
# Coordination Sequence:
#
# PCOD9350776 Si02
#       7
#     4   8   4   4   8   4   8
#     4  12  26  48  69  92 129 180 220 254 322 414
#     4  11  22  39  60  88 125 169 218 271 320 376
#     4  12  24  42  68 104 132 158 206 272 332 384
#     4  10  18  35  60  88 121 153 196 262 326 392
#     4  11  22  39  63  95 126 165 217 268 325 385
#     4  10  20  35  57  84 114 161 210 258 324 386
#     4  12  24  42  67  97 132 172 213 270 324 387
#
# _framework density 23.044720999999999
#
# number of rings (size 3 to 8) (size 9 to 14) (size 15 to 20)
#    0.000    0.800    0.000   10.800    0.000    0.000 
#    0.000    6.000    0.000    0.000    0.000    0.000 
#    0.000    0.000    0.000    0.000    0.000    0.000 
#
# Total GULP energy -111339.580687 kJ/mol
# GULP energy per Si atom -5566.979034 kJ/mol
# Density = 2.299227 g / cm^3
# Si number density = 23.044721 Si / 1000 Ang^3
#
#
#
# Elastic Constant Matrix: (Units=GPa)
#
#
# Indices 1 2 3 4 5 6 
#
# 1 71.2405 26.3077 -6.4660 0.0000 0.0000 0.0000
# 2 26.3077 100.4614 19.7435 0.0000 0.0000 0.0000
# 3 -6.4660 19.7435 97.0223 0.0000 0.0000 0.0000
# 4 0.0000 0.0000 0.0000 23.2327 0.0000 0.0000
# 5 0.0000 0.0000 0.0000 0.0000 15.7008 0.0000
# 6 0.0000 0.0000 0.0000 0.0000 0.0000 31.8722
#
#
#
# Elastic Compliance Matrix: (Units=1/GPa)
#
#
# Indices 1 2 3 4 5 6 
#
# 1 0.015899 -0.004554 0.001986 0.000000 0.000000 0.000000
# 2 -0.004554 0.011673 -0.002679 0.000000 0.000000 0.000000
# 3 0.001986 -0.002679 0.010984 0.000000 0.000000 0.000000
# 4 0.000000 0.000000 0.000000 0.043043 0.000000 0.000000
# 5 0.000000 0.000000 0.000000 0.000000 0.063691 0.000000
# 6 0.000000 0.000000 0.000000 0.000000 0.000000 0.031375
#
#
# Mechanical properties :
#
#
# Convention : Reuss Voigt Hill
#
# Bulk Modulus (GPa) = 35.63348 38.65495 37.14422
# Shear Modulus (GPa) = 25.44368 29.43709 27.44038
#
# Velocity S-wave (km/s) = 3.32640 3.57794 3.45446
# Velocity P-wave (km/s) = 5.49996 5.82058 5.66254
#
# Compressibility (1/GPa) = 0.02806350
#
# Stress axis : x y z
#
# Youngs Moduli (GPa) = 62.89760 85.66752 91.03802
#
# Poissons Ratio (x) = 0.39011 -0.18082
# Poissons Ratio (y) = 0.28642 0.24388
# Poissons Ratio (z) = -0.12493 0.22949
#
# Static dielectric constant tensor:
#      x y z
#    x 2.333980 0.000000 0.000000 
#    y 0.000000 1.990750 0.000000 
#    z 0.000000 0.000000 1.849910 
# 
# From -- ./inp_files/537.got.cif
#   From: 2010.05.17/outbox.cif.g08.bks.cpg/sg36_1_cif.got.tgz:537.got - 2010.06.03 17:41:39.
