data_PCOD9350609
_publ_section_title
;
Structure prediction by ZEFSAII (Michael W. Deem and Ramdas Pophale) SiO2 
 PCOD9350609
Probable space group: C M C 21
;
_chemical_formula_sum "Si O2"
_cell_formula_units_Z 56
_cell_length_a 28.587168
_cell_length_b 5.642893
_cell_length_c 13.315645
_cell_angle_alpha 90.000000
_cell_angle_beta 90.000000
_cell_angle_gamma 90.000000
_cell_volume 2148.004354
_symmetry_space_group_name_H-M "C M C 21"
_symmetry_group_IT_number 36
_symmetry_cell_setting 'orthorhombic'
loop_
_space_group_symop_operation_xyz
x,y,z
-x,-y,1/2+z
x,-y,1/2+z
-x,y,z
1/2+x,1/2+y,z
1/2-x,1/2-y,1/2+z
1/2+x,1/2-y,1/2+z
1/2-x,1/2+y,z
loop_
_atom_site_type_symbol
_atom_site_label
_atom_site_fract_x
_atom_site_fract_y
_atom_site_fract_z
Si Si1 0.050225 0.696793 0.595630
Si Si2 0.079384 0.687442 0.963539
Si Si3 0.857821 0.945452 0.511675
Si Si4 0.758369 0.895791 0.593048
Si Si5 0.552116 0.502578 0.783257
Si Si6 0.369590 0.835881 0.823295
Si Si7 0.274386 0.919826 0.360948
O O1 0.051870 0.428409 0.555266
O O2 0.052502 0.772186 0.711268
O O3 0.000000 0.793661 0.559609
O O4 0.096688 0.814530 0.552853
O O5 0.058542 0.898750 0.895926
O O6 0.091913 0.484652 0.884751
O O7 0.128179 0.781998 0.007610
O O8 0.813127 0.884015 0.573128
O O9 0.848033 0.856931 0.399415
O O10 0.753213 0.149039 0.644394
O O11 0.729773 0.914378 0.486002
O O12 0.500000 0.611971 0.774489
O O13 0.595952 0.673654 0.754781
O O14 0.325285 0.013100 0.811047
O O15 0.242526 0.152158 0.337322
#
# Coordination Sequence:
#
# PCOD9350609 Si02
#       7
#     8   8   8   8   8   8   8
#     4  10  23  41  60  88 128 172 220 280 348 409
#     4  10  21  36  64  92 124 166 226 276 335 406
#     4  10  20  34  58  90 124 160 212 268 331 401
#     4  10  18  30  56  90 126 163 210 263 324 403
#     4  10  23  41  60  88 128 172 220 280 348 409
#     4  10  20  34  58  90 124 160 212 268 331 401
#     4  10  18  30  56  90 126 163 210 263 324 403
#
# _framework density 26.070709999999998
#
# number of rings (size 3 to 8) (size 9 to 14) (size 15 to 20)
#    0.000    2.000    2.857    2.143    4.000    7.429 
#    0.000    2.857    0.000    1.714    0.000    0.000 
#    0.000    0.000    0.000    0.000    0.000    0.000 
#
# Total GULP energy -156168.890831 kJ/mol
# GULP energy per Si atom -5577.460387 kJ/mol
# Density = 2.601137 g / cm^3
# Si number density = 26.070710 Si / 1000 Ang^3
#
#
#
# Elastic Constant Matrix: (Units=GPa)
#
#
# Indices 1 2 3 4 5 6 
#
# 1 152.0168 41.9254 33.6187 0.0000 0.0000 0.0000
# 2 41.9254 140.2585 32.9181 0.0000 0.0000 0.0000
# 3 33.6187 32.9181 58.3139 0.0000 0.0000 0.0000
# 4 0.0000 0.0000 0.0000 35.9062 0.0000 0.0000
# 5 0.0000 0.0000 0.0000 0.0000 11.5869 0.0000
# 6 0.0000 0.0000 0.0000 0.0000 0.0000 38.9450
#
#
#
# Elastic Compliance Matrix: (Units=1/GPa)
#
#
# Indices 1 2 3 4 5 6 
#
# 1 0.007794 -0.001470 -0.003663 0.000000 0.000000 0.000000
# 2 -0.001470 0.008496 -0.003948 0.000000 0.000000 0.000000
# 3 -0.003663 -0.003948 0.021490 0.000000 0.000000 0.000000
# 4 0.000000 0.000000 0.000000 0.027850 0.000000 0.000000
# 5 0.000000 0.000000 0.000000 0.000000 0.086304 0.000000
# 6 0.000000 0.000000 0.000000 0.000000 0.000000 0.025677
#
#
# Mechanical properties :
#
#
# Convention : Reuss Voigt Hill
#
# Bulk Modulus (GPa) = 50.98017 63.05704 57.01860
# Shear Modulus (GPa) = 24.71421 33.42942 29.07181
#
# Velocity S-wave (km/s) = 3.08225 3.58475 3.34296
# Velocity P-wave (km/s) = 5.68014 6.43221 6.06784
#
# Compressibility (1/GPa) = 0.01961547
#
# Stress axis : x y z
#
# Youngs Moduli (GPa) = 128.30732 117.70602 46.53435
#
# Poissons Ratio (x) = 0.17301 0.17048
# Poissons Ratio (y) = 0.18860 0.18374
# Poissons Ratio (z) = 0.47005 0.46475
#
# Static dielectric constant tensor:
#      x y z
#    x 2.081930 0.000000 0.000000 
#    y 0.000000 2.122520 0.000000 
#    z 0.000000 0.000000 2.105810 
# 
# From -- ./inp_files/13154.got.cif
#   From: 2010.05.17/outbox.cif.g08.bks.cpg/sg36_7_cif.got.tgz:13154.got - 2010.06.03 17:41:39.
