data_PCOD9350446
_publ_section_title
;
Structure prediction by ZEFSAII (Michael W. Deem and Ramdas Pophale) SiO2 
 PCOD9350446
Probable space group: C M M 2
;
_chemical_formula_sum "Si O2"
_cell_formula_units_Z 48
_cell_length_a 29.185742
_cell_length_b 8.443332
_cell_length_c 10.566960
_cell_angle_alpha 90.000000
_cell_angle_beta 90.000000
_cell_angle_gamma 90.000000
_cell_volume 2603.962160
_symmetry_space_group_name_H-M "C M M 2"
_symmetry_group_IT_number 35
_symmetry_cell_setting 'orthorhombic'
loop_
_space_group_symop_operation_xyz
x,y,z
-x,-y,z
-x,y,z
x,-y,z
1/2+x,1/2+y,z
1/2-x,1/2-y,z
1/2-x,1/2+y,z
1/2+x,1/2-y,z
loop_
_atom_site_type_symbol
_atom_site_label
_atom_site_fract_x
_atom_site_fract_y
_atom_site_fract_z
Si Si1 0.299765 0.189854 0.201200
Si Si2 0.895157 0.306905 0.306287
Si Si3 0.946339 0.691040 0.049028
Si Si4 0.052725 0.691020 0.557570
Si Si5 0.299811 0.690042 0.913786
Si Si6 0.894464 0.188503 0.802347
O O1 0.250000 0.250000 0.242778
O O2 0.342481 0.242859 0.286823
O O3 0.299029 0.000000 0.198077
O O4 0.307303 0.248434 0.057118
O O5 0.895462 0.500000 0.309440
O O6 0.922685 0.260025 0.180227
O O7 0.920489 0.251369 0.432659
O O8 0.941769 0.500000 0.038195
O O9 0.000000 0.729159 0.050875
O O10 0.921893 0.767977 0.929360
O O11 0.050982 0.500000 0.550947
O O12 0.080370 0.737039 0.682609
O O13 0.000000 0.748028 0.561511
O O14 0.299276 0.500000 0.918463
O O15 0.250000 0.750000 0.872047
O O16 0.342127 0.742659 0.826680
O O17 0.894096 0.000000 0.786311
#
# Coordination Sequence:
#
# PCOD9350446 Si02
#       6
#     8   8   8   8   8   8
#     4  10  18  31  54  82 112 142 174 220 275 327
#     4   9  18  34  56  82 108 138 181 230 273 314
#     4  10  19  33  56  82 106 137 182 231 273 319
#     4  10  21  38  59  80 106 146 192 231 269 319
#     4  10  20  34  54  80 109 142 179 223 272 323
#     4  11  23  37  53  79 114 146 179 222 277 332
#
# _framework density 18.433447999999999
#
# number of rings (size 3 to 8) (size 9 to 14) (size 15 to 20)
#    0.000    2.000    1.667    3.500    0.000    6.667 
#    0.000    3.333    0.000    6.000    0.000    0.000 
#    0.000    0.000    0.000    0.000    0.000    0.000 
#
# Total GULP energy -133982.160507 kJ/mol
# GULP energy per Si atom -5582.590021 kJ/mol
# Density = 1.839149 g / cm^3
# Si number density = 18.433448 Si / 1000 Ang^3
#
#
#
# Elastic Constant Matrix: (Units=GPa)
#
#
# Indices 1 2 3 4 5 6 
#
# 1 192.2430 28.4189 90.2727 0.0000 0.0000 0.0000
# 2 28.4189 21.3416 11.1996 0.0000 0.0000 0.0000
# 3 90.2727 11.1996 133.2042 0.0000 0.0000 0.0000
# 4 0.0000 0.0000 0.0000 -23.5869 0.0000 0.0000
# 5 0.0000 0.0000 0.0000 0.0000 32.4991 0.0000
# 6 0.0000 0.0000 0.0000 0.0000 0.0000 23.7089
#
#
#
# Elastic Compliance Matrix: (Units=1/GPa)
#
#
# Indices 1 2 3 4 5 6 
#
# 1 0.009108 -0.009299 -0.005390 0.000000 0.000000 0.000000
# 2 -0.009299 0.058514 0.001382 0.000000 0.000000 0.000000
# 3 -0.005390 0.001382 0.011044 0.000000 0.000000 0.000000
# 4 0.000000 0.000000 0.000000 -0.042396 0.000000 0.000000
# 5 0.000000 0.000000 0.000000 0.000000 0.030770 0.000000
# 6 0.000000 0.000000 0.000000 0.000000 0.000000 0.042178
#
#
# Mechanical properties :
#
#
# Convention : Reuss Voigt Hill
#
# Bulk Modulus (GPa) = 19.21177 67.39681 43.30429
# Shear Modulus (GPa) = 32.64070 20.98405 26.81238
#
# Velocity S-wave (km/s) = 4.21257 3.37763 3.81799
# Velocity P-wave (km/s) = 5.84002 7.20089 6.55586
#
# Compressibility (1/GPa) = 0.05205144
#
# Stress axis : x y z
#
# Youngs Moduli (GPa) = 109.79824 17.08986 90.54581
#
# Poissons Ratio (x) = 0.15892 0.48808
# Poissons Ratio (y) = 1.02102 -0.12515
# Poissons Ratio (z) = 0.59186 -0.02362
#
# Static dielectric constant tensor:
#      x y z
#    x 1.652090 0.000000 0.000000 
#    y 0.000000 1.640400 0.000000 
#    z 0.000000 0.000000 1.596360 
# 
# From -- ./inp_files/5319.got.cif
#   From: 2010.05.17/outbox.cif.g08.bks.cpg/sg35_3_cif.got.tgz:5319.got - 2010.06.03 17:29:28.
