data_PCOD9350308
_publ_section_title
;
Structure prediction by ZEFSAII (Michael W. Deem and Ramdas Pophale) SiO2 
 PCOD9350308
Probable space group: C M M 2
;
_chemical_formula_sum "Si O2"
_cell_formula_units_Z 64
_cell_length_a 8.469564
_cell_length_b 29.513371
_cell_length_c 16.184789
_cell_angle_alpha 90.000000
_cell_angle_beta 90.000000
_cell_angle_gamma 90.000000
_cell_volume 4045.637006
_symmetry_space_group_name_H-M "C M M 2"
_symmetry_group_IT_number 35
_symmetry_cell_setting 'orthorhombic'
loop_
_space_group_symop_operation_xyz
x,y,z
-x,-y,z
-x,y,z
x,-y,z
1/2+x,1/2+y,z
1/2-x,1/2-y,z
1/2-x,1/2+y,z
1/2+x,1/2-y,z
loop_
_atom_site_type_symbol
_atom_site_label
_atom_site_fract_x
_atom_site_fract_y
_atom_site_fract_z
Si Si1 0.809158 0.801597 0.735910
Si Si2 0.692282 0.949526 0.150838
Si Si3 0.689110 0.301733 0.554157
Si Si4 0.310745 0.801184 0.053923
Si Si5 0.807145 0.354911 0.218409
Si Si6 0.689043 0.198338 0.380589
Si Si7 0.188766 0.143574 0.895921
Si Si8 0.690403 0.051096 0.958030
O O1 0.750000 0.750000 0.745556
O O2 0.762568 0.819629 0.644651
O O3 0.754306 0.832388 0.811827
O O4 0.000000 0.800134 0.737238
O O5 0.500000 0.949830 0.152638
O O6 0.745470 0.906661 0.204103
O O7 0.745218 0.000000 0.175858
O O8 0.735873 0.942334 0.054567
O O9 0.500000 0.301976 0.548946
O O10 0.750000 0.250000 0.554836
O O11 0.756517 0.321232 0.469084
O O12 0.500000 0.800991 0.053512
O O13 0.250000 0.750000 0.050394
O O14 0.253515 0.829294 0.974903
O O15 0.258095 0.825623 0.138591
O O16 0.754994 0.331387 0.303014
O O17 0.000000 0.355059 0.219099
O O18 0.500000 0.200067 0.379882
O O19 0.750000 0.250000 0.372424
O O20 0.240377 0.091621 0.904832
O O21 0.000000 0.146167 0.897409
O O22 0.500000 0.053477 0.955078
O O23 0.737746 0.000000 0.934080
#
# Coordination Sequence:
#
# PCOD9350308 Si02
#       8
#     8   8   8   8   8   8   8   8
#     4   9  19  32  46  65  90 120 153 187 226 271
#     4   8  13  25  46  67  85 110 147 186 223 263
#     4   9  16  29  46  63  85 113 147 186 225 266
#     4  11  21  33  45  61  91 127 161 189 219 265
#     4   9  17  28  43  64  90 119 150 185 221 264
#     4  10  18  28  43  64  90 117 148 184 221 264
#     4  11  21  32  46  68  94 122 154 190 230 270
#     4   9  17  31  51  70  89 118 155 192 231 273
#
# _framework density 15.819511
#
# number of rings (size 3 to 8) (size 9 to 14) (size 15 to 20)
#    0.000    2.500    1.250    3.750    0.000    2.750 
#    0.000    1.875    0.000    0.000    0.000    0.875 
#    0.000    3.000    0.000    0.000    0.000    0.000 
#
# Total GULP energy -178329.158162 kJ/mol
# GULP energy per Si atom -5572.786193 kJ/mol
# Density = 1.578351 g / cm^3
# Si number density = 15.819511 Si / 1000 Ang^3
#
#
#
# Elastic Constant Matrix: (Units=GPa)
#
#
# Indices 1 2 3 4 5 6 
#
# 1 23.7178 18.2597 25.4721 0.0000 0.0000 0.0000
# 2 18.2597 115.4650 76.9412 0.0000 0.0000 0.0000
# 3 25.4721 76.9412 154.9997 0.0000 0.0000 0.0000
# 4 0.0000 0.0000 0.0000 3.4300 0.0000 0.0000
# 5 0.0000 0.0000 0.0000 0.0000 16.5397 0.0000
# 6 0.0000 0.0000 0.0000 0.0000 0.0000 16.5730
#
#
#
# Elastic Compliance Matrix: (Units=1/GPa)
#
#
# Indices 1 2 3 4 5 6 
#
# 1 0.052291 -0.003800 -0.006707 0.000000 0.000000 0.000000
# 2 -0.003800 0.013218 -0.005937 0.000000 0.000000 0.000000
# 3 -0.006707 -0.005937 0.010501 0.000000 0.000000 0.000000
# 4 0.000000 0.000000 0.000000 0.291546 0.000000 0.000000
# 5 0.000000 0.000000 0.000000 0.000000 0.060461 0.000000
# 6 0.000000 0.000000 0.000000 0.000000 0.000000 0.060339
#
#
# Mechanical properties :
#
#
# Convention : Reuss Voigt Hill
#
# Bulk Modulus (GPa) = 23.19003 59.50320 41.34661
# Shear Modulus (GPa) = 9.33504 18.87584 14.10544
#
# Velocity S-wave (km/s) = 2.43183 3.45802 2.98929
# Velocity P-wave (km/s) = 4.75142 7.32389 6.17314
#
# Compressibility (1/GPa) = 0.04312198
#
# Stress axis : x y z
#
# Youngs Moduli (GPa) = 19.12369 75.65722 95.23129
#
# Poissons Ratio (x) = 0.28750 0.63872
# Poissons Ratio (y) = 0.07267 0.56535
# Poissons Ratio (z) = 0.12826 0.44915
#
# Static dielectric constant tensor:
#      x y z
#    x 1.548370 0.000000 0.000000 
#    y 0.000000 1.515340 0.000000 
#    z 0.000000 0.000000 1.548130 
# 
# From -- ./inp_files/16221.got.cif
#   From: 2010.05.17/outbox.cif.g08.bks.cpg/sg35_9_cif.got.tgz:16221.got - 2010.06.03 17:29:28.
