data_PCOD9350894
_publ_section_title
;
Structure prediction by ZEFSAII (Michael W. Deem and Ramdas Pophale) SiO2 
 PCOD9350894
Probable space group: C M C 21
;
_chemical_formula_sum "Si O2"
_cell_formula_units_Z 64
_cell_length_a 20.978131
_cell_length_b 18.937489
_cell_length_c 8.970844
_cell_angle_alpha 90.000000
_cell_angle_beta 90.000000
_cell_angle_gamma 90.000000
_cell_volume 3563.875230
_symmetry_space_group_name_H-M "C M C 21"
_symmetry_group_IT_number 36
_symmetry_cell_setting 'orthorhombic'
loop_
_space_group_symop_operation_xyz
x,y,z
-x,-y,1/2+z
x,-y,1/2+z
-x,y,z
1/2+x,1/2+y,z
1/2-x,1/2-y,1/2+z
1/2+x,1/2-y,1/2+z
1/2-x,1/2+y,z
loop_
_atom_site_type_symbol
_atom_site_label
_atom_site_fract_x
_atom_site_fract_y
_atom_site_fract_z
Si Si1 0.570610 0.036039 0.813840
Si Si2 0.924688 0.082803 0.264947
Si Si3 0.166790 0.409681 0.808527
Si Si4 0.072880 0.653451 0.072756
Si Si5 0.741300 0.537817 0.757966
Si Si6 0.150302 0.366195 0.134075
Si Si7 0.650521 0.507015 0.009895
Si Si8 0.425159 0.749287 0.300125
O O1 0.500000 0.009089 0.792762
O O2 0.592208 0.079679 0.668338
O O3 0.617166 0.972268 0.840839
O O4 0.573234 0.089548 0.952666
O O5 0.915409 0.166168 0.287507
O O6 0.000000 0.068300 0.263069
O O7 0.891341 0.039599 0.397830
O O8 0.892680 0.056947 0.111738
O O9 0.130277 0.362004 0.686643
O O10 0.227639 0.457931 0.760401
O O11 0.173701 0.368467 0.964115
O O12 0.000000 0.656897 0.135713
O O13 0.083372 0.721816 0.968556
O O14 0.794565 0.597071 0.733154
O O15 0.702394 0.547195 0.909192
O O16 0.691830 0.540198 0.622678
O O17 0.123331 0.292611 0.195229
O O18 0.500000 0.765258 0.261891
#
# Coordination Sequence:
#
# PCOD9350894 Si02
#       8
#     8   8   8   8   8   8   8   8
#     4   9  17  27  41  67 104 151 206 249 275 305
#     4  10  21  42  69  93 109 135 178 241 310 359
#     4  11  19  27  47  75 113 157 202 238 266 310
#     4   9  18  30  46  74 113 159 199 237 277 320
#     4  10  20  35  53  85 119 155 194 236 278 322
#     4  10  19  31  50  76 113 162 194 224 275 329
#     4  10  21  38  65  86 115 137 181 241 297 350
#     4   9  20  38  57  80 119 156 190 232 284 343
#
# _framework density 17.957979999999999
#
# number of rings (size 3 to 8) (size 9 to 14) (size 15 to 20)
#    0.000    2.250    1.250    3.375    3.500    3.000 
#    0.000    3.750    0.000    6.000    0.000    0.000 
#    0.000    0.000    0.000    0.000    0.000    0.000 
#
# Total GULP energy -178339.460817 kJ/mol
# GULP energy per Si atom -5573.108151 kJ/mol
# Density = 1.791711 g / cm^3
# Si number density = 17.957980 Si / 1000 Ang^3
#
#
#
# Elastic Constant Matrix: (Units=GPa)
#
#
# Indices 1 2 3 4 5 6 
#
# 1 88.7839 46.0727 46.0561 0.0000 0.0000 0.0000
# 2 46.0727 84.0736 43.9629 0.0000 0.0000 0.0000
# 3 46.0561 43.9629 104.3282 0.0000 0.0000 0.0000
# 4 0.0000 0.0000 0.0000 10.6214 0.0000 0.0000
# 5 0.0000 0.0000 0.0000 0.0000 26.9477 0.0000
# 6 0.0000 0.0000 0.0000 0.0000 0.0000 13.2763
#
#
#
# Elastic Compliance Matrix: (Units=1/GPa)
#
#
# Indices 1 2 3 4 5 6 
#
# 1 0.017360 -0.007062 -0.004688 0.000000 0.000000 0.000000
# 2 -0.007062 0.018129 -0.004522 0.000000 0.000000 0.000000
# 3 -0.004688 -0.004522 0.013560 0.000000 0.000000 0.000000
# 4 0.000000 0.000000 0.000000 0.094150 0.000000 0.000000
# 5 0.000000 0.000000 0.000000 0.000000 0.037109 0.000000
# 6 0.000000 0.000000 0.000000 0.000000 0.000000 0.075322
#
#
# Mechanical properties :
#
#
# Convention : Reuss Voigt Hill
#
# Bulk Modulus (GPa) = 60.58532 61.04103 60.81318
# Shear Modulus (GPa) = 17.02568 19.57533 18.30051
#
# Velocity S-wave (km/s) = 3.08244 3.30519 3.19576
# Velocity P-wave (km/s) = 6.81756 6.97356 6.89600
#
# Compressibility (1/GPa) = 0.01650565
#
# Stress axis : x y z
#
# Youngs Moduli (GPa) = 57.60479 55.16083 73.74651
#
# Poissons Ratio (x) = 0.38954 0.34570
# Poissons Ratio (y) = 0.40680 0.33347
# Poissons Ratio (z) = 0.27003 0.24943
#
# Static dielectric constant tensor:
#      x y z
#    x 1.635220 0.000000 0.000000 
#    y 0.000000 1.598010 0.000000 
#    z 0.000000 0.000000 1.644380 
# 
# From -- ./inp_files/5329.got.cif
#   From: 2010.05.17/outbox.cif.g08.bks.cpg/sg36_3_cif.got.tgz:5329.got - 2010.06.03 17:41:39.
