data_PCOD9350971
_publ_section_title
;
Structure prediction by ZEFSAII (Michael W. Deem and Ramdas Pophale) SiO2 
 PCOD9350971
Probable space group: C M C 21
;
_chemical_formula_sum "Si O2"
_cell_formula_units_Z 64
_cell_length_a 8.625240
_cell_length_b 21.138624
_cell_length_c 19.893195
_cell_angle_alpha 90.000000
_cell_angle_beta 90.000000
_cell_angle_gamma 90.000000
_cell_volume 3627.040808
_symmetry_space_group_name_H-M "C M C 21"
_symmetry_group_IT_number 36
_symmetry_cell_setting 'orthorhombic'
loop_
_space_group_symop_operation_xyz
x,y,z
-x,-y,1/2+z
x,-y,1/2+z
-x,y,z
1/2+x,1/2+y,z
1/2-x,1/2-y,1/2+z
1/2+x,1/2-y,1/2+z
1/2-x,1/2+y,z
loop_
_atom_site_type_symbol
_atom_site_label
_atom_site_fract_x
_atom_site_fract_y
_atom_site_fract_z
Si Si1 0.812081 0.565935 0.952730
Si Si2 0.313694 0.190596 0.872580
Si Si3 0.687226 0.112620 0.235449
Si Si4 0.185918 0.239706 0.739262
Si Si5 0.184345 0.112947 0.089162
Si Si6 0.312783 0.316591 0.951827
Si Si7 0.812805 0.754665 0.088204
Si Si8 0.813022 0.561085 0.377119
O O1 0.760152 0.628445 0.912020
O O2 0.761448 0.503545 0.912525
O O3 0.000000 0.566434 0.955431
O O4 0.749796 0.571031 0.028374
O O5 0.500000 0.189906 0.874309
O O6 0.259108 0.196592 0.796239
O O7 0.262137 0.254568 0.910163
O O8 0.500000 0.110761 0.230237
O O9 0.730638 0.186295 0.248934
O O10 0.755660 0.094180 0.163289
O O11 0.737738 0.071786 0.299781
O O12 0.230797 0.223297 0.662902
O O13 0.000000 0.236391 0.744759
O O14 0.243743 0.184878 0.077255
O O15 0.000000 0.112016 0.088413
O O16 0.500000 0.320724 0.948125
O O17 0.241955 0.379053 0.920175
O O18 0.268841 0.302000 0.028812
O O19 0.000000 0.747162 0.086503
O O20 0.000000 0.560789 0.375940
#
# Coordination Sequence:
#
# PCOD9350971 Si02
#       8
#     8   8   8   8   8   8   8   8
#     4  10  21  39  57  76 108 149 185 217 266 327
#     4  10  19  32  53  78 105 139 175 215 267 320
#     4   9  18  34  54  77 106 140 178 219 267 326
#     4   9  17  30  52  78 106 136 174 223 266 313
#     4  11  21  32  53  83 108 137 180 229 269 311
#     4  10  19  33  55  79 108 141 174 220 274 321
#     4   9  18  35  54  76 108 148 180 213 271 330
#     4  10  21  37  58  81 107 144 186 224 262 318
#
# _framework density 17.645239
#
# number of rings (size 3 to 8) (size 9 to 14) (size 15 to 20)
#    0.000    2.250    2.500    1.875    0.000    4.000 
#    0.000    1.250    0.000    4.500    0.000    0.000 
#    0.000    0.000    0.000    0.000    0.000    0.000 
#
# Total GULP energy -178509.948262 kJ/mol
# GULP energy per Si atom -5578.435883 kJ/mol
# Density = 1.760508 g / cm^3
# Si number density = 17.645239 Si / 1000 Ang^3
#
#
#
# Elastic Constant Matrix: (Units=GPa)
#
#
# Indices 1 2 3 4 5 6 
#
# 1 11.1780 19.8693 28.9196 0.0000 0.0000 0.0000
# 2 19.8693 104.7590 79.0511 0.0000 0.0000 0.0000
# 3 28.9196 79.0511 175.3457 0.0000 0.0000 0.0000
# 4 0.0000 0.0000 0.0000 29.0244 0.0000 0.0000
# 5 0.0000 0.0000 0.0000 0.0000 28.5742 0.0000
# 6 0.0000 0.0000 0.0000 0.0000 0.0000 18.6914
#
#
#
# Elastic Compliance Matrix: (Units=1/GPa)
#
#
# Indices 1 2 3 4 5 6 
#
# 1 0.174424 -0.017239 -0.020996 0.000000 0.000000 0.000000
# 2 -0.017239 0.016171 -0.004447 0.000000 0.000000 0.000000
# 3 -0.020996 -0.004447 0.011171 0.000000 0.000000 0.000000
# 4 0.000000 0.000000 0.000000 0.034454 0.000000 0.000000
# 5 0.000000 0.000000 0.000000 0.000000 0.034997 0.000000
# 6 0.000000 0.000000 0.000000 0.000000 0.000000 0.053501
#
#
# Mechanical properties :
#
#
# Convention : Reuss Voigt Hill
#
# Bulk Modulus (GPa) = 8.59091 60.77363 34.68227
# Shear Modulus (GPa) = 11.13877 26.15417 18.64647
#
# Velocity S-wave (km/s) = 2.51522 3.85414 3.25428
# Velocity P-wave (km/s) = 3.64888 7.37039 5.81536
#
# Compressibility (1/GPa) = 0.11640215
#
# Stress axis : x y z
#
# Youngs Moduli (GPa) = 5.73315 61.83780 89.51913
#
# Poissons Ratio (x) = 1.06603 1.87952
# Poissons Ratio (y) = 0.09883 0.39812
# Poissons Ratio (z) = 0.12037 0.27501
#
# Static dielectric constant tensor:
#      x y z
#    x 1.603670 0.000000 0.000000 
#    y 0.000000 1.576760 0.000000 
#    z 0.000000 0.000000 1.617490 
# 
# From -- ./inp_files/14081.got.cif
#   From: 2010.05.17/outbox.cif.g08.bks.cpg/sg36_8_cif.got.tgz:14081.got - 2010.06.03 17:41:39.
