data_PCOD9350770
_publ_section_title
;
Structure prediction by ZEFSAII (Michael W. Deem and Ramdas Pophale) SiO2 
 PCOD9350770
Probable space group: C M C 21
;
_chemical_formula_sum "Si O2"
_cell_formula_units_Z 64
_cell_length_a 8.320809
_cell_length_b 23.774629
_cell_length_c 16.787424
_cell_angle_alpha 90.000000
_cell_angle_beta 90.000000
_cell_angle_gamma 90.000000
_cell_volume 3320.957832
_symmetry_space_group_name_H-M "C M C 21"
_symmetry_group_IT_number 36
_symmetry_cell_setting 'orthorhombic'
loop_
_space_group_symop_operation_xyz
x,y,z
-x,-y,1/2+z
x,-y,1/2+z
-x,y,z
1/2+x,1/2+y,z
1/2-x,1/2-y,1/2+z
1/2+x,1/2-y,1/2+z
1/2-x,1/2+y,z
loop_
_atom_site_type_symbol
_atom_site_label
_atom_site_fract_x
_atom_site_fract_y
_atom_site_fract_z
Si Si1 0.806115 0.861430 0.922470
Si Si2 0.805927 0.043005 0.305141
Si Si3 0.807650 0.880526 0.664197
Si Si4 0.811522 0.467954 0.544794
Si Si5 0.696703 0.342700 0.252989
Si Si6 0.308200 0.214959 0.276136
Si Si7 0.694503 0.593417 0.591178
Si Si8 0.306625 0.568225 0.874467
O O1 0.754562 0.919898 0.880288
O O2 0.752221 0.813536 0.859181
O O3 0.000000 0.858702 0.923565
O O4 0.753155 0.868651 0.014298
O O5 0.745393 0.073860 0.227958
O O6 0.000000 0.046392 0.304075
O O7 0.767021 0.978365 0.308053
O O8 0.757596 0.910566 0.583655
O O9 0.741130 0.822913 0.700107
O O10 0.000000 0.876546 0.666436
O O11 0.741803 0.527797 0.576481
O O12 0.772145 0.457082 0.452625
O O13 0.000000 0.470101 0.558496
O O14 0.500000 0.343462 0.250854
O O15 0.749762 0.278205 0.259516
O O16 0.748673 0.376913 0.173658
O O17 0.744526 0.373765 0.334958
O O18 0.500000 0.215677 0.281500
O O19 0.500000 0.593449 0.592174
O O20 0.500000 0.569171 0.887426
#
# Coordination Sequence:
#
# PCOD9350770 Si02
#       8
#     8   8   8   8   8   8   8   8
#     4   9  17  32  57  85 109 147 198 236 277 343
#     4   8  14  28  54  83 103 130 183 232 269 322
#     4  10  20  37  60  83 107 150 198 232 274 345
#     4  12  24  36  53  88 124 148 181 239 307 348
#     4   9  20  37  61  87 114 154 199 242 288 338
#     4  10  20  37  57  84 121 150 187 244 295 334
#     4  10  19  38  64  86 111 152 201 241 282 351
#     4  10  18  35  58  80 111 153 191 228 280 353
#
# _framework density 19.271547999999999
#
# number of rings (size 3 to 8) (size 9 to 14) (size 15 to 20)
#    0.000    2.250    1.250    3.375    0.000    2.500 
#    2.250    5.000    0.000    0.000    0.000    0.000 
#    0.000    0.000    0.000    0.000    0.000    0.000 
#
# Total GULP energy -178167.827025 kJ/mol
# GULP energy per Si atom -5567.744595 kJ/mol
# Density = 1.922768 g / cm^3
# Si number density = 19.271548 Si / 1000 Ang^3
#
#
#
# Elastic Constant Matrix: (Units=GPa)
#
#
# Indices 1 2 3 4 5 6 
#
# 1 25.0823 15.2689 4.6729 0.0000 0.0000 0.0000
# 2 15.2689 135.2651 37.7770 0.0000 0.0000 0.0000
# 3 4.6729 37.7770 56.6565 0.0000 0.0000 0.0000
# 4 0.0000 0.0000 0.0000 25.4639 0.0000 0.0000
# 5 0.0000 0.0000 0.0000 0.0000 15.1077 0.0000
# 6 0.0000 0.0000 0.0000 0.0000 0.0000 19.5526
#
#
#
# Elastic Compliance Matrix: (Units=1/GPa)
#
#
# Indices 1 2 3 4 5 6 
#
# 1 0.042817 -0.004727 -0.000379 0.000000 0.000000 0.000000
# 2 -0.004727 0.009607 -0.006015 0.000000 0.000000 0.000000
# 3 -0.000379 -0.006015 0.021692 0.000000 0.000000 0.000000
# 4 0.000000 0.000000 0.000000 0.039271 0.000000 0.000000
# 5 0.000000 0.000000 0.000000 0.000000 0.066191 0.000000
# 6 0.000000 0.000000 0.000000 0.000000 0.000000 0.051144
#
#
# Mechanical properties :
#
#
# Convention : Reuss Voigt Hill
#
# Bulk Modulus (GPa) = 19.27831 36.93794 28.10813
# Shear Modulus (GPa) = 18.50086 22.64386 20.57236
#
# Velocity S-wave (km/s) = 3.10176 3.43153 3.27081
# Velocity P-wave (km/s) = 4.78050 5.90840 5.37412
#
# Compressibility (1/GPa) = 0.05187177
#
# Stress axis : x y z
#
# Youngs Moduli (GPa) = 23.35512 104.09595 46.09894
#
# Poissons Ratio (x) = 0.49209 0.01749
# Poissons Ratio (y) = 0.11041 0.27731
# Poissons Ratio (z) = 0.00886 0.62619
#
# Static dielectric constant tensor:
#      x y z
#    x 1.675910 0.000000 0.000000 
#    y 0.000000 1.681310 0.000000 
#    z 0.000000 0.000000 1.765260 
# 
# From -- ./inp_files/11059.got.cif
#   From: 2010.05.17/outbox.cif.g08.bks.cpg/sg36_6_cif.got.tgz:11059.got - 2010.06.03 17:41:39.
