data_PCOD9350191
_publ_section_title
;
Structure prediction by ZEFSAII (Michael W. Deem and Ramdas Pophale) SiO2 
 PCOD9350191
Probable space group: C M M 2
;
_chemical_formula_sum "Si O2"
_cell_formula_units_Z 24
_cell_length_a 9.000000
_cell_length_b 15.000000
_cell_length_c 18.000000
_cell_angle_alpha 90.000000
_cell_angle_beta 90.000000
_cell_angle_gamma 90.000000
_cell_volume 2430.000000
_symmetry_space_group_name_H-M "C M M 2"
_symmetry_group_IT_number 35
_symmetry_cell_setting 'orthorhombic'
loop_
_space_group_symop_operation_xyz
x,y,z
-x,-y,z
-x,y,z
x,-y,z
1/2+x,1/2+y,z
1/2-x,1/2-y,z
1/2-x,1/2+y,z
1/2+x,1/2-y,z
loop_
_atom_site_type_symbol
_atom_site_label
_atom_site_fract_x
_atom_site_fract_y
_atom_site_fract_z
Si Si1 0.178981 0.340482 0.946570
Si Si2 0.179124 0.000000 0.222258
Si Si3 0.177350 0.657778 0.318179
Si Si4 0.832074 0.604023 0.784992
Si Si5 0.830955 0.895886 0.466001
Si Si6 0.679115 0.000000 0.058560
Si Si7 0.677690 0.346433 0.633015
O O1 0.250000 0.250000 0.973809
O O2 0.231637 0.355446 0.861126
O O3 0.000000 0.336997 0.941995
O O4 0.216218 0.416693 0.005471
O O5 0.245913 0.083113 0.267698
O O6 0.237774 0.000000 0.137309
O O7 0.000000 0.000000 0.224520
O O8 0.250000 0.750000 0.293991
O O9 0.223007 0.645165 0.404873
O O10 0.000000 0.655606 0.310685
O O11 0.844541 0.500000 0.802226
O O12 0.741168 0.612809 0.709036
O O13 0.000000 0.639867 0.771804
O O14 0.785416 0.888334 0.552468
O O15 0.000000 0.858628 0.458856
O O16 0.838224 0.000000 0.448049
O O17 0.500000 0.000000 0.071907
O O18 0.500000 0.345038 0.638090
O O19 0.750000 0.250000 0.630077
#
# Coordination Sequence:
#
# PCOD9350191 Si02
#       7
#     8   4   8   8   8   4   8
#     4  10  21  39  64  92 125 165 208 257 314 375
#     4  12  26  46  70  99 134 167 208 263 320 385
#     4  12  25  43  69 100 131 171 217 262 319 383
#     4  10  20  37  60  86 119 163 210 258 315 374
#     4  10  21  39  62  88 124 166 210 263 320 375
#     4  10  22  44  68  91 126 167 206 253 316 385
#     4  11  23  37  54  83 121 165 212 263 315 367
#
# _framework density 9.8765429999999999
#
# number of rings (size 3 to 8) (size 9 to 14) (size 15 to 20)
#    0.000    1.333    1.667    4.250    0.000    7.000 
#    0.000    1.667    0.000    0.000    0.000    0.000 
#    0.000    0.000    0.000    0.000    0.000    0.000 
#
# Total GULP energy -133971.721530 kJ/mol
# GULP energy per Si atom -5582.155064 kJ/mol
# Density = 0.985406 g / cm^3
# Si number density = 9.876543 Si / 1000 Ang^3
#
#
#
# Elastic Constant Matrix: (Units=GPa)
#
#
# Indices 1 2 3 4 5 6 
#
# 1 99.5399 50.9905 73.4651 0.0000 0.0000 0.0000
# 2 50.9905 138.1879 64.6284 0.0000 0.0000 0.0000
# 3 73.4651 64.6284 154.2578 0.0000 0.0000 0.0000
# 4 0.0000 0.0000 0.0000 -35.1214 0.0000 0.0000
# 5 0.0000 0.0000 0.0000 0.0000 296.4545 0.0000
# 6 0.0000 0.0000 0.0000 0.0000 0.0000 19.9818
#
#
#
# Elastic Compliance Matrix: (Units=1/GPa)
#
#
# Indices 1 2 3 4 5 6 
#
# 1 0.016427 -0.002988 -0.006571 0.000000 0.000000 0.000000
# 2 -0.002988 0.009544 -0.002575 0.000000 0.000000 0.000000
# 3 -0.006571 -0.002575 0.010691 0.000000 0.000000 0.000000
# 4 0.000000 0.000000 0.000000 -0.028473 0.000000 0.000000
# 5 0.000000 0.000000 0.000000 0.000000 0.003373 0.000000
# 6 0.000000 0.000000 0.000000 0.000000 0.000000 0.050046
#
#
# Mechanical properties :
#
#
# Convention : Reuss Voigt Hill
#
# Bulk Modulus (GPa) = 80.69668 85.57261 83.13465
# Shear Modulus (GPa) = 55.55051 69.78974 62.67013
#
# Velocity S-wave (km/s) = 5.30881 5.95044 5.63876
# Velocity P-wave (km/s) = 8.86112 9.51974 9.19633
#
# Compressibility (1/GPa) = 0.01239208
#
# Stress axis : x y z
#
# Youngs Moduli (GPa) = 60.87576 104.78278 93.53451
#
# Poissons Ratio (x) = 0.31310 0.61465
# Poissons Ratio (y) = 0.18190 0.24088
# Poissons Ratio (z) = 0.40004 0.26985
#
# Static dielectric constant tensor:
#      x y z
#    x 1.682070 0.000000 0.000000 
#    y 0.000000 1.633950 0.000000 
#    z 0.000000 0.000000 1.709870 
# 
# From -- ./inp_files/17860.got.cif
#   From: 2010.05.17/outbox.ucp.g08.bks.cvg/sg35_9_cif.got.tgz:17860.got - 2010.06.11 10:36:28.
