data_PCOD9350498
_publ_section_title
;
Structure prediction by ZEFSAII (Michael W. Deem and Ramdas Pophale) SiO2 
 PCOD9350498
Probable space group: C M C 21
;
_chemical_formula_sum "Si O2"
_cell_formula_units_Z 56
_cell_length_a 26.039680
_cell_length_b 5.504458
_cell_length_c 18.343642
_cell_angle_alpha 90.000000
_cell_angle_beta 90.000000
_cell_angle_gamma 90.000000
_cell_volume 2629.273542
_symmetry_space_group_name_H-M "C M C 21"
_symmetry_group_IT_number 36
_symmetry_cell_setting 'orthorhombic'
loop_
_space_group_symop_operation_xyz
x,y,z
-x,-y,1/2+z
x,-y,1/2+z
-x,y,z
1/2+x,1/2+y,z
1/2-x,1/2-y,1/2+z
1/2+x,1/2-y,1/2+z
1/2-x,1/2+y,z
loop_
_atom_site_type_symbol
_atom_site_label
_atom_site_fract_x
_atom_site_fract_y
_atom_site_fract_z
Si Si1 0.938282 0.496371 0.220230
Si Si2 0.561886 0.496071 0.137559
Si Si3 0.268819 0.235296 0.571375
Si Si4 0.871662 0.832362 0.505835
Si Si5 0.731510 0.833375 0.789616
Si Si6 0.296844 0.291089 0.929688
Si Si7 0.871514 0.596687 0.357414
O O1 0.924015 0.234442 0.185839
O O2 0.914123 0.520519 0.300108
O O3 0.000000 0.502929 0.224211
O O4 0.922707 0.735630 0.172646
O O5 0.500000 0.493559 0.130972
O O6 0.587861 0.547791 0.059778
O O7 0.259500 0.502026 0.606161
O O8 0.329064 0.185039 0.554273
O O9 0.239533 0.296161 0.494769
O O10 0.893610 0.707482 0.432697
O O11 0.834855 0.027250 0.469107
O O12 0.761436 0.603296 0.755375
O O13 0.760067 0.888184 0.866694
O O14 0.672350 0.765894 0.808314
O O15 0.335926 0.113582 0.889589
#
# Coordination Sequence:
#
# PCOD9350498 Si02
#       7
#     8   8   8   8   8   8   8
#     4  10  25  47  64  82 120 168 201 244 316 374
#     4  10  25  47  64  82 120 168 201 244 316 374
#     4  10  17  30  50  87 121 157 182 231 292 363
#     4  11  20  34  65  94 118 153 210 253 293 350
#     4  10  17  30  50  87 121 157 182 231 292 363
#     4  10  18  32  53  98 123 158 182 246 300 362
#     4  11  20  34  65  94 118 153 210 253 293 350
#
# _framework density 21.298660999999999
#
# number of rings (size 3 to 8) (size 9 to 14) (size 15 to 20)
#    0.000    1.714    4.286    1.714    4.000    0.571 
#    0.000    0.714    0.000   20.571    0.000    0.000 
#    0.000    0.000    0.000    0.000    0.000    0.000 
#
# Total GULP energy -155913.105175 kJ/mol
# GULP energy per Si atom -5568.325185 kJ/mol
# Density = 2.125018 g / cm^3
# Si number density = 21.298661 Si / 1000 Ang^3
#
#
#
# Elastic Constant Matrix: (Units=GPa)
#
#
# Indices 1 2 3 4 5 6 
#
# 1 9.4031 2.6545 9.6841 0.0000 0.0000 0.0000
# 2 2.6545 99.1939 18.7328 0.0000 0.0000 0.0000
# 3 9.6841 18.7328 39.1906 0.0000 0.0000 0.0000
# 4 0.0000 0.0000 0.0000 -7.8159 0.0000 0.0000
# 5 0.0000 0.0000 0.0000 0.0000 225.3531 0.0000
# 6 0.0000 0.0000 0.0000 0.0000 0.0000 11.8399
#
#
#
# Elastic Compliance Matrix: (Units=1/GPa)
#
#
# Indices 1 2 3 4 5 6 
#
# 1 0.143536 0.003140 -0.036969 0.000000 0.000000 0.000000
# 2 0.003140 0.011150 -0.006106 0.000000 0.000000 0.000000
# 3 -0.036969 -0.006106 0.037570 0.000000 0.000000 0.000000
# 4 0.000000 0.000000 0.000000 -0.127944 0.000000 0.000000
# 5 0.000000 0.000000 0.000000 0.000000 0.004437 0.000000
# 6 0.000000 0.000000 0.000000 0.000000 0.000000 0.084460
#
#
# Mechanical properties :
#
#
# Convention : Reuss Voigt Hill
#
# Bulk Modulus (GPa) = 8.89781 23.32558 16.11170
# Shear Modulus (GPa) = 18.48148 53.65649 36.06899
#
# Velocity S-wave (km/s) = 2.94892 5.02465 4.11966
# Velocity P-wave (km/s) = 3.97260 6.68119 5.49635
#
# Compressibility (1/GPa) = 0.11238721
#
# Stress axis : x y z
#
# Youngs Moduli (GPa) = 6.96691 89.68370 26.61699
#
# Poissons Ratio (x) = -0.28165 0.98401
# Poissons Ratio (y) = -0.02188 0.16252
# Poissons Ratio (z) = 0.25756 0.54759
#
# Static dielectric constant tensor:
#      x y z
#    x 1.741470 0.000000 0.000000 
#    y 0.000000 2.005600 0.000000 
#    z 0.000000 0.000000 1.801920 
# 
# From -- ./inp_files/16328.got.cif
#   From: 2010.05.17/outbox.cif.g08.bks.cpg/sg36_9_cif.got.tgz:16328.got - 2010.06.03 17:41:39.
