data_PCOD9350907
_publ_section_title
;
Structure prediction by ZEFSAII (Michael W. Deem and Ramdas Pophale) SiO2 
 PCOD9350907
Probable space group: C M C 21
;
_chemical_formula_sum "Si O2"
_cell_formula_units_Z 64
_cell_length_a 7.719648
_cell_length_b 23.731595
_cell_length_c 16.658795
_cell_angle_alpha 90.000000
_cell_angle_beta 90.000000
_cell_angle_gamma 90.000000
_cell_volume 3051.883912
_symmetry_space_group_name_H-M "C M C 21"
_symmetry_group_IT_number 36
_symmetry_cell_setting 'orthorhombic'
loop_
_space_group_symop_operation_xyz
x,y,z
-x,-y,1/2+z
x,-y,1/2+z
-x,y,z
1/2+x,1/2+y,z
1/2-x,1/2-y,1/2+z
1/2+x,1/2-y,1/2+z
1/2-x,1/2+y,z
loop_
_atom_site_type_symbol
_atom_site_label
_atom_site_fract_x
_atom_site_fract_y
_atom_site_fract_z
Si Si1 0.703875 0.548326 0.375000
Si Si2 0.791733 0.436597 0.306308
Si Si3 0.701736 0.092507 0.071924
Si Si4 0.213725 0.469603 0.130095
Si Si5 0.795889 0.710349 0.388460
Si Si6 0.289960 0.839607 0.415722
Si Si7 0.296490 0.366138 0.740999
Si Si8 0.806126 0.623539 0.513688
O O1 0.500000 0.560510 0.386525
O O2 0.735045 0.482680 0.370732
O O3 0.760444 0.579507 0.293155
O O4 0.811754 0.576163 0.444896
O O5 0.728927 0.459692 0.221279
O O6 0.734641 0.376341 0.338618
O O7 0.000000 0.435985 0.302609
O O8 0.500000 0.082902 0.053001
O O9 0.712484 0.129575 0.153626
O O10 0.772856 0.029677 0.093177
O O11 0.772741 0.128117 0.996433
O O12 0.274775 0.413039 0.084494
O O13 0.000000 0.469947 0.127581
O O14 0.767534 0.775693 0.404233
O O15 0.730827 0.685725 0.303075
O O16 0.721717 0.674972 0.464595
O O17 0.000000 0.697980 0.387870
O O18 0.500000 0.838749 0.418503
O O19 0.500000 0.370616 0.726136
O O20 0.000000 0.640892 0.539657
#
# Coordination Sequence:
#
# PCOD9350907 Si02
#       8
#     8   8   8   8   8   8   8   8
#     4  10  19  31  51  81 113 142 175 223 282 334
#     4  10  19  34  57  80 110 151 186 223 275 337
#     4  10  19  34  57  84 114 147 186 234 287 342
#     4   9  17  32  57  86 111 138 183 232 274 332
#     4  10  21  38  59  80 110 150 195 236 281 337
#     4  10  22  38  56  82 116 153 193 235 285 337
#     4  10  20  35  57  83 111 144 187 235 282 334
#     4   9  18  34  56  80 105 141 187 230 270 329
#
# _framework density 20.970652000000001
#
# number of rings (size 3 to 8) (size 9 to 14) (size 15 to 20)
#    0.000    2.250    1.250    1.875    0.000    4.500 
#    2.250    2.500    0.000    0.000    0.000    0.000 
#    0.000    0.000    0.000    0.000    0.000    0.000 
#
# Total GULP energy -178389.211283 kJ/mol
# GULP energy per Si atom -5574.662853 kJ/mol
# Density = 2.092292 g / cm^3
# Si number density = 20.970652 Si / 1000 Ang^3
#
#
#
# Elastic Constant Matrix: (Units=GPa)
#
#
# Indices 1 2 3 4 5 6 
#
# 1 22.5835 2.5414 3.2751 0.0000 0.0000 0.0000
# 2 2.5414 138.0470 34.1916 0.0000 0.0000 0.0000
# 3 3.2751 34.1916 61.4005 0.0000 0.0000 0.0000
# 4 0.0000 0.0000 0.0000 26.7881 0.0000 0.0000
# 5 0.0000 0.0000 0.0000 0.0000 0.5370 0.0000
# 6 0.0000 0.0000 0.0000 0.0000 0.0000 15.1001
#
#
#
# Elastic Compliance Matrix: (Units=1/GPa)
#
#
# Indices 1 2 3 4 5 6 
#
# 1 0.044634 -0.000269 -0.002231 0.000000 0.000000 0.000000
# 2 -0.000269 0.008404 -0.004666 0.000000 0.000000 0.000000
# 3 -0.002231 -0.004666 0.019004 0.000000 0.000000 0.000000
# 4 0.000000 0.000000 0.000000 0.037330 0.000000 0.000000
# 5 0.000000 0.000000 0.000000 0.000000 1.862171 0.000000
# 6 0.000000 0.000000 0.000000 0.000000 0.000000 0.066225
#
#
# Mechanical properties :
#
#
# Convention : Reuss Voigt Hill
#
# Bulk Modulus (GPa) = 17.32785 33.56079 25.44432
# Shear Modulus (GPa) = 2.41390 20.61990 11.51690
#
# Velocity S-wave (km/s) = 1.07405 3.13912 2.34603
# Velocity P-wave (km/s) = 3.13352 5.40159 4.41566
#
# Compressibility (1/GPa) = 0.05771058
#
# Stress axis : x y z
#
# Youngs Moduli (GPa) = 22.40446 118.98403 52.62136
#
# Poissons Ratio (x) = 0.03202 0.11739
# Poissons Ratio (y) = 0.00603 0.24552
# Poissons Ratio (z) = 0.04998 0.55515
#
# Static dielectric constant tensor:
#      x y z
#    x 1.800130 0.000000 0.000000 
#    y 0.000000 1.735580 0.000000 
#    z 0.000000 0.000000 1.825560 
# 
# From -- ./inp_files/10986.got.cif
#   From: 2010.05.17/outbox.cif.g08.bks.cpg/sg36_6_cif.got.tgz:10986.got - 2010.06.03 17:41:39.
