data_PCOD9350034
_publ_section_title
;
Structure prediction by ZEFSAII (Michael W. Deem and Ramdas Pophale) SiO2 
 PCOD9350034
Probable space group: C M M 2
;
_chemical_formula_sum "Si O2"
_cell_formula_units_Z 32
_cell_length_a 32.969409
_cell_length_b 8.187279
_cell_length_c 4.866066
_cell_angle_alpha 90.000000
_cell_angle_beta 90.000000
_cell_angle_gamma 90.000000
_cell_volume 1313.495979
_symmetry_space_group_name_H-M "C M M 2"
_symmetry_group_IT_number 35
_symmetry_cell_setting 'orthorhombic'
loop_
_space_group_symop_operation_xyz
x,y,z
-x,-y,z
-x,y,z
x,-y,z
1/2+x,1/2+y,z
1/2-x,1/2-y,z
1/2-x,1/2+y,z
1/2+x,1/2-y,z
loop_
_atom_site_type_symbol
_atom_site_label
_atom_site_fract_x
_atom_site_fract_y
_atom_site_fract_z
Si Si1 0.044898 0.690863 0.727380
Si Si2 0.737990 0.500000 0.223271
Si Si3 0.294493 0.000000 0.724571
Si Si4 0.411180 0.308916 0.228076
Si Si5 0.328753 0.684376 0.924980
O O1 0.044871 0.500000 0.664020
O O2 0.079581 0.772265 0.543400
O O3 0.000000 0.758806 0.669524
O O4 0.056063 0.715137 0.044159
O O5 0.777170 0.500000 0.032315
O O6 0.709242 0.350662 0.128782
O O7 0.755172 0.500000 0.528783
O O8 0.318855 0.829687 0.713927
O O9 0.416900 0.500000 0.180582
O O10 0.367053 0.267335 0.110546
O O11 0.335912 0.500000 0.801012
#
# Coordination Sequence:
#
# PCOD9350034 Si02
#       5
#     8   4   4   8   8
#     4  11  25  43  69 105 145 185 234 291 349 421
#     4  10  26  46  68 104 139 176 243 288 356 426
#     4  12  24  46  74  98 135 194 227 294 364 418
#     4  11  24  45  72 102 141 188 234 293 352 421
#     4   9  25  48  68 108 139 183 238 296 351 430
#
# _framework density 24.362463000000002
#
# number of rings (size 3 to 8) (size 9 to 14) (size 15 to 20)
#    0.750    0.750    0.000    3.000    3.500   13.000 
#    2.250    0.000    0.000    0.000    0.000    0.000 
#    0.000    0.000    0.000    0.000    0.000    0.000 
#
# Total GULP energy -89509.707660 kJ/mol
# GULP energy per Si atom -5594.356729 kJ/mol
# Density = 2.430701 g / cm^3
# Si number density = 24.362463 Si / 1000 Ang^3
#
#
#
# Elastic Constant Matrix: (Units=GPa)
#
#
# Indices 1 2 3 4 5 6 
#
# 1 74.2482 26.1401 -4.8376 0.0000 0.0000 0.0000
# 2 26.1401 98.5786 25.0366 0.0000 0.0000 0.0000
# 3 -4.8376 25.0366 58.5882 0.0000 0.0000 0.0000
# 4 0.0000 0.0000 0.0000 27.1697 0.0000 0.0000
# 5 0.0000 0.0000 0.0000 0.0000 36.0943 0.0000
# 6 0.0000 0.0000 0.0000 0.0000 0.0000 23.1376
#
#
#
# Elastic Compliance Matrix: (Units=1/GPa)
#
#
# Indices 1 2 3 4 5 6 
#
# 1 0.015433 -0.004954 0.003391 0.000000 0.000000 0.000000
# 2 -0.004954 0.012969 -0.005951 0.000000 0.000000 0.000000
# 3 0.003391 -0.005951 0.019891 0.000000 0.000000 0.000000
# 4 0.000000 0.000000 0.000000 0.036806 0.000000 0.000000
# 5 0.000000 0.000000 0.000000 0.000000 0.027705 0.000000
# 6 0.000000 0.000000 0.000000 0.000000 0.000000 0.043220
#
#
# Mechanical properties :
#
#
# Convention : Reuss Voigt Hill
#
# Bulk Modulus (GPa) = 30.06024 36.01037 33.03531
# Shear Modulus (GPa) = 27.45127 29.61870 28.53499
#
# Velocity S-wave (km/s) = 3.36040 3.49055 3.42609
# Velocity P-wave (km/s) = 5.23660 5.57301 5.40742
#
# Compressibility (1/GPa) = 0.03326653
#
# Stress axis : x y z
#
# Youngs Moduli (GPa) = 64.79481 77.10560 50.27294
#
# Poissons Ratio (x) = 0.38196 -0.17049
# Poissons Ratio (y) = 0.32098 0.29918
# Poissons Ratio (z) = -0.21973 0.45887
#
# Static dielectric constant tensor:
#      x y z
#    x 1.928900 0.000000 0.000000 
#    y 0.000000 1.947920 0.000000 
#    z 0.000000 0.000000 1.850760 
# 
# From -- ./inp_files/616.got.cif
#   From: 2010.05.17/outbox.cif.g08.bks.cpg/sg35_1_cif.got.tgz:616.got - 2010.06.03 17:29:28.
