data_PCOD9350998
_publ_section_title
;
Structure prediction by ZEFSAII (Michael W. Deem and Ramdas Pophale) SiO2 
 PCOD9350998
Probable space group: C M C 21
;
_chemical_formula_sum "Si O2"
_cell_formula_units_Z 64
_cell_length_a 7.431966
_cell_length_b 15.034250
_cell_length_c 22.969554
_cell_angle_alpha 90.000000
_cell_angle_beta 90.000000
_cell_angle_gamma 90.000000
_cell_volume 2566.480947
_symmetry_space_group_name_H-M "C M C 21"
_symmetry_group_IT_number 36
_symmetry_cell_setting 'orthorhombic'
loop_
_space_group_symop_operation_xyz
x,y,z
-x,-y,1/2+z
x,-y,1/2+z
-x,y,z
1/2+x,1/2+y,z
1/2-x,1/2-y,1/2+z
1/2+x,1/2-y,1/2+z
1/2-x,1/2+y,z
loop_
_atom_site_type_symbol
_atom_site_label
_atom_site_fract_x
_atom_site_fract_y
_atom_site_fract_z
Si Si1 0.280036 0.959370 0.232140
Si Si2 0.795208 0.563457 0.050362
Si Si3 0.721217 0.841254 0.341015
Si Si4 0.789539 0.325469 0.136073
Si Si5 0.790603 0.521676 0.932343
Si Si6 0.281398 0.238228 0.512301
Si Si7 0.217715 0.371305 0.673773
Si Si8 0.793697 0.838817 0.885223
O O1 0.500000 0.958824 0.233098
O O2 0.222306 0.901304 0.287014
O O3 0.217093 0.903859 0.175865
O O4 0.226529 0.062532 0.225553
O O5 0.789118 0.662345 0.022746
O O6 0.716651 0.580957 0.114011
O O7 0.000000 0.532183 0.061127
O O8 0.714112 0.506471 0.997225
O O9 0.500000 0.839403 0.341862
O O10 0.782398 0.739158 0.344369
O O11 0.785254 0.894546 0.397943
O O12 0.719542 0.313741 0.070570
O O13 0.774691 0.231000 0.169848
O O14 0.000000 0.343619 0.129392
O O15 0.786569 0.436346 0.890764
O O16 0.000000 0.540337 0.942888
O O17 0.500000 0.239522 0.511791
O O18 0.218790 0.199870 0.451017
O O19 0.000000 0.369040 0.671927
O O20 0.000000 0.851761 0.869203
#
# Coordination Sequence:
#
# PCOD9350998 Si02
#       8
#     8   8   8   8   8   8   8   8
#     4   9  18  34  57  79 101 142 186 215 255 323
#     4   9  17  32  54  78 111 143 172 214 269 322
#     4   9  19  37  56  75 106 143 181 220 264 320
#     4   9  19  34  54  80 110 140 175 218 266 317
#     4  10  20  35  55  79 107 141 178 219 268 321
#     4  10  19  32  54  81 112 143 177 221 269 319
#     4   9  18  32  54  80 106 137 175 216 260 315
#     4  11  22  36  54  80 109 143 182 223 271 321
#
# _framework density 24.936868
#
# number of rings (size 3 to 8) (size 9 to 14) (size 15 to 20)
#    0.000    2.500    1.250    0.750    1.750    2.000 
#    0.000    0.625    0.000    3.000    0.000    0.000 
#    0.000    0.000    0.000    0.000    0.000    0.000 
#
# Total GULP energy -178724.906623 kJ/mol
# GULP energy per Si atom -5585.153332 kJ/mol
# Density = 2.488011 g / cm^3
# Si number density = 24.936868 Si / 1000 Ang^3
#
#
#
# Elastic Constant Matrix: (Units=GPa)
#
#
# Indices 1 2 3 4 5 6 
#
# 1 87.8377 -5.2579 -5.0071 0.0000 0.0000 0.0000
# 2 -5.2579 90.0025 -1.3224 0.0000 0.0000 0.0000
# 3 -5.0071 -1.3224 6.8648 0.0000 0.0000 0.0000
# 4 0.0000 0.0000 0.0000 30.9918 0.0000 0.0000
# 5 0.0000 0.0000 0.0000 0.0000 3.8118 0.0000
# 6 0.0000 0.0000 0.0000 0.0000 0.0000 11.1651
#
#
#
# Elastic Compliance Matrix: (Units=1/GPa)
#
#
# Indices 1 2 3 4 5 6 
#
# 1 0.011940 0.000828 0.008868 0.000000 0.000000 0.000000
# 2 0.000828 0.011200 0.002761 0.000000 0.000000 0.000000
# 3 0.008868 0.002761 0.152670 0.000000 0.000000 0.000000
# 4 0.000000 0.000000 0.000000 0.032267 0.000000 0.000000
# 5 0.000000 0.000000 0.000000 0.000000 0.262344 0.000000
# 6 0.000000 0.000000 0.000000 0.000000 0.000000 0.089565
#
#
# Mechanical properties :
#
#
# Convention : Reuss Voigt Hill
#
# Bulk Modulus (GPa) = 4.98197 17.94779 11.46488
# Shear Modulus (GPa) = 8.30595 22.27991 15.29293
#
# Velocity S-wave (km/s) = 1.82703 2.99231 2.47911
# Velocity P-wave (km/s) = 2.54025 4.37624 3.57801
#
# Compressibility (1/GPa) = 0.20072363
#
# Stress axis : x y z
#
# Youngs Moduli (GPa) = 83.75422 89.28780 6.55008
#
# Poissons Ratio (x) = -0.07391 -0.05809
# Poissons Ratio (y) = -0.06933 -0.01809
# Poissons Ratio (z) = -0.74274 -0.24655
#
# Static dielectric constant tensor:
#      x y z
#    x 1.945190 0.000000 0.000000 
#    y 0.000000 1.960580 0.000000 
#    z 0.000000 0.000000 2.027680 
# 
# From -- ./inp_files/16617.got.cif
#   From: 2010.05.17/outbox.cif.g08.bks.cpg/sg36_9_cif.got.tgz:16617.got - 2010.06.03 17:41:39.
