data_PCOD9350670
_publ_section_title
;
Structure prediction by ZEFSAII (Michael W. Deem and Ramdas Pophale) SiO2 
 PCOD9350670
Probable space group: C M C 21
;
_chemical_formula_sum "Si O2"
_cell_formula_units_Z 56
_cell_length_a 17.259049
_cell_length_b 21.165951
_cell_length_c 7.804482
_cell_angle_alpha 90.000000
_cell_angle_beta 90.000000
_cell_angle_gamma 90.000000
_cell_volume 2851.009940
_symmetry_space_group_name_H-M "C M C 21"
_symmetry_group_IT_number 36
_symmetry_cell_setting 'orthorhombic'
loop_
_space_group_symop_operation_xyz
x,y,z
-x,-y,1/2+z
x,-y,1/2+z
-x,y,z
1/2+x,1/2+y,z
1/2-x,1/2-y,1/2+z
1/2+x,1/2-y,1/2+z
1/2-x,1/2+y,z
loop_
_atom_site_type_symbol
_atom_site_label
_atom_site_fract_x
_atom_site_fract_y
_atom_site_fract_z
Si Si1 0.588418 0.669335 0.941340
Si Si2 0.820955 0.724629 0.620200
Si Si3 0.410757 0.822293 0.432980
Si Si4 0.916238 0.182797 0.558721
Si Si5 0.832776 0.920667 0.856839
Si Si6 0.591723 0.464671 0.519561
Si Si7 0.297415 0.170139 0.243804
O O1 0.500000 0.662652 0.992610
O O2 0.594634 0.700306 0.756001
O O3 0.625730 0.714503 0.079032
O O4 0.614437 0.597482 0.911186
O O5 0.855260 0.677783 0.765136
O O6 0.744936 0.764753 0.676549
O O7 0.817286 0.687202 0.440734
O O8 0.500000 0.846840 0.414737
O O9 0.418559 0.747234 0.457793
O O10 0.365139 0.844011 0.604859
O O11 0.854570 0.137448 0.477790
O O12 0.000000 0.149689 0.548757
O O13 0.895209 0.938401 0.710764
O O14 0.757875 0.892253 0.758542
O O15 0.845350 0.981522 0.978387
O O16 0.500000 0.481595 0.495127
#
# Coordination Sequence:
#
# PCOD9350670 Si02
#       7
#     8   8   8   8   8   8   8
#     4  10  20  34  57  86 124 171 215 259 308 372
#     4  12  21  38  61  92 129 173 213 263 324 392
#     4  11  23  39  61  90 127 169 212 261 324 390
#     4  10  18  32  54  82 118 164 211 254 307 368
#     4  12  23  38  55  86 122 169 216 269 316 374
#     4  11  22  37  56  82 123 171 219 258 304 375
#     4  12  24  38  61  92 129 169 216 270 326 387
#
# _framework density 19.642163
#
# number of rings (size 3 to 8) (size 9 to 14) (size 15 to 20)
#    0.000    0.857    5.714    2.571    0.000    4.000 
#    2.571    0.000    0.000    0.000    0.000    1.000 
#    0.000    0.000    0.000    0.000    0.000    0.000 
#
# Total GULP energy -155871.669242 kJ/mol
# GULP energy per Si atom -5566.845330 kJ/mol
# Density = 1.959746 g / cm^3
# Si number density = 19.642163 Si / 1000 Ang^3
#
#
#
# Elastic Constant Matrix: (Units=GPa)
#
#
# Indices 1 2 3 4 5 6 
#
# 1 84.0399 24.6258 30.8517 0.0000 0.0000 0.0000
# 2 24.6258 54.0835 -0.2586 0.0000 0.0000 0.0000
# 3 30.8517 -0.2586 101.8204 0.0000 0.0000 0.0000
# 4 0.0000 0.0000 0.0000 20.5084 0.0000 0.0000
# 5 0.0000 0.0000 0.0000 0.0000 34.3827 0.0000
# 6 0.0000 0.0000 0.0000 0.0000 0.0000 19.1430
#
#
#
# Elastic Compliance Matrix: (Units=1/GPa)
#
#
# Indices 1 2 3 4 5 6 
#
# 1 0.015771 -0.007204 -0.004797 0.000000 0.000000 0.000000
# 2 -0.007204 0.021781 0.002238 0.000000 0.000000 0.000000
# 3 -0.004797 0.002238 0.011280 0.000000 0.000000 0.000000
# 4 0.000000 0.000000 0.000000 0.048760 0.000000 0.000000
# 5 0.000000 0.000000 0.000000 0.000000 0.029084 0.000000
# 6 0.000000 0.000000 0.000000 0.000000 0.000000 0.052238
#
#
# Mechanical properties :
#
#
# Convention : Reuss Voigt Hill
#
# Bulk Modulus (GPa) = 34.12190 38.93128 36.52659
# Shear Modulus (GPa) = 24.01423 27.12182 25.56803
#
# Velocity S-wave (km/s) = 3.50034 3.71994 3.61181
# Velocity P-wave (km/s) = 5.80913 6.18982 6.00249
#
# Compressibility (1/GPa) = 0.02930669
#
# Stress axis : x y z
#
# Youngs Moduli (GPa) = 63.40738 45.91201 88.64954
#
# Poissons Ratio (x) = 0.33075 0.42525
# Poissons Ratio (y) = 0.45678 -0.19841
# Poissons Ratio (z) = 0.30416 -0.10276
#
# Static dielectric constant tensor:
#      x y z
#    x 1.798860 0.000000 0.000000 
#    y 0.000000 1.775270 0.000000 
#    z 0.000000 0.000000 1.806470 
# 
# From -- ./inp_files/4871.got.cif
#   From: 2010.05.17/outbox.cif.g08.bks.cpg/sg36_3_cif.got.tgz:4871.got - 2010.06.03 17:41:39.
