data_PCOD9350421
_publ_section_title
;
Structure prediction by ZEFSAII (Michael W. Deem and Ramdas Pophale) SiO2 
 PCOD9350421
Probable space group: C M M 2
;
_chemical_formula_sum "Si O2"
_cell_formula_units_Z 64
_cell_length_a 29.000264
_cell_length_b 8.711063
_cell_length_c 15.947139
_cell_angle_alpha 90.000000
_cell_angle_beta 90.000000
_cell_angle_gamma 90.000000
_cell_volume 4028.616116
_symmetry_space_group_name_H-M "C M M 2"
_symmetry_group_IT_number 35
_symmetry_cell_setting 'orthorhombic'
loop_
_space_group_symop_operation_xyz
x,y,z
-x,-y,z
-x,y,z
x,-y,z
1/2+x,1/2+y,z
1/2-x,1/2-y,z
1/2-x,1/2+y,z
1/2+x,1/2-y,z
loop_
_atom_site_type_symbol
_atom_site_label
_atom_site_fract_x
_atom_site_fract_y
_atom_site_fract_z
Si Si1 0.697884 0.683667 0.228530
Si Si2 0.698172 0.816733 0.054434
Si Si3 0.301389 0.683950 0.727697
Si Si4 0.643438 0.316488 0.898070
Si Si5 0.552752 0.316809 0.639017
Si Si6 0.698286 0.815701 0.402164
Si Si7 0.857263 0.683627 0.569979
Si Si8 0.552993 0.816451 0.825946
O O1 0.698721 0.500000 0.227337
O O2 0.750000 0.750000 0.229225
O O3 0.678322 0.748779 0.141588
O O4 0.678131 0.745427 0.316144
O O5 0.750000 0.750000 0.043361
O O6 0.701136 0.000000 0.060140
O O7 0.667595 0.764496 0.976309
O O8 0.299755 0.500000 0.720884
O O9 0.250000 0.750000 0.731042
O O10 0.328680 0.723257 0.812917
O O11 0.328079 0.750341 0.647666
O O12 0.645349 0.500000 0.908702
O O13 0.591277 0.261451 0.883579
O O14 0.500000 0.283436 0.613521
O O15 0.558133 0.500000 0.646486
O O16 0.591485 0.250404 0.578351
O O17 0.559872 0.243914 0.731048
O O18 0.750000 0.750000 0.414058
O O19 0.667797 0.776672 0.482986
O O20 0.701304 0.000000 0.394022
O O21 0.858727 0.500000 0.576933
O O22 0.500000 0.780191 0.849240
O O23 0.558702 0.000000 0.826868
#
# Coordination Sequence:
#
# PCOD9350421 Si02
#       8
#     8   8   8   8   8   8   8   8
#     4  10  18  31  51  73  98 130 166 208 252 297
#     4  11  21  34  52  74 103 136 170 211 251 299
#     4  11  23  35  48  67  98 137 173 208 244 291
#     4  11  22  35  51  74 101 134 172 210 250 298
#     4  10  20  34  52  73  98 129 167 212 257 299
#     4  10  20  33  49  73 101 133 169 207 249 296
#     4  11  22  34  51  73 100 133 171 210 250 300
#     4  10  20  34  53  75  99 129 167 211 256 300
#
# _framework density 15.886348999999999
#
# number of rings (size 3 to 8) (size 9 to 14) (size 15 to 20)
#    0.000    1.500    1.250    6.750    0.000    7.000 
#    0.000    0.000    0.000    0.000    0.000    0.875 
#    0.000    3.000    0.000    0.000    0.000    0.000 
#
# Total GULP energy -178702.377101 kJ/mol
# GULP energy per Si atom -5584.449284 kJ/mol
# Density = 1.585019 g / cm^3
# Si number density = 15.886349 Si / 1000 Ang^3
#
#
#
# Elastic Constant Matrix: (Units=GPa)
#
#
# Indices 1 2 3 4 5 6 
#
# 1 93.9559 43.9348 60.0857 0.0000 0.0000 0.0000
# 2 43.9348 93.6301 66.7524 0.0000 0.0000 0.0000
# 3 60.0857 66.7524 139.0942 0.0000 0.0000 0.0000
# 4 0.0000 0.0000 0.0000 26.8906 0.0000 0.0000
# 5 0.0000 0.0000 0.0000 0.0000 5.0992 0.0000
# 6 0.0000 0.0000 0.0000 0.0000 0.0000 26.8106
#
#
#
# Elastic Compliance Matrix: (Units=1/GPa)
#
#
# Indices 1 2 3 4 5 6 
#
# 1 0.015552 -0.003812 -0.004889 0.000000 0.000000 0.000000
# 2 -0.003812 0.017170 -0.006593 0.000000 0.000000 0.000000
# 3 -0.004889 -0.006593 0.012465 0.000000 0.000000 0.000000
# 4 0.000000 0.000000 0.000000 0.037188 0.000000 0.000000
# 5 0.000000 0.000000 0.000000 0.000000 0.196109 0.000000
# 6 0.000000 0.000000 0.000000 0.000000 0.000000 0.037299
#
#
# Mechanical properties :
#
#
# Convention : Reuss Voigt Hill
#
# Bulk Modulus (GPa) = 68.49757 74.24734 71.37245
# Shear Modulus (GPa) = 14.23538 22.15390 18.19464
#
# Velocity S-wave (km/s) = 2.99670 3.73838 3.38790
# Velocity P-wave (km/s) = 7.42863 8.09148 7.76713
#
# Compressibility (1/GPa) = 0.01459906
#
# Stress axis : x y z
#
# Youngs Moduli (GPa) = 64.29874 58.24240 80.22358
#
# Poissons Ratio (x) = 0.22205 0.39219
# Poissons Ratio (y) = 0.24514 0.52891
# Poissons Ratio (z) = 0.31434 0.38399
#
# Static dielectric constant tensor:
#      x y z
#    x 1.521940 0.000000 0.000000 
#    y 0.000000 1.530470 0.000000 
#    z 0.000000 0.000000 1.536770 
# 
# From -- ./inp_files/17775.got.cif
#   From: 2010.05.17/outbox.cif.g08.bks.cpg/sg35_9_cif.got.tgz:17775.got - 2010.06.03 17:29:28.
