data_PCOD9350564
_publ_section_title
;
Structure prediction by ZEFSAII (Michael W. Deem and Ramdas Pophale) SiO2 
 PCOD9350564
Probable space group: C M C 21
;
_chemical_formula_sum "Si O2"
_cell_formula_units_Z 48
_cell_length_a 13.549981
_cell_length_b 17.673361
_cell_length_c 9.695581
_cell_angle_alpha 90.000000
_cell_angle_beta 90.000000
_cell_angle_gamma 90.000000
_cell_volume 2321.836712
_symmetry_space_group_name_H-M "C M C 21"
_symmetry_group_IT_number 36
_symmetry_cell_setting 'orthorhombic'
loop_
_space_group_symop_operation_xyz
x,y,z
-x,-y,1/2+z
x,-y,1/2+z
-x,y,z
1/2+x,1/2+y,z
1/2-x,1/2-y,1/2+z
1/2+x,1/2-y,1/2+z
1/2-x,1/2+y,z
loop_
_atom_site_type_symbol
_atom_site_label
_atom_site_fract_x
_atom_site_fract_y
_atom_site_fract_z
Si Si1 0.211401 0.472517 0.809500
Si Si2 0.113250 0.915231 0.381420
Si Si3 0.259523 0.850466 0.573097
Si Si4 0.613857 0.740573 0.745362
Si Si5 0.384845 0.852249 0.996784
Si Si6 0.612263 0.872775 0.304670
O O1 0.312839 0.516986 0.842183
O O2 0.213101 0.419198 0.675869
O O3 0.182113 0.419092 0.936953
O O4 0.130344 0.537572 0.788403
O O5 0.150293 0.873463 0.521743
O O6 0.120591 0.849054 0.266412
O O7 0.000000 0.939173 0.393053
O O8 0.302081 0.777223 0.650760
O O9 0.318170 0.849655 0.429126
O O10 0.500000 0.758496 0.700144
O O11 0.626210 0.781444 0.894289
O O12 0.500000 0.876024 0.988660
O O13 0.365056 0.836804 0.156519
O O14 0.500000 0.856136 0.340718
#
# Coordination Sequence:
#
# PCOD9350564 Si02
#       6
#     8   8   8   8   8   8
#     4  10  20  34  52  78 111 150 191 227 270 329
#     4  10  22  38  57  82 113 151 190 230 277 330
#     4  10  21  36  57  83 110 145 190 236 277 328
#     4   9  19  38  61  84 113 146 181 228 290 347
#     4   9  18  33  56  86 118 148 178 224 288 347
#     4  10  18  29  51  85 117 142 178 231 286 335
#
# _framework density 20.673286999999998
#
# number of rings (size 3 to 8) (size 9 to 14) (size 15 to 20)
#    0.000    2.333    0.000    3.000    0.000    6.667 
#    0.000    0.000    0.000    4.000    0.000    2.333 
#    0.000    0.000    0.000    0.000    0.000    0.000 
#
# Total GULP energy -133896.817083 kJ/mol
# GULP energy per Si atom -5579.034045 kJ/mol
# Density = 2.062623 g / cm^3
# Si number density = 20.673287 Si / 1000 Ang^3
#
#
#
# Elastic Constant Matrix: (Units=GPa)
#
#
# Indices 1 2 3 4 5 6 
#
# 1 121.6119 48.5141 51.4054 0.0000 0.0000 0.0000
# 2 48.5141 73.9306 13.9782 0.0000 0.0000 0.0000
# 3 51.4054 13.9782 90.8287 0.0000 0.0000 0.0000
# 4 0.0000 0.0000 0.0000 5.5943 0.0000 0.0000
# 5 0.0000 0.0000 0.0000 0.0000 26.4869 0.0000
# 6 0.0000 0.0000 0.0000 0.0000 0.0000 32.1070
#
#
#
# Elastic Compliance Matrix: (Units=1/GPa)
#
#
# Indices 1 2 3 4 5 6 
#
# 1 0.014378 -0.008133 -0.006886 0.000000 0.000000 0.000000
# 2 -0.008133 0.018532 0.001751 0.000000 0.000000 0.000000
# 3 -0.006886 0.001751 0.014637 0.000000 0.000000 0.000000
# 4 0.000000 0.000000 0.000000 0.178755 0.000000 0.000000
# 5 0.000000 0.000000 0.000000 0.000000 0.037754 0.000000
# 6 0.000000 0.000000 0.000000 0.000000 0.000000 0.031146
#
#
# Mechanical properties :
#
#
# Convention : Reuss Voigt Hill
#
# Bulk Modulus (GPa) = 47.59232 57.12960 52.36096
# Shear Modulus (GPa) = 15.20951 24.33588 19.77269
#
# Velocity S-wave (km/s) = 2.71534 3.43471 3.09599
# Velocity P-wave (km/s) = 5.73602 6.58970 6.17762
#
# Compressibility (1/GPa) = 0.02101179
#
# Stress axis : x y z
#
# Youngs Moduli (GPa) = 69.55096 53.96022 68.31870
#
# Poissons Ratio (x) = 0.43886 0.47042
# Poissons Ratio (y) = 0.56566 -0.11962
# Poissons Ratio (z) = 0.47891 -0.09448
#
# Static dielectric constant tensor:
#      x y z
#    x 1.755960 0.000000 0.000000 
#    y 0.000000 1.754120 0.000000 
#    z 0.000000 0.000000 1.743780 
# 
# From -- ./inp_files/3977.got.cif
#   From: 2010.05.17/outbox.cif.g08.bks.cpg/sg36_2_cif.got.tgz:3977.got - 2010.06.03 17:41:39.
