data_PCOD9350829
_publ_section_title
;
Structure prediction by ZEFSAII (Michael W. Deem and Ramdas Pophale) SiO2 
 PCOD9350829
Probable space group: C M C 21
;
_chemical_formula_sum "Si O2"
_cell_formula_units_Z 40
_cell_length_a 18.768725
_cell_length_b 22.546376
_cell_length_c 5.163702
_cell_angle_alpha 90.000000
_cell_angle_beta 90.000000
_cell_angle_gamma 90.000000
_cell_volume 2185.106895
_symmetry_space_group_name_H-M "C M C 21"
_symmetry_group_IT_number 36
_symmetry_cell_setting 'orthorhombic'
loop_
_space_group_symop_operation_xyz
x,y,z
-x,-y,1/2+z
x,-y,1/2+z
-x,y,z
1/2+x,1/2+y,z
1/2-x,1/2-y,1/2+z
1/2+x,1/2-y,1/2+z
1/2-x,1/2+y,z
loop_
_atom_site_type_symbol
_atom_site_label
_atom_site_fract_x
_atom_site_fract_y
_atom_site_fract_z
Si Si1 0.260766 0.168653 0.884820
Si Si2 0.162234 0.284909 0.885916
Si Si3 0.227093 0.963944 0.331493
Si Si4 0.102171 0.467501 0.295880
Si Si5 0.000000 0.368612 0.474785
Si Si6 0.500000 0.201273 0.474162
O O1 0.204785 0.222920 0.885923
O O2 0.309667 0.177434 0.631065
O O3 0.218234 0.106390 0.877762
O O4 0.311539 0.178700 0.133782
O O5 0.077812 0.272298 0.905883
O O6 0.313089 0.966126 0.313780
O O7 0.201715 0.005680 0.566235
O O8 0.080256 0.516890 0.505860
O O9 0.067356 0.407747 0.394279
O O10 0.000000 0.354505 0.776680
O O11 0.000000 0.313062 0.279477
#
# Coordination Sequence:
#
# PCOD9350829 Si02
#       6
#     8   8   8   8   4   4
#     4  10  20  37  54  75 102 135 169 206 254 300
#     4  10  21  35  55  75 102 134 169 210 251 299
#     4  10  19  30  48  71  95 125 164 207 244 289
#     4  10  19  30  42  61  91 128 166 196 228 272
#     4  12  22  31  46  64  98 133 164 200 234 288
#     4  12  22  33  50  76  96 125 166 206 252 290
#
# _framework density 18.30574
#
# number of rings (size 3 to 8) (size 9 to 14) (size 15 to 20)
#    0.000    1.600    0.000    6.600    0.000    3.200 
#    0.000    0.000    0.000    0.000    0.000    1.400 
#    0.000    0.000    0.000    0.000    0.000    0.000 
#
# Total GULP energy -111564.034517 kJ/mol
# GULP energy per Si atom -5578.201726 kJ/mol
# Density = 1.826408 g / cm^3
# Si number density = 18.305740 Si / 1000 Ang^3
#
#
#
# Elastic Constant Matrix: (Units=GPa)
#
#
# Indices 1 2 3 4 5 6 
#
# 1 60.2448 8.3453 12.0837 0.0000 0.0000 0.0000
# 2 8.3453 82.3100 27.5026 0.0000 0.0000 0.0000
# 3 12.0837 27.5026 110.6646 0.0000 0.0000 0.0000
# 4 0.0000 0.0000 0.0000 19.6514 0.0000 0.0000
# 5 0.0000 0.0000 0.0000 0.0000 10.7415 0.0000
# 6 0.0000 0.0000 0.0000 0.0000 0.0000 25.2264
#
#
#
# Elastic Compliance Matrix: (Units=1/GPa)
#
#
# Indices 1 2 3 4 5 6 
#
# 1 0.017080 -0.001209 -0.001565 0.000000 0.000000 0.000000
# 2 -0.001209 0.013335 -0.003182 0.000000 0.000000 0.000000
# 3 -0.001565 -0.003182 0.009998 0.000000 0.000000 0.000000
# 4 0.000000 0.000000 0.000000 0.050887 0.000000 0.000000
# 5 0.000000 0.000000 0.000000 0.000000 0.093097 0.000000
# 6 0.000000 0.000000 0.000000 0.000000 0.000000 0.039641
#
#
# Mechanical properties :
#
#
# Convention : Reuss Voigt Hill
#
# Bulk Modulus (GPa) = 35.08521 38.78696 36.93609
# Shear Modulus (GPa) = 20.37076 24.80972 22.59024
#
# Velocity S-wave (km/s) = 3.33950 3.68543 3.51672
# Velocity P-wave (km/s) = 5.83759 6.27250 6.05895
#
# Compressibility (1/GPa) = 0.02850204
#
# Stress axis : x y z
#
# Youngs Moduli (GPa) = 58.54726 74.99060 100.02045
#
# Poissons Ratio (x) = 0.09066 0.15649
# Poissons Ratio (y) = 0.07078 0.31827
# Poissons Ratio (z) = 0.09160 0.23862
#
# Static dielectric constant tensor:
#      x y z
#    x 1.626460 0.000000 0.000000 
#    y 0.000000 1.661040 0.000000 
#    z 0.000000 0.000000 1.662460 
# 
# From -- ./inp_files/1090.got.cif
#   From: 2010.05.17/outbox.cif.g08.bks.cpg/sg36_1_cif.got.tgz:1090.got - 2010.06.03 17:41:39.
