data_PCOD9350222
_publ_section_title
;
Structure prediction by ZEFSAII (Michael W. Deem and Ramdas Pophale) SiO2 
 PCOD9350222
Probable space group: C M M 2
;
_chemical_formula_sum "Si O2"
_cell_formula_units_Z 48
_cell_length_a 29.048440
_cell_length_b 16.609404
_cell_length_c 5.390156
_cell_angle_alpha 90.000000
_cell_angle_beta 90.000000
_cell_angle_gamma 90.000000
_cell_volume 2600.627782
_symmetry_space_group_name_H-M "C M M 2"
_symmetry_group_IT_number 35
_symmetry_cell_setting 'orthorhombic'
loop_
_space_group_symop_operation_xyz
x,y,z
-x,-y,z
-x,y,z
x,-y,z
1/2+x,1/2+y,z
1/2-x,1/2-y,z
1/2-x,1/2+y,z
1/2+x,1/2-y,z
loop_
_atom_site_type_symbol
_atom_site_label
_atom_site_fract_x
_atom_site_fract_y
_atom_site_fract_z
Si Si1 0.056166 0.092638 0.412860
Si Si2 0.626368 0.815186 0.912159
Si Si3 0.759439 0.153231 0.451411
Si Si4 0.344469 0.094657 0.412259
Si Si5 0.444662 0.314862 0.912730
Si Si6 0.707177 0.313265 0.951563
O O1 0.070423 0.138759 0.662844
O O2 0.000000 0.091865 0.413174
O O3 0.071369 0.000000 0.413583
O O4 0.070304 0.138300 0.161943
O O5 0.636007 0.865892 0.160577
O O6 0.662448 0.740919 0.916698
O O7 0.635517 0.864568 0.661072
O O8 0.576850 0.773571 0.913812
O O9 0.750000 0.250000 0.467128
O O10 0.710391 0.111496 0.417189
O O11 0.791092 0.140862 0.211847
O O12 0.782943 0.132831 0.711826
O O13 0.353245 0.000000 0.413958
O O14 0.500000 0.312268 0.912450
O O15 0.750000 0.250000 0.967816
#
# Coordination Sequence:
#
# PCOD9350222 Si02
#       6
#     8   8   8   8   8   8
#     4   9  17  33  57  84 113 143 178 225 275 326
#     4  12  21  36  57  82 107 151 185 236 271 328
#     4  10  16  32  53  77 103 130 167 224 264 335
#     4  12  23  35  55  84 110 140 190 240 279 328
#     4  10  21  35  56  87 112 146 194 229 270 326
#     4  10  16  30  55  78  98 129 179 212 258 331
#
# _framework density 18.457083000000001
#
# number of rings (size 3 to 8) (size 9 to 14) (size 15 to 20)
#    0.000    1.500    6.667    2.000    0.000    2.000 
#    0.000    0.000    0.000    9.000    0.000    0.000 
#    0.000    0.000    0.000    0.000    0.000    0.000 
#
# Total GULP energy -133916.285938 kJ/mol
# GULP energy per Si atom -5579.845247 kJ/mol
# Density = 1.841507 g / cm^3
# Si number density = 18.457083 Si / 1000 Ang^3
#
#
#
# Elastic Constant Matrix: (Units=GPa)
#
#
# Indices 1 2 3 4 5 6 
#
# 1 25.2688 25.3542 15.9395 0.0000 0.0000 0.0000
# 2 25.3542 84.8413 52.1290 0.0000 0.0000 0.0000
# 3 15.9395 52.1290 162.9368 0.0000 0.0000 0.0000
# 4 0.0000 0.0000 0.0000 13.3276 0.0000 0.0000
# 5 0.0000 0.0000 0.0000 0.0000 7.3931 0.0000
# 6 0.0000 0.0000 0.0000 0.0000 0.0000 18.3066
#
#
#
# Elastic Compliance Matrix: (Units=1/GPa)
#
#
# Indices 1 2 3 4 5 6 
#
# 1 0.056526 -0.016797 -0.000156 0.000000 0.000000 0.000000
# 2 -0.016797 0.019662 -0.004647 0.000000 0.000000 0.000000
# 3 -0.000156 -0.004647 0.007639 0.000000 0.000000 0.000000
# 4 0.000000 0.000000 0.000000 0.075032 0.000000 0.000000
# 5 0.000000 0.000000 0.000000 0.000000 0.135261 0.000000
# 6 0.000000 0.000000 0.000000 0.000000 0.000000 0.054625
#
#
# Mechanical properties :
#
#
# Convention : Reuss Voigt Hill
#
# Bulk Modulus (GPa) = 24.61380 51.09916 37.85648
# Shear Modulus (GPa) = 12.33082 19.78041 16.05561
#
# Velocity S-wave (km/s) = 2.58753 3.27723 2.95259
# Velocity P-wave (km/s) = 4.72141 6.48582 5.67263
#
# Compressibility (1/GPa) = 0.04062762
#
# Stress axis : x y z
#
# Youngs Moduli (GPa) = 17.69089 50.86025 130.89984
#
# Poissons Ratio (x) = 0.85428 0.02041
# Poissons Ratio (y) = 0.29715 0.60833
# Poissons Ratio (z) = 0.00276 0.23636
#
# Static dielectric constant tensor:
#      x y z
#    x 1.645540 0.000000 0.000000 
#    y 0.000000 1.603470 0.000000 
#    z 0.000000 0.000000 1.723400 
# 
# From -- ./inp_files/3694.got.cif
#   From: 2010.05.17/outbox.cif.g08.bks.cpg/sg35_2_cif.got.tgz:3694.got - 2010.06.03 17:29:28.
