data_PCOD9350767
_publ_section_title
;
Structure prediction by ZEFSAII (Michael W. Deem and Ramdas Pophale) SiO2 
 PCOD9350767
Probable space group: C M C 21
;
_chemical_formula_sum "Si O2"
_cell_formula_units_Z 44
_cell_length_a 15.186851
_cell_length_b 19.280935
_cell_length_c 7.499533
_cell_angle_alpha 90.000000
_cell_angle_beta 90.000000
_cell_angle_gamma 90.000000
_cell_volume 2195.988407
_symmetry_space_group_name_H-M "C M C 21"
_symmetry_group_IT_number 36
_symmetry_cell_setting 'orthorhombic'
loop_
_space_group_symop_operation_xyz
x,y,z
-x,-y,1/2+z
x,-y,1/2+z
-x,y,z
1/2+x,1/2+y,z
1/2-x,1/2-y,1/2+z
1/2+x,1/2-y,1/2+z
1/2-x,1/2+y,z
loop_
_atom_site_type_symbol
_atom_site_label
_atom_site_fract_x
_atom_site_fract_y
_atom_site_fract_z
Si Si1 0.500000 0.748185 0.151271
Si Si2 0.832470 0.683889 0.842780
Si Si3 0.000000 0.825943 0.994413
Si Si4 0.102411 0.453925 0.261182
Si Si5 0.500000 0.202358 0.263970
Si Si6 0.307649 0.324507 0.044662
Si Si7 0.347660 0.901154 0.869221
O O1 0.588590 0.787272 0.215986
O O2 0.500000 0.681317 0.279531
O O3 0.500000 0.747221 0.938112
O O4 0.864058 0.606784 0.892741
O O5 0.743685 0.674217 0.729894
O O6 0.815403 0.744370 0.983568
O O7 0.000000 0.748761 0.086963
O O8 0.094124 0.855208 0.051821
O O9 0.155103 0.525238 0.271799
O O10 0.000000 0.468507 0.296731
O O11 0.113904 0.422659 0.063846
O O12 0.584494 0.152929 0.282916
O O13 0.245543 0.364703 0.904805
#
# Coordination Sequence:
#
# PCOD9350767 Si02
#       7
#     4   8   4   8   4   8   8
#     4  10  18  35  54  83 122 147 186 240 293 357
#     4  10  19  35  55  79 119 151 192 242 297 358
#     4  10  24  34  59  83 112 160 207 245 293 336
#     4  11  19  35  54  82 119 154 182 241 305 376
#     4  12  18  37  57  86 120 159 183 243 300 367
#     4  10  21  36  53  84 113 157 200 249 285 358
#     4  11  22  35  55  84 124 157 195 239 306 368
#
# _framework density 20.036536999999999
#
# number of rings (size 3 to 8) (size 9 to 14) (size 15 to 20)
#    0.000    1.455    6.364    1.091    0.000    4.364 
#    0.000    0.000    0.000    4.364    0.000    0.000 
#    0.000    0.000    0.000    0.000    0.000    0.000 
#
# Total GULP energy -122804.790657 kJ/mol
# GULP energy per Si atom -5582.035939 kJ/mol
# Density = 1.999093 g / cm^3
# Si number density = 20.036537 Si / 1000 Ang^3
#
#
#
# Elastic Constant Matrix: (Units=GPa)
#
#
# Indices 1 2 3 4 5 6 
#
# 1 155.5903 19.0847 5.4868 0.0000 0.0000 0.0000
# 2 19.0847 65.3070 13.7413 0.0000 0.0000 0.0000
# 3 5.4868 13.7413 53.9267 0.0000 0.0000 0.0000
# 4 0.0000 0.0000 0.0000 24.8810 0.0000 0.0000
# 5 0.0000 0.0000 0.0000 0.0000 19.9993 0.0000
# 6 0.0000 0.0000 0.0000 0.0000 0.0000 23.0391
#
#
#
# Elastic Compliance Matrix: (Units=1/GPa)
#
#
# Indices 1 2 3 4 5 6 
#
# 1 0.006668 -0.001908 -0.000192 0.000000 0.000000 0.000000
# 2 -0.001908 0.016726 -0.004068 0.000000 0.000000 0.000000
# 3 -0.000192 -0.004068 0.019600 0.000000 0.000000 0.000000
# 4 0.000000 0.000000 0.000000 0.040191 0.000000 0.000000
# 5 0.000000 0.000000 0.000000 0.000000 0.050002 0.000000
# 6 0.000000 0.000000 0.000000 0.000000 0.000000 0.043404
#
#
# Mechanical properties :
#
#
# Convention : Reuss Voigt Hill
#
# Bulk Modulus (GPa) = 32.61879 39.04999 35.83439
# Shear Modulus (GPa) = 25.10715 29.35130 27.22923
#
# Velocity S-wave (km/s) = 3.54371 3.83154 3.69043
# Velocity P-wave (km/s) = 5.74968 6.25348 6.00686
#
# Compressibility (1/GPa) = 0.03065717
#
# Stress axis : x y z
#
# Youngs Moduli (GPa) = 149.97074 59.78779 51.02098
#
# Poissons Ratio (x) = 0.11408 0.00981
# Poissons Ratio (y) = 0.28617 0.20755
# Poissons Ratio (z) = 0.02883 0.24321
#
# Static dielectric constant tensor:
#      x y z
#    x 1.717740 0.000000 0.000000 
#    y 0.000000 1.730450 0.000000 
#    z 0.000000 0.000000 1.797580 
# 
# From -- ./inp_files/3958.got.cif
#   From: 2010.05.17/outbox.cif.g08.bks.cpg/sg36_2_cif.got.tgz:3958.got - 2010.06.03 17:41:39.
