data_PCOD9350540
_publ_section_title
;
Structure prediction by ZEFSAII (Michael W. Deem and Ramdas Pophale) SiO2 
 PCOD9350540
Probable space group: C M C 21
;
_chemical_formula_sum "Si O2"
_cell_formula_units_Z 64
_cell_length_a 18.846096
_cell_length_b 26.157900
_cell_length_c 8.275716
_cell_angle_alpha 90.000000
_cell_angle_beta 90.000000
_cell_angle_gamma 90.000000
_cell_volume 4079.715257
_symmetry_space_group_name_H-M "C M C 21"
_symmetry_group_IT_number 36
_symmetry_cell_setting 'orthorhombic'
loop_
_space_group_symop_operation_xyz
x,y,z
-x,-y,1/2+z
x,-y,1/2+z
-x,y,z
1/2+x,1/2+y,z
1/2-x,1/2-y,1/2+z
1/2+x,1/2-y,1/2+z
1/2-x,1/2+y,z
loop_
_atom_site_type_symbol
_atom_site_label
_atom_site_fract_x
_atom_site_fract_y
_atom_site_fract_z
Si Si1 0.082590 0.242343 0.591060
Si Si2 0.918382 0.535041 0.471528
Si Si3 0.168479 0.663184 0.963396
Si Si4 0.208023 0.218599 0.127280
Si Si5 0.665685 0.872036 0.095049
Si Si6 0.918515 0.426606 0.604322
Si Si7 0.083132 0.725780 0.466131
Si Si8 0.792584 0.815073 0.999155
O O1 0.119965 0.286283 0.483996
O O2 0.090299 0.260590 0.776780
O O3 0.127092 0.190805 0.558840
O O4 0.000000 0.237570 0.553948
O O5 0.867097 0.572547 0.568072
O O6 0.901856 0.475364 0.492360
O O7 0.915397 0.552600 0.286296
O O8 0.000000 0.541496 0.529421
O O9 0.165315 0.643263 0.782036
O O10 0.247350 0.678831 0.019183
O O11 0.134357 0.619781 0.075612
O O12 0.210611 0.200637 0.311487
O O13 0.129964 0.233023 0.064640
O O14 0.251258 0.271492 0.102903
O O15 0.616964 0.829871 0.002014
O O16 0.745638 0.865021 0.028718
O O17 0.000000 0.409706 0.572114
O O18 0.000000 0.725998 0.508260
#
# Coordination Sequence:
#
# PCOD9350540 Si02
#       8
#     8   8   8   8   8   8   8   8
#     4  10  19  30  44  63  88 116 146 180 217 258
#     4  10  20  33  47  64  87 114 146 183 220 256
#     4  11  20  30  45  63  86 116 149 181 216 258
#     4  10  18  29  44  61  84 112 144 180 216 256
#     4  11  20  30  45  63  86 116 149 181 216 258
#     4  10  20  33  47  64  87 114 146 183 220 256
#     4  10  19  30  44  63  88 116 146 180 217 258
#     4  10  18  29  44  61  84 112 144 180 216 256
#
# _framework density 15.687369
#
# number of rings (size 3 to 8) (size 9 to 14) (size 15 to 20)
#    0.000    1.750    0.000    9.750    0.000    6.500 
#    0.000    0.000    0.000    0.000    0.000    0.000 
#    0.000    1.000    0.000    3.750    0.000    5.750 
#
# Total GULP energy -178607.476832 kJ/mol
# GULP energy per Si atom -5581.483651 kJ/mol
# Density = 1.565166 g / cm^3
# Si number density = 15.687369 Si / 1000 Ang^3
#
#
#
# Elastic Constant Matrix: (Units=GPa)
#
#
# Indices 1 2 3 4 5 6 
#
# 1 77.1444 17.1157 5.3938 0.0000 0.0000 0.0000
# 2 17.1157 42.1677 -11.4795 0.0000 0.0000 0.0000
# 3 5.3938 -11.4795 38.3237 0.0000 0.0000 0.0000
# 4 0.0000 0.0000 0.0000 24.4056 0.0000 0.0000
# 5 0.0000 0.0000 0.0000 0.0000 22.4378 0.0000
# 6 0.0000 0.0000 0.0000 0.0000 0.0000 21.9635
#
#
#
# Elastic Compliance Matrix: (Units=1/GPa)
#
#
# Indices 1 2 3 4 5 6 
#
# 1 0.014853 -0.007184 -0.004242 0.000000 0.000000 0.000000
# 2 -0.007184 0.029295 0.009786 0.000000 0.000000 0.000000
# 3 -0.004242 0.009786 0.029622 0.000000 0.000000 0.000000
# 4 0.000000 0.000000 0.000000 0.040974 0.000000 0.000000
# 5 0.000000 0.000000 0.000000 0.000000 0.044568 0.000000
# 6 0.000000 0.000000 0.000000 0.000000 0.000000 0.045530
#
#
# Mechanical properties :
#
#
# Convention : Reuss Voigt Hill
#
# Bulk Modulus (GPa) = 14.18644 19.96619 17.07631
# Shear Modulus (GPa) = 21.58725 23.53511 22.56118
#
# Velocity S-wave (km/s) = 3.71359 3.87752 3.79644
# Velocity P-wave (km/s) = 5.23933 5.72731 5.48874
#
# Compressibility (1/GPa) = 0.07048987
#
# Stress axis : x y z
#
# Youngs Moduli (GPa) = 67.32588 34.13576 33.75883
#
# Poissons Ratio (x) = 0.24522 0.14321
# Poissons Ratio (y) = 0.48365 -0.33036
# Poissons Ratio (z) = 0.28562 -0.33405
#
# Static dielectric constant tensor:
#      x y z
#    x 1.547540 0.000000 0.000000 
#    y 0.000000 1.515320 0.000000 
#    z 0.000000 0.000000 1.558260 
# 
# From -- ./inp_files/5004.got.cif
#   From: 2010.05.17/outbox.cif.g08.bks.cpg/sg36_3_cif.got.tgz:5004.got - 2010.06.03 17:41:39.
