data_PCOD9350086
_publ_section_title
;
Structure prediction by ZEFSAII (Michael W. Deem and Ramdas Pophale) SiO2 
 PCOD9350086
Probable space group: C M M 2
;
_chemical_formula_sum "Si O2"
_cell_formula_units_Z 64
_cell_length_a 34.069660
_cell_length_b 19.029032
_cell_length_c 5.058547
_cell_angle_alpha 90.000000
_cell_angle_beta 90.000000
_cell_angle_gamma 90.000000
_cell_volume 3279.520013
_symmetry_space_group_name_H-M "C M M 2"
_symmetry_group_IT_number 35
_symmetry_cell_setting 'orthorhombic'
loop_
_space_group_symop_operation_xyz
x,y,z
-x,-y,z
-x,y,z
x,-y,z
1/2+x,1/2+y,z
1/2-x,1/2-y,z
1/2-x,1/2+y,z
1/2+x,1/2-y,z
loop_
_atom_site_type_symbol
_atom_site_label
_atom_site_fract_x
_atom_site_fract_y
_atom_site_fract_z
Si Si1 0.456180 0.861874 0.882650
Si Si2 0.416235 0.082408 0.382177
Si Si3 0.716630 0.646145 0.957110
Si Si4 0.350665 0.820183 0.580652
Si Si5 0.325257 0.416764 0.456397
Si Si6 0.045808 0.196214 0.013869
Si Si7 0.901521 0.822892 0.531196
Si Si8 0.198116 0.308869 0.074014
O O1 0.500000 0.886636 0.944858
O O2 0.446491 0.878868 0.580079
O O3 0.454057 0.778956 0.938965
O O4 0.426535 0.899384 0.081456
O O5 0.375037 0.115091 0.467244
O O6 0.418288 0.000000 0.426094
O O7 0.703499 0.618716 0.672256
O O8 0.762986 0.646431 0.015811
O O9 0.705034 0.727814 0.992489
O O10 0.692691 0.601743 0.171788
O O11 0.378008 0.750757 0.569965
O O12 0.336286 0.832721 0.877295
O O13 0.314538 0.809317 0.379146
O O14 0.327463 0.500000 0.496543
O O15 0.367815 0.380393 0.483364
O O16 0.071987 0.160861 0.786142
O O17 0.000000 0.174369 0.025320
O O18 0.068849 0.185746 0.286687
#
# Coordination Sequence:
#
# PCOD9350086 Si02
#       8
#     8   8   8   8   8   8   8   8
#     4  11  22  38  58  82 112 148 194 249 303 352
#     4  12  25  38  54  79 116 156 195 241 294 353
#     4  11  22  41  63  96 122 159 197 252 299 360
#     4  12  21  39  61  90 118 159 204 257 287 358
#     4  12  25  41  64  96 130 160 201 252 309 367
#     4  11  22  38  63  95 121 152 205 260 307 358
#     4  12  21  39  66  90 123 162 199 251 310 359
#     4  11  22  38  66  91 120 154 207 246 299 350
#
# _framework density 19.515052000000001
#
# number of rings (size 3 to 8) (size 9 to 14) (size 15 to 20)
#    0.000    0.500    5.000    4.500    0.000    5.500 
#    0.000    3.750    0.000    2.250    0.000    0.000 
#    0.000    0.000    0.000    0.000    0.000    0.000 
#
# Total GULP energy -178968.652699 kJ/mol
# GULP energy per Si atom -5592.770397 kJ/mol
# Density = 1.947064 g / cm^3
# Si number density = 19.515052 Si / 1000 Ang^3
#
#
#
# Elastic Constant Matrix: (Units=GPa)
#
#
# Indices 1 2 3 4 5 6 
#
# 1 102.7885 15.6844 10.3523 0.0000 0.0000 0.0000
# 2 15.6844 45.8813 -19.9036 0.0000 0.0000 0.0000
# 3 10.3523 -19.9036 58.2535 0.0000 0.0000 0.0000
# 4 0.0000 0.0000 0.0000 7.0698 0.0000 0.0000
# 5 0.0000 0.0000 0.0000 0.0000 32.3411 0.0000
# 6 0.0000 0.0000 0.0000 0.0000 0.0000 11.6705
#
#
#
# Elastic Compliance Matrix: (Units=1/GPa)
#
#
# Indices 1 2 3 4 5 6 
#
# 1 0.010930 -0.005376 -0.003779 0.000000 0.000000 0.000000
# 2 -0.005376 0.028232 0.010601 0.000000 0.000000 0.000000
# 3 -0.003779 0.010601 0.021460 0.000000 0.000000 0.000000
# 4 0.000000 0.000000 0.000000 0.141447 0.000000 0.000000
# 5 0.000000 0.000000 0.000000 0.000000 0.030920 0.000000
# 6 0.000000 0.000000 0.000000 0.000000 0.000000 0.085686
#
#
# Mechanical properties :
#
#
# Convention : Reuss Voigt Hill
#
# Bulk Modulus (GPa) = 15.74429 24.35440 20.04935
# Shear Modulus (GPa) = 14.83886 23.60229 19.22057
#
# Velocity S-wave (km/s) = 2.76049 3.48147 3.14173
# Velocity P-wave (km/s) = 4.27150 5.35423 4.84322
#
# Compressibility (1/GPa) = 0.06351510
#
# Stress axis : x y z
#
# Youngs Moduli (GPa) = 91.49489 35.42090 46.59813
#
# Poissons Ratio (x) = 0.19041 0.17609
# Poissons Ratio (y) = 0.49184 -0.49400
# Poissons Ratio (z) = 0.34576 -0.37551
#
# Static dielectric constant tensor:
#      x y z
#    x 1.705830 0.000000 0.000000 
#    y 0.000000 1.650090 0.000000 
#    z 0.000000 0.000000 1.673370 
# 
# From -- ./inp_files/4087.got.cif
#   From: 2010.05.17/outbox.cif.g08.bks.cpg/sg35_3_cif.got.tgz:4087.got - 2010.06.03 17:29:28.
