data_PCOD9350551
_publ_section_title
;
Structure prediction by ZEFSAII (Michael W. Deem and Ramdas Pophale) SiO2 
 PCOD9350551
Probable space group: C M C 21
;
_chemical_formula_sum "Si O2"
_cell_formula_units_Z 48
_cell_length_a 7.886840
_cell_length_b 15.661881
_cell_length_c 14.341331
_cell_angle_alpha 90.000000
_cell_angle_beta 90.000000
_cell_angle_gamma 90.000000
_cell_volume 1771.480637
_symmetry_space_group_name_H-M "C M C 21"
_symmetry_group_IT_number 36
_symmetry_cell_setting 'orthorhombic'
loop_
_space_group_symop_operation_xyz
x,y,z
-x,-y,1/2+z
x,-y,1/2+z
-x,y,z
1/2+x,1/2+y,z
1/2-x,1/2-y,1/2+z
1/2+x,1/2-y,1/2+z
1/2-x,1/2+y,z
loop_
_atom_site_type_symbol
_atom_site_label
_atom_site_fract_x
_atom_site_fract_y
_atom_site_fract_z
Si Si1 0.204484 0.357977 0.634500
Si Si2 0.807030 0.941624 0.459947
Si Si3 0.304875 0.064383 0.313778
Si Si4 0.302238 0.409081 0.186964
Si Si5 0.805356 0.286514 0.340020
Si Si6 0.207381 0.807150 0.016903
O O1 0.265556 0.435086 0.568506
O O2 0.266895 0.366414 0.740517
O O3 0.260415 0.275446 0.577640
O O4 0.000000 0.358753 0.638647
O O5 0.787016 0.031187 0.406349
O O6 0.694566 0.870254 0.408893
O O7 0.000000 0.914730 0.445555
O O8 0.500000 0.079866 0.335793
O O9 0.295255 0.980686 0.245071
O O10 0.500000 0.433932 0.181481
O O11 0.294798 0.322925 0.251485
O O12 0.236418 0.382761 0.085109
O O13 0.737352 0.212922 0.410852
O O14 0.000000 0.270513 0.315199
O O15 0.000000 0.809366 0.014360
#
# Coordination Sequence:
#
# PCOD9350551 Si02
#       6
#     8   8   8   8   8   8
#     4   9  18  34  53  70  92 126 165 198 231 278
#     4  10  18  29  48  72  97 124 156 196 239 282
#     4  10  19  32  51  72  96 127 161 195 232 281
#     4  10  18  30  49  72  97 122 153 195 240 281
#     4   9  16  30  49  67  91 125 163 192 224 280
#     4   8  16  31  50  69  91 122 156 192 234 276
#
# _framework density 27.095980000000001
#
# number of rings (size 3 to 8) (size 9 to 14) (size 15 to 20)
#    0.000    2.667    0.000    6.000    0.000    1.333 
#    0.000   10.000    0.000    6.000    0.000    0.000 
#    0.000    0.000    0.000    0.000    0.000    0.000 
#
# Total GULP energy -134279.901977 kJ/mol
# GULP energy per Si atom -5594.995916 kJ/mol
# Density = 2.703431 g / cm^3
# Si number density = 27.095980 Si / 1000 Ang^3
#
#
#
# Elastic Constant Matrix: (Units=GPa)
#
#
# Indices 1 2 3 4 5 6 
#
# 1 106.9479 13.6162 12.1231 0.0000 0.0000 0.0000
# 2 13.6162 71.8194 -1.1482 0.0000 0.0000 0.0000
# 3 12.1231 -1.1482 198.2475 0.0000 0.0000 0.0000
# 4 0.0000 0.0000 0.0000 55.6534 0.0000 0.0000
# 5 0.0000 0.0000 0.0000 0.0000 31.4545 0.0000
# 6 0.0000 0.0000 0.0000 0.0000 0.0000 27.9819
#
#
#
# Elastic Compliance Matrix: (Units=1/GPa)
#
#
# Indices 1 2 3 4 5 6 
#
# 1 0.009653 -0.001840 -0.000601 0.000000 0.000000 0.000000
# 2 -0.001840 0.014276 0.000195 0.000000 0.000000 0.000000
# 3 -0.000601 0.000195 0.005082 0.000000 0.000000 0.000000
# 4 0.000000 0.000000 0.000000 0.017968 0.000000 0.000000
# 5 0.000000 0.000000 0.000000 0.000000 0.031792 0.000000
# 6 0.000000 0.000000 0.000000 0.000000 0.000000 0.035737
#
#
# Mechanical properties :
#
#
# Convention : Reuss Voigt Hill
#
# Bulk Modulus (GPa) = 40.78361 47.35524 44.06943
# Shear Modulus (GPa) = 39.31676 46.51286 42.91481
#
# Velocity S-wave (km/s) = 3.81336 4.14768 3.98403
# Velocity P-wave (km/s) = 5.87138 6.36022 6.12068
#
# Compressibility (1/GPa) = 0.02451965
#
# Stress axis : x y z
#
# Youngs Moduli (GPa) = 103.59809 70.04901 196.76988
#
# Poissons Ratio (x) = 0.12887 0.11825
# Poissons Ratio (y) = 0.19059 -0.03840
# Poissons Ratio (z) = 0.06226 -0.01367
#
# Static dielectric constant tensor:
#      x y z
#    x 1.899750 0.000000 0.000000 
#    y 0.000000 2.332460 0.000000 
#    z 0.000000 0.000000 2.140460 
# 
# From -- ./inp_files/10463.got.cif
#   From: 2010.05.17/outbox.cif.g08.bks.cpg/sg36_6_cif.got.tgz:10463.got - 2010.06.03 17:41:39.
