data_PCOD9350210
_publ_section_title
;
Structure prediction by ZEFSAII (Michael W. Deem and Ramdas Pophale) SiO2 
 PCOD9350210
Probable space group: C M M 2
;
_chemical_formula_sum "Si O2"
_cell_formula_units_Z 64
_cell_length_a 8.756263
_cell_length_b 15.137226
_cell_length_c 22.025876
_cell_angle_alpha 90.000000
_cell_angle_beta 90.000000
_cell_angle_gamma 90.000000
_cell_volume 2919.431451
_symmetry_space_group_name_H-M "C M M 2"
_symmetry_group_IT_number 35
_symmetry_cell_setting 'orthorhombic'
loop_
_space_group_symop_operation_xyz
x,y,z
-x,-y,z
-x,y,z
x,-y,z
1/2+x,1/2+y,z
1/2-x,1/2-y,z
1/2-x,1/2+y,z
1/2+x,1/2-y,z
loop_
_atom_site_type_symbol
_atom_site_label
_atom_site_fract_x
_atom_site_fract_y
_atom_site_fract_z
Si Si1 0.683084 0.149476 0.400290
Si Si2 0.173172 0.391457 0.889395
Si Si3 0.317178 0.350501 0.524222
Si Si4 0.332467 0.395525 0.768337
Si Si5 0.172101 0.895262 0.011881
Si Si6 0.679964 0.152374 0.646247
Si Si7 0.684681 0.348220 0.144885
Si Si8 0.315649 0.350397 0.276593
O O1 0.500000 0.151852 0.401665
O O2 0.750000 0.250000 0.399636
O O3 0.748953 0.109257 0.462459
O O4 0.743065 0.108955 0.337180
O O5 0.175144 0.500000 0.889440
O O6 0.272876 0.360181 0.832462
O O7 0.000000 0.363754 0.879980
O O8 0.232523 0.361181 0.955015
O O9 0.500000 0.348002 0.521520
O O10 0.250000 0.250000 0.525423
O O11 0.260807 0.391304 0.587721
O O12 0.500000 0.358325 0.752607
O O13 0.347568 0.500000 0.777483
O O14 0.219932 0.385743 0.711825
O O15 0.236556 0.884690 0.079842
O O16 0.000000 0.857609 0.010100
O O17 0.159583 0.000000 0.002605
O O18 0.500000 0.154158 0.635533
O O19 0.750000 0.250000 0.649591
O O20 0.500000 0.348717 0.143629
O O21 0.750000 0.250000 0.146397
O O22 0.724643 0.390184 0.210386
O O23 0.500000 0.348119 0.282684
O O24 0.250000 0.250000 0.274279
#
# Coordination Sequence:
#
# PCOD9350210 Si02
#       8
#     8   8   8   8   8   8   8   8
#     4  10  16  23  36  57  84 115 152 191 232 276
#     4   9  17  30  49  73  97 121 154 197 241 281
#     4  10  17  27  42  62  90 123 158 195 237 282
#     4  10  20  35  55  77 100 128 163 201 241 287
#     4   9  17  31  50  70  92 120 155 193 233 279
#     4  11  21  34  51  73 103 134 164 199 243 291
#     4   9  18  30  45  66  93 124 154 188 232 280
#     4   9  15  24  37  56  83 114 148 185 227 274
#
# _framework density 21.922077000000002
#
# number of rings (size 3 to 8) (size 9 to 14) (size 15 to 20)
#    0.000    2.375    0.000    6.750    0.000    3.250 
#    0.000    0.625    0.000    1.500    0.000    0.875 
#    0.000    5.000    0.000    0.000    0.000    0.000 
#
# Total GULP energy -178454.326836 kJ/mol
# GULP energy per Si atom -5576.697714 kJ/mol
# Density = 2.187218 g / cm^3
# Si number density = 21.922077 Si / 1000 Ang^3
#
#
#
# Elastic Constant Matrix: (Units=GPa)
#
#
# Indices 1 2 3 4 5 6 
#
# 1 142.7696 5.2070 69.1709 0.0000 0.0000 0.0000
# 2 5.2070 32.8178 9.7698 0.0000 0.0000 0.0000
# 3 69.1709 9.7698 204.9635 0.0000 0.0000 0.0000
# 4 0.0000 0.0000 0.0000 23.9253 0.0000 0.0000
# 5 0.0000 0.0000 0.0000 0.0000 -4.3841 0.0000
# 6 0.0000 0.0000 0.0000 0.0000 0.0000 3.9789
#
#
#
# Elastic Compliance Matrix: (Units=1/GPa)
#
#
# Indices 1 2 3 4 5 6 
#
# 1 0.008381 -0.000495 -0.002805 0.000000 0.000000 0.000000
# 2 -0.000495 0.030939 -0.001308 0.000000 0.000000 0.000000
# 3 -0.002805 -0.001308 0.005888 0.000000 0.000000 0.000000
# 4 0.000000 0.000000 0.000000 0.041797 0.000000 0.000000
# 5 0.000000 0.000000 0.000000 0.000000 -0.228096 0.000000
# 6 0.000000 0.000000 0.000000 0.000000 0.000000 0.251326
#
#
# Mechanical properties :
#
#
# Convention : Reuss Voigt Hill
#
# Bulk Modulus (GPa) = 27.78294 60.98293 44.38294
# Shear Modulus (GPa) = 38.03801 24.46422 31.25112
#
# Velocity S-wave (km/s) = 4.17003 3.34423 3.77975
# Velocity P-wave (km/s) = 5.99054 6.54142 6.27203
#
# Compressibility (1/GPa) = 0.03599331
#
# Stress axis : x y z
#
# Youngs Moduli (GPa) = 119.31308 32.32156 169.84103
#
# Poissons Ratio (x) = 0.01599 0.47639
# Poissons Ratio (y) = 0.05904 0.22211
# Poissons Ratio (z) = 0.33467 0.04227
#
# Static dielectric constant tensor:
#      x y z
#    x 1.769640 0.000000 0.000000 
#    y 0.000000 1.831140 0.000000 
#    z 0.000000 0.000000 1.884960 
# 
# From -- ./inp_files/18506.got.cif
#   From: 2010.05.17/outbox.cif.g08.bks.cpg/sg35_10_cif.got.tgz:18506.got - 2010.06.03 17:29:28.
