data_PCOD9350924
_publ_section_title
;
Structure prediction by ZEFSAII (Michael W. Deem and Ramdas Pophale) SiO2 
 PCOD9350924
Probable space group: C M C 21
;
_chemical_formula_sum "Si O2"
_cell_formula_units_Z 56
_cell_length_a 24.545961
_cell_length_b 5.635237
_cell_length_c 16.939170
_cell_angle_alpha 90.000000
_cell_angle_beta 90.000000
_cell_angle_gamma 90.000000
_cell_volume 2343.065084
_symmetry_space_group_name_H-M "C M C 21"
_symmetry_group_IT_number 36
_symmetry_cell_setting 'orthorhombic'
loop_
_space_group_symop_operation_xyz
x,y,z
-x,-y,1/2+z
x,-y,1/2+z
-x,y,z
1/2+x,1/2+y,z
1/2-x,1/2-y,1/2+z
1/2+x,1/2-y,1/2+z
1/2-x,1/2+y,z
loop_
_atom_site_type_symbol
_atom_site_label
_atom_site_fract_x
_atom_site_fract_y
_atom_site_fract_z
Si Si1 0.125247 0.617933 0.626240
Si Si2 0.733750 0.889569 0.850548
Si Si3 0.440473 0.479126 0.700866
Si Si4 0.774429 0.105849 0.167646
Si Si5 0.000000 0.032403 0.428850
Si Si6 0.559720 0.794147 0.546097
Si Si7 0.500000 0.965673 0.839937
Si Si8 0.119360 0.335189 0.779337
O O1 0.166701 0.834898 0.630803
O O2 0.109972 0.473817 0.548154
O O3 0.143012 0.448476 0.698389
O O4 0.069642 0.734961 0.657340
O O5 0.752116 0.641946 0.888828
O O6 0.765338 0.894984 0.763776
O O7 0.668639 0.873824 0.838378
O O8 0.500000 0.487813 0.736849
O O9 0.439289 0.675289 0.632106
O O10 0.395336 0.559250 0.763559
O O11 0.742709 0.344273 0.140985
O O12 0.946543 0.081340 0.483788
O O13 0.000000 0.271807 0.376561
O O14 0.000000 0.770186 0.394956
O O15 0.500000 0.914602 0.537571
O O16 0.559823 0.943498 0.798770
#
# Coordination Sequence:
#
# PCOD9350924 Si02
#       8
#     8   8   8   8   4   8   4   8
#     4  11  20  30  60  86 122 155 192 243 301 381
#     4  10  19  34  54  80 121 161 189 230 280 363
#     4  10  19  31  54  86 123 151 186 233 308 371
#     4  10  19  33  48  82 123 156 182 224 293 355
#     4  10  26  47  58  77 122 150 228 244 298 344
#     4   8  20  37  57  83 109 157 195 252 287 356
#     4  12  28  41  60  85 118 174 194 268 288 358
#     4  11  23  35  53  91 130 156 199 231 316 367
#
# _framework density 23.900317999999999
#
# number of rings (size 3 to 8) (size 9 to 14) (size 15 to 20)
#    0.429    1.429    3.571    2.143    8.000    0.000 
#    0.000    0.000    0.000    0.000    0.000    6.000 
#    0.000    0.000    0.000    0.000    0.000    0.000 
#
# Total GULP energy -155926.485957 kJ/mol
# GULP energy per Si atom -5568.803070 kJ/mol
# Density = 2.384592 g / cm^3
# Si number density = 23.900318 Si / 1000 Ang^3
#
#
#
# Elastic Constant Matrix: (Units=GPa)
#
#
# Indices 1 2 3 4 5 6 
#
# 1 97.0691 25.0071 6.8340 0.0000 0.0000 0.0000
# 2 25.0071 123.5158 18.1296 0.0000 0.0000 0.0000
# 3 6.8340 18.1296 29.3744 0.0000 0.0000 0.0000
# 4 0.0000 0.0000 0.0000 23.3294 0.0000 0.0000
# 5 0.0000 0.0000 0.0000 0.0000 3.9301 0.0000
# 6 0.0000 0.0000 0.0000 0.0000 0.0000 20.5193
#
#
#
# Elastic Compliance Matrix: (Units=1/GPa)
#
#
# Indices 1 2 3 4 5 6 
#
# 1 0.010913 -0.002020 -0.001292 0.000000 0.000000 0.000000
# 2 -0.002020 0.009276 -0.005255 0.000000 0.000000 0.000000
# 3 -0.001292 -0.005255 0.037588 0.000000 0.000000 0.000000
# 4 0.000000 0.000000 0.000000 0.042864 0.000000 0.000000
# 5 0.000000 0.000000 0.000000 0.000000 0.254446 0.000000
# 6 0.000000 0.000000 0.000000 0.000000 0.000000 0.048735
#
#
# Mechanical properties :
#
#
# Convention : Reuss Voigt Hill
#
# Bulk Modulus (GPa) = 24.60507 38.87785 31.74146
# Shear Modulus (GPa) = 11.50736 22.88835 17.19785
#
# Velocity S-wave (km/s) = 2.19663 3.09796 2.68538
# Velocity P-wave (km/s) = 4.09277 5.39430 4.78797
#
# Compressibility (1/GPa) = 0.04064203
#
# Stress axis : x y z
#
# Youngs Moduli (GPa) = 91.63154 107.79979 26.60458
#
# Poissons Ratio (x) = 0.21774 0.03438
# Poissons Ratio (y) = 0.18508 0.13982
# Poissons Ratio (z) = 0.11842 0.56653
#
# Static dielectric constant tensor:
#      x y z
#    x 2.069230 0.000000 0.000000 
#    y 0.000000 1.948320 0.000000 
#    z 0.000000 0.000000 1.967140 
# 
# From -- ./inp_files/16333.got.cif
#   From: 2010.05.17/outbox.cif.g08.bks.cpg/sg36_9_cif.got.tgz:16333.got - 2010.06.03 17:41:39.
