data_PCOD9350518
_publ_section_title
;
Structure prediction by ZEFSAII (Michael W. Deem and Ramdas Pophale) SiO2 
 PCOD9350518
Probable space group: C M C 21
;
_chemical_formula_sum "Si O2"
_cell_formula_units_Z 56
_cell_length_a 22.626186
_cell_length_b 8.279046
_cell_length_c 13.915888
_cell_angle_alpha 90.000000
_cell_angle_beta 90.000000
_cell_angle_gamma 90.000000
_cell_volume 2606.769154
_symmetry_space_group_name_H-M "C M C 21"
_symmetry_group_IT_number 36
_symmetry_cell_setting 'orthorhombic'
loop_
_space_group_symop_operation_xyz
x,y,z
-x,-y,1/2+z
x,-y,1/2+z
-x,y,z
1/2+x,1/2+y,z
1/2-x,1/2-y,1/2+z
1/2+x,1/2-y,1/2+z
1/2-x,1/2+y,z
loop_
_atom_site_type_symbol
_atom_site_label
_atom_site_fract_x
_atom_site_fract_y
_atom_site_fract_z
Si Si1 0.687823 0.786600 0.203840
Si Si2 0.605070 0.861712 0.470104
Si Si3 0.561935 0.913974 0.271333
Si Si4 0.565011 0.751978 0.680503
Si Si5 0.808555 0.056181 0.466077
Si Si6 0.817645 0.314388 0.973086
Si Si7 0.313016 0.429906 0.198247
O O1 0.626530 0.869073 0.232156
O O2 0.688711 0.793269 0.088064
O O3 0.682873 0.606033 0.241644
O O4 0.752076 0.851462 0.234031
O O5 0.561554 0.860805 0.381023
O O6 0.577613 0.830839 0.575278
O O7 0.648946 0.710169 0.451151
O O8 0.635880 0.038606 0.463226
O O9 0.500000 0.852852 0.224285
O O10 0.560776 0.105206 0.256923
O O11 0.500000 0.669403 0.676887
O O12 0.623823 0.655007 0.707624
O O13 0.743295 0.109928 0.433861
O O14 0.805218 0.049975 0.583045
O O15 0.826528 0.871681 0.436053
#
# Coordination Sequence:
#
# PCOD9350518 Si02
#       7
#     8   8   8   8   8   8   8
#     4  10  19  37  60  91 123 156 200 262 311 366
#     4  11  21  39  62  87 125 167 209 259 315 373
#     4  11  24  41  61  89 122 167 214 253 316 382
#     4  10  21  41  65  89 124 170 211 254 315 376
#     4   9  18  32  58  92 122 160 196 256 311 372
#     4  10  17  34  60  87 124 158 201 249 317 366
#     4   9  19  34  64  91 122 158 202 253 314 369
#
# _framework density 21.482531999999999
#
# number of rings (size 3 to 8) (size 9 to 14) (size 15 to 20)
#    0.000    2.000    2.857    1.286    4.000    0.571 
#    7.714    0.000    0.000    1.714    0.000    0.000 
#    0.000    0.000    0.000    0.000    0.000    0.000 
#
# Total GULP energy -155994.967533 kJ/mol
# GULP energy per Si atom -5571.248840 kJ/mol
# Density = 2.143364 g / cm^3
# Si number density = 21.482532 Si / 1000 Ang^3
#
#
#
# Elastic Constant Matrix: (Units=GPa)
#
#
# Indices 1 2 3 4 5 6 
#
# 1 201.3736 79.7139 11.4816 0.0000 0.0000 0.0000
# 2 79.7139 141.7642 3.4988 0.0000 0.0000 0.0000
# 3 11.4816 3.4988 51.2405 0.0000 0.0000 0.0000
# 4 0.0000 0.0000 0.0000 20.1558 0.0000 0.0000
# 5 0.0000 0.0000 0.0000 0.0000 -15.0961 0.0000
# 6 0.0000 0.0000 0.0000 0.0000 0.0000 16.6124
#
#
#
# Elastic Compliance Matrix: (Units=1/GPa)
#
#
# Indices 1 2 3 4 5 6 
#
# 1 0.006461 -0.003603 -0.001202 0.000000 0.000000 0.000000
# 2 -0.003603 0.009075 0.000188 0.000000 0.000000 0.000000
# 3 -0.001202 0.000188 0.019772 0.000000 0.000000 0.000000
# 4 0.000000 0.000000 0.000000 0.049614 0.000000 0.000000
# 5 0.000000 0.000000 0.000000 0.000000 -0.066242 0.000000
# 6 0.000000 0.000000 0.000000 0.000000 0.000000 0.060196
#
#
# Mechanical properties :
#
#
# Convention : Reuss Voigt Hill
#
# Bulk Modulus (GPa) = 38.35228 64.86301 51.60764
# Shear Modulus (GPa) = 51.65211 24.31335 37.98273
#
# Velocity S-wave (km/s) = 4.90876 3.36783 4.20941
# Velocity P-wave (km/s) = 7.07245 6.73662 6.90657
#
# Compressibility (1/GPa) = 0.02607407
#
# Stress axis : x y z
#
# Youngs Moduli (GPa) = 154.78102 110.18781 50.57596
#
# Poissons Ratio (x) = 0.39703 0.06077
# Poissons Ratio (y) = 0.55771 -0.00949
# Poissons Ratio (z) = 0.18599 -0.02068
#
# Static dielectric constant tensor:
#      x y z
#    x 2.277820 0.000000 0.000000 
#    y 0.000000 1.800880 0.000000 
#    z 0.000000 0.000000 1.827730 
# 
# From -- ./inp_files/14991.got.cif
#   From: 2010.05.17/outbox.cif.g08.bks.cpg/sg36_8_cif.got.tgz:14991.got - 2010.06.03 17:41:39.
