data_PCOD9350677
_publ_section_title
;
Structure prediction by ZEFSAII (Michael W. Deem and Ramdas Pophale) SiO2 
 PCOD9350677
Probable space group: C M C 21
;
_chemical_formula_sum "Si O2"
_cell_formula_units_Z 52
_cell_length_a 7.942762
_cell_length_b 19.617255
_cell_length_c 12.819816
_cell_angle_alpha 90.000000
_cell_angle_beta 90.000000
_cell_angle_gamma 90.000000
_cell_volume 1997.522035
_symmetry_space_group_name_H-M "C M C 21"
_symmetry_group_IT_number 36
_symmetry_cell_setting 'orthorhombic'
loop_
_space_group_symop_operation_xyz
x,y,z
-x,-y,1/2+z
x,-y,1/2+z
-x,y,z
1/2+x,1/2+y,z
1/2-x,1/2-y,1/2+z
1/2+x,1/2-y,1/2+z
1/2-x,1/2+y,z
loop_
_atom_site_type_symbol
_atom_site_label
_atom_site_fract_x
_atom_site_fract_y
_atom_site_fract_z
Si Si1 0.681983 0.427221 0.356760
Si Si2 0.299488 0.264392 0.510792
Si Si3 0.000000 0.976661 0.695109
Si Si4 0.194138 0.828375 0.822983
Si Si5 0.201044 0.357541 0.160713
Si Si6 0.697061 0.946830 0.968981
Si Si7 0.185726 0.609467 0.117782
O O1 0.500000 0.593193 0.900430
O O2 0.641251 0.483917 0.268070
O O3 0.748358 0.368276 0.280401
O O4 0.781455 0.473984 0.439256
O O5 0.500000 0.271237 0.523070
O O6 0.258792 0.228585 0.401587
O O7 0.241257 0.210548 0.600653
O O8 0.210228 0.336815 0.523910
O O9 0.150074 0.935876 0.633808
O O10 0.202104 0.898262 0.889992
O O11 0.000000 0.815972 0.792428
O O12 0.302703 0.842420 0.721360
O O13 0.254986 0.419306 0.082208
O O14 0.000000 0.357568 0.159781
O O15 0.500000 0.929622 0.957284
O O16 0.000000 0.576402 0.117386
#
# Coordination Sequence:
#
# PCOD9350677 Si02
#       7
#     8   8   4   8   8   8   8
#     4  10  20  33  54  81 111 147 181 236 280 333
#     4  10  21  37  58  85 117 149 192 243 288 344
#     4  10  22  38  54  94 112 152 194 238 292 330
#     4  11  19  33  54  85 113 144 193 239 280 340
#     4   9  20  35  56  83 112 148 188 234 286 340
#     4  10  18  32  55  80 105 143 192 238 280 330
#     4  12  21  36  61  86 118 152 191 243 290 339
#
# _framework density 26.032252
#
# number of rings (size 3 to 8) (size 9 to 14) (size 15 to 20)
#    0.462    1.231    3.077    3.692    0.000    4.308 
#    0.000    0.000    3.385    0.000    0.000    0.000 
#    0.000    0.000    0.000    0.000    0.000    0.000 
#
# Total GULP energy -144944.256705 kJ/mol
# GULP energy per Si atom -5574.779104 kJ/mol
# Density = 2.597300 g / cm^3
# Si number density = 26.032252 Si / 1000 Ang^3
#
#
#
# Elastic Constant Matrix: (Units=GPa)
#
#
# Indices 1 2 3 4 5 6 
#
# 1 111.7500 9.5168 9.2836 0.0000 0.0000 0.0000
# 2 9.5168 123.7348 19.8907 0.0000 0.0000 0.0000
# 3 9.2836 19.8907 81.1264 0.0000 0.0000 0.0000
# 4 0.0000 0.0000 0.0000 56.9543 0.0000 0.0000
# 5 0.0000 0.0000 0.0000 0.0000 23.9859 0.0000
# 6 0.0000 0.0000 0.0000 0.0000 0.0000 7.4531
#
#
#
# Elastic Compliance Matrix: (Units=1/GPa)
#
#
# Indices 1 2 3 4 5 6 
#
# 1 0.009071 -0.000553 -0.000903 0.000000 0.000000 0.000000
# 2 -0.000553 0.008447 -0.002008 0.000000 0.000000 0.000000
# 3 -0.000903 -0.002008 0.012922 0.000000 0.000000 0.000000
# 4 0.000000 0.000000 0.000000 0.017558 0.000000 0.000000
# 5 0.000000 0.000000 0.000000 0.000000 0.041691 0.000000
# 6 0.000000 0.000000 0.000000 0.000000 0.000000 0.134173
#
#
# Mechanical properties :
#
#
# Convention : Reuss Voigt Hill
#
# Bulk Modulus (GPa) = 42.52814 43.77706 43.15260
# Shear Modulus (GPa) = 20.95336 36.20666 28.58001
#
# Velocity S-wave (km/s) = 2.84015 3.73344 3.31701
# Velocity P-wave (km/s) = 5.20840 5.95296 5.59309
#
# Compressibility (1/GPa) = 0.02351384
#
# Stress axis : x y z
#
# Youngs Moduli (GPa) = 110.24657 118.38432 77.38737
#
# Poissons Ratio (x) = 0.06541 0.06984
# Poissons Ratio (y) = 0.06092 0.15538
# Poissons Ratio (z) = 0.09950 0.23770
#
# Static dielectric constant tensor:
#      x y z
#    x 1.912560 0.000000 0.000000 
#    y 0.000000 2.106740 0.000000 
#    z 0.000000 0.000000 2.118700 
# 
# From -- ./inp_files/6884.got.cif
#   From: 2010.05.17/outbox.cif.g08.bks.cpg/sg36_4_cif.got.tgz:6884.got - 2010.06.03 17:41:39.
