data_PCOD9350457
_publ_section_title
;
Structure prediction by ZEFSAII (Michael W. Deem and Ramdas Pophale) SiO2 
 PCOD9350457
Probable space group: C M M 2
;
_chemical_formula_sum "Si O2"
_cell_formula_units_Z 56
_cell_length_a 26.538752
_cell_length_b 24.797240
_cell_length_c 5.227731
_cell_angle_alpha 90.000000
_cell_angle_beta 90.000000
_cell_angle_gamma 90.000000
_cell_volume 3440.306007
_symmetry_space_group_name_H-M "C M M 2"
_symmetry_group_IT_number 35
_symmetry_cell_setting 'orthorhombic'
loop_
_space_group_symop_operation_xyz
x,y,z
-x,-y,z
-x,y,z
x,-y,z
1/2+x,1/2+y,z
1/2-x,1/2-y,z
1/2-x,1/2+y,z
1/2+x,1/2-y,z
loop_
_atom_site_type_symbol
_atom_site_label
_atom_site_fract_x
_atom_site_fract_y
_atom_site_fract_z
Si Si1 0.655536 0.436551 0.549390
Si Si2 0.303302 0.382399 0.070802
Si Si3 0.714270 0.198432 0.056568
Si Si4 0.847511 0.277864 0.574136
Si Si5 0.116118 0.193697 0.922689
Si Si6 0.557385 0.751170 0.311497
Si Si7 0.056638 0.131005 0.558738
O O1 0.650722 0.500000 0.591278
O O2 0.689490 0.423009 0.303855
O O3 0.600613 0.410432 0.488659
O O4 0.679696 0.408893 0.801775
O O5 0.249424 0.353953 0.070552
O O6 0.343815 0.333784 0.106891
O O7 0.750000 0.250000 0.997976
O O8 0.686738 0.211567 0.325518
O O9 0.675947 0.192555 0.819025
O O10 0.851674 0.216144 0.682390
O O11 0.905348 0.286374 0.485857
O O12 0.074283 0.150667 0.839835
O O13 0.086276 0.243352 0.044481
O O14 0.500000 0.769515 0.295386
O O15 0.556525 0.688741 0.412294
O O16 0.000000 0.109388 0.550130
#
# Coordination Sequence:
#
# PCOD9350457 Si02
#       7
#     8   8   8   8   8   8   8
#     4  11  23  39  56  73  98 132 181 230 274 324
#     4  11  22  37  55  74 100 134 168 218 282 311
#     4  12  22  32  53  75 104 131 163 216 270 316
#     4  11  21  32  46  77 103 130 171 210 247 311
#     4  10  18  32  49  72 102 131 174 217 256 318
#     4  10  18  32  51  72 103 142 176 213 255 308
#     4   9  19  31  49  71  95 131 176 229 280 308
#
# _framework density 16.277622000000001
#
# number of rings (size 3 to 8) (size 9 to 14) (size 15 to 20)
#    0.000    1.429    4.286    2.143    4.000    0.857 
#    0.000    0.000    0.000    1.714    0.000    0.000 
#    0.000    0.000    0.000    0.000    0.000   50.000 
#
# Total GULP energy -155936.497809 kJ/mol
# GULP energy per Si atom -5569.160636 kJ/mol
# Density = 1.624057 g / cm^3
# Si number density = 16.277622 Si / 1000 Ang^3
#
#
#
# Elastic Constant Matrix: (Units=GPa)
#
#
# Indices 1 2 3 4 5 6 
#
# 1 120.6775 46.5738 50.5717 0.0000 0.0000 0.0000
# 2 46.5738 47.7453 19.8456 0.0000 0.0000 0.0000
# 3 50.5717 19.8456 96.0627 0.0000 0.0000 0.0000
# 4 0.0000 0.0000 0.0000 17.8776 0.0000 0.0000
# 5 0.0000 0.0000 0.0000 0.0000 18.6860 0.0000
# 6 0.0000 0.0000 0.0000 0.0000 0.0000 17.2129
#
#
#
# Elastic Compliance Matrix: (Units=1/GPa)
#
#
# Indices 1 2 3 4 5 6 
#
# 1 0.015588 -0.012902 -0.005541 0.000000 0.000000 0.000000
# 2 -0.012902 0.033592 -0.000147 0.000000 0.000000 0.000000
# 3 -0.005541 -0.000147 0.013357 0.000000 0.000000 0.000000
# 4 0.000000 0.000000 0.000000 0.055936 0.000000 0.000000
# 5 0.000000 0.000000 0.000000 0.000000 0.053516 0.000000
# 6 0.000000 0.000000 0.000000 0.000000 0.000000 0.058096
#
#
# Mechanical properties :
#
#
# Convention : Reuss Voigt Hill
#
# Bulk Modulus (GPa) = 39.43863 55.38531 47.41197
# Shear Modulus (GPa) = 18.13451 20.58825 19.36138
#
# Velocity S-wave (km/s) = 3.34140 3.56029 3.45258
# Velocity P-wave (km/s) = 6.25843 7.14144 6.71447
#
# Compressibility (1/GPa) = 0.02535585
#
# Stress axis : x y z
#
# Youngs Moduli (GPa) = 64.15197 29.76940 74.86624
#
# Poissons Ratio (x) = 0.38410 0.41481
# Poissons Ratio (y) = 0.82772 0.01102
# Poissons Ratio (z) = 0.35545 0.00438
#
# Static dielectric constant tensor:
#      x y z
#    x 1.578540 0.000000 0.000000 
#    y 0.000000 1.529280 0.000000 
#    z 0.000000 0.000000 1.655230 
# 
# From -- ./inp_files/3414.got.cif
#   From: 2010.05.17/outbox.cif.g08.bks.cpg/sg35_2_cif.got.tgz:3414.got - 2010.06.03 17:29:28.
