data_PCOD9350271
_publ_section_title
;
Structure prediction by ZEFSAII (Michael W. Deem and Ramdas Pophale) SiO2 
 PCOD9350271
Probable space group: C M M 2
;
_chemical_formula_sum "Si O2"
_cell_formula_units_Z 40
_cell_length_a 22.134272
_cell_length_b 13.977892
_cell_length_c 4.949573
_cell_angle_alpha 90.000000
_cell_angle_beta 90.000000
_cell_angle_gamma 90.000000
_cell_volume 1531.350685
_symmetry_space_group_name_H-M "C M M 2"
_symmetry_group_IT_number 35
_symmetry_cell_setting 'orthorhombic'
loop_
_space_group_symop_operation_xyz
x,y,z
-x,-y,z
-x,y,z
x,-y,z
1/2+x,1/2+y,z
1/2-x,1/2-y,z
1/2-x,1/2+y,z
1/2+x,1/2-y,z
loop_
_atom_site_type_symbol
_atom_site_label
_atom_site_fract_x
_atom_site_fract_y
_atom_site_fract_z
Si Si1 0.069468 0.326379 0.054840
Si Si2 0.068298 0.102905 0.153239
Si Si3 0.681052 0.633700 0.497298
Si Si4 0.355636 0.853011 0.567682
Si Si5 0.751372 0.365248 0.981280
O O1 0.078278 0.209878 0.034830
O O2 0.117113 0.372912 0.268647
O O3 0.000000 0.344766 0.128952
O O4 0.085139 0.357975 0.753875
O O5 0.118748 0.098410 0.381145
O O6 0.000000 0.108065 0.264141
O O7 0.070825 0.000000 0.001595
O O8 0.672759 0.748126 0.513741
O O9 0.695057 0.603550 0.799211
O O10 0.735332 0.606722 0.287870
O O11 0.306702 0.894080 0.785411
O O12 0.750000 0.250000 0.992641
#
# Coordination Sequence:
#
# PCOD9350271 Si02
#       5
#     8   8   8   8   8
#     4  10  19  31  46  66  91 119 153 187 220 262
#     4   9  18  32  46  60  83 118 158 196 226 249
#     4  10  18  29  43  62  82 106 146 191 225 261
#     4  10  18  30  46  65  87 113 143 183 231 274
#     4  10  17  28  45  63  82 104 137 184 231 270
#
# _framework density 26.120730999999999
#
# number of rings (size 3 to 8) (size 9 to 14) (size 15 to 20)
#    0.000    2.200    0.000    8.400    0.000    0.800 
#    0.000   10.000    0.000   26.400    0.000    0.000 
#    0.000    0.000    0.000    0.000    0.000   70.000 
#
# Total GULP energy -111409.771200 kJ/mol
# GULP energy per Si atom -5570.488560 kJ/mol
# Density = 2.606128 g / cm^3
# Si number density = 26.120731 Si / 1000 Ang^3
#
#
#
# Elastic Constant Matrix: (Units=GPa)
#
#
# Indices 1 2 3 4 5 6 
#
# 1 104.7709 6.3051 32.5448 0.0000 0.0000 0.0000
# 2 6.3051 82.3851 2.3074 0.0000 0.0000 0.0000
# 3 32.5448 2.3074 173.9547 0.0000 0.0000 0.0000
# 4 0.0000 0.0000 0.0000 -22.2905 0.0000 0.0000
# 5 0.0000 0.0000 0.0000 0.0000 41.7570 0.0000
# 6 0.0000 0.0000 0.0000 0.0000 0.0000 -321.7422
#
#
#
# Elastic Compliance Matrix: (Units=1/GPa)
#
#
# Indices 1 2 3 4 5 6 
#
# 1 0.010177 -0.000726 -0.001894 0.000000 0.000000 0.000000
# 2 -0.000726 0.012194 -0.000026 0.000000 0.000000 0.000000
# 3 -0.001894 -0.000026 0.006103 0.000000 0.000000 0.000000
# 4 0.000000 0.000000 0.000000 -0.044862 0.000000 0.000000
# 5 0.000000 0.000000 0.000000 0.000000 0.023948 0.000000
# 6 0.000000 0.000000 0.000000 0.000000 0.000000 -0.003108
#
#
# Mechanical properties :
#
#
# Convention : Reuss Voigt Hill
#
# Bulk Modulus (GPa) = 43.13625 49.26948 46.20287
# Shear Modulus (GPa) = 286.17156 -39.12493 123.52331
#
# Velocity S-wave (km/s) = 10.47832 -3.87441 6.88419
# Velocity P-wave (km/s) = 12.76493 1.05429 8.99533
#
# Compressibility (1/GPa) = 0.02318236
#
# Stress axis : x y z
#
# Youngs Moduli (GPa) = 98.26327 82.00491 163.84385
#
# Poissons Ratio (x) = 0.05952 0.31037
# Poissons Ratio (y) = 0.07132 0.00425
# Poissons Ratio (z) = 0.18614 0.00213
#
# Static dielectric constant tensor:
#      x y z
#    x 2.075160 0.000000 0.000000 
#    y 0.000000 2.142190 0.000000 
#    z 0.000000 0.000000 1.967530 
# 
# From -- ./inp_files/2948.got.cif
#   From: 2010.05.17/outbox.cif.g08.bks.cpg/sg35_2_cif.got.tgz:2948.got - 2010.06.03 17:29:28.
