data_PCOD9350928
_publ_section_title
;
Structure prediction by ZEFSAII (Michael W. Deem and Ramdas Pophale) SiO2 
 PCOD9350928
Probable space group: C M C 21
;
_chemical_formula_sum "Si O2"
_cell_formula_units_Z 40
_cell_length_a 14.037718
_cell_length_b 32.138906
_cell_length_c 5.121852
_cell_angle_alpha 90.000000
_cell_angle_beta 90.000000
_cell_angle_gamma 90.000000
_cell_volume 2310.758867
_symmetry_space_group_name_H-M "C M C 21"
_symmetry_group_IT_number 36
_symmetry_cell_setting 'orthorhombic'
loop_
_space_group_symop_operation_xyz
x,y,z
-x,-y,1/2+z
x,-y,1/2+z
-x,y,z
1/2+x,1/2+y,z
1/2-x,1/2-y,1/2+z
1/2+x,1/2-y,1/2+z
1/2-x,1/2+y,z
loop_
_atom_site_type_symbol
_atom_site_label
_atom_site_fract_x
_atom_site_fract_y
_atom_site_fract_z
Si Si1 0.614692 0.381648 0.335210
Si Si2 0.888707 0.751267 0.728804
Si Si3 0.615639 0.475734 0.182917
Si Si4 0.111110 0.695805 0.223565
Si Si5 0.799432 0.159866 0.335203
O O1 0.500000 0.377076 0.319343
O O2 0.640920 0.429052 0.263588
O O3 0.649186 0.369176 0.622621
O O4 0.664871 0.352476 0.121208
O O5 0.877953 0.731638 0.443272
O O6 0.829985 0.792799 0.773811
O O7 0.000000 0.762161 0.766216
O O8 0.865809 0.716220 0.943847
O O9 0.647715 0.508758 0.400644
O O10 0.500000 0.476457 0.179252
O O11 0.185845 0.660100 0.296222
O O12 0.000000 0.683113 0.224746
#
# Coordination Sequence:
#
# PCOD9350928 Si02
#       5
#     8   8   8   8   8
#     4  11  22  33  49  76 104 129 158 194 239 291
#     4  10  19  32  49  68  94 131 167 202 246 292
#     4   9  17  31  49  68  96 131 157 180 221 285
#     4  10  21  35  50  68  93 130 175 210 240 284
#     4  12  21  33  50  72 101 129 162 206 251 282
#
# _framework density 17.310331000000001
#
# number of rings (size 3 to 8) (size 9 to 14) (size 15 to 20)
#    0.000    1.600    0.000    6.600    0.000    4.800 
#    0.000    0.000    0.000    0.000    0.000    0.000 
#    0.000   16.000    0.000    0.000    0.000    0.000 
#
# Total GULP energy -111718.628474 kJ/mol
# GULP energy per Si atom -5585.931424 kJ/mol
# Density = 1.727093 g / cm^3
# Si number density = 17.310331 Si / 1000 Ang^3
#
#
#
# Elastic Constant Matrix: (Units=GPa)
#
#
# Indices 1 2 3 4 5 6 
#
# 1 51.7180 20.3524 -12.5935 0.0000 0.0000 0.0000
# 2 20.3524 25.5468 -17.2121 0.0000 0.0000 0.0000
# 3 -12.5935 -17.2121 40.7616 0.0000 0.0000 0.0000
# 4 0.0000 0.0000 0.0000 16.4606 0.0000 0.0000
# 5 0.0000 0.0000 0.0000 0.0000 20.8680 0.0000
# 6 0.0000 0.0000 0.0000 0.0000 0.0000 6.1778
#
#
#
# Elastic Compliance Matrix: (Units=1/GPa)
#
#
# Indices 1 2 3 4 5 6 
#
# 1 0.028200 -0.023195 -0.001082 0.000000 0.000000 0.000000
# 2 -0.023195 0.073787 0.023991 0.000000 0.000000 0.000000
# 3 -0.001082 0.023991 0.034329 0.000000 0.000000 0.000000
# 4 0.000000 0.000000 0.000000 0.060751 0.000000 0.000000
# 5 0.000000 0.000000 0.000000 0.000000 0.047920 0.000000
# 6 0.000000 0.000000 0.000000 0.000000 0.000000 0.161869
#
#
# Mechanical properties :
#
#
# Convention : Reuss Voigt Hill
#
# Bulk Modulus (GPa) = 7.36677 11.01332 9.19005
# Shear Modulus (GPa) = 11.04541 17.19991 14.12266
#
# Velocity S-wave (km/s) = 2.52877 3.15559 2.85941
# Velocity P-wave (km/s) = 3.57648 4.43319 4.02767
#
# Compressibility (1/GPa) = 0.13574465
#
# Stress axis : x y z
#
# Youngs Moduli (GPa) = 35.46085 13.55255 29.12964
#
# Poissons Ratio (x) = 0.31435 0.03152
# Poissons Ratio (y) = 0.82252 -0.69886
# Poissons Ratio (z) = 0.03837 -0.32514
#
# Static dielectric constant tensor:
#      x y z
#    x 1.615400 0.000000 0.000000 
#    y 0.000000 1.567860 0.000000 
#    z 0.000000 0.000000 1.592240 
# 
# From -- ./inp_files/741.got.cif
#   From: 2010.05.17/outbox.cif.g08.bks.cpg/sg36_1_cif.got.tgz:741.got - 2010.06.03 17:41:39.
