data_PCOD9350279
_publ_section_title
;
Structure prediction by ZEFSAII (Michael W. Deem and Ramdas Pophale) SiO2 
 PCOD9350279
Probable space group: C M M 2
;
_chemical_formula_sum "Si O2"
_cell_formula_units_Z 64
_cell_length_a 8.617023
_cell_length_b 29.481556
_cell_length_c 16.075361
_cell_angle_alpha 90.000000
_cell_angle_beta 90.000000
_cell_angle_gamma 90.000000
_cell_volume 4083.836891
_symmetry_space_group_name_H-M "C M M 2"
_symmetry_group_IT_number 35
_symmetry_cell_setting 'orthorhombic'
loop_
_space_group_symop_operation_xyz
x,y,z
-x,-y,z
-x,y,z
x,-y,z
1/2+x,1/2+y,z
1/2-x,1/2-y,z
1/2-x,1/2+y,z
1/2+x,1/2-y,z
loop_
_atom_site_type_symbol
_atom_site_label
_atom_site_fract_x
_atom_site_fract_y
_atom_site_fract_z
Si Si1 0.685005 0.201292 0.895000
Si Si2 0.189143 0.052115 0.989639
Si Si3 0.810439 0.052426 0.667942
Si Si4 0.821095 0.055023 0.485217
Si Si5 0.184547 0.552296 0.309309
Si Si6 0.687181 0.393569 0.154073
Si Si7 0.686493 0.298632 0.081953
Si Si8 0.811875 0.889963 0.827874
O O1 0.500000 0.202973 0.898993
O O2 0.750000 0.250000 0.866998
O O3 0.742271 0.159771 0.839127
O O4 0.751312 0.193761 0.988305
O O5 0.235634 0.080068 0.907998
O O6 0.000000 0.051799 0.989991
O O7 0.241122 0.000000 0.986910
O O8 0.239406 0.077137 0.073924
O O9 0.759588 0.068735 0.576210
O O10 0.763805 0.084270 0.743911
O O11 0.000000 0.051855 0.665680
O O12 0.762030 0.000000 0.681364
O O13 0.731165 0.067801 0.402017
O O14 0.000000 0.069689 0.476902
O O15 0.820667 0.000000 0.488556
O O16 0.241702 0.500000 0.298507
O O17 0.252303 0.583995 0.237922
O O18 0.000000 0.551655 0.302637
O O19 0.500000 0.394884 0.155307
O O20 0.733688 0.341491 0.137814
O O21 0.500000 0.296990 0.077851
O O22 0.750000 0.250000 0.110485
O O23 0.000000 0.886934 0.828648
#
# Coordination Sequence:
#
# PCOD9350279 Si02
#       8
#     8   8   8   8   8   8   8   8
#     4  11  21  33  49  67  90 121 157 197 239 278
#     4   9  16  26  42  64  92 126 159 186 215 260
#     4   8  14  25  46  74  98 123 158 196 229 267
#     4   8  14  27  46  67  91 121 158 196 232 272
#     4  10  20  31  44  66  95 126 159 196 238 276
#     4  10  19  31  47  67  92 123 160 192 226 275
#     4  10  19  33  51  71  91 117 153 195 239 280
#     4  10  17  29  47  70  97 123 156 194 231 274
#
# _framework density 15.671536
#
# number of rings (size 3 to 8) (size 9 to 14) (size 15 to 20)
#    0.000    2.500    1.250    4.125    0.000    3.750 
#    0.000    0.625    0.000    2.250    0.000    0.875 
#    0.000    4.000    0.000    0.000    0.000    0.000 
#
# Total GULP energy -178384.580284 kJ/mol
# GULP energy per Si atom -5574.518134 kJ/mol
# Density = 1.563587 g / cm^3
# Si number density = 15.671536 Si / 1000 Ang^3
#
#
#
# Elastic Constant Matrix: (Units=GPa)
#
#
# Indices 1 2 3 4 5 6 
#
# 1 31.3158 30.3292 26.4080 0.0000 0.0000 0.0000
# 2 30.3292 126.3316 79.9774 0.0000 0.0000 0.0000
# 3 26.4080 79.9774 137.8591 0.0000 0.0000 0.0000
# 4 0.0000 0.0000 0.0000 8.5652 0.0000 0.0000
# 5 0.0000 0.0000 0.0000 0.0000 8.5288 0.0000
# 6 0.0000 0.0000 0.0000 0.0000 0.0000 19.2880
#
#
#
# Elastic Compliance Matrix: (Units=1/GPa)
#
#
# Indices 1 2 3 4 5 6 
#
# 1 0.042664 -0.008011 -0.003525 0.000000 0.000000 0.000000
# 2 -0.008011 0.014015 -0.006596 0.000000 0.000000 0.000000
# 3 -0.003525 -0.006596 0.011756 0.000000 0.000000 0.000000
# 4 0.000000 0.000000 0.000000 0.116752 0.000000 0.000000
# 5 0.000000 0.000000 0.000000 0.000000 0.117250 0.000000
# 6 0.000000 0.000000 0.000000 0.000000 0.000000 0.051846
#
#
# Mechanical properties :
#
#
# Convention : Reuss Voigt Hill
#
# Bulk Modulus (GPa) = 31.08460 63.21509 47.14985
# Shear Modulus (GPa) = 12.46046 17.86252 15.16149
#
# Velocity S-wave (km/s) = 2.82281 3.37976 3.11377
# Velocity P-wave (km/s) = 5.52291 7.46026 6.56346
#
# Compressibility (1/GPa) = 0.03217027
#
# Stress axis : x y z
#
# Youngs Moduli (GPa) = 23.43896 71.35433 85.06614
#
# Poissons Ratio (x) = 0.57161 0.29987
# Poissons Ratio (y) = 0.18777 0.56108
# Poissons Ratio (z) = 0.08263 0.47064
#
# Static dielectric constant tensor:
#      x y z
#    x 1.533070 0.000000 0.000000 
#    y 0.000000 1.516840 0.000000 
#    z 0.000000 0.000000 1.517040 
# 
# From -- ./inp_files/16227.got.cif
#   From: 2010.05.17/outbox.cif.g08.bks.cpg/sg35_9_cif.got.tgz:16227.got - 2010.06.03 17:29:28.
