data_PCOD9350212
_publ_section_title
;
Structure prediction by ZEFSAII (Michael W. Deem and Ramdas Pophale) SiO2 
 PCOD9350212
Probable space group: C M M 2
;
_chemical_formula_sum "Si O2"
_cell_formula_units_Z 48
_cell_length_a 8.640758
_cell_length_b 18.495973
_cell_length_c 16.401654
_cell_angle_alpha 90.000000
_cell_angle_beta 90.000000
_cell_angle_gamma 90.000000
_cell_volume 2621.299658
_symmetry_space_group_name_H-M "C M M 2"
_symmetry_group_IT_number 35
_symmetry_cell_setting 'orthorhombic'
loop_
_space_group_symop_operation_xyz
x,y,z
-x,-y,z
-x,y,z
x,-y,z
1/2+x,1/2+y,z
1/2-x,1/2-y,z
1/2-x,1/2+y,z
1/2+x,1/2-y,z
loop_
_atom_site_type_symbol
_atom_site_label
_atom_site_fract_x
_atom_site_fract_y
_atom_site_fract_z
Si Si1 0.313799 0.331464 0.395020
Si Si2 0.815093 0.667608 0.225720
Si Si3 0.685566 0.832053 0.891350
Si Si4 0.685063 0.168633 0.711537
Si Si5 0.684615 0.667463 0.058155
Si Si6 0.686714 0.416967 0.557840
O O1 0.500000 0.328946 0.388823
O O2 0.250000 0.250000 0.403893
O O3 0.246114 0.363714 0.310951
O O4 0.267961 0.376077 0.474900
O O5 0.750000 0.750000 0.226830
O O6 0.750712 0.634282 0.141767
O O7 0.000000 0.669420 0.224075
O O8 0.500000 0.830125 0.900267
O O9 0.750000 0.750000 0.888101
O O10 0.725148 0.862249 0.801743
O O11 0.758152 0.866073 0.972788
O O12 0.500000 0.172468 0.707211
O O13 0.750000 0.250000 0.705259
O O14 0.748604 0.122206 0.637392
O O15 0.500000 0.670018 0.060959
O O16 0.750000 0.750000 0.056907
O O17 0.500000 0.414833 0.561551
O O18 0.736956 0.500000 0.555357
#
# Coordination Sequence:
#
# PCOD9350212 Si02
#       6
#     8   8   8   8   8   8
#     4  10  19  32  50  72  98 127 163 203 245 292
#     4  10  17  26  41  63  93 126 159 195 238 285
#     4   9  16  26  40  63  94 126 160 196 238 284
#     4  10  20  33  52  76 102 133 168 208 250 296
#     4  10  16  23  37  60  92 127 159 192 235 283
#     4  10  22  38  54  73  99 131 166 207 254 302
#
# _framework density 18.311527000000002
#
# number of rings (size 3 to 8) (size 9 to 14) (size 15 to 20)
#    0.000    2.167    0.000    8.000    0.000    5.000 
#    0.000    0.000    0.000    0.000    0.000    1.167 
#    0.000    6.667    0.000    0.000    0.000    0.000 
#
# Total GULP energy -133802.966121 kJ/mol
# GULP energy per Si atom -5575.123588 kJ/mol
# Density = 1.826985 g / cm^3
# Si number density = 18.311527 Si / 1000 Ang^3
#
#
#
# Elastic Constant Matrix: (Units=GPa)
#
#
# Indices 1 2 3 4 5 6 
#
# 1 102.6378 18.8536 73.9439 0.0000 0.0000 0.0000
# 2 18.8536 40.0093 56.7559 0.0000 0.0000 0.0000
# 3 73.9439 56.7559 241.9435 0.0000 0.0000 0.0000
# 4 0.0000 0.0000 0.0000 -4.9574 0.0000 0.0000
# 5 0.0000 0.0000 0.0000 0.0000 52.2494 0.0000
# 6 0.0000 0.0000 0.0000 0.0000 0.0000 9.9412
#
#
#
# Elastic Compliance Matrix: (Units=1/GPa)
#
#
# Indices 1 2 3 4 5 6 
#
# 1 0.012507 -0.000706 -0.003657 0.000000 0.000000 0.000000
# 2 -0.000706 0.037500 -0.008581 0.000000 0.000000 0.000000
# 3 -0.003657 -0.008581 0.007264 0.000000 0.000000 0.000000
# 4 0.000000 0.000000 0.000000 -0.201720 0.000000 0.000000
# 5 0.000000 0.000000 0.000000 0.000000 0.019139 0.000000
# 6 0.000000 0.000000 0.000000 0.000000 0.000000 0.100592
#
#
# Mechanical properties :
#
#
# Convention : Reuss Voigt Hill
#
# Bulk Modulus (GPa) = 31.86495 75.96636 53.91566
# Shear Modulus (GPa) = 429.92012 27.11579 228.51796
#
# Velocity S-wave (km/s) = 15.33919 3.85230 11.18327
# Velocity P-wave (km/s) = 18.19782 7.83342 14.00934
#
# Compressibility (1/GPa) = 0.03138244
#
# Stress axis : x y z
#
# Youngs Moduli (GPa) = 79.95356 26.66696 137.67000
#
# Poissons Ratio (x) = 0.01884 0.50344
# Poissons Ratio (y) = 0.05648 1.18133
# Poissons Ratio (z) = 0.29238 0.22883
#
# Static dielectric constant tensor:
#      x y z
#    x 1.609330 0.000000 0.000000 
#    y 0.000000 1.585890 0.000000 
#    z 0.000000 0.000000 1.710830 
# 
# From -- ./inp_files/17985.got.cif
#   From: 2010.05.17/outbox.cif.g08.bks.cpg/sg35_9_cif.got.tgz:17985.got - 2010.06.03 17:29:28.
