data_PCOD9350597
_publ_section_title
;
Structure prediction by ZEFSAII (Michael W. Deem and Ramdas Pophale) SiO2 
 PCOD9350597
Probable space group: C M C 21
;
_chemical_formula_sum "Si O2"
_cell_formula_units_Z 64
_cell_length_a 7.425601
_cell_length_b 25.633567
_cell_length_c 14.560942
_cell_angle_alpha 90.000000
_cell_angle_beta 90.000000
_cell_angle_gamma 90.000000
_cell_volume 2771.597274
_symmetry_space_group_name_H-M "C M C 21"
_symmetry_group_IT_number 36
_symmetry_cell_setting 'orthorhombic'
loop_
_space_group_symop_operation_xyz
x,y,z
-x,-y,1/2+z
x,-y,1/2+z
-x,y,z
1/2+x,1/2+y,z
1/2-x,1/2-y,1/2+z
1/2+x,1/2-y,1/2+z
1/2-x,1/2+y,z
loop_
_atom_site_type_symbol
_atom_site_label
_atom_site_fract_x
_atom_site_fract_y
_atom_site_fract_z
Si Si1 0.791292 0.786246 0.793550
Si Si2 0.218808 0.120122 0.163949
Si Si3 0.783096 0.173464 0.787765
Si Si4 0.779203 0.815643 0.498024
Si Si5 0.279812 0.464831 0.807330
Si Si6 0.279356 0.565848 0.702708
Si Si7 0.299305 0.798318 0.000602
Si Si8 0.209593 0.080708 0.502300
O O1 0.729368 0.830725 0.726122
O O2 0.775035 0.729315 0.750075
O O3 0.692959 0.789343 0.890443
O O4 0.000000 0.796724 0.815293
O O5 0.277698 0.136924 0.063001
O O6 0.279158 0.070242 0.220652
O O7 0.000000 0.117133 0.160511
O O8 0.720235 0.123073 0.734055
O O9 0.000000 0.172609 0.786983
O O10 0.723445 0.173791 0.893846
O O11 0.717341 0.757693 0.530190
O O12 0.000000 0.813058 0.499703
O O13 0.500000 0.462838 0.809619
O O14 0.226996 0.523126 0.778494
O O15 0.216747 0.440614 0.904769
O O16 0.500000 0.565514 0.700570
O O17 0.217440 0.557178 0.597738
O O18 0.500000 0.801802 0.039263
O O19 0.217853 0.856030 0.011260
O O20 0.000000 0.066340 0.499967
#
# Coordination Sequence:
#
# PCOD9350597 Si02
#       8
#     8   8   8   8   8   8   8   8
#     4  10  18  30  51  76 104 136 170 214 261 307
#     4   9  16  27  46  74 102 129 169 214 254 301
#     4   9  18  33  48  71 106 138 170 211 260 314
#     4   8  16  28  44  68 101 136 167 204 249 307
#     4   9  17  31  50  75 104 133 171 219 264 306
#     4   9  19  32  50  76 106 139 176 220 269 313
#     4  10  19  32  51  75 106 139 174 213 264 318
#     4  10  19  33  52  77 105 134 175 223 265 312
#
# _framework density 23.091377000000001
#
# number of rings (size 3 to 8) (size 9 to 14) (size 15 to 20)
#    0.000    2.750    1.250    1.500    1.750    1.000 
#    0.000    5.000    0.000    2.250    0.000    0.000 
#    0.000    0.000    0.000    0.000    0.000    0.000 
#
# Total GULP energy -178540.505302 kJ/mol
# GULP energy per Si atom -5579.390791 kJ/mol
# Density = 2.303882 g / cm^3
# Si number density = 23.091377 Si / 1000 Ang^3
#
#
#
# Elastic Constant Matrix: (Units=GPa)
#
#
# Indices 1 2 3 4 5 6 
#
# 1 70.2289 -5.8164 1.5171 0.0000 0.0000 0.0000
# 2 -5.8164 78.3409 19.3689 0.0000 0.0000 0.0000
# 3 1.5171 19.3689 84.2869 0.0000 0.0000 0.0000
# 4 0.0000 0.0000 0.0000 31.0334 0.0000 0.0000
# 5 0.0000 0.0000 0.0000 0.0000 -0.2156 0.0000
# 6 0.0000 0.0000 0.0000 0.0000 0.0000 12.3349
#
#
#
# Elastic Compliance Matrix: (Units=1/GPa)
#
#
# Indices 1 2 3 4 5 6 
#
# 1 0.014350 0.001197 -0.000533 0.000000 0.000000 0.000000
# 2 0.001197 0.013634 -0.003155 0.000000 0.000000 0.000000
# 3 -0.000533 -0.003155 0.012599 0.000000 0.000000 0.000000
# 4 0.000000 0.000000 0.000000 0.032223 0.000000 0.000000
# 5 0.000000 0.000000 0.000000 0.000000 -4.637146 0.000000
# 6 0.000000 0.000000 0.000000 0.000000 0.000000 0.081071
#
#
# Mechanical properties :
#
#
# Convention : Reuss Voigt Hill
#
# Bulk Modulus (GPa) = 28.08924 29.22178 28.65551
# Shear Modulus (GPa) = -1.11946 23.14966 11.01510
#
# Velocity S-wave (km/s) = -0.69703 3.16970 2.18645
# Velocity P-wave (km/s) = 3.39750 5.10669 4.33713
#
# Compressibility (1/GPa) = 0.03560082
#
# Stress axis : x y z
#
# Youngs Moduli (GPa) = 69.68718 73.34857 79.37307
#
# Poissons Ratio (x) = -0.08782 0.04234
# Poissons Ratio (y) = -0.08343 0.25038
# Poissons Ratio (z) = 0.03717 0.23138
#
# Static dielectric constant tensor:
#      x y z
#    x 1.892660 0.000000 0.000000 
#    y 0.000000 1.841770 0.000000 
#    z 0.000000 0.000000 1.863580 
# 
# From -- ./inp_files/10888.got.cif
#   From: 2010.05.17/outbox.cif.g08.bks.cpg/sg36_6_cif.got.tgz:10888.got - 2010.06.03 17:41:39.
