data_PCOD9350387
_publ_section_title
;
Structure prediction by ZEFSAII (Michael W. Deem and Ramdas Pophale) SiO2 
 PCOD9350387
Probable space group: C M M 2
;
_chemical_formula_sum "Si O2"
_cell_formula_units_Z 64
_cell_length_a 30.448338
_cell_length_b 7.675086
_cell_length_c 12.662133
_cell_angle_alpha 90.000000
_cell_angle_beta 90.000000
_cell_angle_gamma 90.000000
_cell_volume 2959.059605
_symmetry_space_group_name_H-M "C M M 2"
_symmetry_group_IT_number 35
_symmetry_cell_setting 'orthorhombic'
loop_
_space_group_symop_operation_xyz
x,y,z
-x,-y,z
-x,y,z
x,-y,z
1/2+x,1/2+y,z
1/2-x,1/2-y,z
1/2-x,1/2+y,z
1/2+x,1/2-y,z
loop_
_atom_site_type_symbol
_atom_site_label
_atom_site_fract_x
_atom_site_fract_y
_atom_site_fract_z
Si Si1 0.547568 0.789538 0.297560
Si Si2 0.115501 0.799463 0.468967
Si Si3 0.103547 0.711553 0.852561
Si Si4 0.911721 0.710518 0.086462
Si Si5 0.798784 0.301943 0.892142
Si Si6 0.202091 0.790388 0.364068
Si Si7 0.186420 0.799721 0.129570
Si Si8 0.550020 0.706625 0.644220
O O1 0.500000 0.734811 0.338598
O O2 0.586367 0.706176 0.363473
O O3 0.552461 0.746847 0.174007
O O4 0.550998 0.000000 0.307516
O O5 0.162387 0.721644 0.435999
O O6 0.084081 0.718015 0.557891
O O7 0.123925 0.000000 0.501060
O O8 0.104437 0.500000 0.849905
O O9 0.154540 0.778648 0.853677
O O10 0.073637 0.771453 0.756546
O O11 0.082747 0.763705 0.965396
O O12 0.906355 0.500000 0.086699
O O13 0.866138 0.789948 0.126454
O O14 0.802825 0.500000 0.860542
O O15 0.750000 0.250000 0.856231
O O16 0.799274 0.288082 0.020167
O O17 0.250000 0.750000 0.407613
O O18 0.200107 0.723137 0.242725
O O19 0.196313 0.000000 0.355881
O O20 0.201405 0.000000 0.123046
O O21 0.500000 0.776778 0.641474
O O22 0.546516 0.500000 0.622112
#
# Coordination Sequence:
#
# PCOD9350387 Si02
#       8
#     8   8   8   8   8   8   8   8
#     4  10  20  33  53  83 114 145 182 224 277 339
#     4  10  21  40  59  79 110 146 186 231 281 335
#     4   9  20  37  57  82 112 146 185 230 278 331
#     4   9  18  33  52  77 113 151 181 222 277 331
#     4  10  20  34  53  81 115 152 190 227 275 329
#     4  10  21  34  52  79 110 146 185 223 270 328
#     4  10  18  30  50  78 111 150 191 228 266 322
#     4  10  22  40  62  84 106 140 187 237 286 335
#
# _framework density 21.628492000000001
#
# number of rings (size 3 to 8) (size 9 to 14) (size 15 to 20)
#    0.000    2.250    1.250    2.250    0.000    7.000 
#    0.000    1.875    0.000    3.000    0.000    0.000 
#    0.000    0.000    0.000    0.000    0.000    0.000 
#
# Total GULP energy -178485.655593 kJ/mol
# GULP energy per Si atom -5577.676737 kJ/mol
# Density = 2.157926 g / cm^3
# Si number density = 21.628492 Si / 1000 Ang^3
#
#
#
# Elastic Constant Matrix: (Units=GPa)
#
#
# Indices 1 2 3 4 5 6 
#
# 1 160.4815 -4.0722 62.3600 0.0000 0.0000 0.0000
# 2 -4.0722 28.9464 -4.2002 0.0000 0.0000 0.0000
# 3 62.3600 -4.2002 98.8615 0.0000 0.0000 0.0000
# 4 0.0000 0.0000 0.0000 12.6965 0.0000 0.0000
# 5 0.0000 0.0000 0.0000 0.0000 3.6551 0.0000
# 6 0.0000 0.0000 0.0000 0.0000 0.0000 -6.0476
#
#
#
# Elastic Compliance Matrix: (Units=1/GPa)
#
#
# Indices 1 2 3 4 5 6 
#
# 1 0.008259 0.000408 -0.005192 0.000000 0.000000 0.000000
# 2 0.000408 0.034781 0.001220 0.000000 0.000000 0.000000
# 3 -0.005192 0.001220 0.013442 0.000000 0.000000 0.000000
# 4 0.000000 0.000000 0.000000 0.078762 0.000000 0.000000
# 5 0.000000 0.000000 0.000000 0.000000 0.273594 0.000000
# 6 0.000000 0.000000 0.000000 0.000000 0.000000 -0.165355
#
#
# Mechanical properties :
#
#
# Convention : Reuss Voigt Hill
#
# Bulk Modulus (GPa) = 20.26140 44.05160 32.15650
# Shear Modulus (GPa) = 18.72216 17.67425 18.19820
#
# Velocity S-wave (km/s) = 2.94534 2.86173 2.90384
# Velocity P-wave (km/s) = 4.57766 5.59740 5.11302
#
# Compressibility (1/GPa) = 0.04935492
#
# Stress axis : x y z
#
# Youngs Moduli (GPa) = 121.07564 28.75119 74.39205
#
# Poissons Ratio (x) = -0.01174 0.38628
# Poissons Ratio (y) = -0.04946 -0.09076
# Poissons Ratio (z) = 0.62868 -0.03508
#
# Static dielectric constant tensor:
#      x y z
#    x 1.815220 0.000000 0.000000 
#    y 0.000000 1.820990 0.000000 
#    z 0.000000 0.000000 1.776680 
# 
# From -- ./inp_files/11965.got.cif
#   From: 2010.05.17/outbox.cif.g08.bks.cpg/sg35_6_cif.got.tgz:11965.got - 2010.06.03 17:29:28.
