data_PCOD9350892
_publ_section_title
;
Structure prediction by ZEFSAII (Michael W. Deem and Ramdas Pophale) SiO2 
 PCOD9350892
Probable space group: C M C 21
;
_chemical_formula_sum "Si O2"
_cell_formula_units_Z 64
_cell_length_a 9.046971
_cell_length_b 18.815000
_cell_length_c 21.408289
_cell_angle_alpha 90.000000
_cell_angle_beta 90.000000
_cell_angle_gamma 90.000000
_cell_volume 3644.092394
_symmetry_space_group_name_H-M "C M C 21"
_symmetry_group_IT_number 36
_symmetry_cell_setting 'orthorhombic'
loop_
_space_group_symop_operation_xyz
x,y,z
-x,-y,1/2+z
x,-y,1/2+z
-x,y,z
1/2+x,1/2+y,z
1/2-x,1/2-y,1/2+z
1/2+x,1/2-y,1/2+z
1/2-x,1/2+y,z
loop_
_atom_site_type_symbol
_atom_site_label
_atom_site_fract_x
_atom_site_fract_y
_atom_site_fract_z
Si Si1 0.170383 0.836387 0.680560
Si Si2 0.822984 0.324932 0.808155
Si Si3 0.169896 0.336382 0.172992
Si Si4 0.320634 0.169900 0.810918
Si Si5 0.675605 0.330817 0.045999
Si Si6 0.322350 0.836872 0.552255
Si Si7 0.679766 0.076861 0.929781
Si Si8 0.678052 0.086557 0.431908
O O1 0.257506 0.855110 0.743482
O O2 0.172971 0.749848 0.677532
O O3 0.246668 0.860695 0.616595
O O4 0.000000 0.858536 0.683991
O O5 0.752933 0.246989 0.818106
O O6 0.785610 0.373641 0.867376
O O7 0.000000 0.319019 0.802970
O O8 0.217889 0.360293 0.242137
O O9 0.267357 0.356364 0.113688
O O10 0.000000 0.357997 0.162147
O O11 0.500000 0.178568 0.811375
O O12 0.275664 0.119302 0.867662
O O13 0.500000 0.337915 0.042091
O O14 0.711943 0.246550 0.041239
O O15 0.751858 0.372832 0.990197
O O16 0.500000 0.842437 0.558888
O O17 0.273799 0.882114 0.492429
O O18 0.500000 0.077267 0.929686
O O19 0.727514 0.995263 0.929815
O O20 0.500000 0.087818 0.438456
#
# Coordination Sequence:
#
# PCOD9350892 Si02
#       8
#     8   8   8   8   8   8   8   8
#     4   9  17  30  50  75 102 129 159 200 246 293
#     4  10  19  31  50  76 103 129 161 202 246 293
#     4   8  15  28  48  74 100 125 156 197 242 289
#     4   9  17  32  55  78  98 125 164 206 247 291
#     4  10  19  31  51  76 100 127 160 202 248 291
#     4   9  17  31  53  77  99 126 162 205 247 287
#     4   9  18  34  53  72  97 131 170 206 241 288
#     4  10  21  35  50  70  99 134 168 202 241 290
#
# _framework density 17.562671999999999
#
# number of rings (size 3 to 8) (size 9 to 14) (size 15 to 20)
#    0.000    2.750    0.000    2.625    0.000    5.500 
#    0.000    3.125    0.000    4.500    0.000    0.000 
#    0.000    0.000    0.000    0.000    0.000    0.000 
#
# Total GULP energy -178406.406455 kJ/mol
# GULP energy per Si atom -5575.200202 kJ/mol
# Density = 1.752270 g / cm^3
# Si number density = 17.562672 Si / 1000 Ang^3
#
#
#
# Elastic Constant Matrix: (Units=GPa)
#
#
# Indices 1 2 3 4 5 6 
#
# 1 37.5017 37.4971 64.8043 0.0000 0.0000 0.0000
# 2 37.4971 75.6329 86.6176 0.0000 0.0000 0.0000
# 3 64.8043 86.6176 213.2373 0.0000 0.0000 0.0000
# 4 0.0000 0.0000 0.0000 -4.3702 0.0000 0.0000
# 5 0.0000 0.0000 0.0000 0.0000 26.5769 0.0000
# 6 0.0000 0.0000 0.0000 0.0000 0.0000 15.0111
#
#
#
# Elastic Compliance Matrix: (Units=1/GPa)
#
#
# Indices 1 2 3 4 5 6 
#
# 1 0.067931 -0.018765 -0.013022 0.000000 0.000000 0.000000
# 2 -0.018765 0.029906 -0.006445 0.000000 0.000000 0.000000
# 3 -0.013022 -0.006445 0.011265 0.000000 0.000000 0.000000
# 4 0.000000 0.000000 0.000000 -0.228821 0.000000 0.000000
# 5 0.000000 0.000000 0.000000 0.000000 0.037627 0.000000
# 6 0.000000 0.000000 0.000000 0.000000 0.000000 0.066618
#
#
# Mechanical properties :
#
#
# Convention : Reuss Voigt Hill
#
# Bulk Modulus (GPa) = 30.63956 78.24557 54.44256
# Shear Modulus (GPa) = 69.56896 16.60707 43.08801
#
# Velocity S-wave (km/s) = 6.30062 3.07838 4.95854
# Velocity P-wave (km/s) = 8.39131 7.56863 7.99057
#
# Compressibility (1/GPa) = 0.03263755
#
# Stress axis : x y z
#
# Youngs Moduli (GPa) = 14.72073 33.43760 88.76859
#
# Poissons Ratio (x) = 0.62746 1.15597
# Poissons Ratio (y) = 0.27624 0.57213
# Poissons Ratio (z) = 0.19170 0.21551
#
# Static dielectric constant tensor:
#      x y z
#    x 1.588000 0.000000 0.000000 
#    y 0.000000 1.575270 0.000000 
#    z 0.000000 0.000000 1.599590 
# 
# From -- ./inp_files/15736.got.cif
#   From: 2010.05.17/outbox.cif.g08.bks.cpg/sg36_8_cif.got.tgz:15736.got - 2010.06.03 17:41:39.
