data_PCOD9350350
_publ_section_title
;
Structure prediction by ZEFSAII (Michael W. Deem and Ramdas Pophale) SiO2 
 PCOD9350350
Probable space group: C M M 2
;
_chemical_formula_sum "Si O2"
_cell_formula_units_Z 56
_cell_length_a 8.352331
_cell_length_b 19.308801
_cell_length_c 18.696469
_cell_angle_alpha 90.000000
_cell_angle_beta 90.000000
_cell_angle_gamma 90.000000
_cell_volume 3015.244940
_symmetry_space_group_name_H-M "C M M 2"
_symmetry_group_IT_number 35
_symmetry_cell_setting 'orthorhombic'
loop_
_space_group_symop_operation_xyz
x,y,z
-x,-y,z
-x,y,z
x,-y,z
1/2+x,1/2+y,z
1/2-x,1/2-y,z
1/2-x,1/2+y,z
1/2+x,1/2-y,z
loop_
_atom_site_type_symbol
_atom_site_label
_atom_site_fract_x
_atom_site_fract_y
_atom_site_fract_z
Si Si1 0.693624 0.329313 0.772270
Si Si2 0.691919 0.827412 0.034656
Si Si3 0.693425 0.579196 0.905818
Si Si4 0.806736 0.327218 0.197661
Si Si5 0.804045 0.579528 0.329295
Si Si6 0.808942 0.329317 0.463670
Si Si7 0.808434 0.829567 0.615114
O O1 0.500000 0.328388 0.773263
O O2 0.750000 0.250000 0.780700
O O3 0.750702 0.376916 0.837209
O O4 0.742519 0.356572 0.693287
O O5 0.500000 0.828076 0.033482
O O6 0.750000 0.750000 0.016004
O O7 0.755503 0.881829 0.977632
O O8 0.746520 0.842014 0.116251
O O9 0.500000 0.578434 0.903112
O O10 0.750069 0.500000 0.904099
O O11 0.750000 0.250000 0.216657
O O12 0.752288 0.381971 0.256767
O O13 0.000000 0.327257 0.197508
O O14 0.751908 0.500000 0.332278
O O15 0.751149 0.623883 0.397932
O O16 0.000000 0.579606 0.329602
O O17 0.750000 0.250000 0.456792
O O18 0.757507 0.359022 0.540966
O O19 0.000000 0.327186 0.461874
O O20 0.750000 0.750000 0.615370
O O21 0.000000 0.831073 0.611486
#
# Coordination Sequence:
#
# PCOD9350350 Si02
#       7
#     8   8   8   8   8   8   8
#     4   9  18  32  51  73  95 125 164 203 244 291
#     4  10  20  34  54  79 103 129 165 207 250 296
#     4  10  21  36  52  72 102 137 169 203 247 297
#     4   9  18  33  54  76  98 126 160 201 243 286
#     4   9  18  32  49  70  97 130 165 197 234 283
#     4  10  18  29  49  73  96 124 159 200 242 286
#     4   9  16  28  47  71  97 123 157 201 244 287
#
# _framework density 18.572288
#
# number of rings (size 3 to 8) (size 9 to 14) (size 15 to 20)
#    0.000    2.571    0.000    3.000    0.000    3.714 
#    0.000    2.857    0.000    4.714    0.000    0.000 
#    0.000    0.000    0.000    0.000    0.000    0.000 
#
# Total GULP energy -156137.165302 kJ/mol
# GULP energy per Si atom -5576.327332 kJ/mol
# Density = 1.853002 g / cm^3
# Si number density = 18.572288 Si / 1000 Ang^3
#
#
#
# Elastic Constant Matrix: (Units=GPa)
#
#
# Indices 1 2 3 4 5 6 
#
# 1 16.3866 14.4724 18.7306 0.0000 0.0000 0.0000
# 2 14.4724 125.6708 113.4006 0.0000 0.0000 0.0000
# 3 18.7306 113.4006 167.1923 0.0000 0.0000 0.0000
# 4 0.0000 0.0000 0.0000 -2.2878 0.0000 0.0000
# 5 0.0000 0.0000 0.0000 0.0000 95.0104 0.0000
# 6 0.0000 0.0000 0.0000 0.0000 0.0000 17.1797
#
#
#
# Elastic Compliance Matrix: (Units=1/GPa)
#
#
# Indices 1 2 3 4 5 6 
#
# 1 0.070303 -0.002550 -0.006147 0.000000 0.000000 0.000000
# 2 -0.002550 0.020603 -0.013689 0.000000 0.000000 0.000000
# 3 -0.006147 -0.013689 0.015954 0.000000 0.000000 0.000000
# 4 0.000000 0.000000 0.000000 -0.437108 0.000000 0.000000
# 5 0.000000 0.000000 0.000000 0.000000 0.010525 0.000000
# 6 0.000000 0.000000 0.000000 0.000000 0.000000 0.058208
#
#
# Mechanical properties :
#
#
# Convention : Reuss Voigt Hill
#
# Bulk Modulus (GPa) = 16.10556 66.93964 41.52260
# Shear Modulus (GPa) = -25.50408 32.82356 3.65974
#
# Velocity S-wave (km/s) = -3.70974 4.20854 1.40528
# Velocity P-wave (km/s) = 3.10787 7.72895 5.00389
#
# Compressibility (1/GPa) = 0.06209034
#
# Stress axis : x y z
#
# Youngs Moduli (GPa) = 14.22414 48.53648 62.67900
#
# Poissons Ratio (x) = 0.12375 0.38527
# Poissons Ratio (y) = 0.03627 0.85799
# Poissons Ratio (z) = 0.08743 0.66440
#
# Static dielectric constant tensor:
#      x y z
#    x 1.639600 0.000000 0.000000 
#    y 0.000000 1.599530 0.000000 
#    z 0.000000 0.000000 1.675430 
# 
# From -- ./inp_files/18220.got.cif
#   From: 2010.05.17/outbox.cif.g08.bks.cpg/sg35_10_cif.got.tgz:18220.got - 2010.06.03 17:29:28.
