data_PCOD9350849
_publ_section_title
;
Structure prediction by ZEFSAII (Michael W. Deem and Ramdas Pophale) SiO2 
 PCOD9350849
Probable space group: C M C 21
;
_chemical_formula_sum "Si O2"
_cell_formula_units_Z 64
_cell_length_a 9.140650
_cell_length_b 20.568155
_cell_length_c 20.243333
_cell_angle_alpha 90.000000
_cell_angle_beta 90.000000
_cell_angle_gamma 90.000000
_cell_volume 3805.874258
_symmetry_space_group_name_H-M "C M C 21"
_symmetry_group_IT_number 36
_symmetry_cell_setting 'orthorhombic'
loop_
_space_group_symop_operation_xyz
x,y,z
-x,-y,1/2+z
x,-y,1/2+z
-x,y,z
1/2+x,1/2+y,z
1/2-x,1/2-y,1/2+z
1/2+x,1/2-y,1/2+z
1/2-x,1/2+y,z
loop_
_atom_site_type_symbol
_atom_site_label
_atom_site_fract_x
_atom_site_fract_y
_atom_site_fract_z
Si Si1 0.826664 0.842377 0.970560
Si Si2 0.824598 0.302012 0.497639
Si Si3 0.824581 0.978202 0.344263
Si Si4 0.323798 0.581070 0.232145
Si Si5 0.325784 0.669647 0.858371
Si Si6 0.175007 0.523827 0.479870
Si Si7 0.174446 0.202662 0.319956
Si Si8 0.824658 0.581513 0.091475
O O1 0.798409 0.828278 0.892686
O O2 0.000000 0.855695 0.977357
O O3 0.735143 0.904074 0.993017
O O4 0.792238 0.774312 0.006672
O O5 0.743378 0.325223 0.431534
O O6 0.786803 0.349370 0.557618
O O7 0.000000 0.307121 0.485766
O O8 0.793939 0.902323 0.331419
O O9 0.745761 0.999818 0.411364
O O10 0.000000 0.985597 0.354023
O O11 0.781648 0.024541 0.283767
O O12 0.500000 0.580005 0.226587
O O13 0.282217 0.649918 0.265478
O O14 0.252790 0.572745 0.161088
O O15 0.500000 0.677612 0.862503
O O16 0.256975 0.728979 0.817563
O O17 0.214856 0.474158 0.538469
O O18 0.000000 0.524070 0.473575
O O19 0.000000 0.213720 0.316011
O O20 0.000000 0.579695 0.100270
#
# Coordination Sequence:
#
# PCOD9350849 Si02
#       8
#     8   8   8   8   8   8   8   8
#     4   9  17  32  55  78 104 138 175 218 265 317
#     4   9  18  35  54  74 107 144 174 214 269 325
#     4  10  20  36  55  79 110 142 182 226 267 322
#     4  10  21  38  57  77 105 147 188 222 268 329
#     4  10  19  30  53  84 108 132 174 228 267 307
#     4  11  21  33  54  82 111 141 177 227 277 319
#     4   9  18  34  54  76 107 142 174 216 270 325
#     4  10  22  38  54  78 110 144 182 225 275 328
#
# _framework density 16.816109000000001
#
# number of rings (size 3 to 8) (size 9 to 14) (size 15 to 20)
#    0.000    2.250    2.500    1.500    0.000    5.000 
#    0.000    1.250    0.000    7.500    0.000    0.000 
#    0.000    0.000    0.000    0.000    0.000    0.000 
#
# Total GULP energy -178512.997386 kJ/mol
# GULP energy per Si atom -5578.531168 kJ/mol
# Density = 1.677783 g / cm^3
# Si number density = 16.816109 Si / 1000 Ang^3
#
#
#
# Elastic Constant Matrix: (Units=GPa)
#
#
# Indices 1 2 3 4 5 6 
#
# 1 33.2016 60.2467 46.0758 0.0000 0.0000 0.0000
# 2 60.2467 163.9721 89.0289 0.0000 0.0000 0.0000
# 3 46.0758 89.0289 124.8708 0.0000 0.0000 0.0000
# 4 0.0000 0.0000 0.0000 24.5141 0.0000 0.0000
# 5 0.0000 0.0000 0.0000 0.0000 28.4872 0.0000
# 6 0.0000 0.0000 0.0000 0.0000 0.0000 30.3851
#
#
#
# Elastic Compliance Matrix: (Units=1/GPa)
#
#
# Indices 1 2 3 4 5 6 
#
# 1 0.114524 -0.031220 -0.019999 0.000000 0.000000 0.000000
# 2 -0.031220 0.018461 -0.001643 0.000000 0.000000 0.000000
# 3 -0.019999 -0.001643 0.016559 0.000000 0.000000 0.000000
# 4 0.000000 0.000000 0.000000 0.040793 0.000000 0.000000
# 5 0.000000 0.000000 0.000000 0.000000 0.035103 0.000000
# 6 0.000000 0.000000 0.000000 0.000000 0.000000 0.032911
#
#
# Mechanical properties :
#
#
# Convention : Reuss Voigt Hill
#
# Bulk Modulus (GPa) = 22.82021 79.19415 51.00718
# Shear Modulus (GPa) = 13.20373 25.12349 19.16361
#
# Velocity S-wave (km/s) = 2.80515 3.86944 3.37946
# Velocity P-wave (km/s) = 4.90833 8.19511 6.75469
#
# Compressibility (1/GPa) = 0.04382082
#
# Stress axis : x y z
#
# Youngs Moduli (GPa) = 8.73181 54.16749 60.39102
#
# Poissons Ratio (x) = 1.69110 1.20776
# Poissons Ratio (y) = 0.27261 0.09919
# Poissons Ratio (z) = 0.17463 0.08897
#
# Static dielectric constant tensor:
#      x y z
#    x 1.560570 0.000000 0.000000 
#    y 0.000000 1.586180 0.000000 
#    z 0.000000 0.000000 1.532030 
# 
# From -- ./inp_files/13950.got.cif
#   From: 2010.05.17/outbox.cif.g08.bks.cpg/sg36_7_cif.got.tgz:13950.got - 2010.06.03 17:41:39.
