data_PCOD9350524
_publ_section_title
;
Structure prediction by ZEFSAII (Michael W. Deem and Ramdas Pophale) SiO2 
 PCOD9350524
Probable space group: C M C 21
;
_chemical_formula_sum "Si O2"
_cell_formula_units_Z 40
_cell_length_a 23.174370
_cell_length_b 8.863294
_cell_length_c 7.894762
_cell_angle_alpha 90.000000
_cell_angle_beta 90.000000
_cell_angle_gamma 90.000000
_cell_volume 1621.594019
_symmetry_space_group_name_H-M "C M C 21"
_symmetry_group_IT_number 36
_symmetry_cell_setting 'orthorhombic'
loop_
_space_group_symop_operation_xyz
x,y,z
-x,-y,1/2+z
x,-y,1/2+z
-x,y,z
1/2+x,1/2+y,z
1/2-x,1/2-y,1/2+z
1/2+x,1/2-y,1/2+z
1/2-x,1/2+y,z
loop_
_atom_site_type_symbol
_atom_site_label
_atom_site_fract_x
_atom_site_fract_y
_atom_site_fract_z
Si Si1 0.876461 0.681293 0.116860
Si Si2 0.500000 0.477663 0.328302
Si Si3 0.873228 0.042803 0.830193
Si Si4 0.000000 0.253754 0.516663
Si Si5 0.311476 0.759522 0.306779
Si Si6 0.189542 0.314693 0.934673
O O1 0.871613 0.862407 0.153716
O O2 0.941384 0.654759 0.053448
O O3 0.859460 0.625613 0.304797
O O4 0.829473 0.647458 0.973583
O O5 0.562352 0.431998 0.401571
O O6 0.500000 0.660747 0.340222
O O7 0.500000 0.386053 0.151487
O O8 0.825404 0.133741 0.934459
O O9 0.859685 0.870395 0.796714
O O10 0.251121 0.677213 0.344718
O O11 0.308956 0.850556 0.132349
#
# Coordination Sequence:
#
# PCOD9350524 Si02
#       6
#     8   4   8   4   8   8
#     4   9  20  32  44  73  95 130 163 197 243 287
#     4  10  18  26  48  68  98 130 160 190 238 294
#     4   9  20  32  47  73 100 132 162 200 239 286
#     4  10  18  30  44  68 104 124 164 200 238 304
#     4  12  18  34  47  65 101 129 169 201 243 292
#     4  10  22  30  48  69  93 138 161 205 242 291
#
# _framework density 24.667088
#
# number of rings (size 3 to 8) (size 9 to 14) (size 15 to 20)
#    1.200    0.800    4.000    1.200    2.800    0.000 
#    0.000    0.000    0.000    0.000    0.000    0.000 
#    0.000    6.400    0.000    0.000    0.000    0.000 
#
# Total GULP energy -111447.663849 kJ/mol
# GULP energy per Si atom -5572.383192 kJ/mol
# Density = 2.461094 g / cm^3
# Si number density = 24.667088 Si / 1000 Ang^3
#
#
#
# Elastic Constant Matrix: (Units=GPa)
#
#
# Indices 1 2 3 4 5 6 
#
# 1 135.0019 -6.2019 33.9836 0.0000 0.0000 0.0000
# 2 -6.2019 50.3987 4.1683 0.0000 0.0000 0.0000
# 3 33.9836 4.1683 137.4799 0.0000 0.0000 0.0000
# 4 0.0000 0.0000 0.0000 33.5560 0.0000 0.0000
# 5 0.0000 0.0000 0.0000 0.0000 35.9104 0.0000
# 6 0.0000 0.0000 0.0000 0.0000 0.0000 13.1430
#
#
#
# Elastic Compliance Matrix: (Units=1/GPa)
#
#
# Indices 1 2 3 4 5 6 
#
# 1 0.007964 0.001146 -0.002003 0.000000 0.000000 0.000000
# 2 0.001146 0.020056 -0.000891 0.000000 0.000000 0.000000
# 3 -0.002003 -0.000891 0.007796 0.000000 0.000000 0.000000
# 4 0.000000 0.000000 0.000000 0.029801 0.000000 0.000000
# 5 0.000000 0.000000 0.000000 0.000000 0.027847 0.000000
# 6 0.000000 0.000000 0.000000 0.000000 0.000000 0.076086
#
#
# Mechanical properties :
#
#
# Convention : Reuss Voigt Hill
#
# Bulk Modulus (GPa) = 30.94173 42.97561 36.95867
# Shear Modulus (GPa) = 27.20026 35.91725 31.55875
#
# Velocity S-wave (km/s) = 3.32429 3.82000 3.58073
# Velocity P-wave (km/s) = 5.22546 6.07590 5.66666
#
# Compressibility (1/GPa) = 0.03231882
#
# Stress axis : x y z
#
# Youngs Moduli (GPa) = 125.56113 49.85915 128.27031
#
# Poissons Ratio (x) = -0.05713 0.25698
# Poissons Ratio (y) = -0.14386 0.11433
# Poissons Ratio (z) = 0.25155 0.04444
#
# Static dielectric constant tensor:
#      x y z
#    x 1.919590 0.000000 0.000000 
#    y 0.000000 2.126070 0.000000 
#    z 0.000000 0.000000 2.095290 
# 
# From -- ./inp_files/5114.got.cif
#   From: 2010.05.17/outbox.cif.g08.bks.cpg/sg36_3_cif.got.tgz:5114.got - 2010.06.03 17:41:39.
