data_PCOD9350312
_publ_section_title
;
Structure prediction by ZEFSAII (Michael W. Deem and Ramdas Pophale) SiO2 
 PCOD9350312
Probable space group: C M M 2
;
_chemical_formula_sum "Si O2"
_cell_formula_units_Z 64
_cell_length_a 15.118163
_cell_length_b 28.975337
_cell_length_c 8.002625
_cell_angle_alpha 90.000000
_cell_angle_beta 90.000000
_cell_angle_gamma 90.000000
_cell_volume 3505.580833
_symmetry_space_group_name_H-M "C M M 2"
_symmetry_group_IT_number 35
_symmetry_cell_setting 'orthorhombic'
loop_
_space_group_symop_operation_xyz
x,y,z
-x,-y,z
-x,y,z
x,-y,z
1/2+x,1/2+y,z
1/2-x,1/2-y,z
1/2-x,1/2+y,z
1/2+x,1/2-y,z
loop_
_atom_site_type_symbol
_atom_site_label
_atom_site_fract_x
_atom_site_fract_y
_atom_site_fract_z
Si Si1 0.280907 0.363130 0.368780
Si Si2 0.213153 0.861378 0.769395
Si Si3 0.596134 0.169707 0.867395
Si Si4 0.400432 0.826312 0.262763
Si Si5 0.150362 0.766403 0.723302
Si Si6 0.900156 0.778820 0.347881
Si Si7 0.898763 0.947444 0.368569
Si Si8 0.102023 0.948006 0.776599
O O1 0.294583 0.361386 0.568366
O O2 0.177218 0.357529 0.336007
O O3 0.332062 0.318520 0.296832
O O4 0.328500 0.409734 0.308871
O O5 0.316842 0.856664 0.806357
O O6 0.163651 0.814084 0.823329
O O7 0.166132 0.907274 0.834833
O O8 0.500000 0.154195 0.801920
O O9 0.608013 0.223591 0.819054
O O10 0.595876 0.165620 0.066010
O O11 0.500000 0.833102 0.332836
O O12 0.376365 0.772600 0.290285
O O13 0.250000 0.750000 0.677473
O O14 0.101370 0.775866 0.549955
O O15 0.000000 0.789402 0.291862
O O16 0.896447 0.947837 0.572541
O O17 0.000000 0.935178 0.322184
O O18 0.881163 0.000000 0.313716
O O19 0.000000 0.939405 0.825329
O O20 0.126464 0.000000 0.829701
#
# Coordination Sequence:
#
# PCOD9350312 Si02
#       8
#     8   8   8   8   8   8   8   8
#     4  10  18  29  47  70  94 118 150 186 222 264
#     4   9  18  29  46  72  93 117 151 185 221 265
#     4  10  20  33  46  62  88 122 157 190 225 265
#     4  10  21  33  45  62  87 122 159 191 225 265
#     4   9  17  28  43  66  93 121 151 183 220 261
#     4  10  18  28  44  67  94 122 150 182 221 264
#     4   8  14  26  46  73 100 121 143 176 221 270
#     4   8  14  26  46  72  99 121 142 176 222 269
#
# _framework density 18.256602999999998
#
# number of rings (size 3 to 8) (size 9 to 14) (size 15 to 20)
#    0.000    2.750    0.000    4.125    0.000    8.000 
#    0.000    0.000    0.000    3.000    0.000    7.000 
#    0.000    0.000    0.000    0.000    0.000    0.000 
#
# Total GULP energy -178383.072850 kJ/mol
# GULP energy per Si atom -5574.471027 kJ/mol
# Density = 1.821505 g / cm^3
# Si number density = 18.256603 Si / 1000 Ang^3
#
#
#
# Elastic Constant Matrix: (Units=GPa)
#
#
# Indices 1 2 3 4 5 6 
#
# 1 117.5987 90.9747 -3.5061 0.0000 0.0000 0.0000
# 2 90.9747 128.0941 2.5732 0.0000 0.0000 0.0000
# 3 -3.5061 2.5732 7.8171 0.0000 0.0000 0.0000
# 4 0.0000 0.0000 0.0000 -15.4879 0.0000 0.0000
# 5 0.0000 0.0000 0.0000 0.0000 -9.1878 0.0000
# 6 0.0000 0.0000 0.0000 0.0000 0.0000 31.1982
#
#
#
# Elastic Compliance Matrix: (Units=1/GPa)
#
#
# Indices 1 2 3 4 5 6 
#
# 1 0.020274 -0.014679 0.013925 0.000000 0.000000 0.000000
# 2 -0.014679 0.018486 -0.012669 0.000000 0.000000 0.000000
# 3 0.013925 -0.012669 0.138340 0.000000 0.000000 0.000000
# 4 0.000000 0.000000 0.000000 -0.064567 0.000000 0.000000
# 5 0.000000 0.000000 0.000000 0.000000 -0.108840 0.000000
# 6 0.000000 0.000000 0.000000 0.000000 0.000000 0.032053
#
#
# Mechanical properties :
#
#
# Convention : Reuss Voigt Hill
#
# Bulk Modulus (GPa) = 6.65532 48.17707 27.41620
# Shear Modulus (GPa) = 44.37404 12.20237 28.28820
#
# Velocity S-wave (km/s) = 4.93543 2.58811 3.94061
# Velocity P-wave (km/s) = 6.01094 5.94788 5.97949
#
# Compressibility (1/GPa) = 0.15025570
#
# Stress axis : x y z
#
# Youngs Moduli (GPa) = 49.32345 54.09354 7.22856
#
# Poissons Ratio (x) = 0.79404 -0.10066
# Poissons Ratio (y) = 0.72402 0.09158
# Poissons Ratio (z) = -0.68684 0.68531
#
# Static dielectric constant tensor:
#      x y z
#    x 1.673520 0.000000 0.000000 
#    y 0.000000 1.633840 0.000000 
#    z 0.000000 0.000000 1.647330 
# 
# From -- ./inp_files/7987.got.cif
#   From: 2010.05.17/outbox.cif.g08.bks.cpg/sg35_4_cif.got.tgz:7987.got - 2010.06.03 17:29:28.
