data_PCOD9350832
_publ_section_title
;
Structure prediction by ZEFSAII (Michael W. Deem and Ramdas Pophale) SiO2 
 PCOD9350832
Probable space group: C M C 21
;
_chemical_formula_sum "Si O2"
_cell_formula_units_Z 56
_cell_length_a 30.735288
_cell_length_b 13.664208
_cell_length_c 7.390914
_cell_angle_alpha 90.000000
_cell_angle_beta 90.000000
_cell_angle_gamma 90.000000
_cell_volume 3103.987046
_symmetry_space_group_name_H-M "C M C 21"
_symmetry_group_IT_number 36
_symmetry_cell_setting 'orthorhombic'
loop_
_space_group_symop_operation_xyz
x,y,z
-x,-y,1/2+z
x,-y,1/2+z
-x,y,z
1/2+x,1/2+y,z
1/2-x,1/2-y,1/2+z
1/2+x,1/2-y,1/2+z
1/2-x,1/2+y,z
loop_
_atom_site_type_symbol
_atom_site_label
_atom_site_fract_x
_atom_site_fract_y
_atom_site_fract_z
Si Si1 0.595389 0.357258 0.832350
Si Si2 0.000000 0.918679 0.426232
Si Si3 0.224551 0.633069 0.265321
Si Si4 0.728844 0.912648 0.343482
Si Si5 0.406454 0.583254 0.909631
Si Si6 0.000000 0.856098 0.846276
Si Si7 0.185566 0.220661 0.262600
Si Si8 0.319309 0.330918 0.347659
O O1 0.593420 0.376778 0.614907
O O2 0.548102 0.312673 0.885433
O O3 0.640107 0.298036 0.863381
O O4 0.599024 0.466248 0.914126
O O5 0.045606 0.892660 0.333618
O O6 0.000000 0.876737 0.629320
O O7 0.000000 0.036439 0.436743
O O8 0.215205 0.524924 0.335885
O O9 0.270845 0.671313 0.344568
O O10 0.190415 0.719466 0.295522
O O11 0.228141 0.621175 0.050501
O O12 0.698092 0.834880 0.242197
O O13 0.778875 0.896876 0.280173
O O14 0.366460 0.628506 0.800185
O O15 0.181640 0.171209 0.066225
#
# Coordination Sequence:
#
# PCOD9350832 Si02
#       8
#     8   4   8   8   8   4   8   8
#     4   9  16  26  41  61  86 113 139 168 201 240
#     4   8  14  24  38  58  83 110 137 164 199 240
#     4  10  19  30  44  61  83 110 139 172 206 241
#     4  10  19  30  44  61  83 110 139 172 206 241
#     4   9  16  26  41  61  86 113 139 168 201 240
#     4   8  14  24  38  58  83 110 137 164 199 240
#     4   9  18  30  43  61  84 111 141 169 201 242
#     4   9  18  30  43  61  84 111 141 169 201 242
#
# _framework density 18.041312000000001
#
# number of rings (size 3 to 8) (size 9 to 14) (size 15 to 20)
#    0.000    2.857    0.000    1.714    0.000    2.286 
#    0.000    0.000    0.000    0.000    0.000    1.000 
#    0.000    0.000    0.000    0.000    0.000    0.000 
#
# Total GULP energy -155993.733988 kJ/mol
# GULP energy per Si atom -5571.204785 kJ/mol
# Density = 1.800025 g / cm^3
# Si number density = 18.041312 Si / 1000 Ang^3
#
#
#
# Elastic Constant Matrix: (Units=GPa)
#
#
# Indices 1 2 3 4 5 6 
#
# 1 157.5039 48.7344 1.7451 0.0000 0.0000 0.0000
# 2 48.7344 64.4028 -14.2791 0.0000 0.0000 0.0000
# 3 1.7451 -14.2791 26.9223 0.0000 0.0000 0.0000
# 4 0.0000 0.0000 0.0000 18.9769 0.0000 0.0000
# 5 0.0000 0.0000 0.0000 0.0000 4.1001 0.0000
# 6 0.0000 0.0000 0.0000 0.0000 0.0000 24.8753
#
#
#
# Elastic Compliance Matrix: (Units=1/GPa)
#
#
# Indices 1 2 3 4 5 6 
#
# 1 0.008772 -0.007666 -0.004634 0.000000 0.000000 0.000000
# 2 -0.007666 0.024295 0.013383 0.000000 0.000000 0.000000
# 3 -0.004634 0.013383 0.044542 0.000000 0.000000 0.000000
# 4 0.000000 0.000000 0.000000 0.052696 0.000000 0.000000
# 5 0.000000 0.000000 0.000000 0.000000 0.243897 0.000000
# 6 0.000000 0.000000 0.000000 0.000000 0.000000 0.040201
#
#
# Mechanical properties :
#
#
# Convention : Reuss Voigt Hill
#
# Bulk Modulus (GPa) = 12.53527 35.69218 24.11373
# Shear Modulus (GPa) = 11.39396 23.76570 17.57983
#
# Velocity S-wave (km/s) = 2.51579 3.63339 3.12496
# Velocity P-wave (km/s) = 3.92455 6.11789 5.13959
#
# Compressibility (1/GPa) = 0.07977490
#
# Stress axis : x y z
#
# Youngs Moduli (GPa) = 113.99568 41.16060 22.45062
#
# Poissons Ratio (x) = 0.31552 0.10404
# Poissons Ratio (y) = 0.87384 -0.30045
# Poissons Ratio (z) = 0.52829 -0.55084
#
# Static dielectric constant tensor:
#      x y z
#    x 1.698030 0.000000 0.000000 
#    y 0.000000 1.590090 0.000000 
#    z 0.000000 0.000000 1.699780 
# 
# From -- ./inp_files/6059.got.cif
#   From: 2010.05.17/outbox.cif.g08.bks.cpg/sg36_4_cif.got.tgz:6059.got - 2010.06.03 17:41:39.
