data_PCOD9350175
_publ_section_title
;
Structure prediction by ZEFSAII (Michael W. Deem and Ramdas Pophale) SiO2 
 PCOD9350175
Probable space group: C M M 2
;
_chemical_formula_sum "Si O2"
_cell_formula_units_Z 32
_cell_length_a 30.000000
_cell_length_b 9.000000
_cell_length_c 12.000000
_cell_angle_alpha 90.000000
_cell_angle_beta 90.000000
_cell_angle_gamma 90.000000
_cell_volume 3240.000000
_symmetry_space_group_name_H-M "C M M 2"
_symmetry_group_IT_number 35
_symmetry_cell_setting 'orthorhombic'
loop_
_space_group_symop_operation_xyz
x,y,z
-x,-y,z
-x,y,z
x,-y,z
1/2+x,1/2+y,z
1/2-x,1/2-y,z
1/2-x,1/2+y,z
1/2+x,1/2-y,z
loop_
_atom_site_type_symbol
_atom_site_label
_atom_site_fract_x
_atom_site_fract_y
_atom_site_fract_z
Si Si1 0.889802 0.829730 0.938920
Si Si2 0.701947 0.176178 0.493164
Si Si3 0.050478 0.823559 0.350855
Si Si4 0.201201 0.676722 0.237984
Si Si5 0.949037 0.672210 0.114917
Si Si6 0.798135 0.175747 0.016254
Si Si7 0.107914 0.675860 0.536122
Si Si8 0.448215 0.669425 0.717620
O O1 0.837204 0.796838 0.927077
O O2 0.917989 0.825585 0.826780
O O3 0.892382 0.000000 0.982639
O O4 0.914067 0.720417 0.023173
O O5 0.750000 0.250000 0.511854
O O6 0.686194 0.200660 0.364472
O O7 0.658661 0.227335 0.561709
O O8 0.708671 0.000000 0.507193
O O9 0.056144 0.770100 0.224810
O O10 0.087352 0.750244 0.427262
O O11 0.000000 0.778839 0.386455
O O12 0.053309 0.000000 0.357628
O O13 0.202354 0.500000 0.218158
O O14 0.250000 0.750000 0.238837
O O15 0.180952 0.758525 0.131346
O O16 0.943570 0.500000 0.145592
O O17 0.000000 0.692979 0.073438
O O18 0.750000 0.250000 0.994755
O O19 0.790729 0.000000 0.028461
O O20 0.110200 0.500000 0.519925
O O21 0.073610 0.718758 0.631789
O O22 0.500000 0.700577 0.741395
O O23 0.445960 0.500000 0.671797
#
# Coordination Sequence:
#
# PCOD9350175 Si02
#       8
#     8   8   8   8   8   8   8   8
#     4  10  22  39  60  85 113 150 197 242 288 346
#     4   9  20  36  54  80 114 152 191 234 284 339
#     4  10  21  37  57  83 116 154 194 233 282 348
#     4   9  16  29  49  74 107 147 186 226 274 329
#     4  10  21  36  56  85 119 151 185 232 293 353
#     4  10  20  34  53  81 114 150 192 235 284 338
#     4  11  23  38  58  87 119 150 191 242 297 348
#     4  10  22  42  65  86 111 149 197 245 292 347
#
# _framework density 9.8765429999999999
#
# number of rings (size 3 to 8) (size 9 to 14) (size 15 to 20)
#    0.000    2.125    0.000    3.375    1.750    6.750 
#    0.000    0.625    0.000    3.000    0.000    0.000 
#    0.000    0.000    0.000    0.000    0.000    0.000 
#
# Total GULP energy -178423.194805 kJ/mol
# GULP energy per Si atom -5575.724838 kJ/mol
# Density = 0.985406 g / cm^3
# Si number density = 9.876543 Si / 1000 Ang^3
#
#
#
# Elastic Constant Matrix: (Units=GPa)
#
#
# Indices 1 2 3 4 5 6 
#
# 1 91.5103 45.8705 25.7847 0.0000 0.0000 0.0000
# 2 45.8705 60.8023 19.2087 0.0000 0.0000 0.0000
# 3 25.7847 19.2087 12.5611 0.0000 0.0000 0.0000
# 4 0.0000 0.0000 0.0000 32.4188 0.0000 0.0000
# 5 0.0000 0.0000 0.0000 0.0000 28.2141 0.0000
# 6 0.0000 0.0000 0.0000 0.0000 0.0000 23.1105
#
#
#
# Elastic Compliance Matrix: (Units=1/GPa)
#
#
# Indices 1 2 3 4 5 6 
#
# 1 0.026837 -0.005499 -0.046681 0.000000 0.000000 0.000000
# 2 -0.005499 0.032946 -0.039092 0.000000 0.000000 0.000000
# 3 -0.046681 -0.039092 0.235215 0.000000 0.000000 0.000000
# 4 0.000000 0.000000 0.000000 0.030846 0.000000 0.000000
# 5 0.000000 0.000000 0.000000 0.000000 0.035443 0.000000
# 6 0.000000 0.000000 0.000000 0.000000 0.000000 0.043270
#
#
# Mechanical properties :
#
#
# Convention : Reuss Voigt Hill
#
# Bulk Modulus (GPa) = 8.89257 38.51126 23.70191
# Shear Modulus (GPa) = 8.00529 21.68268 14.84399
#
# Velocity S-wave (km/s) = 2.01531 3.31673 2.74428
# Velocity P-wave (km/s) = 3.15070 5.84861 4.69751
#
# Compressibility (1/GPa) = 0.11245345
#
# Stress axis : x y z
#
# Youngs Moduli (GPa) = 37.26133 30.35307 4.25143
#
# Poissons Ratio (x) = 0.16692 0.19846
# Poissons Ratio (y) = 0.20491 0.16620
# Poissons Ratio (z) = 1.73938 1.18657
#
# Static dielectric constant tensor:
#      x y z
#    x 1.718260 0.000000 0.000000 
#    y 0.000000 1.671380 0.000000 
#    z 0.000000 0.000000 1.762720 
# 
# From -- ./inp_files/14543.got.cif
#   From: 2010.05.17/outbox.ucp.g08.bks.cvg/sg35_8_cif.got.tgz:14543.got - 2010.06.11 10:36:28.
