data_PCOD9350303
_publ_section_title
;
Structure prediction by ZEFSAII (Michael W. Deem and Ramdas Pophale) SiO2 
 PCOD9350303
Probable space group: C M M 2
;
_chemical_formula_sum "Si O2"
_cell_formula_units_Z 56
_cell_length_a 7.306637
_cell_length_b 32.125714
_cell_length_c 10.577982
_cell_angle_alpha 90.000000
_cell_angle_beta 90.000000
_cell_angle_gamma 90.000000
_cell_volume 2482.979558
_symmetry_space_group_name_H-M "C M M 2"
_symmetry_group_IT_number 35
_symmetry_cell_setting 'orthorhombic'
loop_
_space_group_symop_operation_xyz
x,y,z
-x,-y,z
-x,y,z
x,-y,z
1/2+x,1/2+y,z
1/2-x,1/2-y,z
1/2-x,1/2+y,z
1/2+x,1/2-y,z
loop_
_atom_site_type_symbol
_atom_site_label
_atom_site_fract_x
_atom_site_fract_y
_atom_site_fract_z
Si Si1 0.717427 0.705495 0.643360
Si Si2 0.278507 0.408779 0.446422
Si Si3 0.276661 0.546364 0.202255
Si Si4 0.778122 0.185057 0.369717
Si Si5 0.281875 0.704004 0.091487
Si Si6 0.723517 0.385719 0.997401
Si Si7 0.776790 0.114524 0.719815
O O1 0.500000 0.700763 0.635743
O O2 0.750000 0.750000 0.705639
O O3 0.789072 0.705939 0.498987
O O4 0.781590 0.662940 0.706577
O O5 0.500000 0.410674 0.451317
O O6 0.218150 0.442642 0.345066
O O7 0.233815 0.363645 0.386994
O O8 0.215949 0.408656 0.591960
O O9 0.500000 0.547123 0.201597
O O10 0.219916 0.500000 0.165398
O O11 0.217791 0.582523 0.106315
O O12 0.711434 0.202360 0.236480
O O13 0.000000 0.188140 0.368027
O O14 0.500000 0.699549 0.096809
O O15 0.250000 0.750000 0.037000
O O16 0.216823 0.661956 0.023032
O O17 0.500000 0.385407 0.999591
O O18 0.780190 0.400256 0.857798
O O19 0.000000 0.113614 0.718221
#
# Coordination Sequence:
#
# PCOD9350303 Si02
#       7
#     8   8   8   8   8   8   8
#     4   9  16  25  38  56  78 106 144 181 210 247
#     4   8  12  22  37  53  73 100 134 170 206 248
#     4   9  15  23  38  58  79 106 140 175 212 257
#     4   8  13  23  38  55  76 105 139 175 213 251
#     4  10  18  27  41  60  84 115 149 180 213 252
#     4   9  16  27  39  55  81 111 139 172 214 257
#     4   8  15  25  38  52  72 105 139 167 205 255
#
# _framework density 22.553547999999999
#
# number of rings (size 3 to 8) (size 9 to 14) (size 15 to 20)
#    0.000    3.286    1.429    2.143    0.000    0.571 
#    0.000    0.714    0.000    4.286    0.000    0.000 
#    0.000    0.571    0.000    0.286    0.000    4.571 
#
# Total GULP energy -156198.472215 kJ/mol
# GULP energy per Si atom -5578.516865 kJ/mol
# Density = 2.250221 g / cm^3
# Si number density = 22.553548 Si / 1000 Ang^3
#
#
#
# Elastic Constant Matrix: (Units=GPa)
#
#
# Indices 1 2 3 4 5 6 
#
# 1 90.8874 -0.2872 3.0538 0.0000 0.0000 0.0000
# 2 -0.2872 112.0765 65.7828 0.0000 0.0000 0.0000
# 3 3.0538 65.7828 159.4414 0.0000 0.0000 0.0000
# 4 0.0000 0.0000 0.0000 -0.4370 0.0000 0.0000
# 5 0.0000 0.0000 0.0000 0.0000 -24.0195 0.0000
# 6 0.0000 0.0000 0.0000 0.0000 0.0000 4.7797
#
#
#
# Elastic Compliance Matrix: (Units=1/GPa)
#
#
# Indices 1 2 3 4 5 6 
#
# 1 0.011013 0.000201 -0.000294 0.000000 0.000000 0.000000
# 2 0.000201 0.011777 -0.004863 0.000000 0.000000 0.000000
# 3 -0.000294 -0.004863 0.008284 0.000000 0.000000 0.000000
# 4 0.000000 0.000000 0.000000 -2.288298 0.000000 0.000000
# 5 0.000000 0.000000 0.000000 0.000000 -0.041633 0.000000
# 6 0.000000 0.000000 0.000000 0.000000 0.000000 0.209216
#
#
# Mechanical properties :
#
#
# Convention : Reuss Voigt Hill
#
# Bulk Modulus (GPa) = 47.25402 55.50044 51.37723
# Shear Modulus (GPa) = -2.41234 15.65504 6.62135
#
# Velocity S-wave (km/s) = -1.03534 2.63749 1.71529
# Velocity P-wave (km/s) = 4.42359 5.82553 5.17228
#
# Compressibility (1/GPa) = 0.02116222
#
# Stress axis : x y z
#
# Youngs Moduli (GPa) = 90.80074 84.90928 120.71625
#
# Poissons Ratio (x) = -0.01703 0.03545
# Poissons Ratio (y) = -0.01822 0.58704
# Poissons Ratio (z) = 0.02667 0.41291
#
# Static dielectric constant tensor:
#      x y z
#    x 1.895980 0.000000 0.000000 
#    y 0.000000 1.810690 0.000000 
#    z 0.000000 0.000000 1.832350 
# 
# From -- ./inp_files/12570.got.cif
#   From: 2010.05.17/outbox.cif.g08.bks.cpg/sg35_7_cif.got.tgz:12570.got - 2010.06.03 17:29:28.
