data_PCOD9350871
_publ_section_title
;
Structure prediction by ZEFSAII (Michael W. Deem and Ramdas Pophale) SiO2 
 PCOD9350871
Probable space group: C M C 21
;
_chemical_formula_sum "Si O2"
_cell_formula_units_Z 52
_cell_length_a 25.713709
_cell_length_b 21.781664
_cell_length_c 5.054364
_cell_angle_alpha 90.000000
_cell_angle_beta 90.000000
_cell_angle_gamma 90.000000
_cell_volume 2830.885438
_symmetry_space_group_name_H-M "C M C 21"
_symmetry_group_IT_number 36
_symmetry_cell_setting 'orthorhombic'
loop_
_space_group_symop_operation_xyz
x,y,z
-x,-y,1/2+z
x,-y,1/2+z
-x,y,z
1/2+x,1/2+y,z
1/2-x,1/2-y,1/2+z
1/2+x,1/2-y,1/2+z
1/2-x,1/2+y,z
loop_
_atom_site_type_symbol
_atom_site_label
_atom_site_fract_x
_atom_site_fract_y
_atom_site_fract_z
Si Si1 0.940930 0.869921 0.766870
Si Si2 0.854735 0.043648 0.057660
Si Si3 0.000000 0.955618 0.108089
Si Si4 0.937469 0.342447 0.890806
Si Si5 0.937180 0.267563 0.389651
Si Si6 0.760259 0.458780 0.567298
Si Si7 0.127798 0.455994 0.686300
O O1 0.899575 0.907286 0.600263
O O2 0.952287 0.910896 0.029950
O O3 0.921452 0.801759 0.826078
O O4 0.000000 0.865328 0.647831
O O5 0.796437 0.070749 0.098073
O O6 0.859178 0.990960 0.280431
O O7 0.000000 0.009623 0.884660
O O8 0.924699 0.288426 0.684181
O O9 0.911236 0.403168 0.775202
O O10 0.000000 0.351099 0.896835
O O11 0.919568 0.318670 0.177714
O O12 0.000000 0.266950 0.371186
O O13 0.761653 0.481949 0.264304
O O14 0.813780 0.427575 0.658638
O O15 0.121683 0.490841 0.407643
#
# Coordination Sequence:
#
# PCOD9350871 Si02
#       7
#     8   8   4   8   8   8   8
#     4   9  20  33  49  70  97 134 162 205 232 287
#     4  10  19  31  48  71  98 126 157 199 245 285
#     4  10  20  30  44  70  98 120 152 200 244 270
#     4  10  20  33  52  70  98 126 159 198 231 286
#     4   9  19  35  47  68  93 134 171 189 227 278
#     4   8  16  30  47  68  95 125 155 185 232 296
#     4  10  19  32  52  77  99 122 151 192 246 292
#
# _framework density 18.36881
#
# number of rings (size 3 to 8) (size 9 to 14) (size 15 to 20)
#    0.462    2.154    0.000    1.846    0.000    3.077 
#    0.000    0.000    0.000    1.846    0.000    0.000 
#    0.000    0.000    0.000    0.000    0.000    0.000 
#
# Total GULP energy -144784.057356 kJ/mol
# GULP energy per Si atom -5568.617591 kJ/mol
# Density = 1.832700 g / cm^3
# Si number density = 18.368810 Si / 1000 Ang^3
#
#
#
# Elastic Constant Matrix: (Units=GPa)
#
#
# Indices 1 2 3 4 5 6 
#
# 1 53.0248 12.7573 -6.9216 0.0000 0.0000 0.0000
# 2 12.7573 47.5547 -14.1579 0.0000 0.0000 0.0000
# 3 -6.9216 -14.1579 53.3100 0.0000 0.0000 0.0000
# 4 0.0000 0.0000 0.0000 8.3841 0.0000 0.0000
# 5 0.0000 0.0000 0.0000 0.0000 16.6686 0.0000
# 6 0.0000 0.0000 0.0000 0.0000 0.0000 5.6561
#
#
#
# Elastic Compliance Matrix: (Units=1/GPa)
#
#
# Indices 1 2 3 4 5 6 
#
# 1 0.020241 -0.005047 0.001288 0.000000 0.000000 0.000000
# 2 -0.005047 0.024092 0.005743 0.000000 0.000000 0.000000
# 3 0.001288 0.005743 0.020451 0.000000 0.000000 0.000000
# 4 0.000000 0.000000 0.000000 0.119274 0.000000 0.000000
# 5 0.000000 0.000000 0.000000 0.000000 0.059993 0.000000
# 6 0.000000 0.000000 0.000000 0.000000 0.000000 0.176800
#
#
# Mechanical properties :
#
#
# Convention : Reuss Voigt Hill
#
# Bulk Modulus (GPa) = 14.54492 15.24944 14.89718
# Shear Modulus (GPa) = 11.36882 16.95587 14.16234
#
# Velocity S-wave (km/s) = 2.49051 3.04152 2.77970
# Velocity P-wave (km/s) = 4.02562 4.54470 4.29301
#
# Compressibility (1/GPa) = 0.06875252
#
# Stress axis : x y z
#
# Youngs Moduli (GPa) = 49.40375 41.50745 48.89822
#
# Poissons Ratio (x) = 0.20947 -0.06297
# Poissons Ratio (y) = 0.24932 -0.28082
# Poissons Ratio (z) = -0.06362 -0.23838
#
# Static dielectric constant tensor:
#      x y z
#    x 1.694390 0.000000 0.000000 
#    y 0.000000 1.607550 0.000000 
#    z 0.000000 0.000000 1.666660 
# 
# From -- ./inp_files/1759.got.cif
#   From: 2010.05.17/outbox.cif.g08.bks.cpg/sg36_1_cif.got.tgz:1759.got - 2010.06.03 17:41:39.
