data_PCOD9350799
_publ_section_title
;
Structure prediction by ZEFSAII (Michael W. Deem and Ramdas Pophale) SiO2 
 PCOD9350799
Probable space group: C M C 21
;
_chemical_formula_sum "Si O2"
_cell_formula_units_Z 64
_cell_length_a 7.572069
_cell_length_b 24.587363
_cell_length_c 15.574467
_cell_angle_alpha 90.000000
_cell_angle_beta 90.000000
_cell_angle_gamma 90.000000
_cell_volume 2899.610800
_symmetry_space_group_name_H-M "C M C 21"
_symmetry_group_IT_number 36
_symmetry_cell_setting 'orthorhombic'
loop_
_space_group_symop_operation_xyz
x,y,z
-x,-y,1/2+z
x,-y,1/2+z
-x,y,z
1/2+x,1/2+y,z
1/2-x,1/2-y,1/2+z
1/2+x,1/2-y,1/2+z
1/2-x,1/2+y,z
loop_
_atom_site_type_symbol
_atom_site_label
_atom_site_fract_x
_atom_site_fract_y
_atom_site_fract_z
Si Si1 0.717265 0.250925 0.305990
Si Si2 0.291623 0.183270 0.473076
Si Si3 0.698024 0.626431 0.821768
Si Si4 0.292510 0.233738 0.114428
Si Si5 0.786012 0.972352 0.613976
Si Si6 0.795210 0.367260 0.509350
Si Si7 0.287520 0.444562 0.969213
Si Si8 0.216613 0.991631 0.299031
O O1 0.500000 0.250655 0.308111
O O2 0.776841 0.215310 0.387927
O O3 0.776488 0.313768 0.311221
O O4 0.776352 0.231983 0.211498
O O5 0.500000 0.192249 0.474307
O O6 0.223734 0.210333 0.561369
O O7 0.259474 0.118924 0.467944
O O8 0.500000 0.629466 0.784306
O O9 0.781396 0.570518 0.790098
O O10 0.691955 0.618116 0.923889
O O11 0.500000 0.221685 0.122617
O O12 0.219200 0.186585 0.053462
O O13 0.716004 0.917144 0.573765
O O14 0.000000 0.970692 0.611269
O O15 0.728758 0.022858 0.554065
O O16 0.732768 0.978061 0.712404
O O17 0.000000 0.358247 0.484849
O O18 0.500000 0.446920 0.967934
O O19 0.224308 0.477367 0.884816
O O20 0.000000 0.988954 0.303014
#
# Coordination Sequence:
#
# PCOD9350799 Si02
#       8
#     8   8   8   8   8   8   8   8
#     4   9  20  37  61  85 110 152 196 234 282 342
#     4  11  23  39  59  86 118 151 192 237 285 340
#     4  10  18  37  64  83 107 145 197 244 279 331
#     4  10  22  40  60  84 115 154 194 232 285 346
#     4  10  21  38  61  84 111 149 195 237 278 333
#     4  11  22  36  58  86 118 149 186 235 290 340
#     4  10  21  38  58  82 115 152 189 232 285 340
#     4   9  19  35  59  88 108 142 197 241 276 328
#
# _framework density 22.071929000000001
#
# number of rings (size 3 to 8) (size 9 to 14) (size 15 to 20)
#    0.000    2.000    2.500    0.750    3.500    1.000 
#    0.000    2.500    0.000    0.000    0.000    0.000 
#    0.000    0.000    0.000    0.000    0.000    0.000 
#
# Total GULP energy -178697.849231 kJ/mol
# GULP energy per Si atom -5584.307788 kJ/mol
# Density = 2.202169 g / cm^3
# Si number density = 22.071929 Si / 1000 Ang^3
#
#
#
# Elastic Constant Matrix: (Units=GPa)
#
#
# Indices 1 2 3 4 5 6 
#
# 1 51.5014 -9.7913 1.3797 0.0000 0.0000 0.0000
# 2 -9.7913 80.4602 -18.6062 0.0000 0.0000 0.0000
# 3 1.3797 -18.6062 65.0331 0.0000 0.0000 0.0000
# 4 0.0000 0.0000 0.0000 22.1782 0.0000 0.0000
# 5 0.0000 0.0000 0.0000 0.0000 4.3885 0.0000
# 6 0.0000 0.0000 0.0000 0.0000 0.0000 -93.6101
#
#
#
# Elastic Compliance Matrix: (Units=1/GPa)
#
#
# Indices 1 2 3 4 5 6 
#
# 1 0.019882 0.002486 0.000290 0.000000 0.000000 0.000000
# 2 0.002486 0.013620 0.003844 0.000000 0.000000 0.000000
# 3 0.000290 0.003844 0.016470 0.000000 0.000000 0.000000
# 4 0.000000 0.000000 0.000000 0.045089 0.000000 0.000000
# 5 0.000000 0.000000 0.000000 0.000000 0.227871 0.000000
# 6 0.000000 0.000000 0.000000 0.000000 0.000000 -0.010683
#
#
# Mechanical properties :
#
#
# Convention : Reuss Voigt Hill
#
# Bulk Modulus (GPa) = 15.81972 15.88434 15.85203
# Shear Modulus (GPa) = 15.62106 1.52547 8.57327
#
# Velocity S-wave (km/s) = 2.66321 0.83225 1.97299
# Velocity P-wave (km/s) = 4.07920 2.85233 3.51963
#
# Compressibility (1/GPa) = 0.06321225
#
# Stress axis : x y z
#
# Youngs Moduli (GPa) = 50.29700 73.42150 60.71488
#
# Poissons Ratio (x) = -0.18256 -0.01758
# Poissons Ratio (y) = -0.12506 -0.23339
# Poissons Ratio (z) = -0.01456 -0.28223
#
# Static dielectric constant tensor:
#      x y z
#    x 1.888710 0.000000 0.000000 
#    y 0.000000 1.824710 0.000000 
#    z 0.000000 0.000000 1.786960 
# 
# From -- ./inp_files/11018.got.cif
#   From: 2010.05.17/outbox.cif.g08.bks.cpg/sg36_6_cif.got.tgz:11018.got - 2010.06.03 17:41:39.
