data_PCOD9350648
_publ_section_title
;
Structure prediction by ZEFSAII (Michael W. Deem and Ramdas Pophale) SiO2 
 PCOD9350648
Probable space group: C M C 21
;
_chemical_formula_sum "Si O2"
_cell_formula_units_Z 48
_cell_length_a 27.776761
_cell_length_b 13.124166
_cell_length_c 5.314917
_cell_angle_alpha 90.000000
_cell_angle_beta 90.000000
_cell_angle_gamma 90.000000
_cell_volume 1937.536103
_symmetry_space_group_name_H-M "C M C 21"
_symmetry_group_IT_number 36
_symmetry_cell_setting 'orthorhombic'
loop_
_space_group_symop_operation_xyz
x,y,z
-x,-y,1/2+z
x,-y,1/2+z
-x,y,z
1/2+x,1/2+y,z
1/2-x,1/2-y,1/2+z
1/2+x,1/2-y,1/2+z
1/2-x,1/2+y,z
loop_
_atom_site_type_symbol
_atom_site_label
_atom_site_fract_x
_atom_site_fract_y
_atom_site_fract_z
Si Si1 0.251093 0.633542 0.460300
Si Si2 0.097920 0.373307 0.331295
Si Si3 0.147654 0.941316 0.763721
Si Si4 0.791112 0.642058 0.968209
Si Si5 0.443160 0.104488 0.331915
Si Si6 0.948434 0.929923 0.909316
O O1 0.300529 0.599864 0.332277
O O2 0.238677 0.591460 0.737477
O O3 0.262037 0.752462 0.499616
O O4 0.209119 0.609287 0.260598
O O5 0.154277 0.354702 0.373169
O O6 0.068135 0.338662 0.573703
O O7 0.084364 0.495237 0.316747
O O8 0.078197 0.334838 0.066515
O O9 0.144323 0.965401 0.467790
O O10 0.102079 0.874712 0.855116
O O11 0.500000 0.085561 0.363631
O O12 0.000000 0.876351 0.886150
O O13 0.947609 0.014761 0.682005
#
# Coordination Sequence:
#
# PCOD9350648 Si02
#       6
#     8   8   8   8   8   8
#     4  10  21  38  52  72 101 144 175 219 262 312
#     4  10  18  32  50  77  99 136 181 214 249 309
#     4  10  19  33  50  78 103 129 163 206 270 306
#     4  10  21  37  55  70 101 142 189 210 253 312
#     4  10  19  33  53  79 113 139 169 213 272 323
#     4   8  14  25  44  66  91 120 151 186 234 300
#
# _framework density 24.77373
#
# number of rings (size 3 to 8) (size 9 to 14) (size 15 to 20)
#    0.000    2.333    0.000    4.500    0.000    0.000 
#   18.000    0.000    0.000    3.000    0.000    9.333 
#    0.000    0.000    0.000    0.000    0.000    0.000 
#
# Total GULP energy -133792.753517 kJ/mol
# GULP energy per Si atom -5574.698063 kJ/mol
# Density = 2.471734 g / cm^3
# Si number density = 24.773730 Si / 1000 Ang^3
#
#
#
# Elastic Constant Matrix: (Units=GPa)
#
#
# Indices 1 2 3 4 5 6 
#
# 1 107.9458 -20.2801 11.7583 0.0000 0.0000 0.0000
# 2 -20.2801 38.0525 10.7004 0.0000 0.0000 0.0000
# 3 11.7583 10.7004 134.2205 0.0000 0.0000 0.0000
# 4 0.0000 0.0000 0.0000 -2.4257 0.0000 0.0000
# 5 0.0000 0.0000 0.0000 0.0000 43.2461 0.0000
# 6 0.0000 0.0000 0.0000 0.0000 0.0000 34.4950
#
#
#
# Elastic Compliance Matrix: (Units=1/GPa)
#
#
# Indices 1 2 3 4 5 6 
#
# 1 0.010547 0.006016 -0.001404 0.000000 0.000000 0.000000
# 2 0.006016 0.030313 -0.002944 0.000000 0.000000 0.000000
# 3 -0.001404 -0.002944 0.007808 0.000000 0.000000 0.000000
# 4 0.000000 0.000000 0.000000 -0.412257 0.000000 0.000000
# 5 0.000000 0.000000 0.000000 0.000000 0.023123 0.000000
# 6 0.000000 0.000000 0.000000 0.000000 0.000000 0.028990
#
#
# Mechanical properties :
#
#
# Convention : Reuss Voigt Hill
#
# Bulk Modulus (GPa) = 19.22881 31.61955 25.42418
# Shear Modulus (GPa) = -16.80801 33.59910 8.39555
#
# Velocity S-wave (km/s) = -2.60755 3.68671 1.84289
# Velocity P-wave (km/s) = 1.13453 5.55999 3.84879
#
# Compressibility (1/GPa) = 0.05200529
#
# Stress axis : x y z
#
# Youngs Moduli (GPa) = 94.81387 32.98887 128.07278
#
# Poissons Ratio (x) = -0.19845 0.17976
# Poissons Ratio (y) = -0.57037 0.37700
# Poissons Ratio (z) = 0.13308 0.09711
#
# Static dielectric constant tensor:
#      x y z
#    x 1.984660 0.000000 0.000000 
#    y 0.000000 2.044240 0.000000 
#    z 0.000000 0.000000 2.071170 
# 
# From -- ./inp_files/1571.got.cif
#   From: 2010.05.17/outbox.cif.g08.bks.cpg/sg36_1_cif.got.tgz:1571.got - 2010.06.03 17:41:39.
