data_PCOD9350095
_publ_section_title
;
Structure prediction by ZEFSAII (Michael W. Deem and Ramdas Pophale) SiO2 
 PCOD9350095
Probable space group: C M M 2
;
_chemical_formula_sum "Si O2"
_cell_formula_units_Z 54
_cell_length_a 16.464767
_cell_length_b 15.380069
_cell_length_c 10.715513
_cell_angle_alpha 90.000000
_cell_angle_beta 90.000000
_cell_angle_gamma 90.000000
_cell_volume 2713.481347
_symmetry_space_group_name_H-M "C M M 2"
_symmetry_group_IT_number 35
_symmetry_cell_setting 'orthorhombic'
loop_
_space_group_symop_operation_xyz
x,y,z
-x,-y,z
-x,y,z
x,-y,z
1/2+x,1/2+y,z
1/2-x,1/2-y,z
1/2-x,1/2+y,z
1/2+x,1/2-y,z
loop_
_atom_site_type_symbol
_atom_site_label
_atom_site_fract_x
_atom_site_fract_y
_atom_site_fract_z
Si Si1 0.593780 0.344281 0.032210
Si Si2 0.339238 0.602169 0.301470
Si Si3 0.500000 0.000000 0.934825
Si Si4 0.874203 0.639480 0.025776
Si Si5 0.645876 0.099790 0.313535
Si Si6 0.226287 0.900445 0.858031
Si Si7 0.092173 0.245347 0.484219
Si Si8 0.750000 0.250000 0.660306
O O1 0.500000 0.367691 0.040293
O O2 0.636187 0.373392 0.160780
O O3 0.603016 0.240286 0.018793
O O4 0.636904 0.386960 0.913500
O O5 0.354034 0.500000 0.322010
O O6 0.242730 0.618178 0.319477
O O7 0.388872 0.662974 0.395495
O O8 0.430236 0.076403 0.945356
O O9 0.880136 0.610513 0.169652
O O10 0.784264 0.625677 0.973378
O O11 0.600142 0.169069 0.398021
O O12 0.631834 0.000000 0.351590
O O13 0.245837 0.834770 0.747360
O O14 0.239763 0.000000 0.822643
O O15 0.166981 0.250950 0.580638
O O16 0.000000 0.239977 0.534976
#
# Coordination Sequence:
#
# PCOD9350095 Si02
#       8
#     8   8   2   8   8   8   8   4
#     4  12  24  39  67 107 143 177 215 265 340 416
#     4  11  23  41  68 102 141 178 216 268 336 409
#     4  12  24  36  68 112 146 164 220 268 340 434
#     4  12  22  40  65 105 139 175 209 268 343 410
#     4  11  22  39  70 101 140 175 212 266 340 413
#     4  12  26  47  72  95 132 178 226 281 340 401
#     4  12  27  46  70  99 132 177 230 283 338 397
#     4  12  28  50  68  94 130 180 238 288 338 392
#
# _framework density 19.900635000000001
#
# number of rings (size 3 to 8) (size 9 to 14) (size 15 to 20)
#    0.000    0.296    8.148    0.889    1.037    4.148 
#    1.333    0.000    0.000    0.000    0.000    0.000 
#    0.000    0.000    0.000    0.000    0.000    0.000 
#
# Total GULP energy -150770.368236 kJ/mol
# GULP energy per Si atom -5584.087712 kJ/mol
# Density = 1.985534 g / cm^3
# Si number density = 19.900635 Si / 1000 Ang^3
#
#
#
# Elastic Constant Matrix: (Units=GPa)
#
#
# Indices 1 2 3 4 5 6 
#
# 1 115.5905 36.0250 29.7403 0.0000 0.0000 0.0000
# 2 36.0250 97.7085 45.6469 0.0000 0.0000 0.0000
# 3 29.7403 45.6469 74.2810 0.0000 0.0000 0.0000
# 4 0.0000 0.0000 0.0000 -15.0951 0.0000 0.0000
# 5 0.0000 0.0000 0.0000 0.0000 1149.9713 0.0000
# 6 0.0000 0.0000 0.0000 0.0000 0.0000 11.9990
#
#
#
# Elastic Compliance Matrix: (Units=1/GPa)
#
#
# Indices 1 2 3 4 5 6 
#
# 1 0.010085 -0.002570 -0.002459 0.000000 0.000000 0.000000
# 2 -0.002570 0.015011 -0.008195 0.000000 0.000000 0.000000
# 3 -0.002459 -0.008195 0.019483 0.000000 0.000000 0.000000
# 4 0.000000 0.000000 0.000000 -0.066247 0.000000 0.000000
# 5 0.000000 0.000000 0.000000 0.000000 0.000870 0.000000
# 6 0.000000 0.000000 0.000000 0.000000 0.000000 0.083340
#
#
# Mechanical properties :
#
#
# Convention : Reuss Voigt Hill
#
# Bulk Modulus (GPa) = 55.15426 56.71158 55.93292
# Shear Modulus (GPa) = 52.61364 241.11957 146.86661
#
# Velocity S-wave (km/s) = 5.14738 11.01929 8.60001
# Velocity P-wave (km/s) = 7.94370 13.80069 11.25969
#
# Compressibility (1/GPa) = 0.01813097
#
# Stress axis : x y z
#
# Youngs Moduli (GPa) = 99.16067 66.61937 51.32684
#
# Poissons Ratio (x) = 0.17119 0.12619
# Poissons Ratio (y) = 0.25480 0.42065
# Poissons Ratio (z) = 0.24379 0.54598
#
# Static dielectric constant tensor:
#      x y z
#    x -5.519570 0.000000 0.000000 
#    y 0.000000 1.683160 0.000000 
#    z 0.000000 0.000000 1.676680 
# 
# From -- ./inp_files/13035.got.cif
#   From: 2010.05.17/outbox.cif.g08.bks.cpg/sg35_7_cif.got.tgz:13035.got - 2010.06.03 17:29:28.
