data_PCOD9350697
_publ_section_title
;
Structure prediction by ZEFSAII (Michael W. Deem and Ramdas Pophale) SiO2 
 PCOD9350697
Probable space group: C M C 21
;
_chemical_formula_sum "Si O2"
_cell_formula_units_Z 64
_cell_length_a 8.645058
_cell_length_b 29.197895
_cell_length_c 12.561966
_cell_angle_alpha 90.000000
_cell_angle_beta 90.000000
_cell_angle_gamma 90.000000
_cell_volume 3170.859999
_symmetry_space_group_name_H-M "C M C 21"
_symmetry_group_IT_number 36
_symmetry_cell_setting 'orthorhombic'
loop_
_space_group_symop_operation_xyz
x,y,z
-x,-y,1/2+z
x,-y,1/2+z
-x,y,z
1/2+x,1/2+y,z
1/2-x,1/2-y,1/2+z
1/2+x,1/2-y,1/2+z
1/2-x,1/2+y,z
loop_
_atom_site_type_symbol
_atom_site_label
_atom_site_fract_x
_atom_site_fract_y
_atom_site_fract_z
Si Si1 0.683484 0.981691 0.467920
Si Si2 0.814717 0.342909 0.414072
Si Si3 0.315982 0.828846 0.737621
Si Si4 0.682903 0.574142 0.531610
Si Si5 0.315172 0.921393 0.261812
Si Si6 0.183275 0.094243 0.104105
Si Si7 0.816262 0.767866 0.545554
Si Si8 0.815343 0.176775 0.469266
O O1 0.500000 0.976502 0.480275
O O2 0.726311 0.955562 0.358696
O O3 0.762383 0.955869 0.567971
O O4 0.731963 0.034228 0.467606
O O5 0.784926 0.369662 0.304533
O O6 0.735377 0.374607 0.503717
O O7 0.747082 0.293180 0.438699
O O8 0.000000 0.342744 0.431062
O O9 0.500000 0.826627 0.747520
O O10 0.265015 0.880130 0.701902
O O11 0.260187 0.794459 0.644617
O O12 0.234383 0.816414 0.847383
O O13 0.500000 0.569897 0.514080
O O14 0.724142 0.568258 0.655448
O O15 0.731572 0.625317 0.500170
O O16 0.500000 0.925641 0.243202
O O17 0.000000 0.095791 0.118518
O O18 0.500000 0.727053 0.051260
O O19 0.766560 0.715364 0.539608
O O20 0.000000 0.181101 0.480604
#
# Coordination Sequence:
#
# PCOD9350697 Si02
#       8
#     8   8   8   8   8   8   8   8
#     4  10  21  39  62  87 117 155 199 243 290 351
#     4   9  17  33  57  86 118 152 192 239 289 342
#     4  11  22  39  63  90 120 157 199 245 301 356
#     4  11  25  41  60  86 118 155 194 243 297 349
#     4   9  20  38  61  87 117 155 194 236 290 350
#     4  10  18  32  57  88 119 150 190 241 291 343
#     4  11  22  38  62  91 120 156 201 247 298 355
#     4  11  25  44  60  83 121 160 201 248 298 354
#
# _framework density 20.183797999999999
#
# number of rings (size 3 to 8) (size 9 to 14) (size 15 to 20)
#    0.000    1.750    0.000    7.125    0.000    7.000 
#    0.000    5.000    0.000    0.000    0.000    0.000 
#    0.000    0.000    0.000    0.000    0.000    0.000 
#
# Total GULP energy -178769.577779 kJ/mol
# GULP energy per Si atom -5586.549306 kJ/mol
# Density = 2.013786 g / cm^3
# Si number density = 20.183798 Si / 1000 Ang^3
#
#
#
# Elastic Constant Matrix: (Units=GPa)
#
#
# Indices 1 2 3 4 5 6 
#
# 1 40.0426 17.7284 -8.8274 0.0000 0.0000 0.0000
# 2 17.7284 110.3843 17.4038 0.0000 0.0000 0.0000
# 3 -8.8274 17.4038 45.6745 0.0000 0.0000 0.0000
# 4 0.0000 0.0000 0.0000 15.8314 0.0000 0.0000
# 5 0.0000 0.0000 0.0000 0.0000 25.8843 0.0000
# 6 0.0000 0.0000 0.0000 0.0000 0.0000 33.7211
#
#
#
# Elastic Compliance Matrix: (Units=1/GPa)
#
#
# Indices 1 2 3 4 5 6 
#
# 1 0.029370 -0.005971 0.007951 0.000000 0.000000 0.000000
# 2 -0.005971 0.010852 -0.005289 0.000000 0.000000 0.000000
# 3 0.007951 -0.005289 0.025446 0.000000 0.000000 0.000000
# 4 0.000000 0.000000 0.000000 0.063166 0.000000 0.000000
# 5 0.000000 0.000000 0.000000 0.000000 0.038634 0.000000
# 6 0.000000 0.000000 0.000000 0.000000 0.000000 0.029655
#
#
# Mechanical properties :
#
#
# Convention : Reuss Voigt Hill
#
# Bulk Modulus (GPa) = 16.93447 27.63454 22.28450
# Shear Modulus (GPa) = 22.37913 26.40711 24.39312
#
# Velocity S-wave (km/s) = 3.33343 3.62101 3.48019
# Velocity P-wave (km/s) = 4.81913 5.58601 5.21668
#
# Compressibility (1/GPa) = 0.05905114
#
# Stress axis : x y z
#
# Youngs Moduli (GPa) = 34.04875 92.14843 39.29877
#
# Poissons Ratio (x) = 0.55018 -0.31247
# Poissons Ratio (y) = 0.20329 0.20785
# Poissons Ratio (z) = -0.27073 0.48737
#
# Static dielectric constant tensor:
#      x y z
#    x 1.668080 0.000000 0.000000 
#    y 0.000000 1.780170 0.000000 
#    z 0.000000 0.000000 1.728750 
# 
# From -- ./inp_files/7071.got.cif
#   From: 2010.05.17/outbox.cif.g08.bks.cpg/sg36_4_cif.got.tgz:7071.got - 2010.06.03 17:41:39.
