data_PCOD9350548
_publ_section_title
;
Structure prediction by ZEFSAII (Michael W. Deem and Ramdas Pophale) SiO2 
 PCOD9350548
Probable space group: C M C 21
;
_chemical_formula_sum "Si O2"
_cell_formula_units_Z 48
_cell_length_a 8.470015
_cell_length_b 19.006449
_cell_length_c 17.028952
_cell_angle_alpha 90.000000
_cell_angle_beta 90.000000
_cell_angle_gamma 90.000000
_cell_volume 2741.404273
_symmetry_space_group_name_H-M "C M C 21"
_symmetry_group_IT_number 36
_symmetry_cell_setting 'orthorhombic'
loop_
_space_group_symop_operation_xyz
x,y,z
-x,-y,1/2+z
x,-y,1/2+z
-x,y,z
1/2+x,1/2+y,z
1/2-x,1/2-y,1/2+z
1/2+x,1/2-y,1/2+z
1/2-x,1/2+y,z
loop_
_atom_site_type_symbol
_atom_site_label
_atom_site_fract_x
_atom_site_fract_y
_atom_site_fract_z
Si Si1 0.188298 0.540561 0.904920
Si Si2 0.688712 0.329880 0.327800
Si Si3 0.191055 0.588816 0.500881
Si Si4 0.809070 0.668230 0.342544
Si Si5 0.814963 0.040413 0.253502
Si Si6 0.311754 0.090328 0.674306
O O1 0.237759 0.621169 0.896069
O O2 0.278314 0.501705 0.834074
O O3 0.000000 0.534683 0.890852
O O4 0.226596 0.492870 0.980191
O O5 0.500000 0.332867 0.334556
O O6 0.739732 0.248970 0.333652
O O7 0.737731 0.363767 0.244307
O O8 0.243680 0.635830 0.426728
O O9 0.247675 0.609322 0.587227
O O10 0.000000 0.594318 0.502831
O O11 0.746833 0.618142 0.273044
O O12 0.000000 0.664630 0.341153
O O13 0.000000 0.041090 0.237390
O O14 0.727694 0.991791 0.190145
O O15 0.500000 0.099280 0.678549
#
# Coordination Sequence:
#
# PCOD9350548 Si02
#       6
#     8   8   8   8   8   8
#     4   9  16  30  50  69  92 122 158 193 230 280
#     4  10  19  31  49  73 100 128 159 195 238 286
#     4   8  16  31  51  71  90 123 165 200 237 283
#     4   9  18  34  52  69  95 129 162 196 238 286
#     4  10  18  29  47  71  95 119 156 196 231 278
#     4  10  18  31  51  71  96 127 160 198 240 285
#
# _framework density 17.509274000000001
#
# number of rings (size 3 to 8) (size 9 to 14) (size 15 to 20)
#    0.000    2.667    0.000    6.000    0.000    1.333 
#    0.000   10.000    0.000    4.000    0.000    0.000 
#    0.000    0.000    0.000    0.000    0.000    0.000 
#
# Total GULP energy -133623.825714 kJ/mol
# GULP energy per Si atom -5567.659405 kJ/mol
# Density = 1.746942 g / cm^3
# Si number density = 17.509274 Si / 1000 Ang^3
#
#
#
# Elastic Constant Matrix: (Units=GPa)
#
#
# Indices 1 2 3 4 5 6 
#
# 1 20.0413 10.2899 3.1160 0.0000 0.0000 0.0000
# 2 10.2899 132.9065 31.8039 0.0000 0.0000 0.0000
# 3 3.1160 31.8039 74.3120 0.0000 0.0000 0.0000
# 4 0.0000 0.0000 0.0000 14.2856 0.0000 0.0000
# 5 0.0000 0.0000 0.0000 0.0000 3.4362 0.0000
# 6 0.0000 0.0000 0.0000 0.0000 0.0000 25.7918
#
#
#
# Elastic Compliance Matrix: (Units=1/GPa)
#
#
# Indices 1 2 3 4 5 6 
#
# 1 0.051980 -0.003903 -0.000509 0.000000 0.000000 0.000000
# 2 -0.003903 0.008676 -0.003549 0.000000 0.000000 0.000000
# 3 -0.000509 -0.003549 0.014997 0.000000 0.000000 0.000000
# 4 0.000000 0.000000 0.000000 0.070000 0.000000 0.000000
# 5 0.000000 0.000000 0.000000 0.000000 0.291019 0.000000
# 6 0.000000 0.000000 0.000000 0.000000 0.000000 0.038772
#
#
# Mechanical properties :
#
#
# Convention : Reuss Voigt Hill
#
# Bulk Modulus (GPa) = 16.74192 35.29769 26.01980
# Shear Modulus (GPa) = 9.77945 20.83940 15.30942
#
# Velocity S-wave (km/s) = 2.36589 3.45366 2.96017
# Velocity P-wave (km/s) = 4.12865 6.00890 5.15522
#
# Compressibility (1/GPa) = 0.05973031
#
# Stress axis : x y z
#
# Youngs Moduli (GPa) = 19.23818 115.26632 66.67927
#
# Poissons Ratio (x) = 0.44983 0.03396
# Poissons Ratio (y) = 0.07508 0.23667
# Poissons Ratio (z) = 0.00980 0.40912
#
# Static dielectric constant tensor:
#      x y z
#    x 1.597480 0.000000 0.000000 
#    y 0.000000 1.626250 0.000000 
#    z 0.000000 0.000000 1.614930 
# 
# From -- ./inp_files/13559.got.cif
#   From: 2010.05.17/outbox.cif.g08.bks.cpg/sg36_7_cif.got.tgz:13559.got - 2010.06.03 17:41:39.
