data_PCOD9350075
_publ_section_title
;
Structure prediction by ZEFSAII (Michael W. Deem and Ramdas Pophale) SiO2 
 PCOD9350075
Probable space group: C M M 2
;
_chemical_formula_sum "Si O2"
_cell_formula_units_Z 48
_cell_length_a 18.672540
_cell_length_b 8.169585
_cell_length_c 16.240395
_cell_angle_alpha 90.000000
_cell_angle_beta 90.000000
_cell_angle_gamma 90.000000
_cell_volume 2477.421956
_symmetry_space_group_name_H-M "C M M 2"
_symmetry_group_IT_number 35
_symmetry_cell_setting 'orthorhombic'
loop_
_space_group_symop_operation_xyz
x,y,z
-x,-y,z
-x,y,z
x,-y,z
1/2+x,1/2+y,z
1/2-x,1/2-y,z
1/2-x,1/2+y,z
1/2+x,1/2-y,z
loop_
_atom_site_type_symbol
_atom_site_label
_atom_site_fract_x
_atom_site_fract_y
_atom_site_fract_z
Si Si1 0.418578 0.695547 0.409500
Si Si2 0.416697 0.200641 0.088921
Si Si3 0.087163 0.690195 0.909501
Si Si4 0.331795 0.195490 0.569928
Si Si5 0.583303 0.200640 0.730080
Si Si6 0.668206 0.195490 0.249072
O O1 0.500000 0.760156 0.409501
O O2 0.421262 0.500000 0.409497
O O3 0.376677 0.749821 0.490837
O O4 0.376678 0.749830 0.328164
O O5 0.500000 0.246522 0.101445
O O6 0.368691 0.256951 0.164841
O O7 0.415411 0.000000 0.086469
O O8 0.391976 0.260531 0.998416
O O9 0.110031 0.500000 0.909501
O O10 0.108024 0.760530 0.820585
O O11 0.000000 0.690458 0.909500
O O12 0.250000 0.250000 0.563384
O O13 0.368691 0.256948 0.654160
O O14 0.333567 0.000000 0.572569
O O15 0.500000 0.246524 0.717556
O O16 0.584588 0.000000 0.732532
O O17 0.750000 0.250000 0.255618
O O18 0.666434 0.000000 0.246427
#
# Coordination Sequence:
#
# PCOD9350075 Si02
#       6
#     8   8   8   8   8   8
#     4  11  24  41  60  81 103 129 166 213 264 315
#     4   8  14  26  47  74 101 132 172 216 259 303
#     4   7  10  20  41  70 101 129 164 213 260 299
#     4  11  22  36  54  77 108 142 176 213 256 307
#     4   8  14  26  47  74 101 132 172 216 259 303
#     4  11  22  36  54  77 108 142 176 213 256 307
#
# _framework density 19.374980000000001
#
# number of rings (size 3 to 8) (size 9 to 14) (size 15 to 20)
#    0.000    2.667    0.000    5.000    0.000    2.667 
#    0.000    0.833    0.000    0.000    0.000    3.500 
#    0.000   18.667    0.000    0.000    0.000    0.000 
#
# Total GULP energy -133847.798385 kJ/mol
# GULP energy per Si atom -5576.991599 kJ/mol
# Density = 1.933088 g / cm^3
# Si number density = 19.374980 Si / 1000 Ang^3
#
#
#
# Elastic Constant Matrix: (Units=GPa)
#
#
# Indices 1 2 3 4 5 6 
#
# 1 139.6424 14.6474 117.2141 0.0000 0.0000 0.0000
# 2 14.6474 24.1437 21.9381 0.0000 0.0000 0.0000
# 3 117.2141 21.9381 239.7025 0.0000 0.0000 0.0000
# 4 0.0000 0.0000 0.0000 -15.0469 0.0000 0.0000
# 5 0.0000 0.0000 0.0000 0.0000 -9.7487 0.0000
# 6 0.0000 0.0000 0.0000 0.0000 0.0000 -7.4681
#
#
#
# Elastic Compliance Matrix: (Units=1/GPa)
#
#
# Indices 1 2 3 4 5 6 
#
# 1 0.012250 -0.002169 -0.005792 0.000000 0.000000 0.000000
# 2 -0.002169 0.045560 -0.003109 0.000000 0.000000 0.000000
# 3 -0.005792 -0.003109 0.007289 0.000000 0.000000 0.000000
# 4 0.000000 0.000000 0.000000 -0.066459 0.000000 0.000000
# 5 0.000000 0.000000 0.000000 0.000000 -0.102578 0.000000
# 6 0.000000 0.000000 0.000000 0.000000 0.000000 -0.133902
#
#
# Mechanical properties :
#
#
# Convention : Reuss Voigt Hill
#
# Bulk Modulus (GPa) = 23.27828 79.00974 51.14401
# Shear Modulus (GPa) = -24.82854 10.19319 -7.31768
#
# Velocity S-wave (km/s) = -3.58365 2.29618 -1.94553
# Velocity P-wave (km/s) = 2.25449 6.92082 4.62682
#
# Compressibility (1/GPa) = 0.04295850
#
# Stress axis : x y z
#
# Youngs Moduli (GPa) = 81.63086 21.94923 137.20100
#
# Poissons Ratio (x) = 0.04761 0.79464
# Poissons Ratio (y) = 0.17707 0.42656
# Poissons Ratio (z) = 0.47279 0.06824
#
# Static dielectric constant tensor:
#      x y z
#    x 1.649580 0.000000 0.000000 
#    y 0.000000 1.674010 0.000000 
#    z 0.000000 0.000000 1.709360 
# 
# From -- ./inp_files/17821.got.cif
#   From: 2010.05.17/outbox.cif.g08.bks.cpg/sg35_9_cif.got.tgz:17821.got - 2010.06.03 17:29:28.
