data_PCOD9350299
_publ_section_title
;
Structure prediction by ZEFSAII (Michael W. Deem and Ramdas Pophale) SiO2 
 PCOD9350299
Probable space group: C M M 2
;
_chemical_formula_sum "Si O2"
_cell_formula_units_Z 64
_cell_length_a 15.029018
_cell_length_b 18.072202
_cell_length_c 12.357905
_cell_angle_alpha 90.000000
_cell_angle_beta 90.000000
_cell_angle_gamma 90.000000
_cell_volume 3356.499054
_symmetry_space_group_name_H-M "C M M 2"
_symmetry_group_IT_number 35
_symmetry_cell_setting 'orthorhombic'
loop_
_space_group_symop_operation_xyz
x,y,z
-x,-y,z
-x,y,z
x,-y,z
1/2+x,1/2+y,z
1/2-x,1/2-y,z
1/2-x,1/2+y,z
1/2+x,1/2-y,z
loop_
_atom_site_type_symbol
_atom_site_label
_atom_site_fract_x
_atom_site_fract_y
_atom_site_fract_z
Si Si1 0.901744 0.410349 0.653030
Si Si2 0.230259 0.837375 0.226769
Si Si3 0.606068 0.589293 0.408301
Si Si4 0.903221 0.642584 0.121711
Si Si5 0.595029 0.313715 0.051774
Si Si6 0.348429 0.913466 0.887460
Si Si7 0.779759 0.831782 0.589439
Si Si8 0.687321 0.320510 0.838109
O O1 0.896053 0.500000 0.649786
O O2 0.896091 0.384123 0.778802
O O3 0.813304 0.376828 0.599463
O O4 0.000000 0.389280 0.610233
O O5 0.250000 0.750000 0.249815
O O6 0.164698 0.874294 0.312605
O O7 0.326220 0.873891 0.207456
O O8 0.180205 0.846530 0.111543
O O9 0.500000 0.605587 0.399334
O O10 0.615877 0.500000 0.409227
O O11 0.650524 0.625982 0.514221
O O12 0.905258 0.730809 0.099831
O O13 0.000000 0.617517 0.158418
O O14 0.883306 0.612923 0.002119
O O15 0.500000 0.348770 0.079837
O O16 0.607917 0.313703 0.922853
O O17 0.246132 0.891080 0.870840
O O18 0.360434 0.000000 0.884730
O O19 0.750000 0.750000 0.550957
O O20 0.823237 0.822587 0.709234
O O21 0.750000 0.250000 0.862205
#
# Coordination Sequence:
#
# PCOD9350299 Si02
#       8
#     8   8   8   8   8   8   8   8
#     4   9  18  33  54  81 115 155 192 228 280 343
#     4  10  20  39  62  84 115 144 194 246 288 339
#     4  11  25  45  65  82 108 152 201 247 297 352
#     4  10  19  31  53  84 118 151 179 218 279 341
#     4  10  18  31  56  86 116 153 189 230 282 337
#     4  10  18  29  48  76 115 155 186 218 263 330
#     4  10  22  37  60  88 117 149 194 246 291 340
#     4  10  17  34  54  81 118 153 187 229 278 335
#
# _framework density 19.067485000000001
#
# number of rings (size 3 to 8) (size 9 to 14) (size 15 to 20)
#    0.000    2.000    2.500    1.875    0.000    3.250 
#    0.000    0.625    0.000    1.125    0.000    0.000 
#    0.000    0.000    0.000    0.000    0.000    0.000 
#
# Total GULP energy -178285.170758 kJ/mol
# GULP energy per Si atom -5571.411586 kJ/mol
# Density = 1.902409 g / cm^3
# Si number density = 19.067485 Si / 1000 Ang^3
#
#
#
# Elastic Constant Matrix: (Units=GPa)
#
#
# Indices 1 2 3 4 5 6 
#
# 1 145.7240 44.3126 59.5912 0.0000 0.0000 0.0000
# 2 44.3126 38.3069 23.8865 0.0000 0.0000 0.0000
# 3 59.5912 23.8865 73.0461 0.0000 0.0000 0.0000
# 4 0.0000 0.0000 0.0000 6.9758 0.0000 0.0000
# 5 0.0000 0.0000 0.0000 0.0000 20.7934 0.0000
# 6 0.0000 0.0000 0.0000 0.0000 0.0000 20.1144
#
#
#
# Elastic Compliance Matrix: (Units=1/GPa)
#
#
# Indices 1 2 3 4 5 6 
#
# 1 0.013004 -0.010586 -0.007147 0.000000 0.000000 0.000000
# 2 -0.010586 0.041409 -0.004905 0.000000 0.000000 0.000000
# 3 -0.007147 -0.004905 0.021124 0.000000 0.000000 0.000000
# 4 0.000000 0.000000 0.000000 0.143353 0.000000 0.000000
# 5 0.000000 0.000000 0.000000 0.000000 0.048092 0.000000
# 6 0.000000 0.000000 0.000000 0.000000 0.000000 0.049716
#
#
# Mechanical properties :
#
#
# Convention : Reuss Voigt Hill
#
# Bulk Modulus (GPa) = 33.04505 56.96196 45.00350
# Shear Modulus (GPa) = 13.43861 18.19581 15.81721
#
# Velocity S-wave (km/s) = 2.65767 3.09250 2.88330
# Velocity P-wave (km/s) = 5.17550 6.53377 5.89389
#
# Compressibility (1/GPa) = 0.03026172
#
# Stress axis : x y z
#
# Youngs Moduli (GPa) = 76.89919 24.14917 47.33862
#
# Poissons Ratio (x) = 0.25565 0.33833
# Poissons Ratio (y) = 0.81407 0.23219
# Poissons Ratio (z) = 0.54960 0.11845
#
# Static dielectric constant tensor:
#      x y z
#    x 1.705900 0.000000 0.000000 
#    y 0.000000 1.666170 0.000000 
#    z 0.000000 0.000000 1.682560 
# 
# From -- ./inp_files/13160.got.cif
#   From: 2010.05.17/outbox.cif.g08.bks.cpg/sg35_7_cif.got.tgz:13160.got - 2010.06.03 17:29:28.
