data_PCOD9350650
_publ_section_title
;
Structure prediction by ZEFSAII (Michael W. Deem and Ramdas Pophale) SiO2 
 PCOD9350650
Probable space group: C M C 21
;
_chemical_formula_sum "Si O2"
_cell_formula_units_Z 64
_cell_length_a 13.463285
_cell_length_b 18.857806
_cell_length_c 15.236342
_cell_angle_alpha 90.000000
_cell_angle_beta 90.000000
_cell_angle_gamma 90.000000
_cell_volume 3868.324651
_symmetry_space_group_name_H-M "C M C 21"
_symmetry_group_IT_number 36
_symmetry_cell_setting 'orthorhombic'
loop_
_space_group_symop_operation_xyz
x,y,z
-x,-y,1/2+z
x,-y,1/2+z
-x,y,z
1/2+x,1/2+y,z
1/2-x,1/2-y,1/2+z
1/2+x,1/2-y,1/2+z
1/2-x,1/2+y,z
loop_
_atom_site_type_symbol
_atom_site_label
_atom_site_fract_x
_atom_site_fract_y
_atom_site_fract_z
Si Si1 0.115571 0.038373 0.509960
Si Si2 0.119845 0.193768 0.533199
Si Si3 0.309998 0.651053 0.218609
Si Si4 0.193982 0.854887 0.337576
Si Si5 0.385064 0.230729 0.216930
Si Si6 0.884427 0.007985 0.302215
Si Si7 0.884004 0.268289 0.351874
Si Si8 0.620272 0.618172 0.033257
O O1 0.160726 0.113538 0.537203
O O2 0.117829 0.032279 0.404269
O O3 0.000000 0.039188 0.537584
O O4 0.156186 0.963739 0.543746
O O5 0.139083 0.236680 0.621289
O O6 0.149847 0.234131 0.444753
O O7 0.000000 0.187271 0.525529
O O8 0.194442 0.669065 0.232697
O O9 0.338151 0.571947 0.247731
O O10 0.368853 0.707143 0.279168
O O11 0.340902 0.659915 0.117352
O O12 0.134596 0.793861 0.285924
O O13 0.309122 0.832382 0.331967
O O14 0.159440 0.856698 0.438985
O O15 0.168918 0.931976 0.297859
O O16 0.500000 0.209136 0.219271
O O17 0.000000 0.998637 0.277343
O O18 0.000000 0.287799 0.357008
O O19 0.500000 0.618785 0.030975
#
# Coordination Sequence:
#
# PCOD9350650 Si02
#       8
#     8   8   8   8   8   8   8   8
#     4   8  15  27  46  72 100 126 155 200 256 300
#     4   9  16  29  50  73  99 134 168 205 250 293
#     4  11  21  32  52  79 103 134 174 210 264 311
#     4  10  21  34  52  77 105 137 172 207 260 311
#     4  10  21  35  50  72 104 140 176 211 251 308
#     4  10  18  32  51  75 103 126 161 214 260 300
#     4  10  19  34  53  76 106 136 172 214 251 302
#     4  10  19  31  48  76 108 133 162 211 266 309
#
# _framework density 16.544630000000002
#
# number of rings (size 3 to 8) (size 9 to 14) (size 15 to 20)
#    0.000    2.250    1.250    3.750    1.750    0.000 
#    0.000    0.625    0.000    0.000    0.000    0.000 
#    0.000    0.000    0.000    0.000    0.000    0.000 
#
# Total GULP energy -178386.580328 kJ/mol
# GULP energy per Si atom -5574.580635 kJ/mol
# Density = 1.650697 g / cm^3
# Si number density = 16.544630 Si / 1000 Ang^3
#
#
#
# Elastic Constant Matrix: (Units=GPa)
#
#
# Indices 1 2 3 4 5 6 
#
# 1 94.2330 53.8241 29.5439 0.0000 0.0000 0.0000
# 2 53.8241 91.8724 43.5803 0.0000 0.0000 0.0000
# 3 29.5439 43.5803 55.6313 0.0000 0.0000 0.0000
# 4 0.0000 0.0000 0.0000 12.4081 0.0000 0.0000
# 5 0.0000 0.0000 0.0000 0.0000 16.8763 0.0000
# 6 0.0000 0.0000 0.0000 0.0000 0.0000 17.5049
#
#
#
# Elastic Compliance Matrix: (Units=1/GPa)
#
#
# Indices 1 2 3 4 5 6 
#
# 1 0.016067 -0.008538 -0.001844 0.000000 0.000000 0.000000
# 2 -0.008538 0.021859 -0.012589 0.000000 0.000000 0.000000
# 3 -0.001844 -0.012589 0.028817 0.000000 0.000000 0.000000
# 4 0.000000 0.000000 0.000000 0.080593 0.000000 0.000000
# 5 0.000000 0.000000 0.000000 0.000000 0.059255 0.000000
# 6 0.000000 0.000000 0.000000 0.000000 0.000000 0.057127
#
#
# Mechanical properties :
#
#
# Convention : Reuss Voigt Hill
#
# Bulk Modulus (GPa) = 48.07771 55.07038 51.57404
# Shear Modulus (GPa) = 15.79316 17.01041 16.40178
#
# Velocity S-wave (km/s) = 3.09298 3.20996 3.15201
# Velocity P-wave (km/s) = 6.47131 6.86270 6.66988
#
# Compressibility (1/GPa) = 0.02079966
#
# Stress axis : x y z
#
# Youngs Moduli (GPa) = 62.23937 45.74859 34.70199
#
# Poissons Ratio (x) = 0.39061 0.06399
# Poissons Ratio (y) = 0.53142 0.43687
# Poissons Ratio (z) = 0.11477 0.57594
#
# Static dielectric constant tensor:
#      x y z
#    x 1.540130 0.000000 0.000000 
#    y 0.000000 1.565880 0.000000 
#    z 0.000000 0.000000 1.583310 
# 
# From -- ./inp_files/12330.got.cif
#   From: 2010.05.17/outbox.cif.g08.bks.cpg/sg36_7_cif.got.tgz:12330.got - 2010.06.03 17:41:39.
