data_PCOD9350848
_publ_section_title
;
Structure prediction by ZEFSAII (Michael W. Deem and Ramdas Pophale) SiO2 
 PCOD9350848
Probable space group: C M C 21
;
_chemical_formula_sum "Si O2"
_cell_formula_units_Z 56
_cell_length_a 13.551809
_cell_length_b 19.771080
_cell_length_c 9.758366
_cell_angle_alpha 90.000000
_cell_angle_beta 90.000000
_cell_angle_gamma 90.000000
_cell_volume 2614.597059
_symmetry_space_group_name_H-M "C M C 21"
_symmetry_group_IT_number 36
_symmetry_cell_setting 'orthorhombic'
loop_
_space_group_symop_operation_xyz
x,y,z
-x,-y,1/2+z
x,-y,1/2+z
-x,y,z
1/2+x,1/2+y,z
1/2-x,1/2-y,1/2+z
1/2+x,1/2-y,1/2+z
1/2-x,1/2+y,z
loop_
_atom_site_type_symbol
_atom_site_label
_atom_site_fract_x
_atom_site_fract_y
_atom_site_fract_z
Si Si1 0.617390 0.415853 0.293710
Si Si2 0.120337 0.763037 0.311194
Si Si3 0.199376 0.554429 0.328637
Si Si4 0.383361 0.468537 0.995569
Si Si5 0.882513 0.353941 0.607027
Si Si6 0.882318 0.596226 0.809915
Si Si7 0.385253 0.840988 0.029284
O O1 0.500000 0.411014 0.276561
O O2 0.654666 0.339672 0.301984
O O3 0.629746 0.455845 0.436203
O O4 0.646322 0.455540 0.153394
O O5 0.143740 0.716781 0.179332
O O6 0.157948 0.721878 0.444143
O O7 0.000000 0.764162 0.318695
O O8 0.306983 0.569011 0.394264
O O9 0.179927 0.587923 0.182214
O O10 0.171990 0.475588 0.325069
O O11 0.126074 0.594377 0.430286
O O12 0.500000 0.451202 0.977904
O O13 0.868848 0.359842 0.445956
O O14 0.000000 0.365990 0.634000
O O15 0.847651 0.636277 0.676101
O O16 0.000000 0.581942 0.795323
O O17 0.500000 0.825233 0.049593
#
# Coordination Sequence:
#
# PCOD9350848 Si02
#       7
#     8   8   8   8   8   8   8
#     4   9  19  39  62  82 106 143 192 251 303 343
#     4   8  15  33  60  80 108 151 187 227 291 353
#     4  11  20  31  55  78 118 160 194 239 297 337
#     4  10  23  39  59  84 108 144 204 256 297 342
#     4   9  18  32  54  88 120 152 189 224 281 364
#     4  10  19  30  50  86 128 157 187 232 278 344
#     4   9  18  32  54  90 122 153 193 225 277 365
#
# _framework density 21.418216000000001
#
# number of rings (size 3 to 8) (size 9 to 14) (size 15 to 20)
#    0.000    2.571    0.000    3.000    4.000    2.286 
#    0.000    1.429    6.286    8.571    0.000    0.000 
#    0.000    4.571    0.000    0.000    0.000    0.000 
#
# Total GULP energy -156202.872833 kJ/mol
# GULP energy per Si atom -5578.674030 kJ/mol
# Density = 2.136947 g / cm^3
# Si number density = 21.418216 Si / 1000 Ang^3
#
#
#
# Elastic Constant Matrix: (Units=GPa)
#
#
# Indices 1 2 3 4 5 6 
#
# 1 74.9767 13.2910 20.9935 0.0000 0.0000 0.0000
# 2 13.2910 144.6318 91.8710 0.0000 0.0000 0.0000
# 3 20.9935 91.8710 174.9480 0.0000 0.0000 0.0000
# 4 0.0000 0.0000 0.0000 3.1785 0.0000 0.0000
# 5 0.0000 0.0000 0.0000 0.0000 25.9194 0.0000
# 6 0.0000 0.0000 0.0000 0.0000 0.0000 -0.7337
#
#
#
# Elastic Compliance Matrix: (Units=1/GPa)
#
#
# Indices 1 2 3 4 5 6 
#
# 1 0.013811 -0.000325 -0.001487 0.000000 0.000000 0.000000
# 2 -0.000325 0.010382 -0.005413 0.000000 0.000000 0.000000
# 3 -0.001487 -0.005413 0.008737 0.000000 0.000000 0.000000
# 4 0.000000 0.000000 0.000000 0.314617 0.000000 0.000000
# 5 0.000000 0.000000 0.000000 0.000000 0.038581 0.000000
# 6 0.000000 0.000000 0.000000 0.000000 0.000000 -1.362886
#
#
# Mechanical properties :
#
#
# Convention : Reuss Voigt Hill
#
# Bulk Modulus (GPa) = 54.10871 71.87418 62.99145
# Shear Modulus (GPa) = -5.22932 23.56623 9.16846
#
# Velocity S-wave (km/s) = -1.56423 3.32066 2.07123
# Velocity P-wave (km/s) = 4.69631 6.95217 5.93246
#
# Compressibility (1/GPa) = 0.01848131
#
# Stress axis : x y z
#
# Youngs Moduli (GPa) = 72.40421 96.31635 114.45515
#
# Poissons Ratio (x) = 0.03128 0.17017
# Poissons Ratio (y) = 0.02352 0.61957
# Poissons Ratio (z) = 0.10765 0.52138
#
# Static dielectric constant tensor:
#      x y z
#    x 1.827920 0.000000 0.000000 
#    y 0.000000 1.760810 0.000000 
#    z 0.000000 0.000000 1.768200 
# 
# From -- ./inp_files/4177.got.cif
#   From: 2010.05.17/outbox.cif.g08.bks.cpg/sg36_3_cif.got.tgz:4177.got - 2010.06.03 17:41:39.
