data_PCOD9350419
_publ_section_title
;
Structure prediction by ZEFSAII (Michael W. Deem and Ramdas Pophale) SiO2 
 PCOD9350419
Probable space group: C M M 2
;
_chemical_formula_sum "Si O2"
_cell_formula_units_Z 64
_cell_length_a 18.554970
_cell_length_b 16.971196
_cell_length_c 11.986619
_cell_angle_alpha 90.000000
_cell_angle_beta 90.000000
_cell_angle_gamma 90.000000
_cell_volume 3774.586714
_symmetry_space_group_name_H-M "C M M 2"
_symmetry_group_IT_number 35
_symmetry_cell_setting 'orthorhombic'
loop_
_space_group_symop_operation_xyz
x,y,z
-x,-y,z
-x,y,z
x,-y,z
1/2+x,1/2+y,z
1/2-x,1/2-y,z
1/2-x,1/2+y,z
1/2+x,1/2-y,z
loop_
_atom_site_type_symbol
_atom_site_label
_atom_site_fract_x
_atom_site_fract_y
_atom_site_fract_z
Si Si1 0.080783 0.848379 0.011910
Si Si2 0.828289 0.091195 0.645201
Si Si3 0.714773 0.161451 0.209095
Si Si4 0.198659 0.824830 0.415364
Si Si5 0.083825 0.755359 0.246656
Si Si6 0.291173 0.168931 0.767821
Si Si7 0.082473 0.226056 0.774048
Si Si8 0.763483 0.088213 0.983694
O O1 0.088417 0.806967 0.132575
O O2 0.000000 0.884244 0.007226
O O3 0.084723 0.787913 0.907822
O O4 0.150092 0.902406 0.991659
O O5 0.824150 0.123644 0.519751
O O6 0.747713 0.103029 0.694605
O O7 0.879551 0.150001 0.716570
O O8 0.850030 0.000000 0.652759
O O9 0.750000 0.250000 0.191390
O O10 0.752606 0.132082 0.321934
O O11 0.630334 0.177093 0.223249
O O12 0.733333 0.109194 0.104482
O O13 0.250000 0.750000 0.449276
O O14 0.128001 0.795453 0.347989
O O15 0.000000 0.743693 0.271580
O O16 0.250000 0.250000 0.740222
O O17 0.373061 0.194448 0.749483
O O18 0.271096 0.147282 0.894450
O O19 0.000000 0.230401 0.738275
O O20 0.745448 0.000000 0.949645
#
# Coordination Sequence:
#
# PCOD9350419 Si02
#       8
#     8   8   8   8   8   8   8   8
#     4  10  18  31  50  78 110 137 162 204 257 309
#     4  11  22  35  53  79 109 138 169 216 271 318
#     4   9  17  32  53  74 100 133 178 218 249 293
#     4   9  18  33  52  74 101 137 178 218 250 300
#     4   9  17  31  55  78  99 131 174 213 255 297
#     4  10  19  34  56  74 101 136 184 219 250 300
#     4  10  21  35  57  80 103 138 177 215 259 309
#     4  12  20  30  51  79 107 142 172 207 261 312
#
# _framework density 16.955499
#
# number of rings (size 3 to 8) (size 9 to 14) (size 15 to 20)
#    0.000    2.250    5.000    2.625    0.000    1.500 
#    0.000    1.250    0.000    2.625    0.000    0.000 
#    0.000    0.000    0.000    0.000    0.000    0.000 
#
# Total GULP energy -178174.942052 kJ/mol
# GULP energy per Si atom -5567.966939 kJ/mol
# Density = 1.691691 g / cm^3
# Si number density = 16.955499 Si / 1000 Ang^3
#
#
#
# Elastic Constant Matrix: (Units=GPa)
#
#
# Indices 1 2 3 4 5 6 
#
# 1 137.2225 41.7882 34.1754 0.0000 0.0000 0.0000
# 2 41.7882 35.1636 17.0803 0.0000 0.0000 0.0000
# 3 34.1754 17.0803 79.3022 0.0000 0.0000 0.0000
# 4 0.0000 0.0000 0.0000 5.1834 0.0000 0.0000
# 5 0.0000 0.0000 0.0000 0.0000 11.2040 0.0000
# 6 0.0000 0.0000 0.0000 0.0000 0.0000 13.2985
#
#
#
# Elastic Compliance Matrix: (Units=1/GPa)
#
#
# Indices 1 2 3 4 5 6 
#
# 1 0.011786 -0.012887 -0.002303 0.000000 0.000000 0.000000
# 2 -0.012887 0.045853 -0.004322 0.000000 0.000000 0.000000
# 3 -0.002303 -0.004322 0.014534 0.000000 0.000000 0.000000
# 4 0.000000 0.000000 0.000000 0.192923 0.000000 0.000000
# 5 0.000000 0.000000 0.000000 0.000000 0.089254 0.000000
# 6 0.000000 0.000000 0.000000 0.000000 0.000000 0.075197
#
#
# Mechanical properties :
#
#
# Convention : Reuss Voigt Hill
#
# Bulk Modulus (GPa) = 30.16886 48.64177 39.40532
# Shear Modulus (GPa) = 10.42493 16.51348 13.46921
#
# Velocity S-wave (km/s) = 2.48229 3.12417 2.82154
# Velocity P-wave (km/s) = 5.10365 6.46252 5.82286
#
# Compressibility (1/GPa) = 0.03314676
#
# Stress axis : x y z
#
# Youngs Moduli (GPa) = 84.84956 21.80888 68.80634
#
# Poissons Ratio (x) = 0.28105 0.15849
# Poissons Ratio (y) = 1.09346 0.29739
# Poissons Ratio (z) = 0.19544 0.09426
#
# Static dielectric constant tensor:
#      x y z
#    x 1.602230 0.000000 0.000000 
#    y 0.000000 1.568350 0.000000 
#    z 0.000000 0.000000 1.594560 
# 
# From -- ./inp_files/13700.got.cif
#   From: 2010.05.17/outbox.cif.g08.bks.cpg/sg35_7_cif.got.tgz:13700.got - 2010.06.03 17:29:28.
