data_PCOD9350681
_publ_section_title
;
Structure prediction by ZEFSAII (Michael W. Deem and Ramdas Pophale) SiO2 
 PCOD9350681
Probable space group: C M C 21
;
_chemical_formula_sum "Si O2"
_cell_formula_units_Z 64
_cell_length_a 8.765144
_cell_length_b 21.979162
_cell_length_c 14.533957
_cell_angle_alpha 90.000000
_cell_angle_beta 90.000000
_cell_angle_gamma 90.000000
_cell_volume 2799.974373
_symmetry_space_group_name_H-M "C M C 21"
_symmetry_group_IT_number 36
_symmetry_cell_setting 'orthorhombic'
loop_
_space_group_symop_operation_xyz
x,y,z
-x,-y,1/2+z
x,-y,1/2+z
-x,y,z
1/2+x,1/2+y,z
1/2-x,1/2-y,1/2+z
1/2+x,1/2-y,1/2+z
1/2-x,1/2+y,z
loop_
_atom_site_type_symbol
_atom_site_label
_atom_site_fract_x
_atom_site_fract_y
_atom_site_fract_z
Si Si1 0.320190 0.470507 0.644890
Si Si2 0.182762 0.404345 0.476518
Si Si3 0.321856 0.657294 0.814479
Si Si4 0.686970 0.847907 0.867229
Si Si5 0.323534 0.782978 0.698990
Si Si6 0.175352 0.721108 0.533734
Si Si7 0.675071 0.093370 0.643906
Si Si8 0.816703 0.519425 0.349600
O O1 0.500000 0.460781 0.645561
O O2 0.242134 0.420947 0.578020
O O3 0.278379 0.538462 0.608648
O O4 0.255842 0.475417 0.748642
O O5 0.256282 0.349471 0.417330
O O6 0.227074 0.463143 0.413550
O O7 0.000000 0.398175 0.478212
O O8 0.500000 0.639850 0.815175
O O9 0.313846 0.722912 0.764536
O O10 0.227499 0.613543 0.745924
O O11 0.500000 0.842492 0.866778
O O12 0.741982 0.835171 0.764082
O O13 0.721075 0.916060 0.896625
O O14 0.747107 0.796995 0.936631
O O15 0.500000 0.795675 0.680927
O O16 0.248548 0.768380 0.602689
O O17 0.179918 0.655548 0.585922
O O18 0.000000 0.738757 0.519488
O O19 0.500000 0.071856 0.644469
O O20 0.000000 0.516572 0.338509
#
# Coordination Sequence:
#
# PCOD9350681 Si02
#       8
#     8   8   8   8   8   8   8   8
#     4  12  24  36  54  83 120 154 185 233 296 351
#     4  11  22  37  59  84 113 153 197 238 282 343
#     4  10  19  33  54  81 112 145 183 233 286 335
#     4   9  18  37  61  83 112 152 191 235 287 341
#     4   9  19  36  58  83 115 149 184 232 291 342
#     4   9  18  34  59  86 110 145 196 241 280 331
#     4  10  18  32  55  81 109 145 191 237 278 336
#     4  10  21  39  62  85 113 151 195 239 284 343
#
# _framework density 22.857351999999999
#
# number of rings (size 3 to 8) (size 9 to 14) (size 15 to 20)
#    0.000    2.000    1.250    3.000    0.000    3.500 
#    2.250    1.875    0.000    0.000    0.000    0.000 
#    0.000    0.000    0.000    0.000    0.000    0.000 
#
# Total GULP energy -178821.779955 kJ/mol
# GULP energy per Si atom -5588.180624 kJ/mol
# Density = 2.280533 g / cm^3
# Si number density = 22.857352 Si / 1000 Ang^3
#
#
#
# Elastic Constant Matrix: (Units=GPa)
#
#
# Indices 1 2 3 4 5 6 
#
# 1 47.9803 -2.0024 20.5366 0.0000 0.0000 0.0000
# 2 -2.0024 46.9107 4.9631 0.0000 0.0000 0.0000
# 3 20.5366 4.9631 121.4440 0.0000 0.0000 0.0000
# 4 0.0000 0.0000 0.0000 41.9146 0.0000 0.0000
# 5 0.0000 0.0000 0.0000 0.0000 23.8124 0.0000
# 6 0.0000 0.0000 0.0000 0.0000 0.0000 4.5639
#
#
#
# Elastic Compliance Matrix: (Units=1/GPa)
#
#
# Indices 1 2 3 4 5 6 
#
# 1 0.022556 0.001372 -0.003870 0.000000 0.000000 0.000000
# 2 0.001372 0.021493 -0.001110 0.000000 0.000000 0.000000
# 3 -0.003870 -0.001110 0.008934 0.000000 0.000000 0.000000
# 4 0.000000 0.000000 0.000000 0.023858 0.000000 0.000000
# 5 0.000000 0.000000 0.000000 0.000000 0.041995 0.000000
# 6 0.000000 0.000000 0.000000 0.000000 0.000000 0.219109
#
#
# Mechanical properties :
#
#
# Convention : Reuss Voigt Hill
#
# Bulk Modulus (GPa) = 21.85026 29.25885 25.55455
# Shear Modulus (GPa) = 13.87281 26.91405 20.39343
#
# Velocity S-wave (km/s) = 2.46627 3.43516 2.99022
# Velocity P-wave (km/s) = 4.20596 5.34436 4.80897
#
# Compressibility (1/GPa) = 0.04576605
#
# Stress axis : x y z
#
# Youngs Moduli (GPa) = 44.33459 46.52648 111.93051
#
# Poissons Ratio (x) = -0.06385 0.43321
# Poissons Ratio (y) = -0.06084 0.12429
# Poissons Ratio (z) = 0.17159 0.05166
#
# Static dielectric constant tensor:
#      x y z
#    x 1.769990 0.000000 0.000000 
#    y 0.000000 1.921410 0.000000 
#    z 0.000000 0.000000 1.887470 
# 
# From -- ./inp_files/10989.got.cif
#   From: 2010.05.17/outbox.cif.g08.bks.cpg/sg36_6_cif.got.tgz:10989.got - 2010.06.03 17:41:39.
