data_PCOD9350438
_publ_section_title
;
Structure prediction by ZEFSAII (Michael W. Deem and Ramdas Pophale) SiO2 
 PCOD9350438
Probable space group: C M M 2
;
_chemical_formula_sum "Si O2"
_cell_formula_units_Z 64
_cell_length_a 15.370104
_cell_length_b 25.325286
_cell_length_c 8.215436
_cell_angle_alpha 90.000000
_cell_angle_beta 90.000000
_cell_angle_gamma 90.000000
_cell_volume 3197.877191
_symmetry_space_group_name_H-M "C M M 2"
_symmetry_group_IT_number 35
_symmetry_cell_setting 'orthorhombic'
loop_
_space_group_symop_operation_xyz
x,y,z
-x,-y,z
-x,y,z
x,-y,z
1/2+x,1/2+y,z
1/2-x,1/2-y,z
1/2-x,1/2+y,z
1/2+x,1/2-y,z
loop_
_atom_site_type_symbol
_atom_site_label
_atom_site_fract_x
_atom_site_fract_y
_atom_site_fract_z
Si Si1 0.404900 0.193527 0.152460
Si Si2 0.901602 0.147555 0.454895
Si Si3 0.725112 0.940041 0.913592
Si Si4 0.853897 0.752614 0.652738
Si Si5 0.402233 0.695633 0.996456
Si Si6 0.738716 0.366318 0.184658
Si Si7 0.596594 0.441343 0.729643
Si Si8 0.596860 0.143928 0.786123
O O1 0.500000 0.180417 0.222642
O O2 0.399463 0.255928 0.123994
O O3 0.319814 0.170205 0.236132
O O4 0.401949 0.169762 0.968037
O O5 0.884262 0.207698 0.511926
O O6 0.829249 0.128604 0.329032
O O7 0.896307 0.107380 0.606656
O O8 0.000000 0.144216 0.389461
O O9 0.824788 0.939120 0.854683
O O10 0.669211 0.901208 0.798482
O O11 0.693247 0.000000 0.903900
O O12 0.723391 0.918103 0.097877
O O13 0.750000 0.750000 0.656245
O O14 0.886046 0.692231 0.662599
O O15 0.888228 0.780295 0.817941
O O16 0.500000 0.672493 0.002581
O O17 0.319315 0.661044 0.042958
O O18 0.500000 0.438495 0.804494
O O19 0.602273 0.500000 0.649179
O O20 0.500000 0.122670 0.758538
#
# Coordination Sequence:
#
# PCOD9350438 Si02
#       8
#     8   8   8   8   8   8   8   8
#     4   8  16  31  51  74 101 136 177 220 266 324
#     4  11  23  36  51  77 113 149 186 228 281 347
#     4  10  21  37  58  83 108 140 189 243 291 339
#     4  11  20  33  55  80 111 153 192 229 276 339
#     4  10  18  31  53  78 106 141 179 219 269 332
#     4  11  21  33  51  79 111 142 178 226 282 335
#     4   9  19  37  58  76 100 141 188 230 276 336
#     4   9  17  32  55  83 112 141 179 229 283 338
#
# _framework density 20.013275
#
# number of rings (size 3 to 8) (size 9 to 14) (size 15 to 20)
#    0.000    2.125    0.000    6.375    0.000    3.750 
#    0.000    0.000    0.000    3.750    0.000    0.000 
#    0.000    0.000    0.000    0.000    0.000    0.000 
#
# Total GULP energy -178585.492764 kJ/mol
# GULP energy per Si atom -5580.796649 kJ/mol
# Density = 1.996772 g / cm^3
# Si number density = 20.013275 Si / 1000 Ang^3
#
#
#
# Elastic Constant Matrix: (Units=GPa)
#
#
# Indices 1 2 3 4 5 6 
#
# 1 120.2844 32.5757 4.9704 0.0000 0.0000 0.0000
# 2 32.5757 114.8327 16.6273 0.0000 0.0000 0.0000
# 3 4.9704 16.6273 29.7272 0.0000 0.0000 0.0000
# 4 0.0000 0.0000 0.0000 6.3238 0.0000 0.0000
# 5 0.0000 0.0000 0.0000 0.0000 13.0684 0.0000
# 6 0.0000 0.0000 0.0000 0.0000 0.0000 8.3853
#
#
#
# Elastic Compliance Matrix: (Units=1/GPa)
#
#
# Indices 1 2 3 4 5 6 
#
# 1 0.009006 -0.002543 -0.000084 0.000000 0.000000 0.000000
# 2 -0.002543 0.010194 -0.005276 0.000000 0.000000 0.000000
# 3 -0.000084 -0.005276 0.036604 0.000000 0.000000 0.000000
# 4 0.000000 0.000000 0.000000 0.158132 0.000000 0.000000
# 5 0.000000 0.000000 0.000000 0.000000 0.076520 0.000000
# 6 0.000000 0.000000 0.000000 0.000000 0.000000 0.119256
#
#
# Mechanical properties :
#
#
# Convention : Reuss Voigt Hill
#
# Bulk Modulus (GPa) = 25.00099 41.46567 33.23333
# Shear Modulus (GPa) = 11.39341 19.60024 15.49683
#
# Velocity S-wave (km/s) = 2.38857 3.13287 2.78569
# Velocity P-wave (km/s) = 4.48624 5.81812 5.19504
#
# Compressibility (1/GPa) = 0.03999842
#
# Stress axis : x y z
#
# Youngs Moduli (GPa) = 111.04098 98.10055 27.31908
#
# Poissons Ratio (x) = 0.24943 0.00228
# Poissons Ratio (y) = 0.28234 0.14415
# Poissons Ratio (z) = 0.00928 0.51762
#
# Static dielectric constant tensor:
#      x y z
#    x 1.706290 0.000000 0.000000 
#    y 0.000000 1.732690 0.000000 
#    z 0.000000 0.000000 1.728750 
# 
# From -- ./inp_files/7878.got.cif
#   From: 2010.05.17/outbox.cif.g08.bks.cpg/sg35_4_cif.got.tgz:7878.got - 2010.06.03 17:29:28.
