data_PCOD9350583
_publ_section_title
;
Structure prediction by ZEFSAII (Michael W. Deem and Ramdas Pophale) SiO2 
 PCOD9350583
Probable space group: C M C 21
;
_chemical_formula_sum "Si O2"
_cell_formula_units_Z 64
_cell_length_a 13.606950
_cell_length_b 31.256086
_cell_length_c 8.176826
_cell_angle_alpha 90.000000
_cell_angle_beta 90.000000
_cell_angle_gamma 90.000000
_cell_volume 3477.604093
_symmetry_space_group_name_H-M "C M C 21"
_symmetry_group_IT_number 36
_symmetry_cell_setting 'orthorhombic'
loop_
_space_group_symop_operation_xyz
x,y,z
-x,-y,1/2+z
x,-y,1/2+z
-x,y,z
1/2+x,1/2+y,z
1/2-x,1/2-y,1/2+z
1/2+x,1/2-y,1/2+z
1/2-x,1/2+y,z
loop_
_atom_site_type_symbol
_atom_site_label
_atom_site_fract_x
_atom_site_fract_y
_atom_site_fract_z
Si Si1 0.113917 0.263233 0.056870
Si Si2 0.387851 0.139267 0.685244
Si Si3 0.110894 0.643395 0.067618
Si Si4 0.306750 0.936715 0.717544
Si Si5 0.292981 0.621638 0.458949
Si Si6 0.888708 0.050096 0.629477
Si Si7 0.749007 0.295634 0.778823
Si Si8 0.234549 0.010289 0.911936
O O1 0.113174 0.310571 0.137490
O O2 0.170738 0.231775 0.179051
O O3 0.000000 0.251151 0.028436
O O4 0.177231 0.267704 0.890582
O O5 0.500000 0.123474 0.660001
O O6 0.308246 0.118451 0.564474
O O7 0.363184 0.135011 0.877490
O O8 0.114095 0.598952 0.169209
O O9 0.184401 0.676293 0.154722
O O10 0.000000 0.660706 0.070323
O O11 0.222061 0.907215 0.797696
O O12 0.275882 0.959846 0.552059
O O13 0.314947 0.976269 0.844041
O O14 0.374484 0.598453 0.566556
O O15 0.302996 0.670180 0.400484
O O16 0.811064 0.039001 0.770006
O O17 0.000000 0.042134 0.679060
O O18 0.854124 0.018128 0.485714
#
# Coordination Sequence:
#
# PCOD9350583 Si02
#       8
#     8   8   8   8   8   8   8   8
#     4  10  20  35  56  81 110 145 182 221 269 321
#     4   9  18  33  55  79 101 130 170 213 258 311
#     4  10  19  33  55  80 104 135 174 214 262 317
#     4   9  18  32  51  72  99 134 168 211 257 305
#     4   9  19  32  50  75 103 134 168 211 256 305
#     4  10  18  30  49  72  99 133 172 212 257 310
#     4  10  20  35  55  79 110 142 176 220 264 312
#     4   9  18  32  49  70  98 133 172 214 261 307
#
# _framework density 18.403476000000001
#
# number of rings (size 3 to 8) (size 9 to 14) (size 15 to 20)
#    0.000    2.500    0.000    2.250    0.000    3.500 
#    0.000    1.875    0.000   20.250    0.000    0.000 
#    0.000    0.000    0.000    0.000    0.000    0.000 
#
# Total GULP energy -178193.653043 kJ/mol
# GULP energy per Si atom -5568.551658 kJ/mol
# Density = 1.836159 g / cm^3
# Si number density = 18.403476 Si / 1000 Ang^3
#
#
#
# Elastic Constant Matrix: (Units=GPa)
#
#
# Indices 1 2 3 4 5 6 
#
# 1 48.9079 33.9126 18.8535 0.0000 0.0000 0.0000
# 2 33.9126 57.5742 28.6578 0.0000 0.0000 0.0000
# 3 18.8535 28.6578 75.4637 0.0000 0.0000 0.0000
# 4 0.0000 0.0000 0.0000 30.8182 0.0000 0.0000
# 5 0.0000 0.0000 0.0000 0.0000 16.8820 0.0000
# 6 0.0000 0.0000 0.0000 0.0000 0.0000 19.3789
#
#
#
# Elastic Compliance Matrix: (Units=1/GPa)
#
#
# Indices 1 2 3 4 5 6 
#
# 1 0.034639 -0.019847 -0.001117 0.000000 0.000000 0.000000
# 2 -0.019847 0.032789 -0.007493 0.000000 0.000000 0.000000
# 3 -0.001117 -0.007493 0.016376 0.000000 0.000000 0.000000
# 4 0.000000 0.000000 0.000000 0.032448 0.000000 0.000000
# 5 0.000000 0.000000 0.000000 0.000000 0.059235 0.000000
# 6 0.000000 0.000000 0.000000 0.000000 0.000000 0.051603
#
#
# Mechanical properties :
#
#
# Convention : Reuss Voigt Hill
#
# Bulk Modulus (GPa) = 37.18951 38.31040 37.74996
# Shear Modulus (GPa) = 17.06666 20.11727 18.59196
#
# Velocity S-wave (km/s) = 3.04856 3.30983 3.18188
# Velocity P-wave (km/s) = 5.71344 5.95556 5.83576
#
# Compressibility (1/GPa) = 0.02688930
#
# Stress axis : x y z
#
# Youngs Moduli (GPa) = 28.86896 30.49774 61.06451
#
# Poissons Ratio (x) = 0.60530 0.06821
# Poissons Ratio (y) = 0.57297 0.45758
# Poissons Ratio (z) = 0.03225 0.22853
#
# Static dielectric constant tensor:
#      x y z
#    x 1.605410 0.000000 0.000000 
#    y 0.000000 1.643700 0.000000 
#    z 0.000000 0.000000 1.657580 
# 
# From -- ./inp_files/3583.got.cif
#   From: 2010.05.17/outbox.cif.g08.bks.cpg/sg36_2_cif.got.tgz:3583.got - 2010.06.03 17:41:39.
