data_PCOD9350444
_publ_section_title
;
Structure prediction by ZEFSAII (Michael W. Deem and Ramdas Pophale) SiO2 
 PCOD9350444
Probable space group: C M M 2
;
_chemical_formula_sum "Si O2"
_cell_formula_units_Z 56
_cell_length_a 13.985306
_cell_length_b 23.798396
_cell_length_c 10.170333
_cell_angle_alpha 90.000000
_cell_angle_beta 90.000000
_cell_angle_gamma 90.000000
_cell_volume 3384.970070
_symmetry_space_group_name_H-M "C M M 2"
_symmetry_group_IT_number 35
_symmetry_cell_setting 'orthorhombic'
loop_
_space_group_symop_operation_xyz
x,y,z
-x,-y,z
-x,y,z
x,-y,z
1/2+x,1/2+y,z
1/2-x,1/2-y,z
1/2-x,1/2+y,z
1/2+x,1/2-y,z
loop_
_atom_site_type_symbol
_atom_site_label
_atom_site_fract_x
_atom_site_fract_y
_atom_site_fract_z
Si Si1 0.295254 0.662171 0.396800
Si Si2 0.383481 0.375716 0.124600
Si Si3 0.384935 0.296620 0.880368
Si Si4 0.608481 0.500000 0.744677
Si Si5 0.108373 0.719747 0.451664
Si Si6 0.389321 0.819307 0.755205
Si Si7 0.107448 0.000000 0.056867
Si Si8 0.290086 0.383411 0.685206
O O1 0.340873 0.637643 0.266354
O O2 0.185822 0.681812 0.377342
O O3 0.357251 0.717035 0.431813
O O4 0.293013 0.625512 0.528750
O O5 0.500000 0.374996 0.126635
O O6 0.350232 0.439222 0.091357
O O7 0.354580 0.329530 0.013554
O O8 0.500000 0.295808 0.880794
O O9 0.357140 0.231532 0.852122
O O10 0.351698 0.335400 0.759026
O O11 0.500000 0.500000 0.688798
O O12 0.665709 0.556078 0.710561
O O13 0.599157 0.500000 0.900980
O O14 0.114061 0.706208 0.607188
O O15 0.000000 0.711457 0.407751
O O16 0.500000 0.834138 0.783191
O O17 0.315303 0.870780 0.745374
O O18 0.000000 0.000000 0.115722
#
# Coordination Sequence:
#
# PCOD9350444 Si02
#       8
#     8   8   8   4   8   8   4   8
#     4  10  20  32  50  78 105 134 172 214 265 314
#     4  10  20  33  50  74 107 142 175 214 262 316
#     4  10  18  31  54  79 104 138 173 210 257 314
#     4  11  22  35  54  80 103 134 181 221 258 310
#     4   9  17  32  52  74 105 138 166 208 266 320
#     4   9  18  33  55  79 104 138 176 216 263 311
#     4   9  18  35  51  68 101 142 174 207 263 318
#     4  11  20  34  54  79 106 136 177 221 259 310
#
# _framework density 16.54372
#
# number of rings (size 3 to 8) (size 9 to 14) (size 15 to 20)
#    0.000    2.143    2.857    1.286    0.000    2.286 
#    5.143    1.071    0.000    0.000    0.000    1.500 
#    0.000    0.000    0.000    0.000    0.000    0.000 
#
# Total GULP energy -155940.770682 kJ/mol
# GULP energy per Si atom -5569.313239 kJ/mol
# Density = 1.650607 g / cm^3
# Si number density = 16.543720 Si / 1000 Ang^3
#
#
#
# Elastic Constant Matrix: (Units=GPa)
#
#
# Indices 1 2 3 4 5 6 
#
# 1 80.7973 57.7992 37.1891 0.0000 0.0000 0.0000
# 2 57.7992 101.4036 25.9600 0.0000 0.0000 0.0000
# 3 37.1891 25.9600 55.3862 0.0000 0.0000 0.0000
# 4 0.0000 0.0000 0.0000 8.4648 0.0000 0.0000
# 5 0.0000 0.0000 0.0000 0.0000 21.1817 0.0000
# 6 0.0000 0.0000 0.0000 0.0000 0.0000 9.5826
#
#
#
# Elastic Compliance Matrix: (Units=1/GPa)
#
#
# Indices 1 2 3 4 5 6 
#
# 1 0.026621 -0.012043 -0.012230 0.000000 0.000000 0.000000
# 2 -0.012043 0.016654 0.000280 0.000000 0.000000 0.000000
# 3 -0.012230 0.000280 0.026136 0.000000 0.000000 0.000000
# 4 0.000000 0.000000 0.000000 0.118137 0.000000 0.000000
# 5 0.000000 0.000000 0.000000 0.000000 0.047211 0.000000
# 6 0.000000 0.000000 0.000000 0.000000 0.000000 0.104356
#
#
# Mechanical properties :
#
#
# Convention : Reuss Voigt Hill
#
# Bulk Modulus (GPa) = 46.67368 53.27595 49.97482
# Shear Modulus (GPa) = 12.68264 15.62173 14.15218
#
# Velocity S-wave (km/s) = 2.77178 3.07623 2.92797
# Velocity P-wave (km/s) = 6.20623 6.70005 6.45786
#
# Compressibility (1/GPa) = 0.02142535
#
# Stress axis : x y z
#
# Youngs Moduli (GPa) = 37.56496 60.04551 38.26204
#
# Poissons Ratio (x) = 0.72310 0.46794
# Poissons Ratio (y) = 0.45238 -0.01072
# Poissons Ratio (z) = 0.45942 -0.01682
#
# Static dielectric constant tensor:
#      x y z
#    x 1.591880 0.000000 0.000000 
#    y 0.000000 1.590310 0.000000 
#    z 0.000000 0.000000 1.547200 
# 
# From -- ./inp_files/7698.got.cif
#   From: 2010.05.17/outbox.cif.g08.bks.cpg/sg35_4_cif.got.tgz:7698.got - 2010.06.03 17:29:28.
