data_PCOD9350766
_publ_section_title
;
Structure prediction by ZEFSAII (Michael W. Deem and Ramdas Pophale) SiO2 
 PCOD9350766
Probable space group: C M C 21
;
_chemical_formula_sum "Si O2"
_cell_formula_units_Z 48
_cell_length_a 15.348714
_cell_length_b 31.648524
_cell_length_c 4.834198
_cell_angle_alpha 90.000000
_cell_angle_beta 90.000000
_cell_angle_gamma 90.000000
_cell_volume 2348.280050
_symmetry_space_group_name_H-M "C M C 21"
_symmetry_group_IT_number 36
_symmetry_cell_setting 'orthorhombic'
loop_
_space_group_symop_operation_xyz
x,y,z
-x,-y,1/2+z
x,-y,1/2+z
-x,y,z
1/2+x,1/2+y,z
1/2-x,1/2-y,1/2+z
1/2+x,1/2-y,1/2+z
1/2-x,1/2+y,z
loop_
_atom_site_type_symbol
_atom_site_label
_atom_site_fract_x
_atom_site_fract_y
_atom_site_fract_z
Si Si1 0.000000 0.680292 0.321681
Si Si2 0.185337 0.970891 0.421877
Si Si3 0.197952 0.264242 0.373889
Si Si4 0.500000 0.764863 0.315263
Si Si5 0.837980 0.643781 0.639607
Si Si6 0.000000 0.029427 0.062210
Si Si7 0.667084 0.912155 0.667278
Si Si8 0.500000 0.968675 0.748599
O O1 0.917717 0.656191 0.439981
O O2 0.000000 0.724606 0.489977
O O3 0.000000 0.692022 0.001392
O O4 0.091578 0.949844 0.486000
O O5 0.263687 0.942646 0.522742
O O6 0.189303 0.986483 0.108271
O O7 0.240409 0.263265 0.675235
O O8 0.097336 0.247989 0.378151
O O9 0.199061 0.311720 0.249156
O O10 0.862272 0.617750 0.912891
O O11 0.788604 0.613406 0.422041
O O12 0.000000 0.013577 0.376117
O O13 0.585637 0.939607 0.777501
O O14 0.500000 0.008423 0.953288
#
# Coordination Sequence:
#
# PCOD9350766 Si02
#       8
#     4   8   8   4   8   4   8   4
#     4  10  18  35  54  78 112 144 190 242 274 329
#     4  10  19  34  53  76 101 136 182 232 283 332
#     4  11  22  39  63  89 119 152 194 251 303 360
#     4  10  20  35  60  89 112 147 190 238 292 345
#     4  11  22  36  56  84 112 150 195 237 292 345
#     4   8  16  30  52  73  92 119 170 230 270 306
#     4  12  22  35  54  79 115 153 189 234 279 350
#     4  12  24  38  54  82 122 164 198 234 292 356
#
# _framework density 20.440491000000002
#
# number of rings (size 3 to 8) (size 9 to 14) (size 15 to 20)
#    0.000    1.333    0.000    9.000    0.000    0.000 
#    0.000    0.000    0.000    6.000    0.000    0.000 
#    0.000    0.000    0.000    0.000    0.000    0.000 
#
# Total GULP energy -133886.653931 kJ/mol
# GULP energy per Si atom -5578.610580 kJ/mol
# Density = 2.039397 g / cm^3
# Si number density = 20.440491 Si / 1000 Ang^3
#
#
#
# Elastic Constant Matrix: (Units=GPa)
#
#
# Indices 1 2 3 4 5 6 
#
# 1 102.2658 12.8461 -5.4152 0.0000 0.0000 0.0000
# 2 12.8461 47.5223 -0.4386 0.0000 0.0000 0.0000
# 3 -5.4152 -0.4386 76.9358 0.0000 0.0000 0.0000
# 4 0.0000 0.0000 0.0000 39.7538 0.0000 0.0000
# 5 0.0000 0.0000 0.0000 0.0000 30.4670 0.0000
# 6 0.0000 0.0000 0.0000 0.0000 0.0000 1.2093
#
#
#
# Elastic Compliance Matrix: (Units=1/GPa)
#
#
# Indices 1 2 3 4 5 6 
#
# 1 0.010160 -0.002740 0.000699 0.000000 0.000000 0.000000
# 2 -0.002740 0.021783 -0.000069 0.000000 0.000000 0.000000
# 3 0.000699 -0.000069 0.013047 0.000000 0.000000 0.000000
# 4 0.000000 0.000000 0.000000 0.025155 0.000000 0.000000
# 5 0.000000 0.000000 0.000000 0.000000 0.032822 0.000000
# 6 0.000000 0.000000 0.000000 0.000000 0.000000 0.826925
#
#
# Mechanical properties :
#
#
# Convention : Reuss Voigt Hill
#
# Bulk Modulus (GPa) = 24.52727 26.74539 25.63633
# Shear Modulus (GPa) = 5.27593 28.93480 17.10536
#
# Velocity S-wave (km/s) = 1.60833 3.76648 2.89595
# Velocity P-wave (km/s) = 3.93375 5.65933 4.87352
#
# Compressibility (1/GPa) = 0.04077095
#
# Stress axis : x y z
#
# Youngs Moduli (GPa) = 98.42858 45.90789 76.64779
#
# Poissons Ratio (x) = 0.12578 -0.05361
# Poissons Ratio (y) = 0.26968 0.00526
# Poissons Ratio (z) = -0.06885 0.00315
#
# Static dielectric constant tensor:
#      x y z
#    x 1.785780 0.000000 0.000000 
#    y 0.000000 1.763920 0.000000 
#    z 0.000000 0.000000 1.726340 
# 
# From -- ./inp_files/862.got.cif
#   From: 2010.05.17/outbox.cif.g08.bks.cpg/sg36_1_cif.got.tgz:862.got - 2010.06.03 17:41:39.
