data_PCOD9350950
_publ_section_title
;
Structure prediction by ZEFSAII (Michael W. Deem and Ramdas Pophale) SiO2 
 PCOD9350950
Probable space group: C M C 21
;
_chemical_formula_sum "Si O2"
_cell_formula_units_Z 64
_cell_length_a 20.480482
_cell_length_b 20.650561
_cell_length_c 7.041929
_cell_angle_alpha 90.000000
_cell_angle_beta 90.000000
_cell_angle_gamma 90.000000
_cell_volume 2978.267276
_symmetry_space_group_name_H-M "C M C 21"
_symmetry_group_IT_number 36
_symmetry_cell_setting 'orthorhombic'
loop_
_space_group_symop_operation_xyz
x,y,z
-x,-y,1/2+z
x,-y,1/2+z
-x,y,z
1/2+x,1/2+y,z
1/2-x,1/2-y,1/2+z
1/2+x,1/2-y,1/2+z
1/2-x,1/2+y,z
loop_
_atom_site_type_symbol
_atom_site_label
_atom_site_fract_x
_atom_site_fract_y
_atom_site_fract_z
Si Si1 0.709212 0.590605 0.430420
Si Si2 0.288552 0.448727 0.370333
Si Si3 0.072670 0.728071 0.971342
Si Si4 0.571755 0.374386 0.004239
Si Si5 0.293872 0.207334 0.505440
Si Si6 0.704947 0.169022 0.945569
Si Si7 0.071114 0.916476 0.429927
Si Si8 0.572116 0.264599 0.522680
O O1 0.705784 0.580740 0.659324
O O2 0.734175 0.522374 0.354313
O O3 0.633703 0.605175 0.380448
O O4 0.755303 0.651801 0.391969
O O5 0.240572 0.399160 0.476172
O O6 0.360150 0.450965 0.468220
O O7 0.082023 0.799171 0.062516
O O8 0.131465 0.680049 0.016426
O O9 0.074127 0.746922 0.746557
O O10 0.000000 0.703728 0.013320
O O11 0.500000 0.378687 0.911588
O O12 0.568555 0.413421 0.200075
O O13 0.300392 0.180086 0.718092
O O14 0.249794 0.271488 0.512994
O O15 0.365292 0.228716 0.436274
O O16 0.077327 0.841805 0.496065
O O17 0.000000 0.942456 0.494125
O O18 0.500000 0.245497 0.451106
#
# Coordination Sequence:
#
# PCOD9350950 Si02
#       8
#     8   8   8   8   8   8   8   8
#     4  10  21  34  47  68  97 130 165 199 239 284
#     4  10  21  34  47  68  97 130 165 199 239 284
#     4   9  17  29  48  74  99 123 155 196 241 287
#     4   9  17  30  47  68  97 129 159 193 234 282
#     4  10  19  32  51  74  98 125 161 201 242 287
#     4  10  19  32  51  74  98 125 161 201 242 287
#     4   9  17  30  47  68  97 129 159 193 234 282
#     4   9  17  29  48  74  99 123 155 196 241 287
#
# _framework density 21.489004000000001
#
# number of rings (size 3 to 8) (size 9 to 14) (size 15 to 20)
#    0.000    2.500    2.500    0.000    0.000    2.500 
#    0.000    0.000    0.000    0.750    0.000    0.000 
#    0.000    0.000    0.000    0.000    0.000    0.000 
#
# Total GULP energy -178782.099504 kJ/mol
# GULP energy per Si atom -5586.940609 kJ/mol
# Density = 2.144009 g / cm^3
# Si number density = 21.489004 Si / 1000 Ang^3
#
#
#
# Elastic Constant Matrix: (Units=GPa)
#
#
# Indices 1 2 3 4 5 6 
#
# 1 160.1940 84.2698 5.5646 0.0000 0.0000 0.0000
# 2 84.2698 124.0769 1.9237 0.0000 0.0000 0.0000
# 3 5.5646 1.9237 61.2723 0.0000 0.0000 0.0000
# 4 0.0000 0.0000 0.0000 50.7163 0.0000 0.0000
# 5 0.0000 0.0000 0.0000 0.0000 -7.9979 0.0000
# 6 0.0000 0.0000 0.0000 0.0000 0.0000 26.1176
#
#
#
# Elastic Compliance Matrix: (Units=1/GPa)
#
#
# Indices 1 2 3 4 5 6 
#
# 1 0.009740 -0.006605 -0.000677 0.000000 0.000000 0.000000
# 2 -0.006605 0.012542 0.000206 0.000000 0.000000 0.000000
# 3 -0.000677 0.000206 0.016376 0.000000 0.000000 0.000000
# 4 0.000000 0.000000 0.000000 0.019718 0.000000 0.000000
# 5 0.000000 0.000000 0.000000 0.000000 -0.125032 0.000000
# 6 0.000000 0.000000 0.000000 0.000000 0.000000 0.038288
#
#
# Mechanical properties :
#
#
# Convention : Reuss Voigt Hill
#
# Bulk Modulus (GPa) = 40.80623 58.78437 49.79530
# Shear Modulus (GPa) = -826.86351 30.68621 -398.08865
#
# Velocity S-wave (km/s) = -19.63720 3.78298 -13.62551
# Velocity P-wave (km/s) = 22.25150 6.81881 14.97720
#
# Compressibility (1/GPa) = 0.02450606
#
# Stress axis : x y z
#
# Youngs Moduli (GPa) = 102.66417 79.73046 61.06642
#
# Poissons Ratio (x) = 0.52662 0.04136
# Poissons Ratio (y) = 0.67810 -0.01258
# Poissons Ratio (z) = 0.06953 -0.01643
#
# Static dielectric constant tensor:
#      x y z
#    x 1.810430 0.000000 0.000000 
#    y 0.000000 1.730840 0.000000 
#    z 0.000000 0.000000 1.880910 
# 
# From -- ./inp_files/5344.got.cif
#   From: 2010.05.17/outbox.cif.g08.bks.cpg/sg36_3_cif.got.tgz:5344.got - 2010.06.03 17:41:39.
