data_PCOD9350954
_publ_section_title
;
Structure prediction by ZEFSAII (Michael W. Deem and Ramdas Pophale) SiO2 
 PCOD9350954
Probable space group: C M C 21
;
_chemical_formula_sum "Si O2"
_cell_formula_units_Z 40
_cell_length_a 8.243071
_cell_length_b 28.574425
_cell_length_c 7.061147
_cell_angle_alpha 90.000000
_cell_angle_beta 90.000000
_cell_angle_gamma 90.000000
_cell_volume 1663.189725
_symmetry_space_group_name_H-M "C M C 21"
_symmetry_group_IT_number 36
_symmetry_cell_setting 'orthorhombic'
loop_
_space_group_symop_operation_xyz
x,y,z
-x,-y,1/2+z
x,-y,1/2+z
-x,y,z
1/2+x,1/2+y,z
1/2-x,1/2-y,1/2+z
1/2+x,1/2-y,1/2+z
1/2-x,1/2+y,z
loop_
_atom_site_type_symbol
_atom_site_label
_atom_site_fract_x
_atom_site_fract_y
_atom_site_fract_z
Si Si1 0.318094 0.184424 0.807720
Si Si2 0.500000 0.932090 0.707947
Si Si3 0.000000 0.539663 0.644882
Si Si4 0.320460 0.620623 0.260520
Si Si5 0.822582 0.090818 0.707302
Si Si6 0.816937 0.715054 0.371647
O O1 0.500000 0.172938 0.872201
O O2 0.203501 0.139518 0.819096
O O3 0.257951 0.233661 0.886999
O O4 0.327176 0.194940 0.582972
O O5 0.333724 0.904753 0.668559
O O6 0.500000 0.984097 0.627165
O O7 0.500000 0.938709 0.935503
O O8 0.166118 0.558196 0.738905
O O9 0.500000 0.609675 0.187100
O O10 0.322092 0.604435 0.482722
O O11 0.286325 0.676405 0.259433
O O12 0.000000 0.070152 0.748931
O O13 0.000000 0.718310 0.294756
#
# Coordination Sequence:
#
# PCOD9350954 Si02
#       6
#     8   4   4   8   8   8
#     4  10  19  32  51  77 107 139 177 217 257 310
#     4  10  20  36  56  78 102 134 176 218 261 312
#     4  10  20  36  56  78 102 134 176 218 261 312
#     4   9  17  32  54  76 102 137 174 211 255 312
#     4   9  17  32  54  76 102 137 174 211 255 312
#     4  10  19  32  51  77 107 139 177 217 257 310
#
# _framework density 24.050173000000001
#
# number of rings (size 3 to 8) (size 9 to 14) (size 15 to 20)
#    0.000    2.400    2.000    1.200    0.000    3.200 
#    0.000    2.000    0.000    2.400    0.000    0.000 
#    0.000    0.000    0.000    0.000    0.000    0.000 
#
# Total GULP energy -111895.193684 kJ/mol
# GULP energy per Si atom -5594.759684 kJ/mol
# Density = 2.399543 g / cm^3
# Si number density = 24.050173 Si / 1000 Ang^3
#
#
#
# Elastic Constant Matrix: (Units=GPa)
#
#
# Indices 1 2 3 4 5 6 
#
# 1 243.5641 89.3149 22.8783 0.0000 0.0000 0.0000
# 2 89.3149 118.6766 20.1456 0.0000 0.0000 0.0000
# 3 22.8783 20.1456 63.6259 0.0000 0.0000 0.0000
# 4 0.0000 0.0000 0.0000 27.4543 0.0000 0.0000
# 5 0.0000 0.0000 0.0000 0.0000 9.5007 0.0000
# 6 0.0000 0.0000 0.0000 0.0000 0.0000 25.6681
#
#
#
# Elastic Compliance Matrix: (Units=1/GPa)
#
#
# Indices 1 2 3 4 5 6 
#
# 1 0.005703 -0.004168 -0.000731 0.000000 0.000000 0.000000
# 2 -0.004168 0.011951 -0.002285 0.000000 0.000000 0.000000
# 3 -0.000731 -0.002285 0.016703 0.000000 0.000000 0.000000
# 4 0.000000 0.000000 0.000000 0.036424 0.000000 0.000000
# 5 0.000000 0.000000 0.000000 0.000000 0.105255 0.000000
# 6 0.000000 0.000000 0.000000 0.000000 0.000000 0.038959
#
#
# Mechanical properties :
#
#
# Convention : Reuss Voigt Hill
#
# Bulk Modulus (GPa) = 50.02798 76.72715 63.37756
# Shear Modulus (GPa) = 21.18412 32.09314 26.63863
#
# Velocity S-wave (km/s) = 2.97110 3.65694 3.33171
# Velocity P-wave (km/s) = 5.71109 7.05714 6.41949
#
# Compressibility (1/GPa) = 0.01998881
#
# Stress axis : x y z
#
# Youngs Moduli (GPa) = 175.35738 83.67677 59.86848
#
# Poissons Ratio (x) = 0.34874 0.04376
# Poissons Ratio (y) = 0.73083 0.13682
# Poissons Ratio (z) = 0.12818 0.19123
#
# Static dielectric constant tensor:
#      x y z
#    x 1.883020 0.000000 0.000000 
#    y 0.000000 1.861020 0.000000 
#    z 0.000000 0.000000 2.015140 
# 
# From -- ./inp_files/2460.got.cif
#   From: 2010.05.17/outbox.cif.g08.bks.cpg/sg36_2_cif.got.tgz:2460.got - 2010.06.03 17:41:39.
