data_PCOD9350183
_publ_section_title
;
Structure prediction by ZEFSAII (Michael W. Deem and Ramdas Pophale) SiO2 
 PCOD9350183
Probable space group: C M M 2
;
_chemical_formula_sum "Si O2"
_cell_formula_units_Z 28
_cell_length_a 9.000000
_cell_length_b 21.000000
_cell_length_c 15.000000
_cell_angle_alpha 90.000000
_cell_angle_beta 90.000000
_cell_angle_gamma 90.000000
_cell_volume 2835.000000
_symmetry_space_group_name_H-M "C M M 2"
_symmetry_group_IT_number 35
_symmetry_cell_setting 'orthorhombic'
loop_
_space_group_symop_operation_xyz
x,y,z
-x,-y,z
-x,y,z
x,-y,z
1/2+x,1/2+y,z
1/2-x,1/2-y,z
1/2-x,1/2+y,z
1/2+x,1/2-y,z
loop_
_atom_site_type_symbol
_atom_site_label
_atom_site_fract_x
_atom_site_fract_y
_atom_site_fract_z
Si Si1 0.678406 0.363583 0.827780
Si Si2 0.321802 0.815151 0.000666
Si Si3 0.179297 0.125293 0.490537
Si Si4 0.678662 0.500000 0.603480
Si Si5 0.322991 0.924515 0.314444
Si Si6 0.821325 0.925381 0.119945
Si Si7 0.178476 0.000000 0.804696
Si Si8 0.821313 0.315616 0.655083
O O1 0.500000 0.351952 0.827368
O O2 0.711943 0.436024 0.856191
O O3 0.743505 0.361002 0.727796
O O4 0.763783 0.321260 0.898857
O O5 0.500000 0.813183 0.003812
O O6 0.250000 0.750000 0.037440
O O7 0.257107 0.875196 0.054893
O O8 0.245970 0.116402 0.392399
O O9 0.261521 0.174924 0.554826
O O10 0.000000 0.134281 0.488878
O O11 0.216578 0.060934 0.545047
O O12 0.500000 0.500000 0.610886
O O13 0.740904 0.500000 0.703644
O O14 0.500000 0.911885 0.309158
O O15 0.243756 0.914449 0.219464
O O16 0.304308 0.000000 0.336092
O O17 0.000000 0.916434 0.118483
O O18 0.791896 0.000000 0.097853
O O19 0.000000 0.000000 0.794100
O O20 0.750000 0.250000 0.686942
O O21 0.000000 0.317839 0.659050
#
# Coordination Sequence:
#
# PCOD9350183 Si02
#       8
#     8   8   8   4   8   8   4   8
#     4  11  22  40  64  91 123 163 206 252 306 370
#     4  12  26  45  67  94 126 165 211 262 317 378
#     4  11  20  35  59  87 120 161 203 246 295 358
#     4   9  16  30  54  85 116 153 194 234 287 345
#     4  10  20  35  58  92 129 162 200 250 304 360
#     4  10  22  42  68  97 128 166 209 256 316 382
#     4   9  18  34  58  89 122 159 200 246 303 363
#     4  12  25  41  58  82 116 161 209 258 308 362
#
# _framework density 9.8765429999999999
#
# number of rings (size 3 to 8) (size 9 to 14) (size 15 to 20)
#    0.000    1.286    2.143    4.714    1.000    1.429 
#    0.000    2.500    0.000    0.000    0.000    0.000 
#    0.000    0.000    0.000    0.000    0.000    0.000 
#
# Total GULP energy -156250.690798 kJ/mol
# GULP energy per Si atom -5580.381814 kJ/mol
# Density = 0.985406 g / cm^3
# Si number density = 9.876543 Si / 1000 Ang^3
#
#
#
# Elastic Constant Matrix: (Units=GPa)
#
#
# Indices 1 2 3 4 5 6 
#
# 1 159.6050 46.9576 56.3287 0.0000 0.0000 0.0000
# 2 46.9576 100.9479 40.4623 0.0000 0.0000 0.0000
# 3 56.3287 40.4623 108.5778 0.0000 0.0000 0.0000
# 4 0.0000 0.0000 0.0000 27.8872 0.0000 0.0000
# 5 0.0000 0.0000 0.0000 0.0000 38.4161 0.0000
# 6 0.0000 0.0000 0.0000 0.0000 0.0000 23.2480
#
#
#
# Elastic Compliance Matrix: (Units=1/GPa)
#
#
# Indices 1 2 3 4 5 6 
#
# 1 0.008161 -0.002468 -0.003314 0.000000 0.000000 0.000000
# 2 -0.002468 0.012392 -0.003338 0.000000 0.000000 0.000000
# 3 -0.003314 -0.003338 0.012173 0.000000 0.000000 0.000000
# 4 0.000000 0.000000 0.000000 0.035859 0.000000 0.000000
# 5 0.000000 0.000000 0.000000 0.000000 0.026031 0.000000
# 6 0.000000 0.000000 0.000000 0.000000 0.000000 0.043015
#
#
# Mechanical properties :
#
#
# Convention : Reuss Voigt Hill
#
# Bulk Modulus (GPa) = 69.02865 72.95867 70.99366
# Shear Modulus (GPa) = 31.11411 32.93572 32.02492
#
# Velocity S-wave (km/s) = 3.97312 4.08778 4.03086
# Velocity P-wave (km/s) = 7.48794 7.70035 7.59489
#
# Compressibility (1/GPa) = 0.01448674
#
# Stress axis : x y z
#
# Youngs Moduli (GPa) = 122.53043 80.69801 82.14788
#
# Poissons Ratio (x) = 0.19915 0.27226
# Poissons Ratio (y) = 0.30239 0.27418
# Poissons Ratio (z) = 0.40610 0.26934
#
# Static dielectric constant tensor:
#      x y z
#    x 1.644140 0.000000 0.000000 
#    y 0.000000 1.485790 0.000000 
#    z 0.000000 0.000000 1.674240 
# 
# From -- ./inp_files/15772.got.cif
#   From: 2010.05.17/outbox.ucp.g08.bks.cvg/sg35_8_cif.got.tgz:15772.got - 2010.06.11 10:36:28.
