data_PCOD9350016
_publ_section_title
;
Structure prediction by ZEFSAII (Michael W. Deem and Ramdas Pophale) SiO2 
 PCOD9350016
Probable space group: C M M 2
;
_chemical_formula_sum "Si O2"
_cell_formula_units_Z 40
_cell_length_a 29.365095
_cell_length_b 8.659010
_cell_length_c 7.919479
_cell_angle_alpha 90.000000
_cell_angle_beta 90.000000
_cell_angle_gamma 90.000000
_cell_volume 2013.706922
_symmetry_space_group_name_H-M "C M M 2"
_symmetry_group_IT_number 35
_symmetry_cell_setting 'orthorhombic'
loop_
_space_group_symop_operation_xyz
x,y,z
-x,-y,z
-x,y,z
x,-y,z
1/2+x,1/2+y,z
1/2-x,1/2-y,z
1/2-x,1/2+y,z
1/2+x,1/2-y,z
loop_
_atom_site_type_symbol
_atom_site_label
_atom_site_fract_x
_atom_site_fract_y
_atom_site_fract_z
Si Si1 0.201830 0.684845 0.405750
Si Si2 0.609132 0.816794 0.890617
Si Si3 0.946548 0.185306 0.202821
Si Si4 0.702022 0.684680 0.024146
Si Si5 0.891297 0.185069 0.540039
O O1 0.202908 0.500000 0.402286
O O2 0.250000 0.750000 0.470245
O O3 0.196740 0.748839 0.214354
O O4 0.158744 0.745474 0.508435
O O5 0.590158 0.752009 0.714780
O O6 0.613927 0.000000 0.883310
O O7 0.578014 0.768335 0.047922
O O8 0.658598 0.740872 0.920646
O O9 0.922011 0.226458 0.378444
O O10 0.000000 0.220441 0.208902
O O11 0.941132 0.000000 0.180292
O O12 0.703549 0.500000 0.031849
O O13 0.750000 0.750000 0.958124
O O14 0.888477 0.000000 0.549758
#
# Coordination Sequence:
#
# PCOD9350016 Si02
#       5
#     8   8   8   8   8
#     4  11  21  36  60  92 129 170 213 259 311 372
#     4  12  25  41  64  96 132 169 211 263 319 378
#     4  10  23  45  71  95 123 163 211 264 323 384
#     4  11  21  37  61  91 127 170 215 260 311 374
#     4  11  23  41  66  95 129 169 214 262 314 378
#
# _framework density 19.863864
#
# number of rings (size 3 to 8) (size 9 to 14) (size 15 to 20)
#    0.000    1.000    2.000    7.200    0.000    2.800 
#    0.000    6.000    0.000    0.000    0.000    0.000 
#    0.000    0.000    0.000    0.000    0.000    0.000 
#
# Total GULP energy -111927.537386 kJ/mol
# GULP energy per Si atom -5596.376869 kJ/mol
# Density = 1.981865 g / cm^3
# Si number density = 19.863864 Si / 1000 Ang^3
#
#
#
# Elastic Constant Matrix: (Units=GPa)
#
#
# Indices 1 2 3 4 5 6 
#
# 1 97.2401 59.0309 53.4132 0.0000 0.0000 0.0000
# 2 59.0309 143.8436 65.8416 0.0000 0.0000 0.0000
# 3 53.4132 65.8416 133.0069 0.0000 0.0000 0.0000
# 4 0.0000 0.0000 0.0000 -16.2005 0.0000 0.0000
# 5 0.0000 0.0000 0.0000 0.0000 -5.7986 0.0000
# 6 0.0000 0.0000 0.0000 0.0000 0.0000 4.0494
#
#
#
# Elastic Compliance Matrix: (Units=1/GPa)
#
#
# Indices 1 2 3 4 5 6 
#
# 1 0.015096 -0.004422 -0.003873 0.000000 0.000000 0.000000
# 2 -0.004422 0.010284 -0.003315 0.000000 0.000000 0.000000
# 3 -0.003873 -0.003315 0.010715 0.000000 0.000000 0.000000
# 4 0.000000 0.000000 0.000000 -0.061726 0.000000 0.000000
# 5 0.000000 0.000000 0.000000 0.000000 -0.172456 0.000000
# 6 0.000000 0.000000 0.000000 0.000000 0.000000 0.246951
#
#
# Mechanical properties :
#
#
# Convention : Reuss Voigt Hill
#
# Bulk Modulus (GPa) = 77.67539 81.18469 79.43004
# Shear Modulus (GPa) = 65.46563 9.46371 37.46467
#
# Velocity S-wave (km/s) = 5.74706 2.18509 4.34760
# Velocity P-wave (km/s) = 9.12288 6.87935 8.07937
#
# Compressibility (1/GPa) = 0.01287409
#
# Stress axis : x y z
#
# Youngs Moduli (GPa) = 66.24323 97.23658 93.32873
#
# Poissons Ratio (x) = 0.43000 0.36147
# Poissons Ratio (y) = 0.29294 0.30939
# Poissons Ratio (z) = 0.25657 0.32234
#
# Static dielectric constant tensor:
#      x y z
#    x 1.681740 0.000000 0.000000 
#    y 0.000000 1.664440 0.000000 
#    z 0.000000 0.000000 1.726530 
# 
# From -- ./inp_files/4972.got.cif
#   From: 2010.05.17/outbox.cif.g08.bks.cpg/sg35_3_cif.got.tgz:4972.got - 2010.06.03 17:29:28.
