data_PCOD9350543
_publ_section_title
;
Structure prediction by ZEFSAII (Michael W. Deem and Ramdas Pophale) SiO2 
 PCOD9350543
Probable space group: C M C 21
;
_chemical_formula_sum "Si O2"
_cell_formula_units_Z 64
_cell_length_a 7.773103
_cell_length_b 15.817894
_cell_length_c 19.462993
_cell_angle_alpha 90.000000
_cell_angle_beta 90.000000
_cell_angle_gamma 90.000000
_cell_volume 2393.055163
_symmetry_space_group_name_H-M "C M C 21"
_symmetry_group_IT_number 36
_symmetry_cell_setting 'orthorhombic'
loop_
_space_group_symop_operation_xyz
x,y,z
-x,-y,1/2+z
x,-y,1/2+z
-x,y,z
1/2+x,1/2+y,z
1/2-x,1/2-y,1/2+z
1/2+x,1/2-y,1/2+z
1/2-x,1/2+y,z
loop_
_atom_site_type_symbol
_atom_site_label
_atom_site_fract_x
_atom_site_fract_y
_atom_site_fract_z
Si Si1 0.790687 0.652786 0.483680
Si Si2 0.208833 0.455923 0.858006
Si Si3 0.802585 0.882003 0.446367
Si Si4 0.199240 0.234774 0.100579
Si Si5 0.204708 0.637004 0.230992
Si Si6 0.203429 0.489854 0.571096
Si Si7 0.710952 0.696663 0.815092
Si Si8 0.703673 0.399536 0.187690
O O1 0.754584 0.626865 0.405654
O O2 0.729202 0.735028 0.526108
O O3 0.730251 0.570609 0.526979
O O4 0.000000 0.655815 0.488261
O O5 0.289875 0.533578 0.898941
O O6 0.274151 0.436455 0.781256
O O7 0.000000 0.468119 0.860086
O O8 0.742849 0.910968 0.521658
O O9 0.000000 0.857813 0.454650
O O10 0.722340 0.815846 0.392212
O O11 0.270826 0.162957 0.151484
O O12 0.215092 0.323268 0.143029
O O13 0.000000 0.214037 0.094226
O O14 0.262024 0.721056 0.272591
O O15 0.000000 0.628318 0.237741
O O16 0.263495 0.512773 0.648038
O O17 0.000000 0.494777 0.574605
O O18 0.500000 0.698801 0.819066
O O19 0.763673 0.618879 0.765158
O O20 0.500000 0.385079 0.186691
#
# Coordination Sequence:
#
# PCOD9350543 Si02
#       8
#     8   8   8   8   8   8   8   8
#     4   7  12  23  39  59  82 107 137 176 217 253
#     4   9  17  30  47  66  89 117 150 188 228 267
#     4  10  18  29  46  67  92 121 151 184 224 270
#     4   9  15  24  40  63  90 115 143 184 226 263
#     4   9  17  30  47  65  88 119 151 184 225 272
#     4   9  16  27  42  64  91 116 148 187 225 264
#     4   8  16  29  45  67  92 118 150 185 222 269
#     4   9  15  26  44  65  88 115 150 188 225 264
#
# _framework density 26.744053999999998
#
# number of rings (size 3 to 8) (size 9 to 14) (size 15 to 20)
#    0.000    3.250    0.000    3.750    0.000    0.500 
#    0.000    6.875    0.000    1.500    0.000    5.250 
#    0.000    0.000    0.000    0.000    0.000    0.000 
#
# Total GULP energy -178687.877675 kJ/mol
# GULP energy per Si atom -5583.996177 kJ/mol
# Density = 2.668318 g / cm^3
# Si number density = 26.744054 Si / 1000 Ang^3
#
#
#
# Elastic Constant Matrix: (Units=GPa)
#
#
# Indices 1 2 3 4 5 6 
#
# 1 51.6919 -12.8506 6.4917 0.0000 0.0000 0.0000
# 2 -12.8506 82.8902 2.8430 0.0000 0.0000 0.0000
# 3 6.4917 2.8430 224.7732 0.0000 0.0000 0.0000
# 4 0.0000 0.0000 0.0000 44.4586 0.0000 0.0000
# 5 0.0000 0.0000 0.0000 0.0000 19.6310 0.0000
# 6 0.0000 0.0000 0.0000 0.0000 0.0000 -7.8087
#
#
#
# Elastic Compliance Matrix: (Units=1/GPa)
#
#
# Indices 1 2 3 4 5 6 
#
# 1 0.020208 0.003154 -0.000624 0.000000 0.000000 0.000000
# 2 0.003154 0.012562 -0.000250 0.000000 0.000000 0.000000
# 3 -0.000624 -0.000250 0.004470 0.000000 0.000000 0.000000
# 4 0.000000 0.000000 0.000000 0.022493 0.000000 0.000000
# 5 0.000000 0.000000 0.000000 0.000000 0.050940 0.000000
# 6 0.000000 0.000000 0.000000 0.000000 0.000000 -0.128063
#
#
# Mechanical properties :
#
#
# Convention : Reuss Voigt Hill
#
# Bulk Modulus (GPa) = 23.92281 39.14708 31.53494
# Shear Modulus (GPa) = -623.59808 35.44759 -294.07525
#
# Velocity S-wave (km/s) = -15.28656 3.64461 -10.49752
# Velocity P-wave (km/s) = 17.39561 5.69037 11.62383
#
# Compressibility (1/GPa) = 0.04180111
#
# Stress axis : x y z
#
# Youngs Moduli (GPa) = 49.48578 79.60683 223.70873
#
# Poissons Ratio (x) = -0.25110 0.13949
# Poissons Ratio (y) = -0.15609 0.05592
# Poissons Ratio (z) = 0.03086 0.01990
#
# Static dielectric constant tensor:
#      x y z
#    x 1.951270 0.000000 0.000000 
#    y 0.000000 2.211930 0.000000 
#    z 0.000000 0.000000 2.156040 
# 
# From -- ./inp_files/14032.got.cif
#   From: 2010.05.17/outbox.cif.g08.bks.cpg/sg36_8_cif.got.tgz:14032.got - 2010.06.03 17:41:39.
