data_PCOD9350161
_publ_section_title
;
Structure prediction by ZEFSAII (Michael W. Deem and Ramdas Pophale) SiO2 
 PCOD9350161
Probable space group: C M M 2
;
_chemical_formula_sum "Si O2"
_cell_formula_units_Z 32
_cell_length_a 9.000000
_cell_length_b 30.000000
_cell_length_c 15.000000
_cell_angle_alpha 90.000000
_cell_angle_beta 90.000000
_cell_angle_gamma 90.000000
_cell_volume 4050.000000
_symmetry_space_group_name_H-M "C M M 2"
_symmetry_group_IT_number 35
_symmetry_cell_setting 'orthorhombic'
loop_
_space_group_symop_operation_xyz
x,y,z
-x,-y,z
-x,y,z
x,-y,z
1/2+x,1/2+y,z
1/2-x,1/2-y,z
1/2-x,1/2+y,z
1/2+x,1/2-y,z
loop_
_atom_site_type_symbol
_atom_site_label
_atom_site_fract_x
_atom_site_fract_y
_atom_site_fract_z
Si Si1 0.326730 0.112872 0.096650
Si Si2 0.678273 0.608434 0.772571
Si Si3 0.175769 0.448726 0.622293
Si Si4 0.171935 0.551722 0.268949
Si Si5 0.678525 0.448284 0.947498
Si Si6 0.334542 0.553837 0.443861
Si Si7 0.822999 0.796506 0.055943
Si Si8 0.677898 0.703656 0.844266
O O1 0.500000 0.120716 0.076742
O O2 0.314827 0.084001 0.185847
O O3 0.244340 0.160009 0.101830
O O4 0.254398 0.082094 0.021241
O O5 0.500000 0.609727 0.763673
O O6 0.749793 0.586297 0.687245
O O7 0.712849 0.575111 0.853914
O O8 0.728754 0.658589 0.795506
O O9 0.228912 0.500000 0.638967
O O10 0.221806 0.436041 0.522502
O O11 0.000000 0.448575 0.633020
O O12 0.207864 0.500000 0.245390
O O13 0.275659 0.568031 0.348321
O O14 0.000000 0.551684 0.299355
O O15 0.500000 0.446878 0.959530
O O16 0.725319 0.500000 0.950533
O O17 0.500000 0.570137 0.463907
O O18 0.339546 0.500000 0.439163
O O19 0.750000 0.750000 0.085098
O O20 0.000000 0.794789 0.066593
O O21 0.790217 0.801678 0.949870
O O22 0.500000 0.706904 0.835278
O O23 0.750000 0.750000 0.813966
#
# Coordination Sequence:
#
# PCOD9350161 Si02
#       8
#     8   8   8   8   8   8   8   8
#     4  11  21  32  48  71  99 132 166 201 244 292
#     4  10  19  33  49  68  94 128 165 201 241 286
#     4  10  20  32  47  70  99 129 161 199 242 287
#     4   9  18  32  48  68  98 132 164 201 242 284
#     4  10  20  33  47  64  94 135 171 203 240 282
#     4   9  17  30  49  71  93 122 161 202 243 286
#     4  10  19  34  52  71  95 124 163 207 251 293
#     4   9  18  32  50  69  92 121 158 202 247 287
#
# _framework density 7.9012349999999998
#
# number of rings (size 3 to 8) (size 9 to 14) (size 15 to 20)
#    0.000    2.250    1.250    2.250    0.000    6.000 
#    0.000    1.250    0.000    0.000    0.000    0.875 
#    0.000    2.000    0.000    0.000    0.000    0.000 
#
# Total GULP energy -178377.394019 kJ/mol
# GULP energy per Si atom -5574.293563 kJ/mol
# Density = 0.788325 g / cm^3
# Si number density = 7.901235 Si / 1000 Ang^3
#
#
#
# Elastic Constant Matrix: (Units=GPa)
#
#
# Indices 1 2 3 4 5 6 
#
# 1 -4.1293 32.2196 15.3636 0.0000 0.0000 0.0000
# 2 32.2196 106.1748 19.7652 0.0000 0.0000 0.0000
# 3 15.3636 19.7652 31.9014 0.0000 0.0000 0.0000
# 4 0.0000 0.0000 0.0000 56.4422 0.0000 0.0000
# 5 0.0000 0.0000 0.0000 0.0000 13.1686 0.0000
# 6 0.0000 0.0000 0.0000 0.0000 0.0000 26.7812
#
#
#
# Elastic Compliance Matrix: (Units=1/GPa)
#
#
# Indices 1 2 3 4 5 6 
#
# 1 -0.058773 0.014204 0.019504 0.000000 0.000000 0.000000
# 2 0.014204 0.007213 -0.011310 0.000000 0.000000 0.000000
# 3 0.019504 -0.011310 0.028961 0.000000 0.000000 0.000000
# 4 0.000000 0.000000 0.000000 0.017717 0.000000 0.000000
# 5 0.000000 0.000000 0.000000 0.000000 0.075938 0.000000
# 6 0.000000 0.000000 0.000000 0.000000 0.000000 0.037340
#
#
# Mechanical properties :
#
#
# Convention : Reuss Voigt Hill
#
# Bulk Modulus (GPa) = 45.04820 29.84927 37.44873
# Shear Modulus (GPa) = 70.42354 23.71831 47.07092
#
# Velocity S-wave (km/s) = 6.68294 3.87838 5.46367
# Velocity P-wave (km/s) = 9.38711 6.24386 7.97194
#
# Compressibility (1/GPa) = 0.02219845
#
# Stress axis : x y z
#
# Youngs Moduli (GPa) = -17.01469 138.62930 34.52945
#
# Poissons Ratio (x) = -1.96912 -0.67347
# Poissons Ratio (y) = 0.24168 0.39053
# Poissons Ratio (z) = 0.33186 1.56789
#
# Static dielectric constant tensor:
#      x y z
#    x 1.547190 0.000000 0.000000 
#    y 0.000000 1.507230 0.000000 
#    z 0.000000 0.000000 1.520310 
# 
# From -- ./inp_files/16182.got.cif
#   From: 2010.05.17/outbox.ucp.g08.bks.cvg/sg35_9_cif.got.tgz:16182.got - 2010.06.11 10:36:28.
