data_PCOD9350710
_publ_section_title
;
Structure prediction by ZEFSAII (Michael W. Deem and Ramdas Pophale) SiO2 
 PCOD9350710
Probable space group: C M C 21
;
_chemical_formula_sum "Si O2"
_cell_formula_units_Z 64
_cell_length_a 8.511716
_cell_length_b 20.852255
_cell_length_c 20.345271
_cell_angle_alpha 90.000000
_cell_angle_beta 90.000000
_cell_angle_gamma 90.000000
_cell_volume 3611.051073
_symmetry_space_group_name_H-M "C M C 21"
_symmetry_group_IT_number 36
_symmetry_cell_setting 'orthorhombic'
loop_
_space_group_symop_operation_xyz
x,y,z
-x,-y,1/2+z
x,-y,1/2+z
-x,y,z
1/2+x,1/2+y,z
1/2-x,1/2-y,1/2+z
1/2+x,1/2-y,1/2+z
1/2-x,1/2+y,z
loop_
_atom_site_type_symbol
_atom_site_label
_atom_site_fract_x
_atom_site_fract_y
_atom_site_fract_z
Si Si1 0.809180 0.829984 0.970560
Si Si2 0.809723 0.308827 0.501549
Si Si3 0.810338 0.983292 0.345706
Si Si4 0.187943 0.587651 0.243013
Si Si5 0.311706 0.660405 0.856113
Si Si6 0.309904 0.527488 0.492210
Si Si7 0.187962 0.205305 0.321605
Si Si8 0.810250 0.576481 0.093827
O O1 0.762371 0.820200 0.894254
O O2 0.000000 0.831451 0.970937
O O3 0.756014 0.898590 0.996937
O O4 0.760267 0.765488 0.008445
O O5 0.745982 0.332462 0.431318
O O6 0.759035 0.357658 0.557984
O O7 0.000000 0.309846 0.498136
O O8 0.762364 0.909960 0.331639
O O9 0.761872 0.001628 0.420091
O O10 0.000000 0.986530 0.344275
O O11 0.746822 0.034109 0.293853
O O12 0.245079 0.656759 0.268301
O O13 0.244551 0.574019 0.168975
O O14 0.000000 0.587334 0.242928
O O15 0.500000 0.663409 0.855295
O O16 0.244806 0.721476 0.817463
O O17 0.500000 0.526039 0.494250
O O18 0.246788 0.482101 0.549163
O O19 0.000000 0.203781 0.319787
O O20 0.000000 0.576109 0.094046
#
# Coordination Sequence:
#
# PCOD9350710 Si02
#       8
#     8   8   8   8   8   8   8   8
#     4   8  15  29  52  78 101 128 171 222 264 314
#     4   9  17  32  53  76 104 142 180 219 273 329
#     4  10  20  35  55  81 113 145 183 234 279 329
#     4  11  23  37  54  78 112 152 191 232 278 332
#     4  10  19  32  53  83 112 136 176 230 279 323
#     4  10  18  33  55  80 108 139 181 229 275 329
#     4  10  19  35  56  79 109 143 181 225 276 332
#     4  10  22  37  52  77 113 147 183 227 278 334
#
# _framework density 17.723372999999999
#
# number of rings (size 3 to 8) (size 9 to 14) (size 15 to 20)
#    0.000    2.250    2.500    1.875    0.000    2.500 
#    0.000    1.875    0.000    3.000    0.000    0.000 
#    0.000    0.000    0.000    0.000    0.000    0.000 
#
# Total GULP energy -178491.968065 kJ/mol
# GULP energy per Si atom -5577.874002 kJ/mol
# Density = 1.768303 g / cm^3
# Si number density = 17.723373 Si / 1000 Ang^3
#
#
#
# Elastic Constant Matrix: (Units=GPa)
#
#
# Indices 1 2 3 4 5 6 
#
# 1 13.5321 21.6442 16.6078 0.0000 0.0000 0.0000
# 2 21.6442 146.1593 53.3686 0.0000 0.0000 0.0000
# 3 16.6078 53.3686 86.2304 0.0000 0.0000 0.0000
# 4 0.0000 0.0000 0.0000 22.8725 0.0000 0.0000
# 5 0.0000 0.0000 0.0000 0.0000 19.9669 0.0000
# 6 0.0000 0.0000 0.0000 0.0000 0.0000 27.7107
#
#
#
# Elastic Compliance Matrix: (Units=1/GPa)
#
#
# Indices 1 2 3 4 5 6 
#
# 1 0.108795 -0.010930 -0.014189 0.000000 0.000000 0.000000
# 2 -0.010930 0.009938 -0.004045 0.000000 0.000000 0.000000
# 3 -0.014189 -0.004045 0.016833 0.000000 0.000000 0.000000
# 4 0.000000 0.000000 0.000000 0.043721 0.000000 0.000000
# 5 0.000000 0.000000 0.000000 0.000000 0.050083 0.000000
# 6 0.000000 0.000000 0.000000 0.000000 0.000000 0.036087
#
#
# Mechanical properties :
#
#
# Convention : Reuss Voigt Hill
#
# Bulk Modulus (GPa) = 12.94717 47.68480 30.31598
# Shear Modulus (GPa) = 14.30490 24.39677 19.35084
#
# Velocity S-wave (km/s) = 2.84407 3.71419 3.30786
# Velocity P-wave (km/s) = 4.25511 6.73476 5.63307
#
# Compressibility (1/GPa) = 0.07723695
#
# Stress axis : x y z
#
# Youngs Moduli (GPa) = 9.19162 100.62833 59.40624
#
# Poissons Ratio (x) = 1.09988 0.84291
# Poissons Ratio (y) = 0.10047 0.24032
# Poissons Ratio (z) = 0.13042 0.40707
#
# Static dielectric constant tensor:
#      x y z
#    x 1.607660 0.000000 0.000000 
#    y 0.000000 1.622510 0.000000 
#    z 0.000000 0.000000 1.577330 
# 
# From -- ./inp_files/13951.got.cif
#   From: 2010.05.17/outbox.cif.g08.bks.cpg/sg36_7_cif.got.tgz:13951.got - 2010.06.03 17:41:39.
