data_PCOD9350588
_publ_section_title
;
Structure prediction by ZEFSAII (Michael W. Deem and Ramdas Pophale) SiO2 
 PCOD9350588
Probable space group: C M C 21
;
_chemical_formula_sum "Si O2"
_cell_formula_units_Z 64
_cell_length_a 7.619070
_cell_length_b 39.132529
_cell_length_c 10.735918
_cell_angle_alpha 90.000000
_cell_angle_beta 90.000000
_cell_angle_gamma 90.000000
_cell_volume 3200.951288
_symmetry_space_group_name_H-M "C M C 21"
_symmetry_group_IT_number 36
_symmetry_cell_setting 'orthorhombic'
loop_
_space_group_symop_operation_xyz
x,y,z
-x,-y,1/2+z
x,-y,1/2+z
-x,y,z
1/2+x,1/2+y,z
1/2-x,1/2-y,1/2+z
1/2+x,1/2-y,1/2+z
1/2-x,1/2+y,z
loop_
_atom_site_type_symbol
_atom_site_label
_atom_site_fract_x
_atom_site_fract_y
_atom_site_fract_z
Si Si1 0.215083 0.961589 0.229150
Si Si2 0.207759 0.924085 0.980859
Si Si3 0.789515 0.276402 0.369707
Si Si4 0.710485 0.776402 0.088594
Si Si5 0.288441 0.146434 0.870868
Si Si6 0.215274 0.040982 0.229150
Si Si7 0.792241 0.924085 0.477441
Si Si8 0.711560 0.146434 0.587432
O O1 0.278189 0.942477 0.104913
O O2 0.278189 0.942477 0.353387
O O3 0.000000 0.960297 0.229150
O O4 0.265057 0.001255 0.229150
O O5 0.232027 0.883637 0.996567
O O6 0.000000 0.930917 0.980201
O O7 0.277598 0.939970 0.853532
O O8 0.749999 0.250000 0.479150
O O9 0.726217 0.267312 0.229150
O O10 0.727534 0.315032 0.399433
O O11 0.000000 0.278141 0.361955
O O12 0.500000 0.778141 0.096347
O O13 0.772466 0.815032 0.058867
O O14 0.500000 0.146725 0.870228
O O15 0.229536 0.138290 0.729150
O O16 0.232028 0.116363 0.961733
O O17 0.277598 0.060030 0.104768
O O18 0.000000 0.041877 0.229150
O O19 0.000000 0.930917 0.478099
O O20 0.500000 0.146725 0.588071
#
# Coordination Sequence:
#
# PCOD9350588 Si02
#       8
#     8   8   8   8   8   8   8   8
#     4   9  16  28  49  73  96 127 168 207 246 297
#     4  10  18  30  50  75  98 127 169 207 245 294
#     4   9  19  36  56  79 105 135 171 210 255 305
#     4   9  19  36  56  79 105 135 171 210 255 305
#     4   9  18  34  54  73  99 134 167 202 246 294
#     4   9  18  30  45  71 106 131 154 207 264 291
#     4  10  18  30  50  75  98 127 169 207 245 294
#     4   9  18  34  54  73  99 134 167 202 246 294
#
# _framework density 19.994053999999998
#
# number of rings (size 3 to 8) (size 9 to 14) (size 15 to 20)
#    0.000    2.750    1.250    2.250    0.000    4.500 
#    2.250    3.125    0.000    4.500    0.000    0.000 
#    0.000    0.000    0.000    0.000    0.000    0.000 
#
# Total GULP energy -178518.533734 kJ/mol
# GULP energy per Si atom -5578.704179 kJ/mol
# Density = 1.994855 g / cm^3
# Si number density = 19.994054 Si / 1000 Ang^3
#
#
#
# Elastic Constant Matrix: (Units=GPa)
#
#
# Indices 1 2 3 4 5 6 
#
# 1 36.5155 -3.8737 10.2721 0.0000 0.0000 0.0000
# 2 -3.8737 159.4258 119.3828 0.0000 0.0000 0.0000
# 3 10.2721 119.3828 178.8616 0.0000 0.0000 0.0000
# 4 0.0000 0.0000 0.0000 35.3471 0.0000 0.0000
# 5 0.0000 0.0000 0.0000 0.0000 9.9570 0.0000
# 6 0.0000 0.0000 0.0000 0.0000 0.0000 8.3158
#
#
#
# Elastic Compliance Matrix: (Units=1/GPa)
#
#
# Indices 1 2 3 4 5 6 
#
# 1 0.029001 0.003902 -0.004270 0.000000 0.000000 0.000000
# 2 0.003902 0.013065 -0.008945 0.000000 0.000000 0.000000
# 3 -0.004270 -0.008945 0.011806 0.000000 0.000000 0.000000
# 4 0.000000 0.000000 0.000000 0.028291 0.000000 0.000000
# 5 0.000000 0.000000 0.000000 0.000000 0.100432 0.000000
# 6 0.000000 0.000000 0.000000 0.000000 0.000000 0.120253
#
#
# Mechanical properties :
#
#
# Convention : Reuss Voigt Hill
#
# Bulk Modulus (GPa) = 28.37086 69.59614 48.98350
# Shear Modulus (GPa) = 15.00499 27.32543 21.16521
#
# Velocity S-wave (km/s) = 2.74245 3.70087 3.25710
# Velocity P-wave (km/s) = 4.92427 7.29012 6.22071
#
# Compressibility (1/GPa) = 0.03524743
#
# Stress axis : x y z
#
# Youngs Moduli (GPa) = 34.48175 76.53803 84.69994
#
# Poissons Ratio (x) = -0.29867 0.36168
# Poissons Ratio (y) = -0.13456 0.75762
# Poissons Ratio (z) = 0.14724 0.68461
#
# Static dielectric constant tensor:
#      x y z
#    x 1.752850 0.000000 0.000000 
#    y 0.000000 1.686310 0.000000 
#    z 0.000000 0.000000 1.697890 
# 
# From -- ./inp_files/3593.got.cif
#   From: 2010.05.17/outbox.cif.g08.bks.cpg/sg36_2_cif.got.tgz:3593.got - 2010.06.03 17:41:39.
