data_PCOD9350780
_publ_section_title
;
Structure prediction by ZEFSAII (Michael W. Deem and Ramdas Pophale) SiO2 
 PCOD9350780
Probable space group: C M C 21
;
_chemical_formula_sum "Si O2"
_cell_formula_units_Z 60
_cell_length_a 13.087532
_cell_length_b 12.294760
_cell_length_c 14.819485
_cell_angle_alpha 90.000000
_cell_angle_beta 90.000000
_cell_angle_gamma 90.000000
_cell_volume 2384.574655
_symmetry_space_group_name_H-M "C M C 21"
_symmetry_group_IT_number 36
_symmetry_cell_setting 'orthorhombic'
loop_
_space_group_symop_operation_xyz
x,y,z
-x,-y,1/2+z
x,-y,1/2+z
-x,y,z
1/2+x,1/2+y,z
1/2-x,1/2-y,1/2+z
1/2+x,1/2-y,1/2+z
1/2-x,1/2+y,z
loop_
_atom_site_type_symbol
_atom_site_label
_atom_site_fract_x
_atom_site_fract_y
_atom_site_fract_z
Si Si1 0.836601 0.220937 0.793360
Si Si2 0.500000 0.320124 0.131950
Si Si3 0.112329 0.403226 0.538835
Si Si4 0.343094 0.690432 0.467047
Si Si5 0.385481 0.497558 0.824698
Si Si6 0.315479 0.060922 0.229417
Si Si7 0.889374 0.323087 0.225942
Si Si8 0.611328 0.840105 0.012782
O O1 0.855214 0.349997 0.800371
O O2 0.715579 0.218926 0.769042
O O3 0.909977 0.191699 0.709996
O O4 0.861690 0.120341 0.859856
O O5 0.591478 0.339362 0.055268
O O6 0.129913 0.318987 0.458619
O O7 0.182250 0.394502 0.626945
O O8 0.111711 0.527653 0.510249
O O9 0.000000 0.369708 0.578000
O O10 0.372076 0.598342 0.396348
O O11 0.220970 0.693150 0.475915
O O12 0.500000 0.492453 0.788924
O O13 0.298751 0.475407 0.751439
O O14 0.383630 0.953700 0.234431
O O15 0.886668 0.305071 0.118203
O O16 0.000000 0.282822 0.260235
O O17 0.500000 0.803977 0.976096
#
# Coordination Sequence:
#
# PCOD9350780 Si02
#       8
#     8   4   8   8   8   8   8   8
#     4  11  21  37  60  90 112 155 199 246 294 355
#     4  12  20  34  70  88 110 156 216 240 286 364
#     4  10  18  35  63  89 106 150 211 246 284 356
#     4  12  21  39  62  89 119 161 199 246 301 361
#     4  11  25  39  56  87 130 156 192 248 316 357
#     4  10  20  35  57  83 111 152 194 242 288 349
#     4   9  18  32  55  86 111 140 191 246 289 341
#     4   9  19  33  57  84 114 144 193 250 293 340
#
# _framework density 25.161719999999999
#
# number of rings (size 3 to 8) (size 9 to 14) (size 15 to 20)
#    0.000    1.600    4.667    1.200    0.933    1.600 
#    0.000    4.000    1.467    0.000    0.000    0.000 
#    0.000    0.000    0.000    0.000    0.000    0.000 
#
# Total GULP energy -167198.546373 kJ/mol
# GULP energy per Si atom -5573.284879 kJ/mol
# Density = 2.510445 g / cm^3
# Si number density = 25.161720 Si / 1000 Ang^3
#
#
#
# Elastic Constant Matrix: (Units=GPa)
#
#
# Indices 1 2 3 4 5 6 
#
# 1 178.7900 23.0491 27.7084 0.0000 0.0000 0.0000
# 2 23.0491 59.6780 10.1999 0.0000 0.0000 0.0000
# 3 27.7084 10.1999 49.5103 0.0000 0.0000 0.0000
# 4 0.0000 0.0000 0.0000 11.5261 0.0000 0.0000
# 5 0.0000 0.0000 0.0000 0.0000 -39.0481 0.0000
# 6 0.0000 0.0000 0.0000 0.0000 0.0000 24.0211
#
#
#
# Elastic Compliance Matrix: (Units=1/GPa)
#
#
# Indices 1 2 3 4 5 6 
#
# 1 0.006327 -0.001905 -0.003148 0.000000 0.000000 0.000000
# 2 -0.001905 0.017942 -0.002630 0.000000 0.000000 0.000000
# 3 -0.003148 -0.002630 0.022501 0.000000 0.000000 0.000000
# 4 0.000000 0.000000 0.000000 0.086760 0.000000 0.000000
# 5 0.000000 0.000000 0.000000 0.000000 -0.025609 0.000000
# 6 0.000000 0.000000 0.000000 0.000000 0.000000 0.041630
#
#
# Mechanical properties :
#
#
# Convention : Reuss Voigt Hill
#
# Bulk Modulus (GPa) = 31.84405 45.54369 38.69387
# Shear Modulus (GPa) = 28.50865 14.43455 21.47160
#
# Velocity S-wave (km/s) = 3.36968 2.39774 2.92437
# Velocity P-wave (km/s) = 5.27474 5.07989 5.17823
#
# Compressibility (1/GPa) = 0.03140304
#
# Stress axis : x y z
#
# Youngs Moduli (GPa) = 158.06039 55.73504 44.44150
#
# Poissons Ratio (x) = 0.10620 0.13991
# Poissons Ratio (y) = 0.30118 0.11688
# Poissons Ratio (z) = 0.49760 0.14658
#
# Static dielectric constant tensor:
#      x y z
#    x 1.947370 0.000000 0.000000 
#    y 0.000000 2.208300 0.000000 
#    z 0.000000 0.000000 2.164980 
# 
# From -- ./inp_files/14332.got.cif
#   From: 2010.05.17/outbox.cif.g08.bks.cpg/sg36_8_cif.got.tgz:14332.got - 2010.06.03 17:41:39.
