data_PCOD9350934
_publ_section_title
;
Structure prediction by ZEFSAII (Michael W. Deem and Ramdas Pophale) SiO2 
 PCOD9350934
Probable space group: C M C 21
;
_chemical_formula_sum "Si O2"
_cell_formula_units_Z 48
_cell_length_a 7.470446
_cell_length_b 16.061925
_cell_length_c 14.548454
_cell_angle_alpha 90.000000
_cell_angle_beta 90.000000
_cell_angle_gamma 90.000000
_cell_volume 1745.665262
_symmetry_space_group_name_H-M "C M C 21"
_symmetry_group_IT_number 36
_symmetry_cell_setting 'orthorhombic'
loop_
_space_group_symop_operation_xyz
x,y,z
-x,-y,1/2+z
x,-y,1/2+z
-x,y,z
1/2+x,1/2+y,z
1/2-x,1/2-y,1/2+z
1/2+x,1/2-y,1/2+z
1/2-x,1/2+y,z
loop_
_atom_site_type_symbol
_atom_site_label
_atom_site_fract_x
_atom_site_fract_y
_atom_site_fract_z
Si Si1 0.212851 0.288029 0.426050
Si Si2 0.791430 0.188217 0.258381
Si Si3 0.209413 0.401787 0.581989
Si Si4 0.215814 0.044019 0.809278
Si Si5 0.782272 0.145610 0.643304
Si Si6 0.794397 0.936407 0.969836
O O1 0.283275 0.214775 0.358762
O O2 0.277120 0.320182 0.525296
O O3 0.242216 0.372268 0.366772
O O4 0.000000 0.273333 0.435309
O O5 0.726127 0.116260 0.190023
O O6 0.769139 0.271699 0.197226
O O7 0.000000 0.172031 0.269974
O O8 0.298791 0.481699 0.536026
O O9 0.000000 0.411005 0.561190
O O10 0.279646 0.068860 0.707985
O O11 0.000000 0.035285 0.804496
O O12 0.284201 0.968967 0.873536
O O13 0.000000 0.145445 0.640003
O O14 0.717096 0.132259 0.539278
O O15 0.000000 0.913851 0.951730
#
# Coordination Sequence:
#
# PCOD9350934 Si02
#       6
#     8   8   8   8   8   8
#     4   8  16  30  47  66  89 121 157 191 229 276
#     4  10  19  32  50  71  95 123 157 195 235 278
#     4  10  19  32  50  71  95 123 157 195 235 278
#     4   8  14  26  45  66  87 117 155 189 223 270
#     4   9  17  30  48  69  93 121 154 191 231 275
#     4   9  17  30  48  69  93 121 154 191 231 275
#
# _framework density 27.496680999999999
#
# number of rings (size 3 to 8) (size 9 to 14) (size 15 to 20)
#    0.000    3.000    0.000    1.000    0.000    2.000 
#    0.000    1.667    0.000    6.000    0.000    0.000 
#    0.000    0.000    0.000    0.000    0.000    0.000 
#
# Total GULP energy -134148.916529 kJ/mol
# GULP energy per Si atom -5589.538189 kJ/mol
# Density = 2.743410 g / cm^3
# Si number density = 27.496681 Si / 1000 Ang^3
#
#
#
# Elastic Constant Matrix: (Units=GPa)
#
#
# Indices 1 2 3 4 5 6 
#
# 1 97.0011 5.7773 4.0538 0.0000 0.0000 0.0000
# 2 5.7773 126.5796 29.2669 0.0000 0.0000 0.0000
# 3 4.0538 29.2669 221.8415 0.0000 0.0000 0.0000
# 4 0.0000 0.0000 0.0000 62.9357 0.0000 0.0000
# 5 0.0000 0.0000 0.0000 0.0000 -4.5630 0.0000
# 6 0.0000 0.0000 0.0000 0.0000 0.0000 -2.0635
#
#
#
# Elastic Compliance Matrix: (Units=1/GPa)
#
#
# Indices 1 2 3 4 5 6 
#
# 1 0.010341 -0.000442 -0.000131 0.000000 0.000000 0.000000
# 2 -0.000442 0.008168 -0.001069 0.000000 0.000000 0.000000
# 3 -0.000131 -0.001069 0.004651 0.000000 0.000000 0.000000
# 4 0.000000 0.000000 0.000000 0.015889 0.000000 0.000000
# 5 0.000000 0.000000 0.000000 0.000000 -0.219155 0.000000
# 6 0.000000 0.000000 0.000000 0.000000 0.000000 -0.484623
#
#
# Mechanical properties :
#
#
# Convention : Reuss Voigt Hill
#
# Bulk Modulus (GPa) = 50.31212 58.17982 54.24597
# Shear Modulus (GPa) = -7.63569 38.35014 15.35723
#
# Velocity S-wave (km/s) = -1.66823 3.73865 2.36585
# Velocity P-wave (km/s) = 3.82448 6.31201 5.21862
#
# Compressibility (1/GPa) = 0.01987593
#
# Stress axis : x y z
#
# Youngs Moduli (GPa) = 96.70311 122.43495 214.99827
#
# Poissons Ratio (x) = 0.05409 0.02810
# Poissons Ratio (y) = 0.04272 0.22993
# Poissons Ratio (z) = 0.01264 0.13094
#
# Static dielectric constant tensor:
#      x y z
#    x 2.130780 0.000000 0.000000 
#    y 0.000000 2.267310 0.000000 
#    z 0.000000 0.000000 2.168240 
# 
# From -- ./inp_files/10375.got.cif
#   From: 2010.05.17/outbox.cif.g08.bks.cpg/sg36_6_cif.got.tgz:10375.got - 2010.06.03 17:41:39.
