data_PCOD9350039
_publ_section_title
;
Structure prediction by ZEFSAII (Michael W. Deem and Ramdas Pophale) SiO2 
 PCOD9350039
Probable space group: C M M 2
;
_chemical_formula_sum "Si O2"
_cell_formula_units_Z 56
_cell_length_a 14.425200
_cell_length_b 18.765988
_cell_length_c 9.931380
_cell_angle_alpha 90.000000
_cell_angle_beta 90.000000
_cell_angle_gamma 90.000000
_cell_volume 2688.455652
_symmetry_space_group_name_H-M "C M M 2"
_symmetry_group_IT_number 35
_symmetry_cell_setting 'orthorhombic'
loop_
_space_group_symop_operation_xyz
x,y,z
-x,-y,z
-x,y,z
x,-y,z
1/2+x,1/2+y,z
1/2-x,1/2-y,z
1/2-x,1/2+y,z
1/2+x,1/2-y,z
loop_
_atom_site_type_symbol
_atom_site_label
_atom_site_fract_x
_atom_site_fract_y
_atom_site_fract_z
Si Si1 0.886237 0.417225 0.855940
Si Si2 0.104569 0.314310 0.084484
Si Si3 0.395851 0.184337 0.618471
Si Si4 0.888170 0.079178 0.975460
Si Si5 0.648851 0.716808 0.844430
Si Si6 0.385541 0.260553 0.355491
Si Si7 0.612580 0.581251 0.288908
O O1 0.863706 0.500000 0.853268
O O2 0.855822 0.374991 0.720799
O O3 0.000000 0.410092 0.857637
O O4 0.853465 0.377992 0.993566
O O5 0.145331 0.280175 0.219198
O O6 0.000000 0.336984 0.119991
O O7 0.101350 0.250476 0.976123
O O8 0.500000 0.159673 0.585654
O O9 0.399622 0.254612 0.711975
O O10 0.352906 0.212292 0.480527
O O11 0.862477 0.091924 0.131249
O O12 0.000000 0.083699 0.971001
O O13 0.859496 0.000000 0.940437
O O14 0.849667 0.134106 0.869035
O O15 0.750000 0.750000 0.841200
O O16 0.500000 0.261442 0.355449
O O17 0.358281 0.344405 0.359522
O O18 0.500000 0.579109 0.296241
O O19 0.643772 0.500000 0.328513
#
# Coordination Sequence:
#
# PCOD9350039 Si02
#       7
#     8   8   8   8   8   8   8
#     4   8  14  26  44  66  89 115 151 193 241 293
#     4   9  16  29  50  70  91 120 159 211 258 302
#     4   9  18  31  48  67  93 130 166 205 255 312
#     4   9  16  29  52  78 102 130 168 217 265 305
#     4  11  20  31  46  70 102 132 169 208 252 317
#     4   9  15  26  46  71  95 122 161 206 253 305
#     4   8  13  22  42  73 102 125 151 194 253 305
#
# _framework density 20.829801
#
# number of rings (size 3 to 8) (size 9 to 14) (size 15 to 20)
#    0.000    3.000    1.429    3.000    0.000    0.000 
#    0.000    5.000    0.000    6.857    0.000    0.000 
#    0.000    0.000    0.000    0.000    0.000    0.000 
#
# Total GULP energy -155952.437585 kJ/mol
# GULP energy per Si atom -5569.729914 kJ/mol
# Density = 2.078239 g / cm^3
# Si number density = 20.829801 Si / 1000 Ang^3
#
#
#
# Elastic Constant Matrix: (Units=GPa)
#
#
# Indices 1 2 3 4 5 6 
#
# 1 49.7295 3.6864 1.9427 0.0000 0.0000 0.0000
# 2 3.6864 166.8696 65.4959 0.0000 0.0000 0.0000
# 3 1.9427 65.4959 128.3823 0.0000 0.0000 0.0000
# 4 0.0000 0.0000 0.0000 24.8409 0.0000 0.0000
# 5 0.0000 0.0000 0.0000 0.0000 11.3720 0.0000
# 6 0.0000 0.0000 0.0000 0.0000 0.0000 9.5364
#
#
#
# Elastic Compliance Matrix: (Units=1/GPa)
#
#
# Indices 1 2 3 4 5 6 
#
# 1 0.020143 -0.000407 -0.000097 0.000000 0.000000 0.000000
# 2 -0.000407 0.007501 -0.003821 0.000000 0.000000 0.000000
# 3 -0.000097 -0.003821 0.009740 0.000000 0.000000 0.000000
# 4 0.000000 0.000000 0.000000 0.040256 0.000000 0.000000
# 5 0.000000 0.000000 0.000000 0.000000 0.087935 0.000000
# 6 0.000000 0.000000 0.000000 0.000000 0.000000 0.104862
#
#
# Mechanical properties :
#
#
# Convention : Reuss Voigt Hill
#
# Bulk Modulus (GPa) = 34.80155 54.13683 44.46919
# Shear Modulus (GPa) = 17.32113 27.40694 22.36403
#
# Velocity S-wave (km/s) = 2.88680 3.63127 3.28022
# Velocity P-wave (km/s) = 5.27781 6.60515 5.97843
#
# Compressibility (1/GPa) = 0.02873436
#
# Stress axis : x y z
#
# Youngs Moduli (GPa) = 49.64564 133.30981 102.67031
#
# Poissons Ratio (x) = 0.05423 0.00999
# Poissons Ratio (y) = 0.02020 0.39228
# Poissons Ratio (z) = 0.00483 0.50934
#
# Static dielectric constant tensor:
#      x y z
#    x 1.812060 0.000000 0.000000 
#    y 0.000000 1.762470 0.000000 
#    z 0.000000 0.000000 1.732500 
# 
# From -- ./inp_files/8682.got.cif
#   From: 2010.05.17/outbox.cif.g08.bks.cpg/sg35_5_cif.got.tgz:8682.got - 2010.06.03 17:29:28.
