data_PCOD9350354
_publ_section_title
;
Structure prediction by ZEFSAII (Michael W. Deem and Ramdas Pophale) SiO2 
 PCOD9350354
Probable space group: C M M 2
;
_chemical_formula_sum "Si O2"
_cell_formula_units_Z 64
_cell_length_a 7.786644
_cell_length_b 30.556670
_cell_length_c 12.731979
_cell_angle_alpha 90.000000
_cell_angle_beta 90.000000
_cell_angle_gamma 90.000000
_cell_volume 3029.369560
_symmetry_space_group_name_H-M "C M M 2"
_symmetry_group_IT_number 35
_symmetry_cell_setting 'orthorhombic'
loop_
_space_group_symop_operation_xyz
x,y,z
-x,-y,z
-x,y,z
x,-y,z
1/2+x,1/2+y,z
1/2-x,1/2-y,z
1/2-x,1/2+y,z
1/2+x,1/2-y,z
loop_
_atom_site_type_symbol
_atom_site_label
_atom_site_fract_x
_atom_site_fract_y
_atom_site_fract_z
Si Si1 0.203138 0.198907 0.585410
Si Si2 0.706665 0.951941 0.309651
Si Si3 0.696245 0.171199 0.999741
Si Si4 0.293606 0.203490 0.208414
Si Si5 0.200953 0.858449 0.775785
Si Si6 0.291099 0.452534 0.846278
Si Si7 0.207445 0.639527 0.386005
Si Si8 0.794783 0.921877 0.076220
O O1 0.250000 0.250000 0.575553
O O2 0.277499 0.172949 0.686639
O O3 0.245314 0.168991 0.485097
O O4 0.000000 0.199533 0.597731
O O5 0.500000 0.952793 0.319090
O O6 0.769412 0.910520 0.377687
O O7 0.747095 0.942896 0.187004
O O8 0.773409 0.000000 0.338984
O O9 0.500000 0.183873 0.977524
O O10 0.776462 0.201311 0.089896
O O11 0.701346 0.124112 0.057674
O O12 0.786468 0.164808 0.888980
O O13 0.500000 0.199586 0.200949
O O14 0.250000 0.250000 0.257785
O O15 0.229126 0.164913 0.282370
O O16 0.273586 0.907802 0.791507
O O17 0.000000 0.864683 0.751401
O O18 0.500000 0.451884 0.838717
O O19 0.231457 0.500000 0.806562
O O20 0.252239 0.448865 0.970802
O O21 0.000000 0.638535 0.381827
O O22 0.000000 0.914312 0.074607
#
# Coordination Sequence:
#
# PCOD9350354 Si02
#       8
#     8   8   8   8   8   8   8   8
#     4  11  24  42  63  86 110 143 193 246 297 350
#     4  10  20  35  56  82 116 156 193 232 281 337
#     4  10  19  34  54  79 114 152 188 228 283 343
#     4  10  21  35  53  79 111 144 181 228 281 343
#     4   9  20  37  56  82 113 143 185 235 284 338
#     4   8  14  27  49  77 109 145 181 218 266 322
#     4  10  21  40  60  82 114 148 190 238 287 341
#     4  10  18  29  49  79 116 155 193 234 275 327
#
# _framework density 21.126508999999999
#
# number of rings (size 3 to 8) (size 9 to 14) (size 15 to 20)
#    0.000    2.250    1.250    2.625    0.000    5.250 
#    0.000    3.125    0.000    4.125    0.000    0.000 
#    0.000    0.000    0.000    0.000    0.000    0.000 
#
# Total GULP energy -178470.322726 kJ/mol
# GULP energy per Si atom -5577.197585 kJ/mol
# Density = 2.107842 g / cm^3
# Si number density = 21.126509 Si / 1000 Ang^3
#
#
#
# Elastic Constant Matrix: (Units=GPa)
#
#
# Indices 1 2 3 4 5 6 
#
# 1 30.1168 11.1440 -0.3245 0.0000 0.0000 0.0000
# 2 11.1440 182.1399 85.7608 0.0000 0.0000 0.0000
# 3 -0.3245 85.7608 111.1393 0.0000 0.0000 0.0000
# 4 0.0000 0.0000 0.0000 17.9615 0.0000 0.0000
# 5 0.0000 0.0000 0.0000 0.0000 18.4329 0.0000
# 6 0.0000 0.0000 0.0000 0.0000 0.0000 11.4007
#
#
#
# Elastic Compliance Matrix: (Units=1/GPa)
#
#
# Indices 1 2 3 4 5 6 
#
# 1 0.034487 -0.003389 0.002716 0.000000 0.000000 0.000000
# 2 -0.003389 0.008956 -0.006921 0.000000 0.000000 0.000000
# 3 0.002716 -0.006921 0.014346 0.000000 0.000000 0.000000
# 4 0.000000 0.000000 0.000000 0.055675 0.000000 0.000000
# 5 0.000000 0.000000 0.000000 0.000000 0.054251 0.000000
# 6 0.000000 0.000000 0.000000 0.000000 0.000000 0.087714
#
#
# Mechanical properties :
#
#
# Convention : Reuss Voigt Hill
#
# Bulk Modulus (GPa) = 23.47338 57.39517 40.43428
# Shear Modulus (GPa) = 17.55503 24.68006 21.11755
#
# Velocity S-wave (km/s) = 2.88574 3.42161 3.16504
# Velocity P-wave (km/s) = 4.71575 6.54494 5.70415
#
# Compressibility (1/GPa) = 0.04260145
#
# Stress axis : x y z
#
# Youngs Moduli (GPa) = 28.99630 111.65144 69.70415
#
# Poissons Ratio (x) = 0.37835 -0.18929
# Poissons Ratio (y) = 0.09826 0.48243
# Poissons Ratio (z) = -0.07874 0.77276
#
# Static dielectric constant tensor:
#      x y z
#    x 1.757230 0.000000 0.000000 
#    y 0.000000 1.841550 0.000000 
#    z 0.000000 0.000000 1.761010 
# 
# From -- ./inp_files/11978.got.cif
#   From: 2010.05.17/outbox.cif.g08.bks.cpg/sg35_6_cif.got.tgz:11978.got - 2010.06.03 17:29:28.
