data_PCOD9350429
_publ_section_title
;
Structure prediction by ZEFSAII (Michael W. Deem and Ramdas Pophale) SiO2 
 PCOD9350429
Probable space group: C M M 2
;
_chemical_formula_sum "Si O2"
_cell_formula_units_Z 56
_cell_length_a 17.598251
_cell_length_b 19.516103
_cell_length_c 9.739379
_cell_angle_alpha 90.000000
_cell_angle_beta 90.000000
_cell_angle_gamma 90.000000
_cell_volume 3344.982697
_symmetry_space_group_name_H-M "C M M 2"
_symmetry_group_IT_number 35
_symmetry_cell_setting 'orthorhombic'
loop_
_space_group_symop_operation_xyz
x,y,z
-x,-y,z
-x,y,z
x,-y,z
1/2+x,1/2+y,z
1/2-x,1/2-y,z
1/2-x,1/2+y,z
1/2+x,1/2-y,z
loop_
_atom_site_type_symbol
_atom_site_label
_atom_site_fract_x
_atom_site_fract_y
_atom_site_fract_z
Si Si1 0.587707 0.209685 0.412810
Si Si2 0.205693 0.684616 0.207443
Si Si3 0.250392 0.081068 0.714469
Si Si4 0.320505 0.340612 0.458099
Si Si5 0.720066 0.581860 0.024711
Si Si6 0.586423 0.582284 0.232639
Si Si7 0.085792 0.420980 0.605728
O O1 0.500000 0.230639 0.412366
O O2 0.622488 0.203269 0.260275
O O3 0.639409 0.267702 0.484699
O O4 0.592708 0.136371 0.488119
O O5 0.250000 0.750000 0.146628
O O6 0.252117 0.668336 0.348310
O O7 0.214099 0.621675 0.105671
O O8 0.210829 0.123516 0.593469
O O9 0.341907 0.089643 0.704189
O O10 0.235007 0.000000 0.693062
O O11 0.220708 0.100409 0.864952
O O12 0.380892 0.385457 0.372073
O O13 0.730170 0.500000 0.034190
O O14 0.643190 0.600344 0.107705
O O15 0.500000 0.604175 0.207887
O O16 0.587990 0.500000 0.244907
O O17 0.091869 0.500000 0.554619
O O18 0.000000 0.413921 0.664670
#
# Coordination Sequence:
#
# PCOD9350429 Si02
#       7
#     8   8   8   8   8   8   8
#     4  10  19  32  51  76 105 134 171 220 269 311
#     4   9  18  33  49  73  99 133 172 211 258 312
#     4  10  19  33  53  79 107 137 177 222 262 316
#     4  10  18  31  52  77 101 134 172 217 259 309
#     4   9  19  34  52  76 104 137 177 219 266 318
#     4   9  17  31  51  74 102 138 174 211 261 317
#     4   9  18  32  50  73 102 136 170 211 267 317
#
# _framework density 16.741491
#
# number of rings (size 3 to 8) (size 9 to 14) (size 15 to 20)
#    0.000    2.571    1.429    0.857    0.000    1.143 
#    2.571    2.143    0.000    4.286    0.000    0.000 
#    0.000    0.000    0.000    0.000    0.000    0.000 
#
# Total GULP energy -155929.134672 kJ/mol
# GULP energy per Si atom -5568.897667 kJ/mol
# Density = 1.670339 g / cm^3
# Si number density = 16.741491 Si / 1000 Ang^3
#
#
#
# Elastic Constant Matrix: (Units=GPa)
#
#
# Indices 1 2 3 4 5 6 
#
# 1 85.3770 34.4642 41.0747 0.0000 0.0000 0.0000
# 2 34.4642 55.9009 47.0331 0.0000 0.0000 0.0000
# 3 41.0747 47.0331 90.3017 0.0000 0.0000 0.0000
# 4 0.0000 0.0000 0.0000 21.1447 0.0000 0.0000
# 5 0.0000 0.0000 0.0000 0.0000 15.9887 0.0000
# 6 0.0000 0.0000 0.0000 0.0000 0.0000 23.4201
#
#
#
# Elastic Compliance Matrix: (Units=1/GPa)
#
#
# Indices 1 2 3 4 5 6 
#
# 1 0.016326 -0.006795 -0.003887 0.000000 0.000000 0.000000
# 2 -0.006795 0.034671 -0.014968 0.000000 0.000000 0.000000
# 3 -0.003887 -0.014968 0.020638 0.000000 0.000000 0.000000
# 4 0.000000 0.000000 0.000000 0.047293 0.000000 0.000000
# 5 0.000000 0.000000 0.000000 0.000000 0.062544 0.000000
# 6 0.000000 0.000000 0.000000 0.000000 0.000000 0.042698
#
#
# Mechanical properties :
#
#
# Convention : Reuss Voigt Hill
#
# Bulk Modulus (GPa) = 49.17388 52.96930 51.07159
# Shear Modulus (GPa) = 17.71497 19.37788 18.54642
#
# Velocity S-wave (km/s) = 3.25645 3.40586 3.33199
# Velocity P-wave (km/s) = 6.60117 6.86839 6.73611
#
# Compressibility (1/GPa) = 0.02033600
#
# Stress axis : x y z
#
# Youngs Moduli (GPa) = 61.25355 28.84242 48.45503
#
# Poissons Ratio (x) = 0.19598 0.18834
# Poissons Ratio (y) = 0.41621 0.72525
# Poissons Ratio (z) = 0.23808 0.43170
#
# Static dielectric constant tensor:
#      x y z
#    x 1.592650 0.000000 0.000000 
#    y 0.000000 1.592290 0.000000 
#    z 0.000000 0.000000 1.525410 
# 
# From -- ./inp_files/8670.got.cif
#   From: 2010.05.17/outbox.cif.g08.bks.cpg/sg35_5_cif.got.tgz:8670.got - 2010.06.03 17:29:28.
