data_PCOD9350293
_publ_section_title
;
Structure prediction by ZEFSAII (Michael W. Deem and Ramdas Pophale) SiO2 
 PCOD9350293
Probable space group: C M M 2
;
_chemical_formula_sum "Si O2"
_cell_formula_units_Z 64
_cell_length_a 31.705411
_cell_length_b 7.726491
_cell_length_c 12.439157
_cell_angle_alpha 90.000000
_cell_angle_beta 90.000000
_cell_angle_gamma 90.000000
_cell_volume 3047.239854
_symmetry_space_group_name_H-M "C M M 2"
_symmetry_group_IT_number 35
_symmetry_cell_setting 'orthorhombic'
loop_
_space_group_symop_operation_xyz
x,y,z
-x,-y,z
-x,y,z
x,-y,z
1/2+x,1/2+y,z
1/2-x,1/2-y,z
1/2-x,1/2+y,z
1/2+x,1/2-y,z
loop_
_atom_site_type_symbol
_atom_site_label
_atom_site_fract_x
_atom_site_fract_y
_atom_site_fract_z
Si Si1 0.547085 0.788149 0.348240
Si Si2 0.126473 0.711879 0.489931
Si Si3 0.047085 0.711851 0.878320
Si Si4 0.929402 0.697257 0.113280
Si Si5 0.702287 0.793846 0.888712
Si Si6 0.297713 0.793846 0.337848
Si Si7 0.336226 0.694803 0.113280
Si Si8 0.626473 0.211879 0.736629
O O1 0.500000 0.738583 0.382217
O O2 0.584526 0.732034 0.426635
O O3 0.555705 0.726168 0.226386
O O4 0.548823 0.000000 0.346404
O O5 0.126573 0.500000 0.490348
O O6 0.167505 0.768622 0.423019
O O7 0.127104 0.768696 0.613280
O O8 0.048823 0.500000 0.880156
O O9 0.084526 0.767966 0.799925
O O10 0.000000 0.761417 0.844343
O O11 0.055705 0.773832 0.000174
O O12 0.945610 0.500000 0.113280
O O13 0.878575 0.692852 0.113280
O O14 0.750000 0.750000 0.858631
O O15 0.667505 0.731378 0.803541
O O16 0.698386 0.000000 0.895370
O O17 0.690885 0.724020 0.006620
O O18 0.250000 0.750000 0.367929
O O19 0.309115 0.724021 0.219940
O O20 0.301614 0.000000 0.331191
O O21 0.352389 0.500000 0.113280
O O22 0.626574 0.000000 0.736212
#
# Coordination Sequence:
#
# PCOD9350293 Si02
#       8
#     8   8   8   8   8   8   8   8
#     4   9  16  27  49  81 113 144 180 223 272 326
#     4   9  18  32  51  78 112 147 184 227 271 315
#     4   9  16  27  49  81 113 144 180 223 272 326
#     4  10  17  31  53  81 112 147 181 223 278 325
#     4  11  22  38  58  82 112 145 180 223 275 326
#     4  11  22  38  58  82 112 145 180 223 275 326
#     4  12  23  36  57  84 111 143 182 223 273 332
#     4   9  18  32  51  78 112 147 184 227 271 315
#
# _framework density 21.002614000000001
#
# number of rings (size 3 to 8) (size 9 to 14) (size 15 to 20)
#    0.000    2.000    2.500    2.625    0.000    2.500 
#    0.000    2.500    0.000    3.750    0.000    0.000 
#    0.000    2.000    0.000    0.000    0.000    0.000 
#
# Total GULP energy -178784.866423 kJ/mol
# GULP energy per Si atom -5587.027076 kJ/mol
# Density = 2.095481 g / cm^3
# Si number density = 21.002614 Si / 1000 Ang^3
#
#
#
# Elastic Constant Matrix: (Units=GPa)
#
#
# Indices 1 2 3 4 5 6 
#
# 1 208.5948 -2.1511 114.5580 0.0000 0.0000 0.0000
# 2 -2.1511 44.9814 8.6411 0.0000 0.0000 0.0000
# 3 114.5580 8.6411 201.4044 0.0000 0.0000 0.0000
# 4 0.0000 0.0000 0.0000 -7.8622 0.0000 0.0000
# 5 0.0000 0.0000 0.0000 0.0000 -0.0718 0.0000
# 6 0.0000 0.0000 0.0000 0.0000 0.0000 13.5879
#
#
#
# Elastic Compliance Matrix: (Units=1/GPa)
#
#
# Indices 1 2 3 4 5 6 
#
# 1 0.007027 0.001113 -0.004044 0.000000 0.000000 0.000000
# 2 0.001113 0.022592 -0.001602 0.000000 0.000000 0.000000
# 3 -0.004044 -0.001602 0.007334 0.000000 0.000000 0.000000
# 4 0.000000 0.000000 0.000000 -0.127191 0.000000 0.000000
# 5 0.000000 0.000000 0.000000 0.000000-13.927239 0.000000
# 6 0.000000 0.000000 0.000000 0.000000 0.000000 0.073595
#
#
# Mechanical properties :
#
#
# Convention : Reuss Voigt Hill
#
# Bulk Modulus (GPa) = 35.86061 77.45294 56.65677
# Shear Modulus (GPa) = -0.35905 23.39296 11.51695
#
# Velocity S-wave (km/s) = -0.41392 3.34100 2.34425
# Velocity P-wave (km/s) = 4.10889 7.20006 5.86191
#
# Compressibility (1/GPa) = 0.02788575
#
# Stress axis : x y z
#
# Youngs Moduli (GPa) = 142.31545 44.26253 136.34445
#
# Poissons Ratio (x) = -0.04926 0.55144
# Poissons Ratio (y) = -0.15840 0.21847
# Poissons Ratio (z) = 0.57559 0.07093
#
# Static dielectric constant tensor:
#      x y z
#    x 1.810560 0.000000 0.000000 
#    y 0.000000 1.801310 0.000000 
#    z 0.000000 0.000000 1.718260 
# 
# From -- ./inp_files/14599.got.cif
#   From: 2010.05.17/outbox.cif.g08.bks.cpg/sg35_8_cif.got.tgz:14599.got - 2010.06.03 17:29:28.
