data_PCOD9350841
_publ_section_title
;
Structure prediction by ZEFSAII (Michael W. Deem and Ramdas Pophale) SiO2 
 PCOD9350841
Probable space group: C M C 21
;
_chemical_formula_sum "Si O2"
_cell_formula_units_Z 64
_cell_length_a 8.000636
_cell_length_b 13.633236
_cell_length_c 22.488126
_cell_angle_alpha 90.000000
_cell_angle_beta 90.000000
_cell_angle_gamma 90.000000
_cell_volume 2452.882420
_symmetry_space_group_name_H-M "C M C 21"
_symmetry_group_IT_number 36
_symmetry_cell_setting 'orthorhombic'
loop_
_space_group_symop_operation_xyz
x,y,z
-x,-y,1/2+z
x,-y,1/2+z
-x,y,z
1/2+x,1/2+y,z
1/2-x,1/2-y,1/2+z
1/2+x,1/2-y,1/2+z
1/2-x,1/2+y,z
loop_
_atom_site_type_symbol
_atom_site_label
_atom_site_fract_x
_atom_site_fract_y
_atom_site_fract_z
Si Si1 0.196962 0.224448 0.655170
Si Si2 0.696798 0.214410 0.406377
Si Si3 0.186348 0.418533 0.442049
Si Si4 0.307036 0.333539 0.032078
Si Si5 0.700087 0.763469 0.780502
Si Si6 0.203145 0.539949 0.817391
Si Si7 0.313210 0.440357 0.571691
Si Si8 0.304248 0.008110 0.689318
O O1 0.265753 0.230010 0.587409
O O2 0.272724 0.274720 0.714137
O O3 0.210077 0.108605 0.672749
O O4 0.000000 0.246651 0.649982
O O5 0.500000 0.241711 0.402492
O O6 0.810679 0.309014 0.416668
O O7 0.718311 0.159664 0.468659
O O8 0.742965 0.176657 0.340555
O O9 0.266004 0.476164 0.385578
O O10 0.264446 0.402278 0.506715
O O11 0.000000 0.456511 0.452216
O O12 0.500000 0.302810 0.022577
O O13 0.308381 0.443644 0.056171
O O14 0.500000 0.775300 0.773020
O O15 0.740069 0.650485 0.799058
O O16 0.246233 0.480487 0.756871
O O17 0.000000 0.536008 0.823248
O O18 0.500000 0.411460 0.586115
O O19 0.214131 0.434021 0.633690
O O20 0.500000 0.032667 0.692511
#
# Coordination Sequence:
#
# PCOD9350841 Si02
#       8
#     8   8   8   8   8   8   8   8
#     4   8  14  26  43  63  88 117 151 190 230 270
#     4  10  19  30  47  71  97 123 153 190 230 276
#     4  10  19  32  50  71  96 125 156 191 233 279
#     4   9  18  31  47  67  93 124 154 188 230 274
#     4   8  14  25  42  64  88 115 149 188 228 268
#     4   8  15  26  42  66  92 116 147 188 230 274
#     4  10  20  33  48  69  96 125 159 196 234 276
#     4   9  15  25  43  67  92 117 149 189 233 277
#
# _framework density 26.091754000000002
#
# number of rings (size 3 to 8) (size 9 to 14) (size 15 to 20)
#    0.000    3.000    0.000    2.250    0.000    4.000 
#    0.000    0.000    0.000    1.500    0.000    7.000 
#    0.000    0.000    0.000    0.000    0.000    0.000 
#
# Total GULP energy -178385.455697 kJ/mol
# GULP energy per Si atom -5574.545491 kJ/mol
# Density = 2.603237 g / cm^3
# Si number density = 26.091754 Si / 1000 Ang^3
#
#
#
# Elastic Constant Matrix: (Units=GPa)
#
#
# Indices 1 2 3 4 5 6 
#
# 1 44.0685 6.8409 26.8960 0.0000 0.0000 0.0000
# 2 6.8409 49.3232 48.1552 0.0000 0.0000 0.0000
# 3 26.8960 48.1552 300.5784 0.0000 0.0000 0.0000
# 4 0.0000 0.0000 0.0000 60.8611 0.0000 0.0000
# 5 0.0000 0.0000 0.0000 0.0000 20.5128 0.0000
# 6 0.0000 0.0000 0.0000 0.0000 0.0000 14.2574
#
#
#
# Elastic Compliance Matrix: (Units=1/GPa)
#
#
# Indices 1 2 3 4 5 6 
#
# 1 0.024092 -0.001466 -0.001921 0.000000 0.000000 0.000000
# 2 -0.001466 0.024123 -0.003733 0.000000 0.000000 0.000000
# 3 -0.001921 -0.003733 0.004097 0.000000 0.000000 0.000000
# 4 0.000000 0.000000 0.000000 0.016431 0.000000 0.000000
# 5 0.000000 0.000000 0.000000 0.000000 0.048750 0.000000
# 6 0.000000 0.000000 0.000000 0.000000 0.000000 0.070139
#
#
# Mechanical properties :
#
#
# Convention : Reuss Voigt Hill
#
# Bulk Modulus (GPa) = 26.26686 61.97271 44.11978
# Shear Modulus (GPa) = 23.30323 39.93148 31.61736
#
# Velocity S-wave (km/s) = 2.99176 3.91631 3.48483
# Velocity P-wave (km/s) = 4.69288 6.65232 5.75658
#
# Compressibility (1/GPa) = 0.03807079
#
# Stress axis : x y z
#
# Youngs Moduli (GPa) = 41.50778 41.45451 244.08469
#
# Poissons Ratio (x) = 0.06077 0.46886
# Poissons Ratio (y) = 0.06085 0.91129
# Poissons Ratio (z) = 0.07973 0.15477
#
# Static dielectric constant tensor:
#      x y z
#    x 1.968340 0.000000 0.000000 
#    y 0.000000 2.227330 0.000000 
#    z 0.000000 0.000000 2.196400 
# 
# From -- ./inp_files/15719.got.cif
#   From: 2010.05.17/outbox.cif.g08.bks.cpg/sg36_8_cif.got.tgz:15719.got - 2010.06.03 17:41:39.
