data_PCOD9350217
_publ_section_title
;
Structure prediction by ZEFSAII (Michael W. Deem and Ramdas Pophale) SiO2 
 PCOD9350217
Probable space group: C M M 2
;
_chemical_formula_sum "Si O2"
_cell_formula_units_Z 52
_cell_length_a 26.852040
_cell_length_b 13.393040
_cell_length_c 9.905557
_cell_angle_alpha 90.000000
_cell_angle_beta 90.000000
_cell_angle_gamma 90.000000
_cell_volume 3562.339880
_symmetry_space_group_name_H-M "C M M 2"
_symmetry_group_IT_number 35
_symmetry_cell_setting 'orthorhombic'
loop_
_space_group_symop_operation_xyz
x,y,z
-x,-y,z
-x,y,z
x,-y,z
1/2+x,1/2+y,z
1/2-x,1/2-y,z
1/2-x,1/2+y,z
1/2+x,1/2-y,z
loop_
_atom_site_type_symbol
_atom_site_label
_atom_site_fract_x
_atom_site_fract_y
_atom_site_fract_z
Si Si1 0.389799 0.881837 0.622820
Si Si2 0.500000 0.121577 0.232731
Si Si3 0.000000 0.621405 0.546034
Si Si4 0.667982 0.208287 0.867774
Si Si5 0.100073 0.385899 0.085951
Si Si6 0.750000 0.750000 0.229485
Si Si7 0.270607 0.382721 0.973565
Si Si8 0.169896 0.610970 0.347320
O O1 0.447847 0.849796 0.616133
O O2 0.355002 0.820758 0.724493
O O3 0.366631 0.873525 0.473239
O O4 0.388312 0.000000 0.659951
O O5 0.500000 0.154749 0.388768
O O6 0.451427 0.150852 0.149125
O O7 0.500000 0.000000 0.238410
O O8 0.000000 0.500000 0.543209
O O9 0.689209 0.319660 0.887855
O O10 0.716026 0.140827 0.909858
O O11 0.624646 0.182632 0.973799
O O12 0.093660 0.500000 0.033842
O O13 0.137803 0.390928 0.211075
O O14 0.790285 0.696776 0.323070
O O15 0.729790 0.666528 0.123507
O O16 0.279150 0.500000 0.977505
O O17 0.192889 0.500000 0.363728
#
# Coordination Sequence:
#
# PCOD9350217 Si02
#       8
#     8   4   4   8   8   4   8   8
#     4  10  19  30  46  69 100 129 151 184 232 279
#     4   9  16  25  43  69  95 126 156 185 222 277
#     4   9  16  27  43  65  95 126 154 181 226 285
#     4  10  20  31  47  70  94 124 156 191 230 278
#     4  10  16  27  45  67  94 123 156 186 222 271
#     4  10  18  28  48  72  92 118 164 194 222 272
#     4  10  19  32  49  67  91 123 156 196 238 274
#     4  10  18  29  46  67  96 128 154 185 227 275
#
# _framework density 14.597148000000001
#
# number of rings (size 3 to 8) (size 9 to 14) (size 15 to 20)
#    0.000    2.308    4.615    1.846    0.000    1.846 
#    0.000    2.308    0.000    0.923    0.000    2.154 
#    0.000    1.231    0.000    0.000    0.000    0.000 
#
# Total GULP energy -144793.289860 kJ/mol
# GULP energy per Si atom -5568.972687 kJ/mol
# Density = 1.456392 g / cm^3
# Si number density = 14.597148 Si / 1000 Ang^3
#
#
#
# Elastic Constant Matrix: (Units=GPa)
#
#
# Indices 1 2 3 4 5 6 
#
# 1 69.6828 27.5460 -1.1746 0.0000 0.0000 0.0000
# 2 27.5460 79.3954 10.6777 0.0000 0.0000 0.0000
# 3 -1.1746 10.6777 33.4244 0.0000 0.0000 0.0000
# 4 0.0000 0.0000 0.0000 14.7451 0.0000 0.0000
# 5 0.0000 0.0000 0.0000 0.0000 21.0060 0.0000
# 6 0.0000 0.0000 0.0000 0.0000 0.0000 -6.3256
#
#
#
# Elastic Compliance Matrix: (Units=1/GPa)
#
#
# Indices 1 2 3 4 5 6 
#
# 1 0.016840 -0.006188 0.002569 0.000000 0.000000 0.000000
# 2 -0.006188 0.015435 -0.005148 0.000000 0.000000 0.000000
# 3 0.002569 -0.005148 0.031653 0.000000 0.000000 0.000000
# 4 0.000000 0.000000 0.000000 0.067819 0.000000 0.000000
# 5 0.000000 0.000000 0.000000 0.000000 0.047606 0.000000
# 6 0.000000 0.000000 0.000000 0.000000 0.000000 -0.158088
#
#
# Mechanical properties :
#
#
# Convention : Reuss Voigt Hill
#
# Bulk Modulus (GPa) = 21.55516 28.51120 25.03318
# Shear Modulus (GPa) = 92.14170 15.58200 53.86185
#
# Velocity S-wave (km/s) = 7.95362 3.27076 6.08104
# Velocity P-wave (km/s) = 9.95719 5.81707 8.15426
#
# Compressibility (1/GPa) = 0.04639261
#
# Stress axis : x y z
#
# Youngs Moduli (GPa) = 59.38154 64.78988 31.59248
#
# Poissons Ratio (x) = 0.40093 -0.08115
# Poissons Ratio (y) = 0.36746 0.16264
# Poissons Ratio (z) = -0.15253 0.33355
#
# Static dielectric constant tensor:
#      x y z
#    x 1.743500 0.000000 0.000000 
#    y 0.000000 1.477310 0.000000 
#    z 0.000000 0.000000 1.485760 
# 
# From -- ./inp_files/10263.got.cif
#   From: 2010.05.17/outbox.cif.g08.bks.cpg/sg35_6_cif.got.tgz:10263.got - 2010.06.03 17:29:28.
