data_PCOD9350582
_publ_section_title
;
Structure prediction by ZEFSAII (Michael W. Deem and Ramdas Pophale) SiO2 
 PCOD9350582
Probable space group: C M C 21
;
_chemical_formula_sum "Si O2"
_cell_formula_units_Z 64
_cell_length_a 7.342903
_cell_length_b 23.472943
_cell_length_c 16.913278
_cell_angle_alpha 90.000000
_cell_angle_beta 90.000000
_cell_angle_gamma 90.000000
_cell_volume 2915.164876
_symmetry_space_group_name_H-M "C M C 21"
_symmetry_group_IT_number 36
_symmetry_cell_setting 'orthorhombic'
loop_
_space_group_symop_operation_xyz
x,y,z
-x,-y,1/2+z
x,-y,1/2+z
-x,y,z
1/2+x,1/2+y,z
1/2-x,1/2-y,1/2+z
1/2+x,1/2-y,1/2+z
1/2-x,1/2+y,z
loop_
_atom_site_type_symbol
_atom_site_label
_atom_site_fract_x
_atom_site_fract_y
_atom_site_fract_z
Si Si1 0.280268 0.211692 0.493540
Si Si2 0.722921 0.488987 0.860470
Si Si3 0.279374 0.670709 0.048623
Si Si4 0.722826 0.459789 0.530177
Si Si5 0.705851 0.638813 0.345247
Si Si6 0.708745 0.527041 0.687575
Si Si7 0.222240 0.775474 0.717359
Si Si8 0.719089 0.158223 0.663219
O O1 0.500000 0.210729 0.487542
O O2 0.221776 0.277842 0.490903
O O3 0.201554 0.172436 0.426484
O O4 0.233621 0.183157 0.577218
O O5 0.500000 0.492181 0.862738
O O6 0.784034 0.423399 0.857419
O O7 0.783502 0.515169 0.775970
O O8 0.780949 0.515825 0.944529
O O9 0.500000 0.669110 0.045719
O O10 0.218983 0.606263 0.035999
O O11 0.229644 0.694932 0.134634
O O12 0.500000 0.461696 0.530564
O O13 0.783480 0.495250 0.608634
O O14 0.500000 0.628277 0.315698
O O15 0.791794 0.682709 0.284311
O O16 0.500000 0.506767 0.691618
O O17 0.711193 0.594879 0.675151
O O18 0.280487 0.709539 0.720725
O O19 0.000000 0.773277 0.720164
O O20 0.500000 0.154164 0.667597
#
# Coordination Sequence:
#
# PCOD9350582 Si02
#       8
#     8   8   8   8   8   8   8   8
#     4   9  18  31  48  70  94 122 157 195 234 282
#     4   9  18  29  43  69  98 121 152 194 236 281
#     4   8  14  27  46  65  88 122 159 189 225 277
#     4   9  16  27  45  69  97 125 152 189 237 282
#     4  10  18  30  49  70  94 122 154 195 240 281
#     4  10  19  31  50  74  97 123 158 199 239 280
#     4   8  15  28  46  65  85 118 160 192 222 274
#     4   9  18  33  49  66  93 127 160 191 231 285
#
# _framework density 21.954162
#
# number of rings (size 3 to 8) (size 9 to 14) (size 15 to 20)
#    0.000    3.000    0.000    3.000    0.000    5.500 
#    0.000    2.500    0.000    2.250    0.000    0.000 
#    0.000    0.000    0.000    0.000    0.000    0.000 
#
# Total GULP energy -178427.930500 kJ/mol
# GULP energy per Si atom -5575.872828 kJ/mol
# Density = 2.190419 g / cm^3
# Si number density = 21.954162 Si / 1000 Ang^3
#
#
#
# Elastic Constant Matrix: (Units=GPa)
#
#
# Indices 1 2 3 4 5 6 
#
# 1 76.3242 2.5700 6.9319 0.0000 0.0000 0.0000
# 2 2.5700 214.8957 94.4361 0.0000 0.0000 0.0000
# 3 6.9319 94.4361 127.2387 0.0000 0.0000 0.0000
# 4 0.0000 0.0000 0.0000 37.1327 0.0000 0.0000
# 5 0.0000 0.0000 0.0000 0.0000 -3.1332 0.0000
# 6 0.0000 0.0000 0.0000 0.0000 0.0000 -342.6539
#
#
#
# Elastic Compliance Matrix: (Units=1/GPa)
#
#
# Indices 1 2 3 4 5 6 
#
# 1 0.013175 0.000234 -0.000892 0.000000 0.000000 0.000000
# 2 0.000234 0.006910 -0.005141 0.000000 0.000000 0.000000
# 3 -0.000892 -0.005141 0.011724 0.000000 0.000000 0.000000
# 4 0.000000 0.000000 0.000000 0.026930 0.000000 0.000000
# 5 0.000000 0.000000 0.000000 0.000000 -0.319160 0.000000
# 6 0.000000 0.000000 0.000000 0.000000 0.000000 -0.002918
#
#
# Mechanical properties :
#
#
# Convention : Reuss Voigt Hill
#
# Bulk Modulus (GPa) = 49.47709 69.59272 59.53491
# Shear Modulus (GPa) = -20.40778 -40.76285 -30.58531
#
# Velocity S-wave (km/s) = -3.05218 -4.31365 -3.73653
# Velocity P-wave (km/s) = 3.18816 2.63777 2.92594
#
# Compressibility (1/GPa) = 0.02021137
#
# Stress axis : x y z
#
# Youngs Moduli (GPa) = 75.90077 144.71823 85.29734
#
# Poissons Ratio (x) = -0.03390 0.07605
# Poissons Ratio (y) = -0.01778 0.43854
# Poissons Ratio (z) = 0.06768 0.74404
#
# Static dielectric constant tensor:
#      x y z
#    x 1.882700 0.000000 0.000000 
#    y 0.000000 1.770140 0.000000 
#    z 0.000000 0.000000 1.788950 
# 
# From -- ./inp_files/14485.got.cif
#   From: 2010.05.17/outbox.cif.g08.bks.cpg/sg36_8_cif.got.tgz:14485.got - 2010.06.03 17:41:39.
