data_PCOD9350995
_publ_section_title
;
Structure prediction by ZEFSAII (Michael W. Deem and Ramdas Pophale) SiO2 
 PCOD9350995
Probable space group: C M C 21
;
_chemical_formula_sum "Si O2"
_cell_formula_units_Z 64
_cell_length_a 8.463801
_cell_length_b 21.175505
_cell_length_c 19.861936
_cell_angle_alpha 90.000000
_cell_angle_beta 90.000000
_cell_angle_gamma 90.000000
_cell_volume 3559.760652
_symmetry_space_group_name_H-M "C M C 21"
_symmetry_group_IT_number 36
_symmetry_cell_setting 'orthorhombic'
loop_
_space_group_symop_operation_xyz
x,y,z
-x,-y,1/2+z
x,-y,1/2+z
-x,y,z
1/2+x,1/2+y,z
1/2-x,1/2-y,1/2+z
1/2+x,1/2-y,1/2+z
1/2-x,1/2+y,z
loop_
_atom_site_type_symbol
_atom_site_label
_atom_site_fract_x
_atom_site_fract_y
_atom_site_fract_z
Si Si1 0.191911 0.863604 0.875000
Si Si2 0.311494 0.511024 0.876800
Si Si3 0.812773 0.491924 0.230436
Si Si4 0.188039 0.445191 0.513426
Si Si5 0.689679 0.634402 0.224418
Si Si6 0.690850 0.816688 0.587290
Si Si7 0.811630 0.935850 0.096310
Si Si8 0.806878 0.188888 0.515175
O O1 0.235949 0.937143 0.885620
O O2 0.242499 0.845230 0.799569
O O3 0.000000 0.862108 0.875087
O O4 0.246588 0.822589 0.938299
O O5 0.500000 0.514644 0.884500
O O6 0.263697 0.528440 0.801059
O O7 0.229712 0.551198 0.934840
O O8 0.750561 0.562689 0.214590
O O9 0.766403 0.447708 0.168438
O O10 0.000000 0.494762 0.237969
O O11 0.240737 0.379879 0.547558
O O12 0.269343 0.504475 0.549621
O O13 0.000000 0.450995 0.522975
O O14 0.500000 0.632652 0.223385
O O15 0.750596 0.676850 0.163622
O O16 0.500000 0.815911 0.588076
O O17 0.745951 0.753793 0.549235
O O18 0.759816 0.871796 0.059342
O O19 0.000000 0.933493 0.104751
O O20 0.000000 0.189588 0.514045
#
# Coordination Sequence:
#
# PCOD9350995 Si02
#       8
#     8   8   8   8   8   8   8   8
#     4   8  15  30  53  79 100 131 182 230 268 320
#     4  10  19  34  56  82 109 142 187 232 279 334
#     4  11  21  34  53  82 116 144 180 232 288 336
#     4  11  21  33  52  82 115 146 181 226 283 330
#     4  10  19  32  54  80 109 144 187 229 274 334
#     4  10  21  36  55  79 113 151 186 226 280 334
#     4  11  20  34  58  82 107 145 190 231 274 328
#     4   9  18  35  57  80 107 145 189 230 276 332
#
# _framework density 17.978736999999999
#
# number of rings (size 3 to 8) (size 9 to 14) (size 15 to 20)
#    0.000    2.000    2.500    3.375    0.000    0.500 
#    0.000    2.500    0.000    1.500    0.000    0.000 
#    0.000    0.000    0.000    0.000    0.000    0.000 
#
# Total GULP energy -178598.271937 kJ/mol
# GULP energy per Si atom -5581.195998 kJ/mol
# Density = 1.793782 g / cm^3
# Si number density = 17.978737 Si / 1000 Ang^3
#
#
#
# Elastic Constant Matrix: (Units=GPa)
#
#
# Indices 1 2 3 4 5 6 
#
# 1 18.1357 9.7976 -0.9675 0.0000 0.0000 0.0000
# 2 9.7976 100.1024 63.5365 0.0000 0.0000 0.0000
# 3 -0.9675 63.5365 141.3905 0.0000 0.0000 0.0000
# 4 0.0000 0.0000 0.0000 28.0975 0.0000 0.0000
# 5 0.0000 0.0000 0.0000 0.0000 30.2908 0.0000
# 6 0.0000 0.0000 0.0000 0.0000 0.0000 14.3822
#
#
#
# Elastic Compliance Matrix: (Units=1/GPa)
#
#
# Indices 1 2 3 4 5 6 
#
# 1 0.060003 -0.008581 0.004267 0.000000 0.000000 0.000000
# 2 -0.008581 0.015203 -0.006891 0.000000 0.000000 0.000000
# 3 0.004267 -0.006891 0.010198 0.000000 0.000000 0.000000
# 4 0.000000 0.000000 0.000000 0.035590 0.000000 0.000000
# 5 0.000000 0.000000 0.000000 0.000000 0.033013 0.000000
# 6 0.000000 0.000000 0.000000 0.000000 0.000000 0.069531
#
#
# Mechanical properties :
#
#
# Convention : Reuss Voigt Hill
#
# Bulk Modulus (GPa) = 15.87431 44.92910 30.40171
# Shear Modulus (GPa) = 18.73030 27.03821 22.88425
#
# Velocity S-wave (km/s) = 3.23120 3.88222 3.57157
# Velocity P-wave (km/s) = 4.77174 6.71862 5.82707
#
# Compressibility (1/GPa) = 0.06299487
#
# Stress axis : x y z
#
# Youngs Moduli (GPa) = 16.66575 65.77565 98.05639
#
# Poissons Ratio (x) = 0.56442 -0.41837
# Poissons Ratio (y) = 0.14301 0.67566
# Poissons Ratio (z) = -0.07111 0.45323
#
# Static dielectric constant tensor:
#      x y z
#    x 1.614130 0.000000 0.000000 
#    y 0.000000 1.591130 0.000000 
#    z 0.000000 0.000000 1.631300 
# 
# From -- ./inp_files/13897.got.cif
#   From: 2010.05.17/outbox.cif.g08.bks.cpg/sg36_7_cif.got.tgz:13897.got - 2010.06.03 17:41:39.
