data_PCOD9350945
_publ_section_title
;
Structure prediction by ZEFSAII (Michael W. Deem and Ramdas Pophale) SiO2 
 PCOD9350945
Probable space group: C M C 21
;
_chemical_formula_sum "Si O2"
_cell_formula_units_Z 64
_cell_length_a 9.116356
_cell_length_b 23.506851
_cell_length_c 17.853061
_cell_angle_alpha 90.000000
_cell_angle_beta 90.000000
_cell_angle_gamma 90.000000
_cell_volume 3825.854238
_symmetry_space_group_name_H-M "C M C 21"
_symmetry_group_IT_number 36
_symmetry_cell_setting 'orthorhombic'
loop_
_space_group_symop_operation_xyz
x,y,z
-x,-y,1/2+z
x,-y,1/2+z
-x,y,z
1/2+x,1/2+y,z
1/2-x,1/2-y,1/2+z
1/2+x,1/2-y,1/2+z
1/2-x,1/2+y,z
loop_
_atom_site_type_symbol
_atom_site_label
_atom_site_fract_x
_atom_site_fract_y
_atom_site_fract_z
Si Si1 0.326540 0.925151 0.052390
Si Si2 0.175710 0.690301 0.480259
Si Si3 0.333153 0.411396 0.454733
Si Si4 0.673684 0.866075 0.680295
Si Si5 0.827240 0.142886 0.330410
Si Si6 0.326816 0.471866 0.905943
Si Si7 0.168413 0.026838 0.118120
Si Si8 0.673329 0.808036 0.519894
O O1 0.500000 0.931917 0.064207
O O2 0.237552 0.964259 0.110219
O O3 0.290595 0.858525 0.042424
O O4 0.279546 0.950342 0.971548
O O5 0.250696 0.671327 0.402265
O O6 0.238219 0.750881 0.504140
O O7 0.000000 0.691424 0.471106
O O8 0.500000 0.391332 0.442769
O O9 0.297665 0.461200 0.395175
O O10 0.330874 0.445127 0.534453
O O11 0.226536 0.358434 0.464646
O O12 0.500000 0.868344 0.692255
O O13 0.753386 0.840624 0.752534
O O14 0.736737 0.929192 0.665815
O O15 0.701999 0.830676 0.604251
O O16 0.810202 0.074348 0.341018
O O17 0.000000 0.155624 0.330983
O O18 0.500000 0.467987 0.929841
O O19 0.000000 0.024927 0.143526
O O20 0.500000 0.798489 0.511752
#
# Coordination Sequence:
#
# PCOD9350945 Si02
#       8
#     8   8   8   8   8   8   8   8
#     4   9  16  26  43  68  94 119 149 189 235 280
#     4  10  20  33  50  72  99 132 170 210 251 295
#     4   8  14  26  44  66  92 119 149 188 232 277
#     4  10  20  33  49  72 101 130 163 205 253 302
#     4  10  19  32  51  74 100 129 163 203 250 304
#     4   8  15  27  44  67  93 121 151 185 229 283
#     4   9  16  27  45  68  93 122 153 187 233 285
#     4  10  20  32  48  71  98 130 170 211 247 290
#
# _framework density 16.728290999999999
#
# number of rings (size 3 to 8) (size 9 to 14) (size 15 to 20)
#    0.000    2.750    0.000    3.000    0.000    6.500 
#    0.000    0.000    0.000    1.500    0.000    8.750 
#    0.000    0.000    0.000    0.000    0.000    0.000 
#
# Total GULP energy -178169.241837 kJ/mol
# GULP energy per Si atom -5567.788807 kJ/mol
# Density = 1.669022 g / cm^3
# Si number density = 16.728291 Si / 1000 Ang^3
#
#
#
# Elastic Constant Matrix: (Units=GPa)
#
#
# Indices 1 2 3 4 5 6 
#
# 1 88.8467 63.8328 36.7684 0.0000 0.0000 0.0000
# 2 63.8328 110.6240 25.7737 0.0000 0.0000 0.0000
# 3 36.7684 25.7737 40.3287 0.0000 0.0000 0.0000
# 4 0.0000 0.0000 0.0000 9.8781 0.0000 0.0000
# 5 0.0000 0.0000 0.0000 0.0000 19.9386 0.0000
# 6 0.0000 0.0000 0.0000 0.0000 0.0000 27.4793
#
#
#
# Elastic Compliance Matrix: (Units=1/GPa)
#
#
# Indices 1 2 3 4 5 6 
#
# 1 0.026285 -0.011260 -0.016768 0.000000 0.000000 0.000000
# 2 -0.011260 0.015445 0.000395 0.000000 0.000000 0.000000
# 3 -0.016768 0.000395 0.039831 0.000000 0.000000 0.000000
# 4 0.000000 0.000000 0.000000 0.101234 0.000000 0.000000
# 5 0.000000 0.000000 0.000000 0.000000 0.050154 0.000000
# 6 0.000000 0.000000 0.000000 0.000000 0.000000 0.036391
#
#
# Mechanical properties :
#
#
# Convention : Reuss Voigt Hill
#
# Bulk Modulus (GPa) = 38.02959 54.72769 46.37864
# Shear Modulus (GPa) = 14.99835 19.02083 17.00959
#
# Velocity S-wave (km/s) = 2.99755 3.37567 3.19221
# Velocity P-wave (km/s) = 5.89606 6.92677 6.43209
#
# Compressibility (1/GPa) = 0.02629531
#
# Stress axis : x y z
#
# Youngs Moduli (GPa) = 38.04512 64.74617 25.10607
#
# Poissons Ratio (x) = 0.72906 0.42097
# Poissons Ratio (y) = 0.42840 -0.00993
# Poissons Ratio (z) = 0.63793 -0.02560
#
# Static dielectric constant tensor:
#      x y z
#    x 1.556090 0.000000 0.000000 
#    y 0.000000 1.583660 0.000000 
#    z 0.000000 0.000000 1.575410 
# 
# From -- ./inp_files/14034.got.cif
#   From: 2010.05.17/outbox.cif.g08.bks.cpg/sg36_8_cif.got.tgz:14034.got - 2010.06.03 17:41:39.
