data_PCOD9350431
_publ_section_title
;
Structure prediction by ZEFSAII (Michael W. Deem and Ramdas Pophale) SiO2 
 PCOD9350431
Probable space group: C M M 2
;
_chemical_formula_sum "Si O2"
_cell_formula_units_Z 64
_cell_length_a 30.508687
_cell_length_b 8.079174
_cell_length_c 12.732601
_cell_angle_alpha 90.000000
_cell_angle_beta 90.000000
_cell_angle_gamma 90.000000
_cell_volume 3138.395040
_symmetry_space_group_name_H-M "C M M 2"
_symmetry_group_IT_number 35
_symmetry_cell_setting 'orthorhombic'
loop_
_space_group_symop_operation_xyz
x,y,z
-x,-y,z
-x,y,z
x,-y,z
1/2+x,1/2+y,z
1/2-x,1/2-y,z
1/2-x,1/2+y,z
1/2+x,1/2-y,z
loop_
_atom_site_type_symbol
_atom_site_label
_atom_site_fract_x
_atom_site_fract_y
_atom_site_fract_z
Si Si1 0.547436 0.698599 0.225550
Si Si2 0.111325 0.797469 0.407859
Si Si3 0.106220 0.699766 0.798294
Si Si4 0.907131 0.693203 0.034048
Si Si5 0.797512 0.306253 0.853901
Si Si6 0.202732 0.800388 0.322515
Si Si7 0.185509 0.809515 0.087788
Si Si8 0.550419 0.698100 0.598726
O O1 0.500000 0.738345 0.271999
O O2 0.550166 0.500000 0.215365
O O3 0.585386 0.753884 0.303396
O O4 0.553094 0.776850 0.111624
O O5 0.161526 0.743484 0.392241
O O6 0.082658 0.738801 0.506440
O O7 0.111523 0.000000 0.411384
O O8 0.107053 0.500000 0.787882
O O9 0.157074 0.762307 0.803922
O O10 0.075774 0.767933 0.706954
O O11 0.086656 0.739568 0.913185
O O12 0.894043 0.500000 0.035710
O O13 0.867012 0.797654 0.081121
O O14 0.799672 0.500000 0.837451
O O15 0.750000 0.250000 0.814412
O O16 0.799348 0.274120 0.979682
O O17 0.250000 0.750000 0.364443
O O18 0.198943 0.738675 0.201136
O O19 0.200074 0.000000 0.316466
O O20 0.199988 0.000000 0.082581
O O21 0.500000 0.761563 0.596584
O O22 0.547409 0.500000 0.584734
#
# Coordination Sequence:
#
# PCOD9350431 Si02
#       8
#     8   8   8   8   8   8   8   8
#     4  10  19  33  56  82 109 144 183 224 277 343
#     4   9  18  37  58  80 111 143 180 229 283 333
#     4   9  21  39  56  78 112 150 185 227 282 338
#     4  10  20  34  52  77 114 152 183 225 277 334
#     4  10  20  34  53  81 115 153 192 230 278 331
#     4  10  20  33  52  78 111 148 183 220 268 327
#     4  10  18  31  52  78 110 151 192 230 271 325
#     4  10  21  38  63  88 105 134 188 244 286 333
#
# _framework density 20.392586999999999
#
# number of rings (size 3 to 8) (size 9 to 14) (size 15 to 20)
#    0.000    2.250    1.250    2.625    0.000    7.500 
#    0.000    4.375    0.000    4.500    0.000    0.000 
#    0.000    0.000    0.000    0.000    0.000    0.000 
#
# Total GULP energy -178468.900113 kJ/mol
# GULP energy per Si atom -5577.153129 kJ/mol
# Density = 2.034617 g / cm^3
# Si number density = 20.392587 Si / 1000 Ang^3
#
#
#
# Elastic Constant Matrix: (Units=GPa)
#
#
# Indices 1 2 3 4 5 6 
#
# 1 174.3773 11.3908 77.9118 0.0000 0.0000 0.0000
# 2 11.3908 10.7550 4.3307 0.0000 0.0000 0.0000
# 3 77.9118 4.3307 105.0023 0.0000 0.0000 0.0000
# 4 0.0000 0.0000 0.0000 -17.1504 0.0000 0.0000
# 5 0.0000 0.0000 0.0000 0.0000 10.7829 0.0000
# 6 0.0000 0.0000 0.0000 0.0000 0.0000 26.1546
#
#
#
# Elastic Compliance Matrix: (Units=1/GPa)
#
#
# Indices 1 2 3 4 5 6 
#
# 1 0.009071 -0.007013 -0.006441 0.000000 0.000000 0.000000
# 2 -0.007013 0.099973 0.001081 0.000000 0.000000 0.000000
# 3 -0.006441 0.001081 0.014258 0.000000 0.000000 0.000000
# 4 0.000000 0.000000 0.000000 -0.058308 0.000000 0.000000
# 5 0.000000 0.000000 0.000000 0.000000 0.092740 0.000000
# 6 0.000000 0.000000 0.000000 0.000000 0.000000 0.038234
#
#
# Mechanical properties :
#
#
# Convention : Reuss Voigt Hill
#
# Bulk Modulus (GPa) = 10.14669 53.04458 31.59564
# Shear Modulus (GPa) = 19.71857 17.05749 18.38803
#
# Velocity S-wave (km/s) = 3.11295 2.89529 3.00609
# Velocity P-wave (km/s) = 4.23168 6.10288 5.25130
#
# Compressibility (1/GPa) = 0.09855429
#
# Stress axis : x y z
#
# Youngs Moduli (GPa) = 110.24413 10.00269 70.13381
#
# Poissons Ratio (x) = 0.07015 0.45175
# Poissons Ratio (y) = 0.77318 -0.07579
# Poissons Ratio (z) = 0.71011 -0.01081
#
# Static dielectric constant tensor:
#      x y z
#    x 1.776560 0.000000 0.000000 
#    y 0.000000 1.752270 0.000000 
#    z 0.000000 0.000000 1.710120 
# 
# From -- ./inp_files/14549.got.cif
#   From: 2010.05.17/outbox.cif.g08.bks.cpg/sg35_8_cif.got.tgz:14549.got - 2010.06.03 17:29:28.
