data_PCOD9350101
_publ_section_title
;
Structure prediction by ZEFSAII (Michael W. Deem and Ramdas Pophale) SiO2 
 PCOD9350101
Probable space group: C M M 2
;
_chemical_formula_sum "Si O2"
_cell_formula_units_Z 40
_cell_length_a 7.820318
_cell_length_b 15.567005
_cell_length_c 16.800332
_cell_angle_alpha 90.000000
_cell_angle_beta 90.000000
_cell_angle_gamma 90.000000
_cell_volume 2045.254431
_symmetry_space_group_name_H-M "C M M 2"
_symmetry_group_IT_number 35
_symmetry_cell_setting 'orthorhombic'
loop_
_space_group_symop_operation_xyz
x,y,z
-x,-y,z
-x,y,z
x,-y,z
1/2+x,1/2+y,z
1/2-x,1/2-y,z
1/2-x,1/2+y,z
1/2+x,1/2-y,z
loop_
_atom_site_type_symbol
_atom_site_label
_atom_site_fract_x
_atom_site_fract_y
_atom_site_fract_z
Si Si1 0.299165 0.000000 0.581831
Si Si2 0.801402 0.104198 0.292133
Si Si3 0.301140 0.344224 0.875482
Si Si4 0.702070 0.654599 0.467131
Si Si5 0.500000 0.104860 0.175814
Si Si6 0.500000 0.896268 0.992699
Si Si7 0.207850 0.500000 0.761815
O O1 0.255495 0.083123 0.529855
O O2 0.226991 0.000000 0.671060
O O3 0.500000 0.000000 0.593052
O O4 0.733041 0.136520 0.377621
O O5 0.669963 0.131705 0.223744
O O6 0.000000 0.130911 0.279594
O O7 0.801553 0.000000 0.295753
O O8 0.500000 0.345026 0.900080
O O9 0.250000 0.250000 0.844675
O O10 0.271342 0.416460 0.809000
O O11 0.168919 0.364547 0.946646
O O12 0.500000 0.647807 0.459683
O O13 0.750000 0.750000 0.492671
O O14 0.500000 0.132312 0.084281
O O15 0.500000 0.000000 0.175759
O O16 0.500000 0.000000 0.989518
O O17 0.000000 0.500000 0.765008
#
# Coordination Sequence:
#
# PCOD9350101 Si02
#       7
#     4   8   8   8   4   4   4
#     4  11  25  41  67  95 127 166 205 266 320 368
#     4   9  18  35  59  88 121 164 217 260 313 373
#     4  12  23  41  70  95 127 174 210 257 322 383
#     4  11  23  39  62  90 127 171 216 262 311 376
#     4   9  20  34  62  90 123 166 203 269 318 363
#     4  11  22  42  64  97 135 160 215 270 314 388
#     4  11  23  45  67  98 130 159 213 266 314 389
#
# _framework density 19.557469999999999
#
# number of rings (size 3 to 8) (size 9 to 14) (size 15 to 20)
#    0.000    1.400    4.000    1.200    2.800    3.200 
#    0.000    3.000    0.000    0.000    0.000    0.000 
#    0.000    0.000    0.000    0.000    0.000    0.000 
#
# Total GULP energy -111735.266167 kJ/mol
# GULP energy per Si atom -5586.763308 kJ/mol
# Density = 1.951296 g / cm^3
# Si number density = 19.557470 Si / 1000 Ang^3
#
#
#
# Elastic Constant Matrix: (Units=GPa)
#
#
# Indices 1 2 3 4 5 6 
#
# 1 125.8171 35.1627 67.4330 0.0000 0.0000 0.0000
# 2 35.1627 124.2546 73.4368 0.0000 0.0000 0.0000
# 3 67.4330 73.4368 182.4567 0.0000 0.0000 0.0000
# 4 0.0000 0.0000 0.0000 -9.1097 0.0000 0.0000
# 5 0.0000 0.0000 0.0000 0.0000 0.1920 0.0000
# 6 0.0000 0.0000 0.0000 0.0000 0.0000 25.2995
#
#
#
# Elastic Compliance Matrix: (Units=1/GPa)
#
#
# Indices 1 2 3 4 5 6 
#
# 1 0.009979 -0.000845 -0.003348 0.000000 0.000000 0.000000
# 2 -0.000845 0.010632 -0.003967 0.000000 0.000000 0.000000
# 3 -0.003348 -0.003967 0.008315 0.000000 0.000000 0.000000
# 4 0.000000 0.000000 0.000000 -0.109773 0.000000 0.000000
# 5 0.000000 0.000000 0.000000 0.000000 5.209166 0.000000
# 6 0.000000 0.000000 0.000000 0.000000 0.000000 0.039526
#
#
# Mechanical properties :
#
#
# Convention : Reuss Voigt Hill
#
# Bulk Modulus (GPa) = 79.33141 87.17704 83.25423
# Shear Modulus (GPa) = 0.96369 20.37609 10.66989
#
# Velocity S-wave (km/s) = 0.70272 3.23128 2.33827
# Velocity P-wave (km/s) = 6.42726 7.65462 7.06763
#
# Compressibility (1/GPa) = 0.01260535
#
# Stress axis : x y z
#
# Youngs Moduli (GPa) = 100.21540 94.05936 120.27108
#
# Poissons Ratio (x) = 0.07951 0.40263
# Poissons Ratio (y) = 0.08471 0.47708
# Poissons Ratio (z) = 0.33549 0.37310
#
# Static dielectric constant tensor:
#      x y z
#    x 1.687970 0.000000 0.000000 
#    y 0.000000 1.675980 0.000000 
#    z 0.000000 0.000000 1.691370 
# 
# From -- ./inp_files/14861.got.cif
#   From: 2010.05.17/outbox.cif.g08.bks.cpg/sg35_8_cif.got.tgz:14861.got - 2010.06.03 17:29:28.
