data_PCOD9350372
_publ_section_title
;
Structure prediction by ZEFSAII (Michael W. Deem and Ramdas Pophale) SiO2 
 PCOD9350372
Probable space group: C M M 2
;
_chemical_formula_sum "Si O2"
_cell_formula_units_Z 64
_cell_length_a 29.325345
_cell_length_b 8.820945
_cell_length_c 15.994205
_cell_angle_alpha 90.000000
_cell_angle_beta 90.000000
_cell_angle_gamma 90.000000
_cell_volume 4137.337051
_symmetry_space_group_name_H-M "C M M 2"
_symmetry_group_IT_number 35
_symmetry_cell_setting 'orthorhombic'
loop_
_space_group_symop_operation_xyz
x,y,z
-x,-y,z
-x,y,z
x,-y,z
1/2+x,1/2+y,z
1/2-x,1/2-y,z
1/2-x,1/2+y,z
1/2+x,1/2-y,z
loop_
_atom_site_type_symbol
_atom_site_label
_atom_site_fract_x
_atom_site_fract_y
_atom_site_fract_z
Si Si1 0.605213 0.681054 0.345120
Si Si2 0.946547 0.317113 0.852698
Si Si3 0.946661 0.681255 0.501837
Si Si4 0.605967 0.184230 0.017677
Si Si5 0.053581 0.317160 0.185844
Si Si6 0.555333 0.325459 0.677375
Si Si7 0.202179 0.181921 0.274025
Si Si8 0.701942 0.182511 0.088353
O O1 0.600917 0.500000 0.348502
O O2 0.583603 0.751776 0.427907
O O3 0.578067 0.742685 0.264701
O O4 0.658450 0.718454 0.330456
O O5 0.944470 0.500000 0.848242
O O6 0.930343 0.250400 0.764384
O O7 0.000000 0.276799 0.865362
O O8 0.917045 0.263910 0.931762
O O9 0.945044 0.500000 0.499949
O O10 0.931248 0.739818 0.592762
O O11 0.000000 0.726971 0.489761
O O12 0.577221 0.231524 0.099228
O O13 0.658478 0.226675 0.032645
O O14 0.604231 0.000000 0.016397
O O15 0.058312 0.500000 0.192527
O O16 0.000000 0.281729 0.184873
O O17 0.500000 0.320670 0.678579
O O18 0.569630 0.500000 0.673726
O O19 0.250000 0.250000 0.305054
O O20 0.194450 0.253057 0.181937
O O21 0.205875 0.000000 0.265889
O O22 0.750000 0.250000 0.058671
O O23 0.704556 0.000000 0.092792
#
# Coordination Sequence:
#
# PCOD9350372 Si02
#       8
#     8   8   8   8   8   8   8   8
#     4  11  22  33  46  68  97 126 156 193 240 285
#     4   9  16  28  47  69  93 122 158 195 229 274
#     4  10  20  33  50  71  94 125 164 198 229 274
#     4   9  17  29  46  68  92 123 160 197 234 272
#     4  10  19  31  46  64  91 129 168 197 224 268
#     4   9  17  30  47  68  95 124 153 191 239 281
#     4  10  20  33  49  68  90 120 157 198 241 283
#     4  10  18  30  48  67  90 120 156 200 244 281
#
# _framework density 15.468887
#
# number of rings (size 3 to 8) (size 9 to 14) (size 15 to 20)
#    0.000    2.250    1.250    3.375    0.000    7.000 
#    0.000    1.875    0.000    1.500    0.000    0.875 
#    0.000    4.000    0.000    0.000    0.000    0.000 
#
# Total GULP energy -178465.897640 kJ/mol
# GULP energy per Si atom -5577.059301 kJ/mol
# Density = 1.543368 g / cm^3
# Si number density = 15.468887 Si / 1000 Ang^3
#
#
#
# Elastic Constant Matrix: (Units=GPa)
#
#
# Indices 1 2 3 4 5 6 
#
# 1 116.5531 46.4047 82.3412 0.0000 0.0000 0.0000
# 2 46.4047 43.9810 43.1964 0.0000 0.0000 0.0000
# 3 82.3412 43.1964 147.9409 0.0000 0.0000 0.0000
# 4 0.0000 0.0000 0.0000 10.8301 0.0000 0.0000
# 5 0.0000 0.0000 0.0000 0.0000 7.8754 0.0000
# 6 0.0000 0.0000 0.0000 0.0000 0.0000 18.9096
#
#
#
# Elastic Compliance Matrix: (Units=1/GPa)
#
#
# Indices 1 2 3 4 5 6 
#
# 1 0.018254 -0.013013 -0.006360 0.000000 0.000000 0.000000
# 2 -0.013013 0.041157 -0.004774 0.000000 0.000000 0.000000
# 3 -0.006360 -0.004774 0.011693 0.000000 0.000000 0.000000
# 4 0.000000 0.000000 0.000000 0.092335 0.000000 0.000000
# 5 0.000000 0.000000 0.000000 0.000000 0.126977 0.000000
# 6 0.000000 0.000000 0.000000 0.000000 0.000000 0.052883
#
#
# Mechanical properties :
#
#
# Convention : Reuss Voigt Hill
#
# Bulk Modulus (GPa) = 43.84281 72.48440 58.16361
# Shear Modulus (GPa) = 12.52511 16.62521 14.57516
#
# Velocity S-wave (km/s) = 2.84860 3.28190 3.07290
# Velocity P-wave (km/s) = 6.26287 7.83078 7.09029
#
# Compressibility (1/GPa) = 0.02280876
#
# Stress axis : x y z
#
# Youngs Moduli (GPa) = 54.78144 24.29746 85.51806
#
# Poissons Ratio (x) = 0.31619 0.54392
# Poissons Ratio (y) = 0.71290 0.40827
# Poissons Ratio (z) = 0.34843 0.11600
#
# Static dielectric constant tensor:
#      x y z
#    x 1.514220 0.000000 0.000000 
#    y 0.000000 1.521440 0.000000 
#    z 0.000000 0.000000 1.493710 
# 
# From -- ./inp_files/16185.got.cif
#   From: 2010.05.17/outbox.cif.g08.bks.cpg/sg35_9_cif.got.tgz:16185.got - 2010.06.03 17:29:28.
