data_PCOD9350234
_publ_section_title
;
Structure prediction by ZEFSAII (Michael W. Deem and Ramdas Pophale) SiO2 
 PCOD9350234
Probable space group: C M M 2
;
_chemical_formula_sum "Si O2"
_cell_formula_units_Z 56
_cell_length_a 8.647306
_cell_length_b 18.527115
_cell_length_c 19.263231
_cell_angle_alpha 90.000000
_cell_angle_beta 90.000000
_cell_angle_gamma 90.000000
_cell_volume 3086.155163
_symmetry_space_group_name_H-M "C M M 2"
_symmetry_group_IT_number 35
_symmetry_cell_setting 'orthorhombic'
loop_
_space_group_symop_operation_xyz
x,y,z
-x,-y,z
-x,y,z
x,-y,z
1/2+x,1/2+y,z
1/2-x,1/2-y,z
1/2-x,1/2+y,z
1/2+x,1/2-y,z
loop_
_atom_site_type_symbol
_atom_site_label
_atom_site_fract_x
_atom_site_fract_y
_atom_site_fract_z
Si Si1 0.817012 0.830726 0.847990
Si Si2 0.314308 0.585034 0.124806
Si Si3 0.818035 0.586314 0.977434
Si Si4 0.315873 0.832101 0.704999
Si Si5 0.687171 0.331211 0.261778
Si Si6 0.814066 0.832325 0.562915
Si Si7 0.686450 0.668245 0.412620
O O1 0.750000 0.750000 0.856506
O O2 0.773013 0.875767 0.915647
O O3 0.743829 0.863754 0.777607
O O4 0.000000 0.826060 0.838920
O O5 0.500000 0.593313 0.118502
O O6 0.281236 0.500000 0.131951
O O7 0.260931 0.625165 0.194287
O O8 0.237355 0.611170 0.053522
O O9 0.792784 0.500000 0.974403
O O10 0.000000 0.600548 0.969139
O O11 0.500000 0.829670 0.704055
O O12 0.250000 0.750000 0.705688
O O13 0.254129 0.865853 0.633237
O O14 0.500000 0.329522 0.260422
O O15 0.750000 0.250000 0.257792
O O16 0.733489 0.362980 0.337565
O O17 0.750000 0.750000 0.561023
O O18 0.769060 0.864674 0.487500
O O19 0.000000 0.830318 0.568507
O O20 0.500000 0.671285 0.413192
O O21 0.750000 0.750000 0.412226
#
# Coordination Sequence:
#
# PCOD9350234 Si02
#       7
#     8   8   8   8   8   8   8
#     4  11  21  34  52  74 101 129 160 198 241 287
#     4   9  18  33  51  69  91 122 159 195 232 279
#     4  10  21  37  55  74  97 125 159 198 240 288
#     4  10  17  26  40  61  91 123 156 192 233 279
#     4   9  17  29  45  67  94 122 153 192 236 280
#     4   9  14  21  34  54  82 117 153 187 227 274
#     4   8  14  23  36  56  84 116 149 186 229 274
#
# _framework density 18.145555000000002
#
# number of rings (size 3 to 8) (size 9 to 14) (size 15 to 20)
#    0.000    2.571    0.000    5.143    0.000    2.571 
#    0.000    1.429    0.000    0.000    0.000    1.000 
#    0.000    3.429    0.000    0.000    0.000    0.000 
#
# Total GULP energy -155940.579448 kJ/mol
# GULP energy per Si atom -5569.306409 kJ/mol
# Density = 1.810425 g / cm^3
# Si number density = 18.145555 Si / 1000 Ang^3
#
#
#
# Elastic Constant Matrix: (Units=GPa)
#
#
# Indices 1 2 3 4 5 6 
#
# 1 79.0622 17.5985 61.5166 0.0000 0.0000 0.0000
# 2 17.5985 5.5915 23.9871 0.0000 0.0000 0.0000
# 3 61.5166 23.9871 194.9447 0.0000 0.0000 0.0000
# 4 0.0000 0.0000 0.0000 -14.7903 0.0000 0.0000
# 5 0.0000 0.0000 0.0000 0.0000 30.5647 0.0000
# 6 0.0000 0.0000 0.0000 0.0000 0.0000 13.5480
#
#
#
# Elastic Compliance Matrix: (Units=1/GPa)
#
#
# Indices 1 2 3 4 5 6 
#
# 1 0.046406 -0.176295 0.007049 0.000000 0.000000 0.000000
# 2 -0.176295 1.048543 -0.073387 0.000000 0.000000 0.000000
# 3 0.007049 -0.073387 0.011935 0.000000 0.000000 0.000000
# 4 0.000000 0.000000 0.000000 -0.067612 0.000000 0.000000
# 5 0.000000 0.000000 0.000000 0.000000 0.032718 0.000000
# 6 0.000000 0.000000 0.000000 0.000000 0.000000 0.073812
#
#
# Mechanical properties :
#
#
# Convention : Reuss Voigt Hill
#
# Bulk Modulus (GPa) = 1.60871 53.97811 27.79341
# Shear Modulus (GPa) = 2.71994 17.63089 10.17542
#
# Velocity S-wave (km/s) = 1.22565 3.12049 2.37062
# Velocity P-wave (km/s) = 1.70042 6.54180 4.77947
#
# Compressibility (1/GPa) = 0.62161665
#
# Stress axis : x y z
#
# Youngs Moduli (GPa) = 21.54917 0.95370 83.78453
#
# Poissons Ratio (x) = 0.16813 -0.59057
# Poissons Ratio (y) = 3.79901 6.14871
# Poissons Ratio (z) = -0.15189 0.06999
#
# Static dielectric constant tensor:
#      x y z
#    x 1.609530 0.000000 0.000000 
#    y 0.000000 1.592460 0.000000 
#    z 0.000000 0.000000 1.703660 
# 
# From -- ./inp_files/18190.got.cif
#   From: 2010.05.17/outbox.cif.g08.bks.cpg/sg35_10_cif.got.tgz:18190.got - 2010.06.03 17:29:28.
