data_PCOD9350736
_publ_section_title
;
Structure prediction by ZEFSAII (Michael W. Deem and Ramdas Pophale) SiO2 
 PCOD9350736
Probable space group: C M C 21
;
_chemical_formula_sum "Si O2"
_cell_formula_units_Z 52
_cell_length_a 7.619821
_cell_length_b 32.338092
_cell_length_c 7.721096
_cell_angle_alpha 90.000000
_cell_angle_beta 90.000000
_cell_angle_gamma 90.000000
_cell_volume 1902.558914
_symmetry_space_group_name_H-M "C M C 21"
_symmetry_group_IT_number 36
_symmetry_cell_setting 'orthorhombic'
loop_
_space_group_symop_operation_xyz
x,y,z
-x,-y,1/2+z
x,-y,1/2+z
-x,y,z
1/2+x,1/2+y,z
1/2-x,1/2-y,1/2+z
1/2+x,1/2-y,1/2+z
1/2-x,1/2+y,z
loop_
_atom_site_type_symbol
_atom_site_label
_atom_site_fract_x
_atom_site_fract_y
_atom_site_fract_z
Si Si1 0.295761 0.681901 0.333280
Si Si2 0.791587 0.832255 0.283704
Si Si3 0.310275 0.968100 0.394226
Si Si4 0.212362 0.891911 0.611692
Si Si5 0.800187 0.908375 0.102555
Si Si6 0.703474 0.238488 0.017304
Si Si7 0.500000 0.535326 0.377981
O O1 0.500000 0.673084 0.377468
O O2 0.216534 0.639208 0.259409
O O3 0.227133 0.715941 0.470077
O O4 0.298818 0.710794 0.159326
O O5 0.752049 0.864634 0.438382
O O6 0.740937 0.861039 0.119095
O O7 0.708530 0.789636 0.343804
O O8 0.000000 0.824462 0.278357
O O9 0.500000 0.988185 0.411322
O O10 0.280404 0.937238 0.557549
O O11 0.305575 0.939546 0.222309
O O12 0.151637 0.999490 0.374629
O O13 0.000000 0.895848 0.622578
O O14 0.000000 0.908875 0.182826
O O15 0.845918 0.929584 0.921327
O O16 0.500000 0.242461 0.070078
#
# Coordination Sequence:
#
# PCOD9350736 Si02
#       7
#     8   8   8   8   8   8   4
#     4   9  19  33  49  73 107 142 175 217 269 321
#     4   8  14  28  48  71  94 128 164 202 254 315
#     4  11  19  30  52  79 101 131 176 221 266 317
#     4   8  14  29  49  68  97 132 167 214 265 317
#     4   8  17  32  50  68 100 134 167 209 263 318
#     4  10  19  30  49  77 106 135 177 224 267 314
#     4  10  18  34  50  72 106 134 162 216 276 320
#
# _framework density 27.331610000000001
#
# number of rings (size 3 to 8) (size 9 to 14) (size 15 to 20)
#    0.462    2.462    1.538    2.308    0.000    7.385 
#    0.000    0.000    0.000    3.692    0.000    0.000 
#    0.000    0.000    0.000    0.000    0.000    0.000 
#
# Total GULP energy -144789.074015 kJ/mol
# GULP energy per Si atom -5568.810539 kJ/mol
# Density = 2.726940 g / cm^3
# Si number density = 27.331610 Si / 1000 Ang^3
#
#
#
# Elastic Constant Matrix: (Units=GPa)
#
#
# Indices 1 2 3 4 5 6 
#
# 1 108.2905 43.2958 -3.6400 0.0000 0.0000 0.0000
# 2 43.2958 195.7331 8.0127 0.0000 0.0000 0.0000
# 3 -3.6400 8.0127 84.4484 0.0000 0.0000 0.0000
# 4 0.0000 0.0000 0.0000 17.5917 0.0000 0.0000
# 5 0.0000 0.0000 0.0000 0.0000 15.1520 0.0000
# 6 0.0000 0.0000 0.0000 0.0000 0.0000 25.3891
#
#
#
# Elastic Compliance Matrix: (Units=1/GPa)
#
#
# Indices 1 2 3 4 5 6 
#
# 1 0.010166 -0.002276 0.000654 0.000000 0.000000 0.000000
# 2 -0.002276 0.005638 -0.000633 0.000000 0.000000 0.000000
# 3 0.000654 -0.000633 0.011930 0.000000 0.000000 0.000000
# 4 0.000000 0.000000 0.000000 0.056845 0.000000 0.000000
# 5 0.000000 0.000000 0.000000 0.000000 0.065998 0.000000
# 6 0.000000 0.000000 0.000000 0.000000 0.000000 0.039387
#
#
# Mechanical properties :
#
#
# Convention : Reuss Voigt Hill
#
# Bulk Modulus (GPa) = 43.05652 53.75659 48.40656
# Shear Modulus (GPa) = 24.72618 34.34680 29.53649
#
# Velocity S-wave (km/s) = 3.01104 3.54880 3.29092
# Velocity P-wave (km/s) = 5.27978 6.04177 5.67358
#
# Compressibility (1/GPa) = 0.02322529
#
# Stress axis : x y z
#
# Youngs Moduli (GPa) = 98.36534 177.35989 83.82368
#
# Poissons Ratio (x) = 0.40359 -0.05483
# Poissons Ratio (y) = 0.22383 0.05307
# Poissons Ratio (z) = -0.06434 0.11228
#
# Static dielectric constant tensor:
#      x y z
#    x 1.996370 0.000000 0.000000 
#    y 0.000000 2.235540 0.000000 
#    z 0.000000 0.000000 2.437020 
# 
# From -- ./inp_files/6984.got.cif
#   From: 2010.05.17/outbox.cif.g08.bks.cpg/sg36_4_cif.got.tgz:6984.got - 2010.06.03 17:41:39.
