data_PCOD9350539
_publ_section_title
;
Structure prediction by ZEFSAII (Michael W. Deem and Ramdas Pophale) SiO2 
 PCOD9350539
Probable space group: C M C 21
;
_chemical_formula_sum "Si O2"
_cell_formula_units_Z 64
_cell_length_a 31.470820
_cell_length_b 13.649896
_cell_length_c 8.776493
_cell_angle_alpha 90.000000
_cell_angle_beta 90.000000
_cell_angle_gamma 90.000000
_cell_volume 3770.148114
_symmetry_space_group_name_H-M "C M C 21"
_symmetry_group_IT_number 36
_symmetry_cell_setting 'orthorhombic'
loop_
_space_group_symop_operation_xyz
x,y,z
-x,-y,1/2+z
x,-y,1/2+z
-x,y,z
1/2+x,1/2+y,z
1/2-x,1/2-y,1/2+z
1/2+x,1/2-y,1/2+z
1/2-x,1/2+y,z
loop_
_atom_site_type_symbol
_atom_site_label
_atom_site_fract_x
_atom_site_fract_y
_atom_site_fract_z
Si Si1 0.047421 0.861802 0.387020
Si Si2 0.862825 0.878231 0.744874
Si Si3 0.316233 0.420852 0.238819
Si Si4 0.761069 0.969794 0.523630
Si Si5 0.723659 0.295517 0.765715
Si Si6 0.707758 0.145014 0.510990
Si Si7 0.634651 0.726320 0.916811
Si Si8 0.452427 0.431254 0.736956
O O1 0.084910 0.782238 0.380497
O O2 0.048378 0.910175 0.556220
O O3 0.000000 0.821626 0.363339
O O4 0.053587 0.953903 0.273994
O O5 0.824356 0.818988 0.821271
O O6 0.860004 0.844014 0.566983
O O7 0.911476 0.872069 0.799072
O O8 0.850001 0.991521 0.758167
O O9 0.279687 0.433905 0.365350
O O10 0.293508 0.445878 0.082069
O O11 0.340050 0.321448 0.275881
O O12 0.764119 0.882363 0.645188
O O13 0.717448 0.029444 0.510591
O O14 0.719254 0.195493 0.671829
O O15 0.759600 0.303537 0.892352
O O16 0.660107 0.176451 0.464059
O O17 0.500000 0.404826 0.793347
#
# Coordination Sequence:
#
# PCOD9350539 Si02
#       8
#     8   8   8   8   8   8   8   8
#     4   9  17  27  40  60  86 111 142 181 216 255
#     4   9  16  27  41  57  83 111 146 181 208 252
#     4  11  16  29  42  60  84 118 149 179 213 259
#     4  11  20  31  45  61  89 121 149 184 223 259
#     4  10  21  32  43  66  86 117 153 184 224 261
#     4  11  20  32  46  63  89 115 154 187 216 267
#     4  10  18  29  43  63  85 114 153 182 218 256
#     4   9  16  25  39  58  80 111 145 176 206 245
#
# _framework density 16.975460000000002
#
# number of rings (size 3 to 8) (size 9 to 14) (size 15 to 20)
#    0.000    2.000    7.500    0.750    0.000    0.000 
#    0.000    0.000    0.000    0.000    0.000    0.000 
#    0.000    1.000    0.000    1.750    0.000    0.875 
#
# Total GULP energy -178161.889538 kJ/mol
# GULP energy per Si atom -5567.559048 kJ/mol
# Density = 1.693682 g / cm^3
# Si number density = 16.975460 Si / 1000 Ang^3
#
#
#
# Elastic Constant Matrix: (Units=GPa)
#
#
# Indices 1 2 3 4 5 6 
#
# 1 137.6444 34.2470 14.5061 0.0000 0.0000 0.0000
# 2 34.2470 32.5340 -1.7493 0.0000 0.0000 0.0000
# 3 14.5061 -1.7493 27.0223 0.0000 0.0000 0.0000
# 4 0.0000 0.0000 0.0000 19.0606 0.0000 0.0000
# 5 0.0000 0.0000 0.0000 0.0000 15.1914 0.0000
# 6 0.0000 0.0000 0.0000 0.0000 0.0000 25.1436
#
#
#
# Elastic Compliance Matrix: (Units=1/GPa)
#
#
# Indices 1 2 3 4 5 6 
#
# 1 0.010909 -0.011839 -0.006622 0.000000 0.000000 0.000000
# 2 -0.011839 0.043693 0.009184 0.000000 0.000000 0.000000
# 3 -0.006622 0.009184 0.041156 0.000000 0.000000 0.000000
# 4 0.000000 0.000000 0.000000 0.052464 0.000000 0.000000
# 5 0.000000 0.000000 0.000000 0.000000 0.065827 0.000000
# 6 0.000000 0.000000 0.000000 0.000000 0.000000 0.039771
#
#
# Mechanical properties :
#
#
# Convention : Reuss Voigt Hill
#
# Bulk Modulus (GPa) = 12.95286 32.35647 22.65466
# Shear Modulus (GPa) = 16.77235 21.89227 19.33231
#
# Velocity S-wave (km/s) = 3.14671 3.59506 3.37833
# Velocity P-wave (km/s) = 4.56610 6.02782 5.34715
#
# Compressibility (1/GPa) = 0.07720306
#
# Stress axis : x y z
#
# Youngs Moduli (GPa) = 91.67008 22.88677 24.29775
#
# Poissons Ratio (x) = 0.27096 0.16091
# Poissons Ratio (y) = 1.08529 -0.22315
# Poissons Ratio (z) = 0.60708 -0.21019
#
# Static dielectric constant tensor:
#      x y z
#    x 1.642350 0.000000 0.000000 
#    y 0.000000 1.583360 0.000000 
#    z 0.000000 0.000000 1.610490 
# 
# From -- ./inp_files/6132.got.cif
#   From: 2010.05.17/outbox.cif.g08.bks.cpg/sg36_4_cif.got.tgz:6132.got - 2010.06.03 17:41:39.
