data_PCOD9350103
_publ_section_title
;
Structure prediction by ZEFSAII (Michael W. Deem and Ramdas Pophale) SiO2 
 PCOD9350103
Probable space group: C M M 2
;
_chemical_formula_sum "Si O2"
_cell_formula_units_Z 32
_cell_length_a 13.681281
_cell_length_b 16.523059
_cell_length_c 6.562668
_cell_angle_alpha 90.000000
_cell_angle_beta 90.000000
_cell_angle_gamma 90.000000
_cell_volume 1483.534501
_symmetry_space_group_name_H-M "C M M 2"
_symmetry_group_IT_number 35
_symmetry_cell_setting 'orthorhombic'
loop_
_space_group_symop_operation_xyz
x,y,z
-x,-y,z
-x,y,z
x,-y,z
1/2+x,1/2+y,z
1/2-x,1/2-y,z
1/2-x,1/2+y,z
1/2+x,1/2-y,z
loop_
_atom_site_type_symbol
_atom_site_label
_atom_site_fract_x
_atom_site_fract_y
_atom_site_fract_z
Si Si1 0.500000 0.340255 0.699410
Si Si2 0.000000 0.214281 0.288012
Si Si3 0.675672 0.672038 0.021939
Si Si4 0.500000 0.000000 0.802725
Si Si5 0.500000 0.889889 0.179237
Si Si6 0.135519 0.500000 0.432911
Si Si7 0.197820 0.000000 0.168703
Si Si8 0.500000 0.500000 0.407375
O O1 0.500000 0.271249 0.527655
O O2 0.500000 0.421836 0.558527
O O3 0.402624 0.332883 0.836336
O O4 0.896877 0.176792 0.218275
O O5 0.000000 0.296269 0.164025
O O6 0.750000 0.750000 0.012524
O O7 0.722791 0.582369 0.045436
O O8 0.406607 0.000000 0.656647
O O9 0.500000 0.074156 0.955894
O O10 0.589952 0.924113 0.310541
O O11 0.247459 0.500000 0.386159
O O12 0.087632 0.000000 0.244635
#
# Coordination Sequence:
#
# PCOD9350103 Si02
#       8
#     4   4   8   2   4   4   4   2
#     4  11  24  46  69  99 135 180 235 288 345 428
#     4  11  22  43  65  93 139 174 225 294 348 415
#     4  11  25  44  70 103 137 185 232 292 354 414
#     4   8  18  40  64  94 138 180 228 274 356 426
#     4   9  19  40  60  91 138 172 218 290 358 405
#     4   9  20  36  62  97 126 178 229 282 342 424
#     4  12  22  46  69  97 143 183 235 289 347 412
#     4  12  22  48  70  98 130 194 226 284 344 398
#
# _framework density 21.57011
#
# number of rings (size 3 to 8) (size 9 to 14) (size 15 to 20)
#    0.000    1.750    2.500    3.000    0.000    5.000 
#   18.000    0.000    0.000    0.000    0.000    0.000 
#    0.000    0.000    0.000    0.000    0.000    0.000 
#
# Total GULP energy -89171.342677 kJ/mol
# GULP energy per Si atom -5573.208917 kJ/mol
# Density = 2.152102 g / cm^3
# Si number density = 21.570110 Si / 1000 Ang^3
#
#
#
# Elastic Constant Matrix: (Units=GPa)
#
#
# Indices 1 2 3 4 5 6 
#
# 1 67.9339 35.9751 15.0804 0.0000 0.0000 0.0000
# 2 35.9751 154.5755 27.8883 0.0000 0.0000 0.0000
# 3 15.0804 27.8883 131.0195 0.0000 0.0000 0.0000
# 4 0.0000 0.0000 0.0000 311.4464 0.0000 0.0000
# 5 0.0000 0.0000 0.0000 0.0000 -12.3686 0.0000
# 6 0.0000 0.0000 0.0000 0.0000 0.0000 61.0851
#
#
#
# Elastic Compliance Matrix: (Units=1/GPa)
#
#
# Indices 1 2 3 4 5 6 
#
# 1 0.016956 -0.003738 -0.001156 0.000000 0.000000 0.000000
# 2 -0.003738 0.007552 -0.001177 0.000000 0.000000 0.000000
# 3 -0.001156 -0.001177 0.008016 0.000000 0.000000 0.000000
# 4 0.000000 0.000000 0.000000 0.003211 0.000000 0.000000
# 5 0.000000 0.000000 0.000000 0.000000 -0.080850 0.000000
# 6 0.000000 0.000000 0.000000 0.000000 0.000000 0.016371
#
#
# Mechanical properties :
#
#
# Convention : Reuss Voigt Hill
#
# Bulk Modulus (GPa) = 49.06309 56.82406 52.94358
# Shear Modulus (GPa) = -509.75518 90.33826 -209.70846
#
# Velocity S-wave (km/s) = -15.38954 6.47859 -9.87081
# Velocity P-wave (km/s) = 17.11691 9.07546 10.26218
#
# Compressibility (1/GPa) = 0.02038192
#
# Stress axis : x y z
#
# Youngs Moduli (GPa) = 58.97563 132.42203 124.74910
#
# Poissons Ratio (x) = 0.49496 0.14422
# Poissons Ratio (y) = 0.22043 0.14685
# Poissons Ratio (z) = 0.06818 0.15589
#
# Static dielectric constant tensor:
#      x y z
#    x 1.915850 0.000000 0.000000 
#    y 0.000000 1.765180 0.000000 
#    z 0.000000 0.000000 1.746360 
# 
# From -- ./inp_files/1660.got.cif
#   From: 2010.05.17/outbox.cif.g08.bks.cpg/sg35_1_cif.got.tgz:1660.got - 2010.06.03 17:29:28.
