data_PCOD9350235
_publ_section_title
;
Structure prediction by ZEFSAII (Michael W. Deem and Ramdas Pophale) SiO2 
 PCOD9350235
Probable space group: C M M 2
;
_chemical_formula_sum "Si O2"
_cell_formula_units_Z 56
_cell_length_a 8.684989
_cell_length_b 18.858139
_cell_length_c 19.188455
_cell_angle_alpha 90.000000
_cell_angle_beta 90.000000
_cell_angle_gamma 90.000000
_cell_volume 3142.737540
_symmetry_space_group_name_H-M "C M M 2"
_symmetry_group_IT_number 35
_symmetry_cell_setting 'orthorhombic'
loop_
_space_group_symop_operation_xyz
x,y,z
-x,-y,z
-x,y,z
x,-y,z
1/2+x,1/2+y,z
1/2-x,1/2-y,z
1/2-x,1/2+y,z
1/2+x,1/2-y,z
loop_
_atom_site_type_symbol
_atom_site_label
_atom_site_fract_x
_atom_site_fract_y
_atom_site_fract_z
Si Si1 0.683611 0.830504 0.484380
Si Si2 0.317522 0.670776 0.340754
Si Si3 0.185600 0.417541 0.057302
Si Si4 0.684575 0.329574 0.929379
Si Si5 0.316897 0.084944 0.213617
Si Si6 0.685234 0.669281 0.626674
Si Si7 0.814594 0.169999 0.777590
O O1 0.500000 0.828176 0.485079
O O2 0.750000 0.750000 0.483859
O O3 0.744393 0.861282 0.411598
O O4 0.745417 0.863729 0.556371
O O5 0.500000 0.675717 0.349582
O O6 0.250000 0.750000 0.331623
O O7 0.272870 0.624920 0.273893
O O8 0.229781 0.500000 0.050456
O O9 0.231245 0.393260 0.135207
O O10 0.000000 0.413876 0.054780
O O11 0.254226 0.373457 0.994328
O O12 0.500000 0.326824 0.931869
O O13 0.750000 0.250000 0.933279
O O14 0.731078 0.360707 0.852978
O O15 0.500000 0.099219 0.221109
O O16 0.296669 0.000000 0.218439
O O17 0.500000 0.671488 0.620597
O O18 0.750000 0.750000 0.628799
O O19 0.729033 0.637336 0.702451
O O20 0.750000 0.250000 0.777838
O O21 0.000000 0.173742 0.777027
#
# Coordination Sequence:
#
# PCOD9350235 Si02
#       7
#     8   8   8   8   8   8   8
#     4  10  17  26  40  61  91 124 158 194 236 282
#     4  11  21  33  50  73 101 130 162 199 240 285
#     4   9  19  36  55  73  95 125 160 198 241 289
#     4  10  19  31  48  72 101 131 163 200 242 286
#     4   9  19  37  57  74  95 124 158 197 242 291
#     4   9  14  22  36  56  85 120 156 192 232 278
#     4   8  15  25  38  59  89 123 156 192 234 278
#
# _framework density 17.818860000000001
#
# number of rings (size 3 to 8) (size 9 to 14) (size 15 to 20)
#    0.000    2.571    0.000    6.000    0.000    2.857 
#    0.000    1.429    0.000    0.000    0.000    1.000 
#    0.000    5.714    0.000    0.000    0.000    0.000 
#
# Total GULP energy -155939.860653 kJ/mol
# GULP energy per Si atom -5569.280738 kJ/mol
# Density = 1.777830 g / cm^3
# Si number density = 17.818860 Si / 1000 Ang^3
#
#
#
# Elastic Constant Matrix: (Units=GPa)
#
#
# Indices 1 2 3 4 5 6 
#
# 1 82.6881 16.5885 64.2002 0.0000 0.0000 0.0000
# 2 16.5885 15.0929 42.3445 0.0000 0.0000 0.0000
# 3 64.2002 42.3445 217.4597 0.0000 0.0000 0.0000
# 4 0.0000 0.0000 0.0000 -23.0060 0.0000 0.0000
# 5 0.0000 0.0000 0.0000 0.0000 43.0943 0.0000
# 6 0.0000 0.0000 0.0000 0.0000 0.0000 16.5615
#
#
#
# Elastic Compliance Matrix: (Units=1/GPa)
#
#
# Indices 1 2 3 4 5 6 
#
# 1 0.016315 -0.009738 -0.002920 0.000000 0.000000 0.000000
# 2 -0.009738 0.151853 -0.026694 0.000000 0.000000 0.000000
# 3 -0.002920 -0.026694 0.010659 0.000000 0.000000 0.000000
# 4 0.000000 0.000000 0.000000 -0.043467 0.000000 0.000000
# 5 0.000000 0.000000 0.000000 0.000000 0.023205 0.000000
# 6 0.000000 0.000000 0.000000 0.000000 0.000000 0.060381
#
#
# Mechanical properties :
#
#
# Convention : Reuss Voigt Hill
#
# Bulk Modulus (GPa) = 9.98792 62.38968 36.18880
# Shear Modulus (GPa) = 15.10462 20.13715 17.62089
#
# Velocity S-wave (km/s) = 2.91465 3.36535 3.14807
# Velocity P-wave (km/s) = 4.11635 7.08449 5.79372
#
# Compressibility (1/GPa) = 0.10012092
#
# Stress axis : x y z
#
# Youngs Moduli (GPa) = 61.29482 6.58531 93.81972
#
# Poissons Ratio (x) = 0.06413 0.27398
# Poissons Ratio (y) = 0.59689 2.50446
# Poissons Ratio (z) = 0.17900 0.17579
#
# Static dielectric constant tensor:
#      x y z
#    x 1.581120 0.000000 0.000000 
#    y 0.000000 1.672310 0.000000 
#    z 0.000000 0.000000 1.688370 
# 
# From -- ./inp_files/18211.got.cif
#   From: 2010.05.17/outbox.cif.g08.bks.cpg/sg35_10_cif.got.tgz:18211.got - 2010.06.03 17:29:28.
