data_PCOD9350937
_publ_section_title
;
Structure prediction by ZEFSAII (Michael W. Deem and Ramdas Pophale) SiO2 
 PCOD9350937
Probable space group: C M C 21
;
_chemical_formula_sum "Si O2"
_cell_formula_units_Z 64
_cell_length_a 9.103375
_cell_length_b 23.539388
_cell_length_c 17.976113
_cell_angle_alpha 90.000000
_cell_angle_beta 90.000000
_cell_angle_gamma 90.000000
_cell_volume 3852.063078
_symmetry_space_group_name_H-M "C M C 21"
_symmetry_group_IT_number 36
_symmetry_cell_setting 'orthorhombic'
loop_
_space_group_symop_operation_xyz
x,y,z
-x,-y,1/2+z
x,-y,1/2+z
-x,y,z
1/2+x,1/2+y,z
1/2-x,1/2-y,1/2+z
1/2+x,1/2-y,1/2+z
1/2-x,1/2+y,z
loop_
_atom_site_type_symbol
_atom_site_label
_atom_site_fract_x
_atom_site_fract_y
_atom_site_fract_z
Si Si1 0.169737 0.172265 0.326190
Si Si2 0.677685 0.445349 0.353288
Si Si3 0.675903 0.113029 0.712534
Si Si4 0.332895 0.667507 0.931855
Si Si5 0.330976 0.276894 0.266286
Si Si6 0.825012 0.622113 0.547945
Si Si7 0.177002 0.435179 0.892092
Si Si8 0.833514 0.770109 0.990775
O O1 0.254076 0.215826 0.272377
O O2 0.257129 0.113970 0.339164
O O3 0.167400 0.203185 0.407202
O O4 0.000000 0.162996 0.304589
O O5 0.500000 0.447584 0.349952
O O6 0.742036 0.424060 0.274522
O O7 0.718105 0.396252 0.413423
O O8 0.748253 0.505137 0.374086
O O9 0.500000 0.110888 0.724229
O O10 0.734350 0.177380 0.722368
O O11 0.711143 0.095765 0.627912
O O12 0.500000 0.665816 0.959401
O O13 0.335611 0.697677 0.850511
O O14 0.237411 0.708095 0.983645
O O15 0.500000 0.273974 0.240390
O O16 0.784779 0.584332 0.476457
O O17 0.753497 0.683930 0.538661
O O18 0.000000 0.629791 0.545221
O O19 0.000000 0.437837 0.885340
O O20 0.000000 0.766241 0.016543
#
# Coordination Sequence:
#
# PCOD9350937 Si02
#       8
#     8   8   8   8   8   8   8   8
#     4   9  16  27  44  68  95 122 153 192 234 280
#     4  10  20  33  49  72  99 130 168 210 250 294
#     4  10  19  32  50  72  97 128 163 203 250 301
#     4   8  15  27  43  63  91 121 148 184 233 282
#     4   9  16  27  44  68  95 122 151 188 235 285
#     4   9  19  33  49  70  98 129 161 199 249 301
#     4  10  19  32  50  72  98 131 169 210 249 291
#     4   9  16  25  43  69  93 117 149 188 232 280
#
# _framework density 16.614473
#
# number of rings (size 3 to 8) (size 9 to 14) (size 15 to 20)
#    0.000    2.750    0.000    3.000    0.000    8.000 
#    0.000    0.000    0.000    1.500    0.000    3.500 
#    0.000    0.000    0.000    0.000    0.000    0.000 
#
# Total GULP energy -178255.886657 kJ/mol
# GULP energy per Si atom -5570.496458 kJ/mol
# Density = 1.657666 g / cm^3
# Si number density = 16.614473 Si / 1000 Ang^3
#
#
#
# Elastic Constant Matrix: (Units=GPa)
#
#
# Indices 1 2 3 4 5 6 
#
# 1 72.3548 60.6862 30.2990 0.0000 0.0000 0.0000
# 2 60.6862 148.1372 39.4850 0.0000 0.0000 0.0000
# 3 30.2990 39.4850 49.0486 0.0000 0.0000 0.0000
# 4 0.0000 0.0000 0.0000 10.8318 0.0000 0.0000
# 5 0.0000 0.0000 0.0000 0.0000 14.7263 0.0000
# 6 0.0000 0.0000 0.0000 0.0000 0.0000 29.7091
#
#
#
# Elastic Compliance Matrix: (Units=1/GPa)
#
#
# Indices 1 2 3 4 5 6 
#
# 1 0.023632 -0.007372 -0.008664 0.000000 0.000000 0.000000
# 2 -0.007372 0.010894 -0.004216 0.000000 0.000000 0.000000
# 3 -0.008664 -0.004216 0.029134 0.000000 0.000000 0.000000
# 4 0.000000 0.000000 0.000000 0.092321 0.000000 0.000000
# 5 0.000000 0.000000 0.000000 0.000000 0.067906 0.000000
# 6 0.000000 0.000000 0.000000 0.000000 0.000000 0.033660
#
#
# Mechanical properties :
#
#
# Convention : Reuss Voigt Hill
#
# Bulk Modulus (GPa) = 43.18451 58.94234 51.06343
# Shear Modulus (GPa) = 16.35224 20.32479 18.33852
#
# Velocity S-wave (km/s) = 3.14063 3.50139 3.32590
# Velocity P-wave (km/s) = 6.26098 7.20415 6.74906
#
# Compressibility (1/GPa) = 0.02315645
#
# Stress axis : x y z
#
# Youngs Moduli (GPa) = 42.31607 91.79151 34.32412
#
# Poissons Ratio (x) = 0.67666 0.29737
# Poissons Ratio (y) = 0.31194 0.14472
# Poissons Ratio (z) = 0.36661 0.38702
#
# Static dielectric constant tensor:
#      x y z
#    x 1.559300 0.000000 0.000000 
#    y 0.000000 1.546840 0.000000 
#    z 0.000000 0.000000 1.571460 
# 
# From -- ./inp_files/13785.got.cif
#   From: 2010.05.17/outbox.cif.g08.bks.cpg/sg36_7_cif.got.tgz:13785.got - 2010.06.03 17:41:39.
