data_PCOD9350786
_publ_section_title
;
Structure prediction by ZEFSAII (Michael W. Deem and Ramdas Pophale) SiO2 
 PCOD9350786
Probable space group: C M C 21
;
_chemical_formula_sum "Si O2"
_cell_formula_units_Z 56
_cell_length_a 10.390455
_cell_length_b 23.958037
_cell_length_c 11.904491
_cell_angle_alpha 90.000000
_cell_angle_beta 90.000000
_cell_angle_gamma 90.000000
_cell_volume 2963.443340
_symmetry_space_group_name_H-M "C M C 21"
_symmetry_group_IT_number 36
_symmetry_cell_setting 'orthorhombic'
loop_
_space_group_symop_operation_xyz
x,y,z
-x,-y,1/2+z
x,-y,1/2+z
-x,y,z
1/2+x,1/2+y,z
1/2-x,1/2-y,1/2+z
1/2+x,1/2-y,1/2+z
1/2-x,1/2+y,z
loop_
_atom_site_type_symbol
_atom_site_label
_atom_site_fract_x
_atom_site_fract_y
_atom_site_fract_z
Si Si1 0.648187 0.347157 0.904500
Si Si2 0.216958 0.048856 0.287160
Si Si3 0.344152 0.801702 0.718480
Si Si4 0.000000 0.525583 0.041899
Si Si5 0.151422 0.921271 0.324025
Si Si6 0.344846 0.674173 0.659573
Si Si7 0.251314 0.601163 0.065040
Si Si8 0.000000 0.529806 0.294015
O O1 0.500000 0.327512 0.887256
O O2 0.649996 0.413624 0.880381
O O3 0.752085 0.320902 0.820239
O O4 0.690167 0.335203 0.030746
O O5 0.171564 0.069745 0.165065
O O6 0.368446 0.064000 0.289024
O O7 0.208779 0.983056 0.306744
O O8 0.500000 0.807826 0.734193
O O9 0.314505 0.736670 0.697362
O O10 0.297418 0.839872 0.613679
O O11 0.126557 0.563388 0.041586
O O12 0.000000 0.498108 0.169862
O O13 0.000000 0.495580 0.920222
O O14 0.206467 0.875371 0.238206
O O15 0.172861 0.898225 0.449143
O O16 0.000000 0.928262 0.303807
O O17 0.500000 0.670057 0.664774
#
# Coordination Sequence:
#
# PCOD9350786 Si02
#       8
#     8   8   8   4   8   8   8   4
#     4  10  22  40  64  91 124 162 203 250 307 373
#     4  10  22  37  61  87 124 160 199 247 306 369
#     4  10  21  41  68  88 118 163 208 255 307 361
#     4  10  18  36  54  88 112 160 196 254 302 364
#     4  11  23  37  59  91 123 161 202 249 306 368
#     4   9  22  41  61  89 124 162 199 251 311 363
#     4  10  21  36  61  84 115 156 205 247 303 362
#     4  10  20  34  60  86 124 158 210 248 300 366
#
# _framework density 18.896936
#
# number of rings (size 3 to 8) (size 9 to 14) (size 15 to 20)
#    0.000    2.000    2.143    0.429    7.000    2.857 
#    0.000    0.714    4.714    0.000    0.000    0.000 
#    0.000    0.000    0.000    0.000    0.000    0.000 
#
# Total GULP energy -155956.364455 kJ/mol
# GULP energy per Si atom -5569.870159 kJ/mol
# Density = 1.885393 g / cm^3
# Si number density = 18.896936 Si / 1000 Ang^3
#
#
#
# Elastic Constant Matrix: (Units=GPa)
#
#
# Indices 1 2 3 4 5 6 
#
# 1 57.9957 26.6296 22.5687 0.0000 0.0000 0.0000
# 2 26.6296 127.9067 73.0915 0.0000 0.0000 0.0000
# 3 22.5687 73.0915 127.6159 0.0000 0.0000 0.0000
# 4 0.0000 0.0000 0.0000 23.8201 0.0000 0.0000
# 5 0.0000 0.0000 0.0000 0.0000 26.7630 0.0000
# 6 0.0000 0.0000 0.0000 0.0000 0.0000 13.9934
#
#
#
# Elastic Compliance Matrix: (Units=1/GPa)
#
#
# Indices 1 2 3 4 5 6 
#
# 1 0.019297 -0.003073 -0.001652 0.000000 0.000000 0.000000
# 2 -0.003073 0.012111 -0.006393 0.000000 0.000000 0.000000
# 3 -0.001652 -0.006393 0.011790 0.000000 0.000000 0.000000
# 4 0.000000 0.000000 0.000000 0.041981 0.000000 0.000000
# 5 0.000000 0.000000 0.000000 0.000000 0.037365 0.000000
# 6 0.000000 0.000000 0.000000 0.000000 0.000000 0.071462
#
#
# Mechanical properties :
#
#
# Convention : Reuss Voigt Hill
#
# Bulk Modulus (GPa) = 47.70921 62.01088 54.86005
# Shear Modulus (GPa) = 22.39827 25.66386 24.03106
#
# Velocity S-wave (km/s) = 3.44653 3.68923 3.56995
# Velocity P-wave (km/s) = 6.41405 7.14380 6.78873
#
# Compressibility (1/GPa) = 0.02096031
#
# Stress axis : x y z
#
# Youngs Moduli (GPa) = 51.82207 82.56659 84.81777
#
# Poissons Ratio (x) = 0.25375 0.14016
# Poissons Ratio (y) = 0.15926 0.54226
# Poissons Ratio (z) = 0.08563 0.52787
#
# Static dielectric constant tensor:
#      x y z
#    x 1.681760 0.000000 0.000000 
#    y 0.000000 1.667240 0.000000 
#    z 0.000000 0.000000 1.693250 
# 
# From -- ./inp_files/7983.got.cif
#   From: 2010.05.17/outbox.cif.g08.bks.cpg/sg36_4_cif.got.tgz:7983.got - 2010.06.03 17:41:39.
