data_PCOD9350836
_publ_section_title
;
Structure prediction by ZEFSAII (Michael W. Deem and Ramdas Pophale) SiO2 
 PCOD9350836
Probable space group: C M C 21
;
_chemical_formula_sum "Si O2"
_cell_formula_units_Z 48
_cell_length_a 23.120250
_cell_length_b 21.713192
_cell_length_c 5.346258
_cell_angle_alpha 90.000000
_cell_angle_beta 90.000000
_cell_angle_gamma 90.000000
_cell_volume 2683.898648
_symmetry_space_group_name_H-M "C M C 21"
_symmetry_group_IT_number 36
_symmetry_cell_setting 'orthorhombic'
loop_
_space_group_symop_operation_xyz
x,y,z
-x,-y,1/2+z
x,-y,1/2+z
-x,y,z
1/2+x,1/2+y,z
1/2-x,1/2-y,1/2+z
1/2+x,1/2-y,1/2+z
1/2-x,1/2+y,z
loop_
_atom_site_type_symbol
_atom_site_label
_atom_site_fract_x
_atom_site_fract_y
_atom_site_fract_z
Si Si1 0.202381 0.314727 0.856460
Si Si2 0.170838 0.750565 0.856740
Si Si3 0.271082 0.422228 0.754480
Si Si4 0.064892 0.155938 0.377435
Si Si5 0.436770 0.574053 0.879500
Si Si6 0.315510 0.444043 0.256486
O O1 0.170934 0.286417 0.616808
O O2 0.268338 0.288038 0.851802
O O3 0.212481 0.387716 0.821867
O O4 0.174103 0.293647 0.114948
O O5 0.115628 0.794850 0.847449
O O6 0.293389 0.401268 0.482115
O O7 0.274720 0.496242 0.728197
O O8 0.312760 0.410906 0.991277
O O9 0.066542 0.122291 0.648229
O O10 0.000000 0.183483 0.357658
O O11 0.068523 0.107809 0.145922
O O12 0.500000 0.543346 0.866721
O O13 0.379384 0.534362 0.834896
#
# Coordination Sequence:
#
# PCOD9350836 Si02
#       6
#     8   8   8   8   8   8
#     4  10  19  30  46  68  93 117 152 197 233 283
#     4  10  19  30  47  69  89 119 154 189 240 285
#     4  10  20  32  46  65  89 122 155 190 239 277
#     4  10  20  33  50  71  97 128 162 201 239 277
#     4  10  19  31  48  68  91 124 166 203 231 264
#     4  10  19  32  48  65  89 126 159 190 234 282
#
# _framework density 17.884432
#
# number of rings (size 3 to 8) (size 9 to 14) (size 15 to 20)
#    0.000    2.000    0.000    5.000    0.000    2.667 
#    0.000    3.333    0.000    1.000    0.000    0.000 
#    0.000    0.000    0.000   60.000    0.000    0.000 
#
# Total GULP energy -133834.070625 kJ/mol
# GULP energy per Si atom -5576.419609 kJ/mol
# Density = 1.784373 g / cm^3
# Si number density = 17.884432 Si / 1000 Ang^3
#
#
#
# Elastic Constant Matrix: (Units=GPa)
#
#
# Indices 1 2 3 4 5 6 
#
# 1 52.0710 30.6777 23.2612 0.0000 0.0000 0.0000
# 2 30.6777 56.9042 16.0599 0.0000 0.0000 0.0000
# 3 23.2612 16.0599 128.5546 0.0000 0.0000 0.0000
# 4 0.0000 0.0000 0.0000 24.1823 0.0000 0.0000
# 5 0.0000 0.0000 0.0000 0.0000 22.1458 0.0000
# 6 0.0000 0.0000 0.0000 0.0000 0.0000 9.7638
#
#
#
# Elastic Compliance Matrix: (Units=1/GPa)
#
#
# Indices 1 2 3 4 5 6 
#
# 1 0.029575 -0.014961 -0.003482 0.000000 0.000000 0.000000
# 2 -0.014961 0.025784 -0.000514 0.000000 0.000000 0.000000
# 3 -0.003482 -0.000514 0.008473 0.000000 0.000000 0.000000
# 4 0.000000 0.000000 0.000000 0.041353 0.000000 0.000000
# 5 0.000000 0.000000 0.000000 0.000000 0.045155 0.000000
# 6 0.000000 0.000000 0.000000 0.000000 0.000000 0.102420
#
#
# Mechanical properties :
#
#
# Convention : Reuss Voigt Hill
#
# Bulk Modulus (GPa) = 38.58482 41.94749 40.26615
# Shear Modulus (GPa) = 16.70490 22.38710 19.54600
#
# Velocity S-wave (km/s) = 3.05953 3.54187 3.30950
# Velocity P-wave (km/s) = 5.83972 6.34288 6.09649
#
# Compressibility (1/GPa) = 0.02591693
#
# Stress axis : x y z
#
# Youngs Moduli (GPa) = 33.81280 38.78341 118.02044
#
# Poissons Ratio (x) = 0.58025 0.41098
# Poissons Ratio (y) = 0.50588 0.06066
# Poissons Ratio (z) = 0.11775 0.01993
#
# Static dielectric constant tensor:
#      x y z
#    x 1.611010 0.000000 0.000000 
#    y 0.000000 1.654850 0.000000 
#    z 0.000000 0.000000 1.704340 
# 
# From -- ./inp_files/1588.got.cif
#   From: 2010.05.17/outbox.cif.g08.bks.cpg/sg36_1_cif.got.tgz:1588.got - 2010.06.03 17:41:39.
