data_PCOD9350248
_publ_section_title
;
Structure prediction by ZEFSAII (Michael W. Deem and Ramdas Pophale) SiO2 
 PCOD9350248
Probable space group: C M M 2
;
_chemical_formula_sum "Si O2"
_cell_formula_units_Z 64
_cell_length_a 15.366577
_cell_length_b 28.664913
_cell_length_c 7.447452
_cell_angle_alpha 90.000000
_cell_angle_beta 90.000000
_cell_angle_gamma 90.000000
_cell_volume 3280.465519
_symmetry_space_group_name_H-M "C M M 2"
_symmetry_group_IT_number 35
_symmetry_cell_setting 'orthorhombic'
loop_
_space_group_symop_operation_xyz
x,y,z
-x,-y,z
-x,y,z
x,-y,z
1/2+x,1/2+y,z
1/2-x,1/2-y,z
1/2-x,1/2+y,z
1/2+x,1/2-y,z
loop_
_atom_site_type_symbol
_atom_site_label
_atom_site_fract_x
_atom_site_fract_y
_atom_site_fract_z
Si Si1 0.598193 0.221140 0.626880
Si Si2 0.094877 0.170154 0.076371
Si Si3 0.848138 0.731740 0.032071
Si Si4 0.597674 0.052762 0.575037
Si Si5 0.597668 0.671614 0.637352
Si Si6 0.778331 0.361385 0.644110
Si Si7 0.279829 0.861481 0.071474
Si Si8 0.597697 0.052706 0.143927
O O1 0.500000 0.209241 0.571019
O O2 0.602743 0.222035 0.845592
O O3 0.616817 0.274970 0.579905
O O4 0.666863 0.182261 0.568197
O O5 0.107365 0.224525 0.128142
O O6 0.095185 0.170747 0.856726
O O7 0.180400 0.142266 0.137475
O O8 0.000000 0.153102 0.134054
O O9 0.750000 0.750000 0.987726
O O10 0.834970 0.683447 0.136687
O O11 0.500000 0.065774 0.638483
O O12 0.669163 0.091087 0.619177
O O13 0.593978 0.050925 0.359477
O O14 0.616705 0.000000 0.638426
O O15 0.500000 0.659119 0.577644
O O16 0.678964 0.640359 0.578543
O O17 0.774399 0.353832 0.857787
O O18 0.330497 0.909144 0.099394
O O19 0.500000 0.065548 0.080364
O O20 0.616938 0.000000 0.080496
#
# Coordination Sequence:
#
# PCOD9350248 Si02
#       8
#     8   8   8   8   8   8   8   8
#     4   9  14  20  34  60  93 122 144 170 208 251
#     4   8  13  23  39  61  93 127 149 168 204 254
#     4   8  13  21  34  58  91 121 146 171 204 248
#     4   9  19  35  50  63  83 113 143 169 212 276
#     4   8  14  24  39  61  92 126 150 169 204 255
#     4  10  17  26  44  70  92 110 143 188 219 240
#     4   9  17  26  43  71  92 109 144 188 217 241
#     4   9  19  35  50  62  82 114 144 170 213 274
#
# _framework density 19.509426000000001
#
# number of rings (size 3 to 8) (size 9 to 14) (size 15 to 20)
#    0.000    3.250    0.000    4.875    0.000    3.500 
#    0.000    1.250    0.000    6.000    0.000    7.000 
#    0.000    0.000    0.000    0.000    0.000    0.000 
#
# Total GULP energy -178346.861311 kJ/mol
# GULP energy per Si atom -5573.339416 kJ/mol
# Density = 1.946502 g / cm^3
# Si number density = 19.509426 Si / 1000 Ang^3
#
#
#
# Elastic Constant Matrix: (Units=GPa)
#
#
# Indices 1 2 3 4 5 6 
#
# 1 177.2309 103.7727 0.2607 0.0000 0.0000 0.0000
# 2 103.7727 113.3682 -0.3356 0.0000 0.0000 0.0000
# 3 0.2607 -0.3356 50.4530 0.0000 0.0000 0.0000
# 4 0.0000 0.0000 0.0000 27.4963 0.0000 0.0000
# 5 0.0000 0.0000 0.0000 0.0000 25.8237 0.0000
# 6 0.0000 0.0000 0.0000 0.0000 0.0000 32.6461
#
#
#
# Elastic Compliance Matrix: (Units=1/GPa)
#
#
# Indices 1 2 3 4 5 6 
#
# 1 0.012160 -0.011131 -0.000137 0.000000 0.000000 0.000000
# 2 -0.011131 0.019011 0.000184 0.000000 0.000000 0.000000
# 3 -0.000137 0.000184 0.019822 0.000000 0.000000 0.000000
# 4 0.000000 0.000000 0.000000 0.036368 0.000000 0.000000
# 5 0.000000 0.000000 0.000000 0.000000 0.038724 0.000000
# 6 0.000000 0.000000 0.000000 0.000000 0.000000 0.030632
#
#
# Mechanical properties :
#
#
# Convention : Reuss Voigt Hill
#
# Bulk Modulus (GPa) = 34.69260 60.93865 47.81562
# Shear Modulus (GPa) = 26.52601 33.01684 29.77143
#
# Velocity S-wave (km/s) = 3.69135 4.11828 3.91065
# Velocity P-wave (km/s) = 5.99909 7.34282 6.70470
#
# Compressibility (1/GPa) = 0.02882459
#
# Stress axis : x y z
#
# Youngs Moduli (GPa) = 82.23512 52.60222 50.44804
#
# Poissons Ratio (x) = 0.58554 0.00691
# Poissons Ratio (y) = 0.91539 -0.00928
# Poissons Ratio (z) = 0.01126 -0.00968
#
# Static dielectric constant tensor:
#      x y z
#    x 1.698610 0.000000 0.000000 
#    y 0.000000 1.679150 0.000000 
#    z 0.000000 0.000000 1.756520 
# 
# From -- ./inp_files/8032.got.cif
#   From: 2010.05.17/outbox.cif.g08.bks.cpg/sg35_5_cif.got.tgz:8032.got - 2010.06.03 17:29:28.
