data_PCOD9350449
_publ_section_title
;
Structure prediction by ZEFSAII (Michael W. Deem and Ramdas Pophale) SiO2 
 PCOD9350449
Probable space group: C M M 2
;
_chemical_formula_sum "Si O2"
_cell_formula_units_Z 64
_cell_length_a 14.485587
_cell_length_b 15.487071
_cell_length_c 12.251741
_cell_angle_alpha 90.000000
_cell_angle_beta 90.000000
_cell_angle_gamma 90.000000
_cell_volume 2748.547175
_symmetry_space_group_name_H-M "C M M 2"
_symmetry_group_IT_number 35
_symmetry_cell_setting 'orthorhombic'
loop_
_space_group_symop_operation_xyz
x,y,z
-x,-y,z
-x,y,z
x,-y,z
1/2+x,1/2+y,z
1/2-x,1/2-y,z
1/2-x,1/2+y,z
1/2+x,1/2-y,z
loop_
_atom_site_type_symbol
_atom_site_label
_atom_site_fract_x
_atom_site_fract_y
_atom_site_fract_z
Si Si1 0.392069 0.092170 0.548760
Si Si2 0.150823 0.595371 0.294566
Si Si3 0.860382 0.757588 0.917902
Si Si4 0.353552 0.599108 0.080608
Si Si5 0.869362 0.592906 0.054876
Si Si6 0.889201 0.214555 0.293223
Si Si7 0.608729 0.736732 0.661532
Si Si8 0.388062 0.402797 0.499129
O O1 0.500000 0.090655 0.579500
O O2 0.388811 0.094190 0.417175
O O3 0.351699 0.178578 0.601644
O O4 0.351390 0.000000 0.584901
O O5 0.202303 0.500000 0.289931
O O6 0.096637 0.591982 0.179469
O O7 0.170777 0.698159 0.287052
O O8 0.750000 0.750000 0.927210
O O9 0.881467 0.757558 0.790533
O O10 0.888804 0.845749 0.977763
O O11 0.897439 0.674744 0.983855
O O12 0.385477 0.500000 0.086183
O O13 0.242052 0.597208 0.070735
O O14 0.378379 0.654709 0.187006
O O15 0.891170 0.500000 0.003295
O O16 0.861336 0.156023 0.396445
O O17 0.000000 0.236219 0.305112
O O18 0.500000 0.736939 0.635896
O O19 0.642140 0.648074 0.607159
O O20 0.500000 0.408228 0.496469
O O21 0.352513 0.500000 0.491517
#
# Coordination Sequence:
#
# PCOD9350449 Si02
#       8
#     8   8   8   8   8   8   8   8
#     4   9  17  31  52  78 109 140 167 204 261 321
#     4  10  18  31  55  84 109 136 172 212 261 327
#     4  10  21  38  56  76 104 141 182 224 273 318
#     4  10  21  37  56  77 104 141 181 222 267 318
#     4   9  19  37  58  78 104 140 179 219 270 324
#     4  11  20  32  54  83 112 141 172 213 267 325
#     4  10  20  35  54  77 103 138 182 222 261 313
#     4   9  18  33  52  75 106 141 175 216 267 318
#
# _framework density 23.285028000000001
#
# number of rings (size 3 to 8) (size 9 to 14) (size 15 to 20)
#    0.000    2.250    2.500    0.750    0.000    3.000 
#    0.000    1.250    0.000    1.500    0.000    0.000 
#    0.000    0.000    0.000    0.000    0.000    0.000 
#
# Total GULP energy -178474.264294 kJ/mol
# GULP energy per Si atom -5577.320759 kJ/mol
# Density = 2.323203 g / cm^3
# Si number density = 23.285028 Si / 1000 Ang^3
#
#
#
# Elastic Constant Matrix: (Units=GPa)
#
#
# Indices 1 2 3 4 5 6 
#
# 1 85.3463 20.4359 -9.5430 0.0000 0.0000 0.0000
# 2 20.4359 270.1179 93.4843 0.0000 0.0000 0.0000
# 3 -9.5430 93.4843 143.9993 0.0000 0.0000 0.0000
# 4 0.0000 0.0000 0.0000 17.4127 0.0000 0.0000
# 5 0.0000 0.0000 0.0000 0.0000 18.7049 0.0000
# 6 0.0000 0.0000 0.0000 0.0000 0.0000 11.1138
#
#
#
# Elastic Compliance Matrix: (Units=1/GPa)
#
#
# Indices 1 2 3 4 5 6 
#
# 1 0.012296 -0.001564 0.001830 0.000000 0.000000 0.000000
# 2 -0.001564 0.004974 -0.003333 0.000000 0.000000 0.000000
# 3 0.001830 -0.003333 0.009229 0.000000 0.000000 0.000000
# 4 0.000000 0.000000 0.000000 0.057429 0.000000 0.000000
# 5 0.000000 0.000000 0.000000 0.000000 0.053462 0.000000
# 6 0.000000 0.000000 0.000000 0.000000 0.000000 0.089978
#
#
# Mechanical properties :
#
#
# Convention : Reuss Voigt Hill
#
# Bulk Modulus (GPa) = 49.10008 78.69088 63.89548
# Shear Modulus (GPa) = 20.80819 35.78536 28.29677
#
# Velocity S-wave (km/s) = 2.99261 3.92451 3.48980
# Velocity P-wave (km/s) = 5.75093 7.37588 6.61351
#
# Compressibility (1/GPa) = 0.02036657
#
# Stress axis : x y z
#
# Youngs Moduli (GPa) = 81.32739 201.05597 108.35111
#
# Poissons Ratio (x) = 0.31437 -0.19828
# Poissons Ratio (y) = 0.12716 0.36109
# Poissons Ratio (z) = -0.14882 0.67003
#
# Static dielectric constant tensor:
#      x y z
#    x 1.941370 0.000000 0.000000 
#    y 0.000000 1.921170 0.000000 
#    z 0.000000 0.000000 1.807080 
# 
# From -- ./inp_files/13178.got.cif
#   From: 2010.05.17/outbox.cif.g08.bks.cpg/sg35_7_cif.got.tgz:13178.got - 2010.06.03 17:29:28.
