data_PCOD9350096
_publ_section_title
;
Structure prediction by ZEFSAII (Michael W. Deem and Ramdas Pophale) SiO2 
 PCOD9350096
Probable space group: C M M 2
;
_chemical_formula_sum "Si O2"
_cell_formula_units_Z 40
_cell_length_a 8.847175
_cell_length_b 16.473518
_cell_length_c 14.572875
_cell_angle_alpha 90.000000
_cell_angle_beta 90.000000
_cell_angle_gamma 90.000000
_cell_volume 2123.910502
_symmetry_space_group_name_H-M "C M M 2"
_symmetry_group_IT_number 35
_symmetry_cell_setting 'orthorhombic'
loop_
_space_group_symop_operation_xyz
x,y,z
-x,-y,z
-x,y,z
x,-y,z
1/2+x,1/2+y,z
1/2-x,1/2-y,z
1/2-x,1/2+y,z
1/2+x,1/2-y,z
loop_
_atom_site_type_symbol
_atom_site_label
_atom_site_fract_x
_atom_site_fract_y
_atom_site_fract_z
Si Si1 0.318764 0.500000 0.456780
Si Si2 0.327598 0.907244 0.610897
Si Si3 0.320465 0.336165 0.786114
Si Si4 0.316491 0.500000 0.244040
Si Si5 0.323336 0.093816 0.959847
Si Si6 0.318501 0.664246 0.138098
O O1 0.500000 0.500000 0.464337
O O2 0.251160 0.577013 0.512743
O O3 0.273402 0.500000 0.350995
O O4 0.500000 0.877981 0.602275
O O5 0.233758 0.856647 0.683515
O O6 0.333119 0.000000 0.648605
O O7 0.500000 0.335519 0.791053
O O8 0.250000 0.250000 0.811893
O O9 0.251210 0.397076 0.860409
O O10 0.500000 0.500000 0.239885
O O11 0.268470 0.584085 0.195358
O O12 0.500000 0.116234 0.955345
O O13 0.312052 0.000000 0.989042
O O14 0.237851 0.147789 0.034622
O O15 0.500000 0.668718 0.140597
O O16 0.250000 0.750000 0.170492
#
# Coordination Sequence:
#
# PCOD9350096 Si02
#       6
#     4   8   8   4   8   8
#     4   9  17  35  62  87 110 149 197 242 296 357
#     4   9  19  36  57  83 113 146 187 237 288 346
#     4  12  24  37  56  82 117 158 199 243 296 356
#     4   9  20  39  64  89 120 159 205 252 308 369
#     4  11  23  39  59  86 119 157 201 248 298 357
#     4  11  22  40  62  90 124 162 205 253 304 361
#
# _framework density 18.833186999999999
#
# number of rings (size 3 to 8) (size 9 to 14) (size 15 to 20)
#    0.600    1.000    1.000    4.800    0.000    3.600 
#    0.000    5.000    0.000    2.400    0.000    0.000 
#    0.000    0.000    0.000    0.000    0.000    0.000 
#
# Total GULP energy -111561.049528 kJ/mol
# GULP energy per Si atom -5578.052476 kJ/mol
# Density = 1.879032 g / cm^3
# Si number density = 18.833187 Si / 1000 Ang^3
#
#
#
# Elastic Constant Matrix: (Units=GPa)
#
#
# Indices 1 2 3 4 5 6 
#
# 1 119.4076 41.6104 39.2759 0.0000 0.0000 0.0000
# 2 41.6104 91.3027 40.1125 0.0000 0.0000 0.0000
# 3 39.2759 40.1125 115.8859 0.0000 0.0000 0.0000
# 4 0.0000 0.0000 0.0000 13.9461 0.0000 0.0000
# 5 0.0000 0.0000 0.0000 0.0000 19.8968 0.0000
# 6 0.0000 0.0000 0.0000 0.0000 0.0000 28.0806
#
#
#
# Elastic Compliance Matrix: (Units=1/GPa)
#
#
# Indices 1 2 3 4 5 6 
#
# 1 0.010421 -0.003771 -0.002227 0.000000 0.000000 0.000000
# 2 -0.003771 0.014282 -0.003665 0.000000 0.000000 0.000000
# 3 -0.002227 -0.003665 0.010653 0.000000 0.000000 0.000000
# 4 0.000000 0.000000 0.000000 0.071704 0.000000 0.000000
# 5 0.000000 0.000000 0.000000 0.000000 0.050259 0.000000
# 6 0.000000 0.000000 0.000000 0.000000 0.000000 0.035612
#
#
# Mechanical properties :
#
#
# Convention : Reuss Voigt Hill
#
# Bulk Modulus (GPa) = 62.38615 63.17710 62.78163
# Shear Modulus (GPa) = 22.97794 26.09118 24.53456
#
# Velocity S-wave (km/s) = 3.49675 3.72611 3.61325
# Velocity P-wave (km/s) = 7.03566 7.22013 7.12850
#
# Compressibility (1/GPa) = 0.01602920
#
# Stress axis : x y z
#
# Youngs Moduli (GPa) = 95.95820 70.02050 93.87459
#
# Poissons Ratio (x) = 0.26406 0.20902
# Poissons Ratio (y) = 0.36187 0.34408
# Poissons Ratio (z) = 0.21366 0.25664
#
# Static dielectric constant tensor:
#      x y z
#    x 1.633540 0.000000 0.000000 
#    y 0.000000 1.658690 0.000000 
#    z 0.000000 0.000000 1.626290 
# 
# From -- ./inp_files/14768.got.cif
#   From: 2010.05.17/outbox.cif.g08.bks.cpg/sg35_8_cif.got.tgz:14768.got - 2010.06.03 17:29:28.
