data_PCOD9350696
_publ_section_title
;
Structure prediction by ZEFSAII (Michael W. Deem and Ramdas Pophale) SiO2 
 PCOD9350696
Probable space group: C M C 21
;
_chemical_formula_sum "Si O2"
_cell_formula_units_Z 64
_cell_length_a 7.913467
_cell_length_b 22.165287
_cell_length_c 14.256748
_cell_angle_alpha 90.000000
_cell_angle_beta 90.000000
_cell_angle_gamma 90.000000
_cell_volume 2500.694436
_symmetry_space_group_name_H-M "C M C 21"
_symmetry_group_IT_number 36
_symmetry_cell_setting 'orthorhombic'
loop_
_space_group_symop_operation_xyz
x,y,z
-x,-y,1/2+z
x,-y,1/2+z
-x,y,z
1/2+x,1/2+y,z
1/2-x,1/2-y,1/2+z
1/2+x,1/2-y,1/2+z
1/2-x,1/2+y,z
loop_
_atom_site_type_symbol
_atom_site_label
_atom_site_fract_x
_atom_site_fract_y
_atom_site_fract_z
Si Si1 0.308071 0.485084 0.460620
Si Si2 0.695443 0.103452 0.704438
Si Si3 0.693144 0.901271 0.849555
Si Si4 0.694007 0.280104 0.310494
Si Si5 0.294409 0.028630 0.176924
Si Si6 0.793382 0.716211 0.132134
Si Si7 0.694796 0.140243 0.968357
Si Si8 0.199008 0.837970 0.027351
O O1 0.500000 0.506190 0.451963
O O2 0.200324 0.535639 0.408157
O O3 0.264799 0.474831 0.570118
O O4 0.286696 0.416793 0.423647
O O5 0.500000 0.109520 0.735415
O O6 0.798348 0.158670 0.747604
O O7 0.706120 0.113445 0.592157
O O8 0.755551 0.035878 0.721594
O O9 0.500000 0.883261 0.834329
O O10 0.765694 0.919241 0.747874
O O11 0.770811 0.851774 0.918737
O O12 0.500000 0.267487 0.335817
O O13 0.793634 0.301314 0.401720
O O14 0.760872 0.229469 0.238457
O O15 0.500000 0.030830 0.175904
O O16 0.737703 0.659734 0.070217
O O17 0.743700 0.774125 0.069277
O O18 0.000000 0.714219 0.134653
O O19 0.500000 0.122548 0.978580
O O20 0.000000 0.843571 0.045073
#
# Coordination Sequence:
#
# PCOD9350696 Si02
#       8
#     8   8   8   8   8   8   8   8
#     4  12  25  40  61  90 124 160 200 252 308 356
#     4  10  18  32  57  85 114 154 200 243 291 349
#     4  11  22  38  60  89 122 159 202 242 296 367
#     4  10  20  37  61  91 120 152 203 256 302 352
#     4  10  22  38  57  83 120 160 200 240 291 363
#     4   8  19  39  62  85 116 156 197 246 302 354
#     4  11  22  41  64  86 120 164 204 245 301 365
#     4  10  19  35  58  85 116 149 192 246 299 348
#
# _framework density 25.592891999999999
#
# number of rings (size 3 to 8) (size 9 to 14) (size 15 to 20)
#    0.000    1.750    1.250    4.500    0.000    2.500 
#    2.250    7.500    0.000    0.000    0.000    0.000 
#    0.000    0.000    0.000    0.000    0.000    0.000 
#
# Total GULP energy -179022.222212 kJ/mol
# GULP energy per Si atom -5594.444444 kJ/mol
# Density = 2.553464 g / cm^3
# Si number density = 25.592892 Si / 1000 Ang^3
#
#
#
# Elastic Constant Matrix: (Units=GPa)
#
#
# Indices 1 2 3 4 5 6 
#
# 1 47.8074 -1.8257 -12.9885 0.0000 0.0000 0.0000
# 2 -1.8257 78.9398 26.9739 0.0000 0.0000 0.0000
# 3 -12.9885 26.9739 133.6817 0.0000 0.0000 0.0000
# 4 0.0000 0.0000 0.0000 57.4026 0.0000 0.0000
# 5 0.0000 0.0000 0.0000 0.0000 25.5622 0.0000
# 6 0.0000 0.0000 0.0000 0.0000 0.0000 4.9606
#
#
#
# Elastic Compliance Matrix: (Units=1/GPa)
#
#
# Indices 1 2 3 4 5 6 
#
# 1 0.021488 -0.000232 0.002135 0.000000 0.000000 0.000000
# 2 -0.000232 0.013609 -0.002768 0.000000 0.000000 0.000000
# 3 0.002135 -0.002768 0.008246 0.000000 0.000000 0.000000
# 4 0.000000 0.000000 0.000000 0.017421 0.000000 0.000000
# 5 0.000000 0.000000 0.000000 0.000000 0.039120 0.000000
# 6 0.000000 0.000000 0.000000 0.000000 0.000000 0.201590
#
#
# Mechanical properties :
#
#
# Convention : Reuss Voigt Hill
#
# Bulk Modulus (GPa) = 24.03216 31.63870 27.83543
# Shear Modulus (GPa) = 15.76903 34.13634 24.95268
#
# Velocity S-wave (km/s) = 2.48493 3.65611 3.12586
# Velocity P-wave (km/s) = 4.20044 5.49655 4.89161
#
# Compressibility (1/GPa) = 0.04161090
#
# Stress axis : x y z
#
# Youngs Moduli (GPa) = 46.53686 73.48348 121.26385
#
# Poissons Ratio (x) = 0.01708 -0.25886
# Poissons Ratio (y) = 0.01082 0.33572
# Poissons Ratio (z) = -0.09934 0.20344
#
# Static dielectric constant tensor:
#      x y z
#    x 1.932650 0.000000 0.000000 
#    y 0.000000 2.039620 0.000000 
#    z 0.000000 0.000000 2.082090 
# 
# From -- ./inp_files/11014.got.cif
#   From: 2010.05.17/outbox.cif.g08.bks.cpg/sg36_6_cif.got.tgz:11014.got - 2010.06.03 17:41:39.
