data_PCOD9350214
_publ_section_title
;
Structure prediction by ZEFSAII (Michael W. Deem and Ramdas Pophale) SiO2 
 PCOD9350214
Probable space group: C M M 2
;
_chemical_formula_sum "Si O2"
_cell_formula_units_Z 56
_cell_length_a 8.686696
_cell_length_b 15.406995
_cell_length_c 19.193356
_cell_angle_alpha 90.000000
_cell_angle_beta 90.000000
_cell_angle_gamma 90.000000
_cell_volume 2568.759726
_symmetry_space_group_name_H-M "C M M 2"
_symmetry_group_IT_number 35
_symmetry_cell_setting 'orthorhombic'
loop_
_space_group_symop_operation_xyz
x,y,z
-x,-y,z
-x,y,z
x,-y,z
1/2+x,1/2+y,z
1/2-x,1/2-y,z
1/2-x,1/2+y,z
1/2+x,1/2-y,z
loop_
_atom_site_type_symbol
_atom_site_label
_atom_site_fract_x
_atom_site_fract_y
_atom_site_fract_z
Si Si1 0.180739 0.846171 0.160870
Si Si2 0.315624 0.849188 0.587112
Si Si3 0.816197 0.650983 0.301301
Si Si4 0.315557 0.650882 0.444071
Si Si5 0.673279 0.396708 0.883346
Si Si6 0.314220 0.347503 0.729634
Si Si7 0.831130 0.603055 0.021216
O O1 0.250000 0.750000 0.155882
O O2 0.262670 0.889064 0.227917
O O3 0.217935 0.885324 0.085857
O O4 0.000000 0.843823 0.174347
O O5 0.500000 0.847051 0.585136
O O6 0.250000 0.750000 0.587981
O O7 0.249148 0.888688 0.515755
O O8 0.256371 0.888974 0.659732
O O9 0.750000 0.750000 0.299127
O O10 0.746012 0.611321 0.371843
O O11 0.000000 0.653401 0.305782
O O12 0.500000 0.652814 0.444942
O O13 0.250000 0.750000 0.443608
O O14 0.500000 0.360014 0.886433
O O15 0.662191 0.500000 0.893703
O O16 0.731806 0.384694 0.804787
O O17 0.771656 0.361052 0.947516
O O18 0.500000 0.349541 0.724031
O O19 0.250000 0.250000 0.731282
O O20 0.846333 0.500000 0.012146
O O21 0.000000 0.639539 0.039015
#
# Coordination Sequence:
#
# PCOD9350214 Si02
#       7
#     8   8   8   8   8   8   8
#     4  11  21  34  52  75 104 135 168 207 252 299
#     4  10  17  26  40  61  91 125 160 197 239 286
#     4  10  17  27  42  64  95 128 163 201 244 291
#     4  10  16  24  38  59  89 125 163 198 238 286
#     4   9  19  36  55  73  95 127 166 204 243 291
#     4  10  19  31  48  71  99 128 159 199 245 292
#     4  10  21  37  56  77 101 130 166 207 250 298
#
# _framework density 21.800404
#
# number of rings (size 3 to 8) (size 9 to 14) (size 15 to 20)
#    0.000    2.000    0.000    9.429    0.000    2.571 
#    0.000    1.429    0.000    0.000    0.000    1.000 
#    0.000    5.714    0.000    0.000    0.000    0.000 
#
# Total GULP energy -156246.679347 kJ/mol
# GULP energy per Si atom -5580.238548 kJ/mol
# Density = 2.175078 g / cm^3
# Si number density = 21.800404 Si / 1000 Ang^3
#
#
#
# Elastic Constant Matrix: (Units=GPa)
#
#
# Indices 1 2 3 4 5 6 
#
# 1 181.1943 6.0776 81.5706 0.0000 0.0000 0.0000
# 2 6.0776 24.4298 11.0316 0.0000 0.0000 0.0000
# 3 81.5706 11.0316 206.5499 0.0000 0.0000 0.0000
# 4 0.0000 0.0000 0.0000 27.2463 0.0000 0.0000
# 5 0.0000 0.0000 0.0000 0.0000 45.0264 0.0000
# 6 0.0000 0.0000 0.0000 0.0000 0.0000 3.9926
#
#
#
# Elastic Compliance Matrix: (Units=1/GPa)
#
#
# Indices 1 2 3 4 5 6 
#
# 1 0.006718 -0.000485 -0.002627 0.000000 0.000000 0.000000
# 2 -0.000485 0.041980 -0.002051 0.000000 0.000000 0.000000
# 3 -0.002627 -0.002051 0.005988 0.000000 0.000000 0.000000
# 4 0.000000 0.000000 0.000000 0.036702 0.000000 0.000000
# 5 0.000000 0.000000 0.000000 0.000000 0.022209 0.000000
# 6 0.000000 0.000000 0.000000 0.000000 0.000000 0.250463
#
#
# Mechanical properties :
#
#
# Convention : Reuss Voigt Hill
#
# Bulk Modulus (GPa) = 22.54222 67.72596 45.13409
# Shear Modulus (GPa) = 12.84774 36.15266 24.50020
#
# Velocity S-wave (km/s) = 2.43026 4.07670 3.35601
# Velocity P-wave (km/s) = 4.27055 7.30021 5.98041
#
# Compressibility (1/GPa) = 0.04436121
#
# Stress axis : x y z
#
# Youngs Moduli (GPa) = 148.85618 23.82076 166.98751
#
# Poissons Ratio (x) = 0.01155 0.43870
# Poissons Ratio (y) = 0.07219 0.34243
# Poissons Ratio (z) = 0.39106 0.04885
#
# Static dielectric constant tensor:
#      x y z
#    x 1.760280 0.000000 0.000000 
#    y 0.000000 1.805620 0.000000 
#    z 0.000000 0.000000 1.890150 
# 
# From -- ./inp_files/18195.got.cif
#   From: 2010.05.17/outbox.cif.g08.bks.cpg/sg35_10_cif.got.tgz:18195.got - 2010.06.03 17:29:28.
