data_PCOD9350093
_publ_section_title
;
Structure prediction by ZEFSAII (Michael W. Deem and Ramdas Pophale) SiO2 
 PCOD9350093
Probable space group: C M M 2
;
_chemical_formula_sum "Si O2"
_cell_formula_units_Z 48
_cell_length_a 8.509964
_cell_length_b 15.724344
_cell_length_c 17.717502
_cell_angle_alpha 90.000000
_cell_angle_beta 90.000000
_cell_angle_gamma 90.000000
_cell_volume 2370.842750
_symmetry_space_group_name_H-M "C M M 2"
_symmetry_group_IT_number 35
_symmetry_cell_setting 'orthorhombic'
loop_
_space_group_symop_operation_xyz
x,y,z
-x,-y,z
-x,y,z
x,-y,z
1/2+x,1/2+y,z
1/2-x,1/2-y,z
1/2-x,1/2+y,z
1/2+x,1/2-y,z
loop_
_atom_site_type_symbol
_atom_site_label
_atom_site_fract_x
_atom_site_fract_y
_atom_site_fract_z
Si Si1 0.688428 0.397518 0.250000
Si Si2 0.814280 0.500000 0.830287
Si Si3 0.312082 0.660445 0.739121
Si Si4 0.314021 0.396653 0.414619
Si Si5 0.185473 0.000000 0.998284
Si Si6 0.191562 0.100058 0.577354
Si Si7 0.314339 0.841476 0.091805
O O1 0.500000 0.382297 0.244903
O O2 0.709540 0.500000 0.244878
O O3 0.748414 0.369160 0.332950
O O4 0.773097 0.354870 0.179922
O O5 0.744549 0.417366 0.789511
O O6 0.000000 0.500000 0.820898
O O7 0.770577 0.500000 0.918018
O O8 0.500000 0.660542 0.737753
O O9 0.250000 0.750000 0.768109
O O10 0.254197 0.646608 0.652737
O O11 0.500000 0.376917 0.413367
O O12 0.303038 0.500000 0.416086
O O13 0.249294 0.367498 0.495703
O O14 0.233569 0.082652 0.046037
O O15 0.000000 0.000000 0.985792
O O16 0.000000 0.103853 0.575208
O O17 0.231728 0.000000 0.584835
O O18 0.500000 0.845999 0.080951
O O19 0.250000 0.750000 0.067618
#
# Coordination Sequence:
#
# PCOD9350093 Si02
#       7
#     8   4   8   8   4   8   8
#     4   9  16  30  55  86 122 164 210 257 308 363
#     4  12  26  46  70  97 126 159 200 249 306 371
#     4  11  22  39  63  94 128 167 209 255 308 367
#     4   7  11  21  44  80 115 155 207 256 303 357
#     4  12  26  48  74  99 126 157 196 247 308 375
#     4   8  13  26  51  82 117 159 208 257 306 360
#     4  12  25  42  65  95 129 167 208 253 305 365
#
# _framework density 20.245965000000002
#
# number of rings (size 3 to 8) (size 9 to 14) (size 15 to 20)
#    0.000    2.167    1.667    5.500    0.000    0.667 
#    0.000    4.167    0.000    4.000    0.000    0.000 
#    0.000    0.000    0.000    0.000    0.000    0.000 
#
# Total GULP energy -133997.679719 kJ/mol
# GULP energy per Si atom -5583.236655 kJ/mol
# Density = 2.019988 g / cm^3
# Si number density = 20.245965 Si / 1000 Ang^3
#
#
#
# Elastic Constant Matrix: (Units=GPa)
#
#
# Indices 1 2 3 4 5 6 
#
# 1 41.4995 11.8870 -5.6288 0.0000 0.0000 0.0000
# 2 11.8870 103.1897 38.6321 0.0000 0.0000 0.0000
# 3 -5.6288 38.6321 106.4368 0.0000 0.0000 0.0000
# 4 0.0000 0.0000 0.0000 -13.6949 0.0000 0.0000
# 5 0.0000 0.0000 0.0000 0.0000 10.4852 0.0000
# 6 0.0000 0.0000 0.0000 0.0000 0.0000 20.3739
#
#
#
# Elastic Compliance Matrix: (Units=1/GPa)
#
#
# Indices 1 2 3 4 5 6 
#
# 1 0.025624 -0.004003 0.002808 0.000000 0.000000 0.000000
# 2 -0.004003 0.011840 -0.004509 0.000000 0.000000 0.000000
# 3 0.002808 -0.004509 0.011180 0.000000 0.000000 0.000000
# 4 0.000000 0.000000 0.000000 -0.073020 0.000000 0.000000
# 5 0.000000 0.000000 0.000000 0.000000 0.095372 0.000000
# 6 0.000000 0.000000 0.000000 0.000000 0.000000 0.049083
#
#
# Mechanical properties :
#
#
# Convention : Reuss Voigt Hill
#
# Bulk Modulus (GPa) = 26.85547 37.87850 32.36699
# Shear Modulus (GPa) = 34.74639 17.18190 25.96414
#
# Velocity S-wave (km/s) = 4.14721 2.91633 3.58500
# Velocity P-wave (km/s) = 6.01880 5.48541 5.75829
#
# Compressibility (1/GPa) = 0.03723636
#
# Stress axis : x y z
#
# Youngs Moduli (GPa) = 39.02564 84.45831 89.44239
#
# Poissons Ratio (x) = 0.33809 -0.25116
# Poissons Ratio (y) = 0.15622 0.40331
# Poissons Ratio (z) = -0.10959 0.38084
#
# Static dielectric constant tensor:
#      x y z
#    x 1.673140 0.000000 0.000000 
#    y 0.000000 1.710640 0.000000 
#    z 0.000000 0.000000 1.743210 
# 
# From -- ./inp_files/17885.got.cif
#   From: 2010.05.17/outbox.cif.g08.bks.cpg/sg35_9_cif.got.tgz:17885.got - 2010.06.03 17:29:28.
