data_PCOD9350106
_publ_section_title
;
Structure prediction by ZEFSAII (Michael W. Deem and Ramdas Pophale) SiO2 
 PCOD9350106
Probable space group: C M M 2
;
_chemical_formula_sum "Si O2"
_cell_formula_units_Z 56
_cell_length_a 9.577634
_cell_length_b 14.906542
_cell_length_c 18.780111
_cell_angle_alpha 90.000000
_cell_angle_beta 90.000000
_cell_angle_gamma 90.000000
_cell_volume 2681.225245
_symmetry_space_group_name_H-M "C M M 2"
_symmetry_group_IT_number 35
_symmetry_cell_setting 'orthorhombic'
loop_
_space_group_symop_operation_xyz
x,y,z
-x,-y,z
-x,y,z
x,-y,z
1/2+x,1/2+y,z
1/2-x,1/2-y,z
1/2-x,1/2+y,z
1/2+x,1/2-y,z
loop_
_atom_site_type_symbol
_atom_site_label
_atom_site_fract_x
_atom_site_fract_y
_atom_site_fract_z
Si Si1 0.330059 0.896532 0.078200
Si Si2 0.661659 0.110052 0.922813
Si Si3 0.341196 0.107270 0.232281
Si Si4 0.157849 0.390042 0.651372
Si Si5 0.346202 0.395753 0.525329
Si Si6 0.665510 0.660259 0.368239
Si Si7 0.340506 0.609689 0.787088
O O1 0.500000 0.897979 0.078317
O O2 0.291133 0.857046 0.155137
O O3 0.280940 0.000000 0.077894
O O4 0.289999 0.858361 0.001290
O O5 0.500000 0.136230 0.911002
O O6 0.760331 0.137997 0.858513
O O7 0.661873 0.000000 0.924785
O O8 0.500000 0.140487 0.247287
O O9 0.236866 0.124042 0.296772
O O10 0.351993 0.000000 0.224232
O O11 0.151654 0.500000 0.652088
O O12 0.227997 0.359559 0.577460
O O13 0.254638 0.363268 0.717344
O O14 0.000000 0.357663 0.659069
O O15 0.500000 0.353726 0.535875
O O16 0.358017 0.500000 0.545566
O O17 0.315113 0.393863 0.441408
O O18 0.500000 0.671711 0.357696
O O19 0.750000 0.750000 0.383103
O O20 0.500000 0.640628 0.785203
O O21 0.342464 0.500000 0.787411
#
# Coordination Sequence:
#
# PCOD9350106 Si02
#       7
#     8   8   8   8   8   8   8
#     4   7  11  21  38  60  85 115 151 189 228 271
#     4   8  12  19  32  50  76 112 151 186 220 262
#     4   9  17  31  52  75  98 126 161 199 240 288
#     4   9  16  25  39  60  84 112 149 189 226 269
#     4   9  18  33  51  69  91 120 153 191 237 285
#     4  11  23  37  52  71  97 127 159 197 242 290
#     4   9  15  21  30  48  79 117 151 183 223 268
#
# _framework density 20.885974999999998
#
# number of rings (size 3 to 8) (size 9 to 14) (size 15 to 20)
#    0.000    3.143    0.000    3.429    0.000    5.429 
#    0.000    2.143    0.000    2.571    0.000    0.000 
#    0.000    1.143    0.000    8.286    0.000   12.571 
#
# Total GULP energy -156049.625107 kJ/mol
# GULP energy per Si atom -5573.200897 kJ/mol
# Density = 2.083844 g / cm^3
# Si number density = 20.885975 Si / 1000 Ang^3
#
#
#
# Elastic Constant Matrix: (Units=GPa)
#
#
# Indices 1 2 3 4 5 6 
#
# 1 150.7457 10.3875 121.9791 0.0000 0.0000 0.0000
# 2 10.3875 32.2447 -1.7683 0.0000 0.0000 0.0000
# 3 121.9791 -1.7683 186.6730 0.0000 0.0000 0.0000
# 4 0.0000 0.0000 0.0000 -29.9319 0.0000 0.0000
# 5 0.0000 0.0000 0.0000 0.0000 71.2851 0.0000
# 6 0.0000 0.0000 0.0000 0.0000 0.0000 10.8386
#
#
#
# Elastic Compliance Matrix: (Units=1/GPa)
#
#
# Indices 1 2 3 4 5 6 
#
# 1 0.014946 -0.005353 -0.009817 0.000000 0.000000 0.000000
# 2 -0.005353 0.032946 0.003810 0.000000 0.000000 0.000000
# 3 -0.009817 0.003810 0.011808 0.000000 0.000000 0.000000
# 4 0.000000 0.000000 0.000000 -0.033409 0.000000 0.000000
# 5 0.000000 0.000000 0.000000 0.000000 0.014028 0.000000
# 6 0.000000 0.000000 0.000000 0.000000 0.000000 0.092263
#
#
# Mechanical properties :
#
#
# Convention : Reuss Voigt Hill
#
# Bulk Modulus (GPa) = 27.04169 70.09555 48.56862
# Shear Modulus (GPa) = 29.82763 26.37602 28.10183
#
# Velocity S-wave (km/s) = 3.78314 3.55753 3.67207
# Velocity P-wave (km/s) = 5.66201 7.10694 6.42522
#
# Compressibility (1/GPa) = 0.03697993
#
# Stress axis : x y z
#
# Youngs Moduli (GPa) = 66.90570 30.35239 84.68825
#
# Poissons Ratio (x) = 0.16248 0.83141
# Poissons Ratio (y) = 0.35816 -0.32267
# Poissons Ratio (z) = 0.65683 -0.11565
#
# Static dielectric constant tensor:
#      x y z
#    x 1.722710 0.000000 0.000000 
#    y 0.000000 1.823060 0.000000 
#    z 0.000000 0.000000 1.801720 
# 
# From -- ./inp_files/18456.got.cif
#   From: 2010.05.17/outbox.cif.g08.bks.cpg/sg35_10_cif.got.tgz:18456.got - 2010.06.03 17:29:28.
