data_PCOD9350810
_publ_section_title
;
Structure prediction by ZEFSAII (Michael W. Deem and Ramdas Pophale) SiO2 
 PCOD9350810
Probable space group: C M C 21
;
_chemical_formula_sum "Si O2"
_cell_formula_units_Z 40
_cell_length_a 14.291999
_cell_length_b 9.561635
_cell_length_c 13.930645
_cell_angle_alpha 90.000000
_cell_angle_beta 90.000000
_cell_angle_gamma 90.000000
_cell_volume 1903.690591
_symmetry_space_group_name_H-M "C M C 21"
_symmetry_group_IT_number 36
_symmetry_cell_setting 'orthorhombic'
loop_
_space_group_symop_operation_xyz
x,y,z
-x,-y,1/2+z
x,-y,1/2+z
-x,y,z
1/2+x,1/2+y,z
1/2-x,1/2-y,1/2+z
1/2+x,1/2-y,1/2+z
1/2-x,1/2+y,z
loop_
_atom_site_type_symbol
_atom_site_label
_atom_site_fract_x
_atom_site_fract_y
_atom_site_fract_z
Si Si1 0.200498 0.316999 0.825660
Si Si2 0.699218 0.536919 0.938996
Si Si3 0.165240 0.117028 0.145218
Si Si4 0.000000 0.705982 0.708591
Si Si5 0.500000 0.120976 0.242568
Si Si6 0.000000 0.096797 0.679727
Si Si7 0.500000 0.555526 0.372269
O O1 0.230742 0.413720 0.913806
O O2 0.211463 0.157111 0.858547
O O3 0.265719 0.361338 0.735136
O O4 0.094510 0.347961 0.799338
O O5 0.594945 0.469534 0.930461
O O6 0.714077 0.603199 0.043179
O O7 0.091855 0.243991 0.152198
O O8 0.095440 0.982572 0.151112
O O9 0.000000 0.541751 0.719204
O O10 0.000000 0.801022 0.807891
O O11 0.500000 0.239257 0.158725
O O12 0.000000 0.067862 0.793724
#
# Coordination Sequence:
#
# PCOD9350810 Si02
#       7
#     8   8   8   4   4   4   4
#     4  12  24  42  65  99 136 175 227 281 339 397
#     4  12  24  42  72  95 137 179 223 279 343 413
#     4  10  23  45  68  97 132 183 225 268 349 416
#     4  10  21  41  70  95 132 170 222 285 333 407
#     4  12  24  38  71  95 130 180 219 284 337 374
#     4  10  19  43  74  95 132 179 217 279 337 416
#     4  10  18  44  65  93 126 183 214 260 355 399
#
# _framework density 21.01182
#
# number of rings (size 3 to 8) (size 9 to 14) (size 15 to 20)
#    0.000    1.200    6.000    2.400    0.000    4.800 
#    0.000    1.000    4.400    0.000    0.000    0.000 
#    0.000    0.000    0.000    0.000    0.000    0.000 
#
# Total GULP energy -111662.020366 kJ/mol
# GULP energy per Si atom -5583.101018 kJ/mol
# Density = 2.096400 g / cm^3
# Si number density = 21.011820 Si / 1000 Ang^3
#
#
#
# Elastic Constant Matrix: (Units=GPa)
#
#
# Indices 1 2 3 4 5 6 
#
# 1 101.8198 29.7978 23.6417 0.0000 0.0000 0.0000
# 2 29.7978 156.1416 0.5890 0.0000 0.0000 0.0000
# 3 23.6417 0.5890 63.8156 0.0000 0.0000 0.0000
# 4 0.0000 0.0000 0.0000 6.0106 0.0000 0.0000
# 5 0.0000 0.0000 0.0000 0.0000 13.3103 0.0000
# 6 0.0000 0.0000 0.0000 0.0000 0.0000 7.7967
#
#
#
# Elastic Compliance Matrix: (Units=1/GPa)
#
#
# Indices 1 2 3 4 5 6 
#
# 1 0.011434 -0.002166 -0.004216 0.000000 0.000000 0.000000
# 2 -0.002166 0.006815 0.000740 0.000000 0.000000 0.000000
# 3 -0.004216 0.000740 0.017225 0.000000 0.000000 0.000000
# 4 0.000000 0.000000 0.000000 0.166373 0.000000 0.000000
# 5 0.000000 0.000000 0.000000 0.000000 0.075130 0.000000
# 6 0.000000 0.000000 0.000000 0.000000 0.000000 0.128260
#
#
# Mechanical properties :
#
#
# Convention : Reuss Voigt Hill
#
# Bulk Modulus (GPa) = 41.34066 47.75932 44.54999
# Shear Modulus (GPa) = 11.77619 23.27340 17.52480
#
# Velocity S-wave (km/s) = 2.36996 3.33172 2.89112
# Velocity P-wave (km/s) = 5.21600 6.13022 5.69149
#
# Compressibility (1/GPa) = 0.02418926
#
# Stress axis : x y z
#
# Youngs Moduli (GPa) = 87.45747 146.73423 58.05436
#
# Poissons Ratio (x) = 0.31785 0.24476
# Poissons Ratio (y) = 0.18945 -0.04294
# Poissons Ratio (z) = 0.36872 -0.10852
#
# Static dielectric constant tensor:
#      x y z
#    x 1.752200 0.000000 0.000000 
#    y 0.000000 1.760410 0.000000 
#    z 0.000000 0.000000 1.791850 
# 
# From -- ./inp_files/11973.got.cif
#   From: 2010.05.17/outbox.cif.g08.bks.cpg/sg36_6_cif.got.tgz:11973.got - 2010.06.03 17:41:39.
