data_PCOD9350380
_publ_section_title
;
Structure prediction by ZEFSAII (Michael W. Deem and Ramdas Pophale) SiO2 
 PCOD9350380
Probable space group: C M M 2
;
_chemical_formula_sum "Si O2"
_cell_formula_units_Z 64
_cell_length_a 19.758308
_cell_length_b 14.872672
_cell_length_c 10.883407
_cell_angle_alpha 90.000000
_cell_angle_beta 90.000000
_cell_angle_gamma 90.000000
_cell_volume 3198.185293
_symmetry_space_group_name_H-M "C M M 2"
_symmetry_group_IT_number 35
_symmetry_cell_setting 'orthorhombic'
loop_
_space_group_symop_operation_xyz
x,y,z
-x,-y,z
-x,y,z
x,-y,z
1/2+x,1/2+y,z
1/2-x,1/2-y,z
1/2-x,1/2+y,z
1/2+x,1/2-y,z
loop_
_atom_site_type_symbol
_atom_site_label
_atom_site_fract_x
_atom_site_fract_y
_atom_site_fract_z
Si Si1 0.420533 0.390104 0.331900
Si Si2 0.426846 0.891455 0.977862
Si Si3 0.926846 0.608545 0.685938
Si Si4 0.722033 0.850613 0.690189
Si Si5 0.277967 0.149387 0.973612
Si Si6 0.643113 0.396751 0.582862
Si Si7 0.578876 0.390871 0.831900
Si Si8 0.643113 0.603249 0.080938
O O1 0.500000 0.367622 0.331900
O O2 0.415894 0.500000 0.331900
O O3 0.383636 0.357084 0.455760
O O4 0.383636 0.357084 0.208040
O O5 0.500000 0.860318 0.028763
O O6 0.427908 0.871100 0.831900
O O7 0.354472 0.855878 0.021935
O O8 0.424782 0.000000 0.989788
O O9 0.924782 0.500000 0.674013
O O10 0.854472 0.644122 0.641866
O O11 0.000000 0.639682 0.635038
O O12 0.750000 0.750000 0.695650
O O13 0.724035 0.886771 0.831900
O O14 0.776611 0.897800 0.603162
O O15 0.250000 0.250000 0.968151
O O16 0.223389 0.102200 0.060639
O O17 0.618414 0.500000 0.582307
O O18 0.612463 0.355021 0.707602
O O19 0.500000 0.371379 0.831901
O O20 0.587787 0.500000 0.831900
O O21 0.612464 0.355021 0.956198
O O22 0.618414 0.500000 0.081493
#
# Coordination Sequence:
#
# PCOD9350380 Si02
#       8
#     8   8   8   8   8   8   8   8
#     4   9  18  32  49  70  99 131 167 210 244 284
#     4   8  14  26  45  66  89 122 163 203 242 288
#     4   8  14  26  45  66  89 122 163 203 242 288
#     4  10  19  30  45  69 104 130 156 201 259 310
#     4  10  19  30  45  69 104 130 156 201 259 310
#     4  10  18  30  49  71  94 128 169 205 248 297
#     4   9  16  26  43  68  95 121 155 196 236 284
#     4  10  18  30  49  71  94 128 169 205 248 297
#
# _framework density 20.011348000000002
#
# number of rings (size 3 to 8) (size 9 to 14) (size 15 to 20)
#    0.000    2.750    1.250    2.250    0.000    4.000 
#    0.000    3.125    0.000    0.000    0.000    0.875 
#    0.000    5.000    0.000    0.000    0.000    0.000 
#
# Total GULP energy -178313.368525 kJ/mol
# GULP energy per Si atom -5572.292766 kJ/mol
# Density = 1.996580 g / cm^3
# Si number density = 20.011348 Si / 1000 Ang^3
#
#
#
# Elastic Constant Matrix: (Units=GPa)
#
#
# Indices 1 2 3 4 5 6 
#
# 1 202.4297 7.2607 86.3701 0.0000 0.0000 0.0000
# 2 7.2607 23.4430 13.0543 0.0000 0.0000 0.0000
# 3 86.3701 13.0543 123.3559 0.0000 0.0000 0.0000
# 4 0.0000 0.0000 0.0000 0.0222 0.0000 0.0000
# 5 0.0000 0.0000 0.0000 0.0000 17.0076 0.0000
# 6 0.0000 0.0000 0.0000 0.0000 0.0000 14.1731
#
#
#
# Elastic Compliance Matrix: (Units=1/GPa)
#
#
# Indices 1 2 3 4 5 6 
#
# 1 0.007052 0.000601 -0.005001 0.000000 0.000000 0.000000
# 2 0.000601 0.045379 -0.005223 0.000000 0.000000 0.000000
# 3 -0.005001 -0.005223 0.012161 0.000000 0.000000 0.000000
# 4 0.000000 0.000000 0.000000 45.131537 0.000000 0.000000
# 5 0.000000 0.000000 0.000000 0.000000 0.058797 0.000000
# 6 0.000000 0.000000 0.000000 0.000000 0.000000 0.070556
#
#
# Mechanical properties :
#
#
# Convention : Reuss Voigt Hill
#
# Bulk Modulus (GPa) = 22.05295 62.51096 42.28195
# Shear Modulus (GPa) = 0.11023 22.41013 11.26018
#
# Velocity S-wave (km/s) = 0.23495 3.35008 2.37468
# Velocity P-wave (km/s) = 3.33433 6.80218 5.35665
#
# Compressibility (1/GPa) = 0.04534541
#
# Stress axis : x y z
#
# Youngs Moduli (GPa) = 141.79581 22.03664 82.22858
#
# Poissons Ratio (x) = -0.01324 0.41126
# Poissons Ratio (y) = -0.08519 0.42948
# Poissons Ratio (z) = 0.70919 0.11510
#
# Static dielectric constant tensor:
#      x y z
#    x 1.706840 0.000000 0.000000 
#    y 0.000000 1.777440 0.000000 
#    z 0.000000 0.000000 1.716480 
# 
# From -- ./inp_files/13664.got.cif
#   From: 2010.05.17/outbox.cif.g08.bks.cpg/sg35_7_cif.got.tgz:13664.got - 2010.06.03 17:29:28.
