data_PCOD9350846
_publ_section_title
;
Structure prediction by ZEFSAII (Michael W. Deem and Ramdas Pophale) SiO2 
 PCOD9350846
Probable space group: C M C 21
;
_chemical_formula_sum "Si O2"
_cell_formula_units_Z 52
_cell_length_a 7.674720
_cell_length_b 32.710407
_cell_length_c 7.914541
_cell_angle_alpha 90.000000
_cell_angle_beta 90.000000
_cell_angle_gamma 90.000000
_cell_volume 1986.891816
_symmetry_space_group_name_H-M "C M C 21"
_symmetry_group_IT_number 36
_symmetry_cell_setting 'orthorhombic'
loop_
_space_group_symop_operation_xyz
x,y,z
-x,-y,1/2+z
x,-y,1/2+z
-x,y,z
1/2+x,1/2+y,z
1/2-x,1/2-y,1/2+z
1/2+x,1/2-y,1/2+z
1/2-x,1/2+y,z
loop_
_atom_site_type_symbol
_atom_site_label
_atom_site_fract_x
_atom_site_fract_y
_atom_site_fract_z
Si Si1 0.208703 0.165441 0.032120
Si Si2 0.797670 0.185388 0.495029
Si Si3 0.500000 0.962497 0.907329
Si Si4 0.802314 0.091165 0.255522
Si Si5 0.296286 0.237571 0.815814
Si Si6 0.312945 0.047649 0.935551
Si Si7 0.790417 0.111871 0.704390
O O1 0.245430 0.137182 0.193856
O O2 0.000000 0.170228 0.029268
O O3 0.284863 0.209209 0.983724
O O4 0.259766 0.136725 0.873736
O O5 0.794035 0.211706 0.669698
O O6 0.722594 0.217786 0.361692
O O7 0.727929 0.141353 0.554284
O O8 0.000000 0.179909 0.449507
O O9 0.344603 0.929797 0.866298
O O10 0.350237 0.999766 0.925801
O O11 0.000000 0.090780 0.325482
O O12 0.810658 0.063883 0.081547
O O13 0.500000 0.241620 0.769717
O O14 0.500000 0.064856 0.994393
O O15 0.278047 0.066768 0.750584
O O16 0.000000 0.110078 0.699521
#
# Coordination Sequence:
#
# PCOD9350846 Si02
#       7
#     8   8   4   8   8   8   8
#     4   8  16  29  48  73  99 128 166 210 259 317
#     4   9  19  33  48  73 110 137 175 220 268 321
#     4  10  20  32  48  78 106 126 164 230 266 318
#     4  10  19  33  52  74 103 139 172 214 273 322
#     4  10  19  30  50  78 103 139 178 221 268 317
#     4   9  18  30  48  73 103 124 167 221 262 310
#     4   8  14  28  48  69  96 132 165 212 265 319
#
# _framework density 26.171531999999999
#
# number of rings (size 3 to 8) (size 9 to 14) (size 15 to 20)
#    0.462    2.462    0.769    2.769    1.077    6.154 
#    0.000    0.000    0.000    3.692    0.000    4.308 
#    0.000    0.000    0.000    0.000    0.000    0.000 
#
# Total GULP energy -144735.499113 kJ/mol
# GULP energy per Si atom -5566.749966 kJ/mol
# Density = 2.611196 g / cm^3
# Si number density = 26.171532 Si / 1000 Ang^3
#
#
#
# Elastic Constant Matrix: (Units=GPa)
#
#
# Indices 1 2 3 4 5 6 
#
# 1 90.8648 41.2104 3.4465 0.0000 0.0000 0.0000
# 2 41.2104 200.4084 38.2700 0.0000 0.0000 0.0000
# 3 3.4465 38.2700 111.4639 0.0000 0.0000 0.0000
# 4 0.0000 0.0000 0.0000 18.2529 0.0000 0.0000
# 5 0.0000 0.0000 0.0000 0.0000 -65.7710 0.0000
# 6 0.0000 0.0000 0.0000 0.0000 0.0000 24.0575
#
#
#
# Elastic Compliance Matrix: (Units=1/GPa)
#
#
# Indices 1 2 3 4 5 6 
#
# 1 0.012165 -0.002600 0.000517 0.000000 0.000000 0.000000
# 2 -0.002600 0.005896 -0.001944 0.000000 0.000000 0.000000
# 3 0.000517 -0.001944 0.009623 0.000000 0.000000 0.000000
# 4 0.000000 0.000000 0.000000 0.054786 0.000000 0.000000
# 5 0.000000 0.000000 0.000000 0.000000 -0.015204 0.000000
# 6 0.000000 0.000000 0.000000 0.000000 0.000000 0.041567
#
#
# Mechanical properties :
#
#
# Convention : Reuss Voigt Hill
#
# Bulk Modulus (GPa) = 50.94542 63.17677 57.06110
# Shear Modulus (GPa) = 40.50879 16.62856 28.56868
#
# Velocity S-wave (km/s) = 3.93850 2.52339 3.30751
# Velocity P-wave (km/s) = 6.33961 5.71681 6.03624
#
# Compressibility (1/GPa) = 0.01962885
#
# Stress axis : x y z
#
# Youngs Moduli (GPa) = 82.20276 169.61563 103.91838
#
# Poissons Ratio (x) = 0.44103 -0.05368
# Poissons Ratio (y) = 0.21374 0.20200
# Poissons Ratio (z) = -0.04247 0.32970
#
# Static dielectric constant tensor:
#      x y z
#    x 1.974330 0.000000 0.000000 
#    y 0.000000 2.066150 0.000000 
#    z 0.000000 0.000000 2.246570 
# 
# From -- ./inp_files/6990.got.cif
#   From: 2010.05.17/outbox.cif.g08.bks.cpg/sg36_4_cif.got.tgz:6990.got - 2010.06.03 17:41:39.
