data_PCOD9350334
_publ_section_title
;
Structure prediction by ZEFSAII (Michael W. Deem and Ramdas Pophale) SiO2 
 PCOD9350334
Probable space group: C M M 2
;
_chemical_formula_sum "Si O2"
_cell_formula_units_Z 64
_cell_length_a 8.136589
_cell_length_b 29.783344
_cell_length_c 16.153005
_cell_angle_alpha 90.000000
_cell_angle_beta 90.000000
_cell_angle_gamma 90.000000
_cell_volume 3914.435707
_symmetry_space_group_name_H-M "C M M 2"
_symmetry_group_IT_number 35
_symmetry_cell_setting 'orthorhombic'
loop_
_space_group_symop_operation_xyz
x,y,z
-x,-y,z
-x,y,z
x,-y,z
1/2+x,1/2+y,z
1/2-x,1/2-y,z
1/2-x,1/2+y,z
1/2+x,1/2-y,z
loop_
_atom_site_type_symbol
_atom_site_label
_atom_site_fract_x
_atom_site_fract_y
_atom_site_fract_z
Si Si1 0.701391 0.947848 0.441890
Si Si2 0.201037 0.606411 0.602601
Si Si3 0.696204 0.700789 0.857968
Si Si4 0.697978 0.392234 0.926825
Si Si5 0.690919 0.945578 0.260761
Si Si6 0.195997 0.700824 0.666759
Si Si7 0.803902 0.948785 0.081476
Si Si8 0.199006 0.448160 0.766296
O O1 0.500000 0.947688 0.439792
O O2 0.755362 0.917245 0.518101
O O3 0.757425 0.931685 0.350831
O O4 0.749479 0.000000 0.454489
O O5 0.256351 0.657660 0.615927
O O6 0.251346 0.577535 0.682884
O O7 0.000000 0.606215 0.601530
O O8 0.500000 0.699778 0.858776
O O9 0.750000 0.750000 0.887141
O O10 0.760108 0.658167 0.909381
O O11 0.750308 0.695718 0.762381
O O12 0.500000 0.389575 0.933476
O O13 0.739028 0.422315 0.847041
O O14 0.761701 0.416606 0.009438
O O15 0.500000 0.932730 0.256039
O O16 0.772364 0.931993 0.174670
O O17 0.699156 0.000000 0.263183
O O18 0.250000 0.750000 0.637432
O O19 0.000000 0.699935 0.665963
O O20 0.000000 0.951630 0.070778
O O21 0.737921 0.000000 0.073655
O O22 0.252555 0.500000 0.765937
O O23 0.000000 0.447528 0.767782
#
# Coordination Sequence:
#
# PCOD9350334 Si02
#       8
#     8   8   8   8   8   8   8   8
#     4   8  13  23  41  64  89 114 140 173 213 256
#     4   9  16  26  41  63  88 115 145 176 213 255
#     4  10  19  31  47  64  83 110 144 184 224 260
#     4  10  20  32  45  62  86 118 150 177 214 263
#     4   8  14  25  42  64  86 108 139 180 218 248
#     4  10  18  29  45  63  85 112 144 183 220 256
#     4   9  17  29  44  61  85 117 147 173 206 255
#     4  10  19  29  42  62  89 119 150 181 209 243
#
# _framework density 16.349737999999999
#
# number of rings (size 3 to 8) (size 9 to 14) (size 15 to 20)
#    0.000    2.750    1.250    3.000    0.000    3.250 
#    0.000    1.250    0.000    2.250    0.000    2.625 
#    0.000    6.000    0.000    0.000    0.000    0.000 
#
# Total GULP energy -178286.740530 kJ/mol
# GULP energy per Si atom -5571.460642 kJ/mol
# Density = 1.631253 g / cm^3
# Si number density = 16.349738 Si / 1000 Ang^3
#
#
#
# Elastic Constant Matrix: (Units=GPa)
#
#
# Indices 1 2 3 4 5 6 
#
# 1 9.2270 10.8387 6.0573 0.0000 0.0000 0.0000
# 2 10.8387 136.9652 83.8704 0.0000 0.0000 0.0000
# 3 6.0573 83.8704 142.6802 0.0000 0.0000 0.0000
# 4 0.0000 0.0000 0.0000 10.3985 0.0000 0.0000
# 5 0.0000 0.0000 0.0000 0.0000 -0.6079 0.0000
# 6 0.0000 0.0000 0.0000 0.0000 0.0000 5.7889
#
#
#
# Elastic Compliance Matrix: (Units=1/GPa)
#
#
# Indices 1 2 3 4 5 6 
#
# 1 0.119538 -0.009924 0.000759 0.000000 0.000000 0.000000
# 2 -0.009924 0.012231 -0.006768 0.000000 0.000000 0.000000
# 3 0.000759 -0.006768 0.010955 0.000000 0.000000 0.000000
# 4 0.000000 0.000000 0.000000 0.096168 0.000000 0.000000
# 5 0.000000 0.000000 0.000000 0.000000 -1.644981 0.000000
# 6 0.000000 0.000000 0.000000 0.000000 0.000000 0.172743
#
#
# Mechanical properties :
#
#
# Convention : Reuss Voigt Hill
#
# Bulk Modulus (GPa) = 9.02069 54.48945 31.75507
# Shear Modulus (GPa) = -4.29359 15.65631 5.68136
#
# Velocity S-wave (km/s) = -1.62228 3.09785 1.86613
# Velocity P-wave (km/s) = 1.42136 6.79671 4.90997
#
# Compressibility (1/GPa) = 0.11085626
#
# Stress axis : x y z
#
# Youngs Moduli (GPa) = 8.36557 81.75907 91.28222
#
# Poissons Ratio (x) = 0.81140 -0.06927
# Poissons Ratio (y) = 0.08302 0.61783
# Poissons Ratio (z) = -0.00635 0.55337
#
# Static dielectric constant tensor:
#      x y z
#    x 1.587240 0.000000 0.000000 
#    y 0.000000 1.560730 0.000000 
#    z 0.000000 0.000000 1.547890 
# 
# From -- ./inp_files/16130.got.cif
#   From: 2010.05.17/outbox.cif.g08.bks.cpg/sg35_9_cif.got.tgz:16130.got - 2010.06.03 17:29:28.
