data_PCOD9350027
_publ_section_title
;
Structure prediction by ZEFSAII (Michael W. Deem and Ramdas Pophale) SiO2 
 PCOD9350027
Probable space group: C M M 2
;
_chemical_formula_sum "Si O2"
_cell_formula_units_Z 32
_cell_length_a 21.265404
_cell_length_b 11.234225
_cell_length_c 5.293806
_cell_angle_alpha 90.000000
_cell_angle_beta 90.000000
_cell_angle_gamma 90.000000
_cell_volume 1264.692018
_symmetry_space_group_name_H-M "C M M 2"
_symmetry_group_IT_number 35
_symmetry_cell_setting 'orthorhombic'
loop_
_space_group_symop_operation_xyz
x,y,z
-x,-y,z
-x,y,z
x,-y,z
1/2+x,1/2+y,z
1/2-x,1/2-y,z
1/2-x,1/2+y,z
1/2+x,1/2-y,z
loop_
_atom_site_type_symbol
_atom_site_label
_atom_site_fract_x
_atom_site_fract_y
_atom_site_fract_z
Si Si1 0.392214 0.867488 0.875000
Si Si2 0.697484 0.000000 0.543526
Si Si3 0.677532 0.274448 0.276915
Si Si4 0.431051 0.365088 0.640294
Si Si5 0.220009 0.000000 0.035346
O O1 0.347604 0.889727 0.627974
O O2 0.431517 0.749500 0.824234
O O3 0.421378 0.000000 0.910987
O O4 0.351209 0.835510 0.118853
O O5 0.735373 0.000000 0.285948
O O6 0.746985 0.000000 0.768963
O O7 0.750000 0.250000 0.366007
O O8 0.628059 0.338328 0.461134
O O9 0.684943 0.375825 0.059883
O O10 0.500000 0.361740 0.508638
O O11 0.425377 0.500000 0.744582
#
# Coordination Sequence:
#
# PCOD9350027 Si02
#       5
#     8   4   8   8   4
#     4  10  25  44  71 103 153 201 261 322 398 476
#     4  10  24  46  67 114 161 206 259 324 404 480
#     4  12  24  42  74 112 153 201 262 335 406 474
#     4  11  27  49  74 108 155 211 270 331 403 489
#     4  12  24  42  71 112 163 206 257 326 410 474
#
# _framework density 25.302602
#
# number of rings (size 3 to 8) (size 9 to 14) (size 15 to 20)
#    0.750    0.250    3.750    1.500    5.250    3.500 
#    0.000    2.500    0.000    0.000    0.000    0.000 
#    0.000    0.000    0.000    0.000    0.000    0.000 
#
# Total GULP energy -89261.831136 kJ/mol
# GULP energy per Si atom -5578.864446 kJ/mol
# Density = 2.524501 g / cm^3
# Si number density = 25.302602 Si / 1000 Ang^3
#
#
#
# Elastic Constant Matrix: (Units=GPa)
#
#
# Indices 1 2 3 4 5 6 
#
# 1 146.7583 53.9389 39.2215 0.0000 0.0000 0.0000
# 2 53.9389 220.1525 26.7375 0.0000 0.0000 0.0000
# 3 39.2215 26.7375 93.7648 0.0000 0.0000 0.0000
# 4 0.0000 0.0000 0.0000 27.4897 0.0000 0.0000
# 5 0.0000 0.0000 0.0000 0.0000 17.6250 0.0000
# 6 0.0000 0.0000 0.0000 0.0000 0.0000 24.3995
#
#
#
# Elastic Compliance Matrix: (Units=1/GPa)
#
#
# Indices 1 2 3 4 5 6 
#
# 1 0.008213 -0.001652 -0.002965 0.000000 0.000000 0.000000
# 2 -0.001652 0.005038 -0.000745 0.000000 0.000000 0.000000
# 3 -0.002965 -0.000745 0.012118 0.000000 0.000000 0.000000
# 4 0.000000 0.000000 0.000000 0.036377 0.000000 0.000000
# 5 0.000000 0.000000 0.000000 0.000000 0.056738 0.000000
# 6 0.000000 0.000000 0.000000 0.000000 0.000000 0.040984
#
#
# Mechanical properties :
#
#
# Convention : Reuss Voigt Hill
#
# Bulk Modulus (GPa) = 68.28569 77.83013 73.05791
# Shear Modulus (GPa) = 28.55940 36.62136 32.59038
#
# Velocity S-wave (km/s) = 3.36328 3.80851 3.59280
# Velocity P-wave (km/s) = 6.49064 7.08281 6.79318
#
# Compressibility (1/GPa) = 0.01464436
#
# Stress axis : x y z
#
# Youngs Moduli (GPa) = 121.75100 198.50490 82.52478
#
# Poissons Ratio (x) = 0.32799 0.24465
# Poissons Ratio (y) = 0.20117 0.06151
# Poissons Ratio (z) = 0.36093 0.14796
#
# Static dielectric constant tensor:
#      x y z
#    x 2.040860 0.000000 0.000000 
#    y 0.000000 2.271830 0.000000 
#    z 0.000000 0.000000 2.002920 
# 
# From -- ./inp_files/2837.got.cif
#   From: 2010.05.17/outbox.cif.g08.bks.cpg/sg35_2_cif.got.tgz:2837.got - 2010.06.03 17:29:28.
