data_PCOD9350259
_publ_section_title
;
Structure prediction by ZEFSAII (Michael W. Deem and Ramdas Pophale) SiO2 
 PCOD9350259
Probable space group: C M M 2
;
_chemical_formula_sum "Si O2"
_cell_formula_units_Z 56
_cell_length_a 8.873784
_cell_length_b 15.258671
_cell_length_c 19.071236
_cell_angle_alpha 90.000000
_cell_angle_beta 90.000000
_cell_angle_gamma 90.000000
_cell_volume 2582.286369
_symmetry_space_group_name_H-M "C M M 2"
_symmetry_group_IT_number 35
_symmetry_cell_setting 'orthorhombic'
loop_
_space_group_symop_operation_xyz
x,y,z
-x,-y,z
-x,y,z
x,-y,z
1/2+x,1/2+y,z
1/2-x,1/2-y,z
1/2-x,1/2+y,z
1/2+x,1/2-y,z
loop_
_atom_site_type_symbol
_atom_site_label
_atom_site_fract_x
_atom_site_fract_y
_atom_site_fract_z
Si Si1 0.332758 0.103703 0.478140
Si Si2 0.167500 0.603314 0.759125
Si Si3 0.681350 0.651422 0.055418
Si Si4 0.320144 0.346674 0.901920
Si Si5 0.819089 0.650729 0.196495
Si Si6 0.320926 0.653249 0.337014
Si Si7 0.827505 0.892226 0.618497
O O1 0.500000 0.140644 0.463375
O O2 0.225510 0.114088 0.411443
O O3 0.264395 0.138479 0.550519
O O4 0.347999 0.000000 0.488810
O O5 0.152351 0.500000 0.745741
O O6 0.253151 0.611259 0.832433
O O7 0.255772 0.638274 0.691667
O O8 0.000000 0.642419 0.764907
O O9 0.500000 0.655611 0.064382
O O10 0.750000 0.750000 0.052001
O O11 0.756827 0.610173 0.124240
O O12 0.714114 0.611972 0.978475
O O13 0.500000 0.342421 0.896548
O O14 0.250000 0.250000 0.902886
O O15 0.750000 0.750000 0.196332
O O16 0.756101 0.610175 0.268515
O O17 0.000000 0.653903 0.196795
O O18 0.500000 0.655433 0.327647
O O19 0.250000 0.750000 0.340162
O O20 0.000000 0.864379 0.613225
O O21 0.827293 0.000000 0.618264
#
# Coordination Sequence:
#
# PCOD9350259 Si02
#       7
#     8   8   8   8   8   8   8
#     4  10  20  35  55  78 104 133 167 206 249 298
#     4  10  20  34  53  76 102 133 169 208 250 297
#     4   9  16  27  44  68  96 127 164 204 246 293
#     4  10  20  33  51  75 104 135 167 207 253 300
#     4  10  17  27  45  69  97 129 166 206 248 293
#     4  11  21  34  52  75 105 136 169 208 252 299
#     4   9  17  31  52  76 100 129 168 208 245 291
#
# _framework density 21.686209000000002
#
# number of rings (size 3 to 8) (size 9 to 14) (size 15 to 20)
#    0.000    2.143    0.000    6.429    0.000    5.143 
#    0.000    0.714    0.000    0.857    0.000    4.000 
#    0.000    0.000    0.000    0.000    0.000    0.000 
#
# Total GULP energy -156263.517382 kJ/mol
# GULP energy per Si atom -5580.839906 kJ/mol
# Density = 2.163685 g / cm^3
# Si number density = 21.686209 Si / 1000 Ang^3
#
#
#
# Elastic Constant Matrix: (Units=GPa)
#
#
# Indices 1 2 3 4 5 6 
#
# 1 182.1808 6.2864 92.1651 0.0000 0.0000 0.0000
# 2 6.2864 27.3481 8.1899 0.0000 0.0000 0.0000
# 3 92.1651 8.1899 207.3492 0.0000 0.0000 0.0000
# 4 0.0000 0.0000 0.0000 33.8756 0.0000 0.0000
# 5 0.0000 0.0000 0.0000 0.0000 58.9873 0.0000
# 6 0.0000 0.0000 0.0000 0.0000 0.0000 12.8900
#
#
#
# Elastic Compliance Matrix: (Units=1/GPa)
#
#
# Indices 1 2 3 4 5 6 
#
# 1 0.007094 -0.000695 -0.003126 0.000000 0.000000 0.000000
# 2 -0.000695 0.037071 -0.001155 0.000000 0.000000 0.000000
# 3 -0.003126 -0.001155 0.006258 0.000000 0.000000 0.000000
# 4 0.000000 0.000000 0.000000 0.029520 0.000000 0.000000
# 5 0.000000 0.000000 0.000000 0.000000 0.016953 0.000000
# 6 0.000000 0.000000 0.000000 0.000000 0.000000 0.077580
#
#
# Mechanical properties :
#
#
# Convention : Reuss Voigt Hill
#
# Bulk Modulus (GPa) = 24.70881 70.01787 47.36334
# Shear Modulus (GPa) = 25.26291 41.83303 33.54797
#
# Velocity S-wave (km/s) = 3.41681 4.39682 3.93742
# Velocity P-wave (km/s) = 5.19467 7.62450 6.52371
#
# Compressibility (1/GPa) = 0.04047139
#
# Stress axis : x y z
#
# Youngs Moduli (GPa) = 140.95507 26.97509 159.79792
#
# Poissons Ratio (x) = 0.01874 0.49953
# Poissons Ratio (y) = 0.09791 0.18464
# Poissons Ratio (z) = 0.44063 0.03117
#
# Static dielectric constant tensor:
#      x y z
#    x 1.753200 0.000000 0.000000 
#    y 0.000000 1.819710 0.000000 
#    z 0.000000 0.000000 1.842250 
# 
# From -- ./inp_files/15587.got.cif
#   From: 2010.05.17/outbox.cif.g08.bks.cpg/sg35_8_cif.got.tgz:15587.got - 2010.06.03 17:29:28.
