data_PCOD9350246
_publ_section_title
;
Structure prediction by ZEFSAII (Michael W. Deem and Ramdas Pophale) SiO2 
 PCOD9350246
Probable space group: C M M 2
;
_chemical_formula_sum "Si O2"
_cell_formula_units_Z 48
_cell_length_a 8.724672
_cell_length_b 19.129543
_cell_length_c 16.254803
_cell_angle_alpha 90.000000
_cell_angle_beta 90.000000
_cell_angle_gamma 90.000000
_cell_volume 2712.910174
_symmetry_space_group_name_H-M "C M M 2"
_symmetry_group_IT_number 35
_symmetry_cell_setting 'orthorhombic'
loop_
_space_group_symop_operation_xyz
x,y,z
-x,-y,z
-x,y,z
x,-y,z
1/2+x,1/2+y,z
1/2-x,1/2-y,z
1/2-x,1/2+y,z
1/2+x,1/2-y,z
loop_
_atom_site_type_symbol
_atom_site_label
_atom_site_fract_x
_atom_site_fract_y
_atom_site_fract_z
Si Si1 0.316352 0.671121 0.549390
Si Si2 0.815695 0.081256 0.045070
Si Si3 0.316911 0.081669 0.219560
Si Si4 0.183130 0.329324 0.716328
Si Si5 0.815562 0.828313 0.886262
Si Si6 0.316721 0.328251 0.367345
O O1 0.500000 0.673828 0.559063
O O2 0.250000 0.750000 0.546149
O O3 0.243187 0.637792 0.631032
O O4 0.279418 0.641864 0.458760
O O5 0.742844 0.106319 0.130543
O O6 0.000000 0.084117 0.053054
O O7 0.771476 0.000000 0.033236
O O8 0.772660 0.126583 0.965905
O O9 0.500000 0.086233 0.221425
O O10 0.247920 0.125323 0.294135
O O11 0.271886 0.000000 0.227269
O O12 0.250000 0.250000 0.716193
O O13 0.247524 0.359530 0.801567
O O14 0.000000 0.326903 0.717052
O O15 0.750000 0.750000 0.895563
O O16 0.000000 0.825201 0.879502
O O17 0.500000 0.324072 0.361828
O O18 0.250000 0.250000 0.361447
#
# Coordination Sequence:
#
# PCOD9350246 Si02
#       6
#     8   8   8   8   8   8
#     4   9  16  27  44  68  97 128 162 198 239 286
#     4   9  19  36  55  72  93 127 168 205 244 293
#     4  10  21  36  54  75 100 132 168 206 249 300
#     4  10  17  26  43  67  97 130 161 195 237 286
#     4  10  19  31  49  73 100 127 159 201 245 288
#     4  10  20  33  52  77 104 133 166 208 252 295
#
# _framework density 17.693176000000001
#
# number of rings (size 3 to 8) (size 9 to 14) (size 15 to 20)
#    0.000    2.333    0.000    5.500    0.000    5.000 
#    0.000    1.667    0.000    1.000    0.000    2.333 
#    0.000    0.000    0.000    0.000    0.000    0.000 
#
# Total GULP energy -133795.234111 kJ/mol
# GULP energy per Si atom -5574.801421 kJ/mol
# Density = 1.765291 g / cm^3
# Si number density = 17.693176 Si / 1000 Ang^3
#
#
#
# Elastic Constant Matrix: (Units=GPa)
#
#
# Indices 1 2 3 4 5 6 
#
# 1 77.6228 23.4265 74.6408 0.0000 0.0000 0.0000
# 2 23.4265 32.0997 61.8643 0.0000 0.0000 0.0000
# 3 74.6408 61.8643 229.0181 0.0000 0.0000 0.0000
# 4 0.0000 0.0000 0.0000 -16.9656 0.0000 0.0000
# 5 0.0000 0.0000 0.0000 0.0000 30.1460 0.0000
# 6 0.0000 0.0000 0.0000 0.0000 0.0000 17.9070
#
#
#
# Elastic Compliance Matrix: (Units=1/GPa)
#
#
# Indices 1 2 3 4 5 6 
#
# 1 0.019010 -0.004032 -0.005107 0.000000 0.000000 0.000000
# 2 -0.004032 0.065839 -0.016471 0.000000 0.000000 0.000000
# 3 -0.005107 -0.016471 0.010480 0.000000 0.000000 0.000000
# 4 0.000000 0.000000 0.000000 -0.058943 0.000000 0.000000
# 5 0.000000 0.000000 0.000000 0.000000 0.033172 0.000000
# 6 0.000000 0.000000 0.000000 0.000000 0.000000 0.055844
#
#
# Mechanical properties :
#
#
# Convention : Reuss Voigt Hill
#
# Bulk Modulus (GPa) = 22.67048 73.17821 47.92435
# Shear Modulus (GPa) = 26.13358 18.13808 22.13583
#
# Velocity S-wave (km/s) = 3.84740 3.20526 3.54092
# Velocity P-wave (km/s) = 5.70768 7.42615 6.62289
#
# Compressibility (1/GPa) = 0.04411022
#
# Stress axis : x y z
#
# Youngs Moduli (GPa) = 52.60380 15.18853 95.41961
#
# Poissons Ratio (x) = 0.06124 0.48726
# Poissons Ratio (y) = 0.21210 1.57165
# Poissons Ratio (z) = 0.26862 0.25017
#
# Static dielectric constant tensor:
#      x y z
#    x 1.591970 0.000000 0.000000 
#    y 0.000000 1.578690 0.000000 
#    z 0.000000 0.000000 1.652120 
# 
# From -- ./inp_files/15372.got.cif
#   From: 2010.05.17/outbox.cif.g08.bks.cpg/sg35_8_cif.got.tgz:15372.got - 2010.06.03 17:29:28.
