data_PCOD9350346
_publ_section_title
;
Structure prediction by ZEFSAII (Michael W. Deem and Ramdas Pophale) SiO2 
 PCOD9350346
Probable space group: C M M 2
;
_chemical_formula_sum "Si O2"
_cell_formula_units_Z 64
_cell_length_a 8.403949
_cell_length_b 28.657785
_cell_length_c 14.499536
_cell_angle_alpha 90.000000
_cell_angle_beta 90.000000
_cell_angle_gamma 90.000000
_cell_volume 3492.047423
_symmetry_space_group_name_H-M "C M M 2"
_symmetry_group_IT_number 35
_symmetry_cell_setting 'orthorhombic'
loop_
_space_group_symop_operation_xyz
x,y,z
-x,-y,z
-x,y,z
x,-y,z
1/2+x,1/2+y,z
1/2-x,1/2-y,z
1/2-x,1/2+y,z
1/2+x,1/2-y,z
loop_
_atom_site_type_symbol
_atom_site_label
_atom_site_fract_x
_atom_site_fract_y
_atom_site_fract_z
Si Si1 0.684588 0.624187 0.413890
Si Si2 0.318110 0.377105 0.900645
Si Si3 0.823404 0.444529 0.768409
Si Si4 0.687699 0.197402 0.554384
Si Si5 0.820288 0.946079 0.582209
Si Si6 0.693929 0.552428 0.265290
Si Si7 0.690901 0.696865 0.754547
Si Si8 0.694001 0.552400 0.049370
O O1 0.500000 0.637235 0.396230
O O2 0.768102 0.667251 0.464586
O O3 0.688125 0.584722 0.492511
O O4 0.750874 0.596602 0.325003
O O5 0.500000 0.364327 0.923493
O O6 0.308829 0.418833 0.826804
O O7 0.247933 0.334280 0.840732
O O8 0.246639 0.403449 0.989902
O O9 0.807034 0.500000 0.775611
O O10 0.801321 0.432520 0.661494
O O11 0.000000 0.430916 0.800535
O O12 0.500000 0.198235 0.566510
O O13 0.750000 0.250000 0.542882
O O14 0.760039 0.179472 0.652052
O O15 0.000000 0.941908 0.620658
O O16 0.795082 0.000000 0.557991
O O17 0.500000 0.552619 0.273094
O O18 0.745192 0.500000 0.295751
O O19 0.733447 0.556969 0.157306
O O20 0.500000 0.695746 0.757308
O O21 0.750000 0.750000 0.762173
O O22 0.500000 0.552456 0.042282
O O23 0.746392 0.500000 0.018421
#
# Coordination Sequence:
#
# PCOD9350346 Si02
#       8
#     8   8   8   8   8   8   8   8
#     4  10  18  29  48  73  98 124 158 199 241 283
#     4  10  19  30  48  71  93 122 161 201 238 282
#     4  10  20  30  40  60  92 126 157 189 229 280
#     4  11  22  36  53  72  96 126 161 200 244 292
#     4   9  17  28  42  62  91 126 159 189 224 273
#     4   8  14  26  47  75 103 130 163 202 239 277
#     4  10  20  34  51  72  97 125 160 200 244 291
#     4   8  14  26  46  73 101 127 160 202 241 276
#
# _framework density 18.327358
#
# number of rings (size 3 to 8) (size 9 to 14) (size 15 to 20)
#    0.000    2.500    0.000    4.875    0.000    7.250 
#    0.000    0.000    0.000    2.625    0.000    3.500 
#    0.000    0.000    0.000    0.000    0.000    0.000 
#
# Total GULP energy -178238.458214 kJ/mol
# GULP energy per Si atom -5569.951819 kJ/mol
# Density = 1.828564 g / cm^3
# Si number density = 18.327358 Si / 1000 Ang^3
#
#
#
# Elastic Constant Matrix: (Units=GPa)
#
#
# Indices 1 2 3 4 5 6 
#
# 1 30.9887 16.7522 8.4038 0.0000 0.0000 0.0000
# 2 16.7522 93.1883 51.3230 0.0000 0.0000 0.0000
# 3 8.4038 51.3230 81.1036 0.0000 0.0000 0.0000
# 4 0.0000 0.0000 0.0000 43.6786 0.0000 0.0000
# 5 0.0000 0.0000 0.0000 0.0000 7.2784 0.0000
# 6 0.0000 0.0000 0.0000 0.0000 0.0000 13.7134
#
#
#
# Elastic Compliance Matrix: (Units=1/GPa)
#
#
# Indices 1 2 3 4 5 6 
#
# 1 0.035760 -0.006735 0.000557 0.000000 0.000000 0.000000
# 2 -0.006735 0.017740 -0.010528 0.000000 0.000000 0.000000
# 3 0.000557 -0.010528 0.018935 0.000000 0.000000 0.000000
# 4 0.000000 0.000000 0.000000 0.022895 0.000000 0.000000
# 5 0.000000 0.000000 0.000000 0.000000 0.137394 0.000000
# 6 0.000000 0.000000 0.000000 0.000000 0.000000 0.072921
#
#
# Mechanical properties :
#
#
# Convention : Reuss Voigt Hill
#
# Bulk Modulus (GPa) = 25.62704 39.80427 32.71565
# Shear Modulus (GPa) = 14.20195 21.52084 17.86140
#
# Velocity S-wave (km/s) = 2.78673 3.43045 3.12521
# Velocity P-wave (km/s) = 4.93637 6.12015 5.55986
#
# Compressibility (1/GPa) = 0.03902128
#
# Stress axis : x y z
#
# Youngs Moduli (GPa) = 27.96438 56.36970 52.81350
#
# Poissons Ratio (x) = 0.37965 -0.02940
# Poissons Ratio (y) = 0.18834 0.55603
# Poissons Ratio (z) = -0.01556 0.59347
#
# Static dielectric constant tensor:
#      x y z
#    x 1.665780 0.000000 0.000000 
#    y 0.000000 1.652520 0.000000 
#    z 0.000000 0.000000 1.645270 
# 
# From -- ./inp_files/16232.got.cif
#   From: 2010.05.17/outbox.cif.g08.bks.cpg/sg35_9_cif.got.tgz:16232.got - 2010.06.03 17:29:28.
