data_PCOD9350333
_publ_section_title
;
Structure prediction by ZEFSAII (Michael W. Deem and Ramdas Pophale) SiO2 
 PCOD9350333
Probable space group: C M M 2
;
_chemical_formula_sum "Si O2"
_cell_formula_units_Z 64
_cell_length_a 8.100927
_cell_length_b 29.758038
_cell_length_c 16.209926
_cell_angle_alpha 90.000000
_cell_angle_beta 90.000000
_cell_angle_gamma 90.000000
_cell_volume 3907.689473
_symmetry_space_group_name_H-M "C M M 2"
_symmetry_group_IT_number 35
_symmetry_cell_setting 'orthorhombic'
loop_
_space_group_symop_operation_xyz
x,y,z
-x,-y,z
-x,y,z
x,-y,z
1/2+x,1/2+y,z
1/2-x,1/2-y,z
1/2-x,1/2+y,z
1/2+x,1/2-y,z
loop_
_atom_site_type_symbol
_atom_site_label
_atom_site_fract_x
_atom_site_fract_y
_atom_site_fract_z
Si Si1 0.197211 0.697830 0.408900
Si Si2 0.699602 0.197867 0.228106
Si Si3 0.302057 0.856126 0.745817
Si Si4 0.306014 0.697892 0.586796
Si Si5 0.699251 0.801685 0.905830
Si Si6 0.798744 0.549938 0.808334
Si Si7 0.299003 0.049994 0.001091
Si Si8 0.797785 0.643852 0.068286
O O1 0.250000 0.750000 0.409003
O O2 0.254839 0.681071 0.318999
O O3 0.261810 0.679567 0.495679
O O4 0.000000 0.695170 0.411562
O O5 0.500000 0.196943 0.228042
O O6 0.750000 0.250000 0.217624
O O7 0.758668 0.167704 0.152103
O O8 0.500000 0.857947 0.753960
O O9 0.264762 0.831937 0.660281
O O10 0.239865 0.826678 0.823331
O O11 0.240820 0.907295 0.756245
O O12 0.500000 0.698212 0.595310
O O13 0.250000 0.750000 0.593212
O O14 0.500000 0.803732 0.905245
O O15 0.750000 0.750000 0.906689
O O16 0.754354 0.827384 0.988411
O O17 0.741999 0.500000 0.783423
O O18 0.754891 0.556978 0.904758
O O19 0.000000 0.549212 0.805588
O O20 0.500000 0.049753 0.003371
O O21 0.243105 0.000000 0.025987
O O22 0.243695 0.092479 0.054382
O O23 0.000000 0.643951 0.069245
#
# Coordination Sequence:
#
# PCOD9350333 Si02
#       8
#     8   8   8   8   8   8   8   8
#     4   9  16  28  44  62  82 109 142 179 220 257
#     4   9  17  27  42  62  87 115 143 175 212 252
#     4  10  18  29  44  64  89 117 146 179 216 255
#     4  11  21  32  46  64  86 114 146 182 220 262
#     4  10  19  28  39  56  84 120 149 172 201 241
#     4   8  13  23  41  64  87 112 145 183 219 254
#     4   8  12  20  37  60  85 112 142 177 214 250
#     4   9  15  25  38  58  87 116 143 172 208 249
#
# _framework density 16.377965
#
# number of rings (size 3 to 8) (size 9 to 14) (size 15 to 20)
#    0.000    2.750    1.250    3.750    0.000    2.000 
#    0.000    0.000    0.000    0.375    0.000    0.875 
#    0.000    7.000    0.000    0.000    0.000    0.000 
#
# Total GULP energy -178255.091777 kJ/mol
# GULP energy per Si atom -5570.471618 kJ/mol
# Density = 1.634069 g / cm^3
# Si number density = 16.377965 Si / 1000 Ang^3
#
#
#
# Elastic Constant Matrix: (Units=GPa)
#
#
# Indices 1 2 3 4 5 6 
#
# 1 7.5627 6.2458 -0.0248 0.0000 0.0000 0.0000
# 2 6.2458 132.1320 81.6682 0.0000 0.0000 0.0000
# 3 -0.0248 81.6682 138.0234 0.0000 0.0000 0.0000
# 4 0.0000 0.0000 0.0000 9.9983 0.0000 0.0000
# 5 0.0000 0.0000 0.0000 0.0000 7.7368 0.0000
# 6 0.0000 0.0000 0.0000 0.0000 0.0000 10.9867
#
#
#
# Elastic Compliance Matrix: (Units=1/GPa)
#
#
# Indices 1 2 3 4 5 6 
#
# 1 0.140943 -0.010528 0.006255 0.000000 0.000000 0.000000
# 2 -0.010528 0.012718 -0.007527 0.000000 0.000000 0.000000
# 3 0.006255 -0.007527 0.011700 0.000000 0.000000 0.000000
# 4 0.000000 0.000000 0.000000 0.100017 0.000000 0.000000
# 5 0.000000 0.000000 0.000000 0.000000 0.129253 0.000000
# 6 0.000000 0.000000 0.000000 0.000000 0.000000 0.091019
#
#
# Mechanical properties :
#
#
# Convention : Reuss Voigt Hill
#
# Bulk Modulus (GPa) = 7.05417 50.38851 28.72134
# Shear Modulus (GPa) = 8.98464 18.39962 13.69213
#
# Velocity S-wave (km/s) = 2.34472 3.35541 2.89452
# Velocity P-wave (km/s) = 3.41273 6.77086 5.36150
#
# Compressibility (1/GPa) = 0.14176017
#
# Stress axis : x y z
#
# Youngs Moduli (GPa) = 7.09506 78.62662 85.46888
#
# Poissons Ratio (x) = 0.82781 -0.53460
# Poissons Ratio (y) = 0.07470 0.64335
# Poissons Ratio (z) = -0.04438 0.59185
#
# Static dielectric constant tensor:
#      x y z
#    x 1.601360 0.000000 0.000000 
#    y 0.000000 1.533030 0.000000 
#    z 0.000000 0.000000 1.566440 
# 
# From -- ./inp_files/16256.got.cif
#   From: 2010.05.17/outbox.cif.g08.bks.cpg/sg35_9_cif.got.tgz:16256.got - 2010.06.03 17:29:28.
