data_PCOD9350274
_publ_section_title
;
Structure prediction by ZEFSAII (Michael W. Deem and Ramdas Pophale) SiO2 
 PCOD9350274
Probable space group: C M M 2
;
_chemical_formula_sum "Si O2"
_cell_formula_units_Z 64
_cell_length_a 8.026013
_cell_length_b 30.505847
_cell_length_c 12.745912
_cell_angle_alpha 90.000000
_cell_angle_beta 90.000000
_cell_angle_gamma 90.000000
_cell_volume 3120.713231
_symmetry_space_group_name_H-M "C M M 2"
_symmetry_group_IT_number 35
_symmetry_cell_setting 'orthorhombic'
loop_
_space_group_symop_operation_xyz
x,y,z
-x,-y,z
-x,y,z
x,-y,z
1/2+x,1/2+y,z
1/2-x,1/2-y,z
1/2-x,1/2+y,z
1/2+x,1/2-y,z
loop_
_atom_site_type_symbol
_atom_site_label
_atom_site_fract_x
_atom_site_fract_y
_atom_site_fract_z
Si Si1 0.303221 0.199171 0.616270
Si Si2 0.703700 0.951959 0.342383
Si Si3 0.194140 0.159458 0.051428
Si Si4 0.302111 0.204123 0.243719
Si Si5 0.201033 0.855750 0.818115
Si Si6 0.302742 0.452448 0.874087
Si Si7 0.203826 0.639550 0.425140
Si Si8 0.691931 0.933253 0.106545
O O1 0.500000 0.200223 0.601372
O O2 0.250000 0.250000 0.615818
O O3 0.265122 0.173786 0.723988
O O4 0.233835 0.168339 0.522712
O O5 0.500000 0.950409 0.339507
O O6 0.759248 0.910682 0.411685
O O7 0.757993 0.946976 0.220486
O O8 0.753580 0.000000 0.381036
O O9 0.219424 0.199095 0.130271
O O10 0.297163 0.119253 0.099338
O O11 0.000000 0.146324 0.050794
O O12 0.244798 0.165256 0.931049
O O13 0.500000 0.202577 0.232519
O O14 0.250000 0.250000 0.293461
O O15 0.247814 0.165102 0.319613
O O16 0.262192 0.906666 0.824737
O O17 0.000000 0.856935 0.810554
O O18 0.500000 0.452854 0.853034
O O19 0.232916 0.500000 0.840252
O O20 0.279602 0.449041 0.000218
O O21 0.000000 0.639005 0.429169
O O22 0.500000 0.947352 0.100037
#
# Coordination Sequence:
#
# PCOD9350274 Si02
#       8
#     8   8   8   8   8   8   8   8
#     4  11  23  40  63  84 106 139 187 240 289 340
#     4   9  16  28  50  80 113 148 182 218 268 326
#     4  10  20  35  54  79 112 151 186 224 278 337
#     4  11  21  35  55  81 113 146 182 225 278 340
#     4   9  20  38  58  81 112 146 187 232 279 333
#     4   9  18  33  53  79 115 157 193 228 274 329
#     4   9  19  36  55  80 113 145 182 228 277 332
#     4  10  17  28  49  79 114 152 190 231 271 320
#
# _framework density 20.508133000000001
#
# number of rings (size 3 to 8) (size 9 to 14) (size 15 to 20)
#    0.000    2.250    1.250    3.000    0.000    3.750 
#    0.000    2.500    0.000    0.750    0.000    0.000 
#    0.000    0.000    0.000    0.000    0.000    0.000 
#
# Total GULP energy -178481.530797 kJ/mol
# GULP energy per Si atom -5577.547837 kJ/mol
# Density = 2.046146 g / cm^3
# Si number density = 20.508133 Si / 1000 Ang^3
#
#
#
# Elastic Constant Matrix: (Units=GPa)
#
#
# Indices 1 2 3 4 5 6 
#
# 1 23.3138 10.4737 10.2562 0.0000 0.0000 0.0000
# 2 10.4737 178.7600 79.6285 0.0000 0.0000 0.0000
# 3 10.2562 79.6285 110.8771 0.0000 0.0000 0.0000
# 4 0.0000 0.0000 0.0000 10.0191 0.0000 0.0000
# 5 0.0000 0.0000 0.0000 0.0000 -423.6829 0.0000
# 6 0.0000 0.0000 0.0000 0.0000 0.0000 3.5570
#
#
#
# Elastic Compliance Matrix: (Units=1/GPa)
#
#
# Indices 1 2 3 4 5 6 
#
# 1 0.044872 -0.001147 -0.003327 0.000000 0.000000 0.000000
# 2 -0.001147 0.008255 -0.005822 0.000000 0.000000 0.000000
# 3 -0.003327 -0.005822 0.013508 0.000000 0.000000 0.000000
# 4 0.000000 0.000000 0.000000 0.099809 0.000000 0.000000
# 5 0.000000 0.000000 0.000000 0.000000 -0.002360 0.000000
# 6 0.000000 0.000000 0.000000 0.000000 0.000000 0.281135
#
#
# Mechanical properties :
#
#
# Convention : Reuss Voigt Hill
#
# Bulk Modulus (GPa) = 21.71911 57.07419 39.39665
# Shear Modulus (GPa) = 10.39158 -67.84853 -28.72847
#
# Velocity S-wave (km/s) = 2.25345 -5.75808 -3.74683
# Velocity P-wave (km/s) = 4.16944 4.03942 0.73051
#
# Compressibility (1/GPa) = 0.04604241
#
# Stress axis : x y z
#
# Youngs Moduli (GPa) = 22.28563 121.14141 74.02977
#
# Poissons Ratio (x) = 0.13897 0.24628
# Poissons Ratio (y) = 0.02557 0.43102
# Poissons Ratio (z) = 0.07414 0.70531
#
# Static dielectric constant tensor:
#      x y z
#    x 2.792740 0.000000 0.000000 
#    y 0.000000 1.791780 0.000000 
#    z 0.000000 0.000000 1.716210 
# 
# From -- ./inp_files/11954.got.cif
#   From: 2010.05.17/outbox.cif.g08.bks.cpg/sg35_6_cif.got.tgz:11954.got - 2010.06.03 17:29:28.
