data_PCOD9350232
_publ_section_title
;
Structure prediction by ZEFSAII (Michael W. Deem and Ramdas Pophale) SiO2 
 PCOD9350232
Probable space group: C M M 2
;
_chemical_formula_sum "Si O2"
_cell_formula_units_Z 52
_cell_length_a 22.334674
_cell_length_b 13.325076
_cell_length_c 12.635922
_cell_angle_alpha 90.000000
_cell_angle_beta 90.000000
_cell_angle_gamma 90.000000
_cell_volume 3760.592269
_symmetry_space_group_name_H-M "C M M 2"
_symmetry_group_IT_number 35
_symmetry_cell_setting 'orthorhombic'
loop_
_space_group_symop_operation_xyz
x,y,z
-x,-y,z
-x,y,z
x,-y,z
1/2+x,1/2+y,z
1/2-x,1/2-y,z
1/2-x,1/2+y,z
1/2+x,1/2-y,z
loop_
_atom_site_type_symbol
_atom_site_label
_atom_site_fract_x
_atom_site_fract_y
_atom_site_fract_z
Si Si1 0.222979 0.882631 0.549590
Si Si2 0.350200 0.882107 0.859150
Si Si3 0.932643 0.378375 0.049963
Si Si4 0.651514 0.206066 0.476473
Si Si5 0.430432 0.120648 0.295909
Si Si6 0.069824 0.384092 0.652362
Si Si7 0.750000 0.250000 0.748808
O O1 0.288988 0.859781 0.501494
O O2 0.175537 0.819524 0.481166
O O3 0.222667 0.831515 0.666209
O O4 0.212236 0.000000 0.554179
O O5 0.400568 0.879295 0.767563
O O6 0.297646 0.809825 0.819338
O O7 0.331231 0.000000 0.867809
O O8 0.381729 0.847848 0.967584
O O9 0.933923 0.500000 0.045120
O O10 0.921754 0.352340 0.172463
O O11 0.000000 0.344068 0.020594
O O12 0.616821 0.174167 0.371476
O O13 0.606306 0.184769 0.572586
O O14 0.500000 0.143470 0.324172
O O15 0.423666 0.000000 0.305998
O O16 0.076017 0.500000 0.614844
O O17 0.000000 0.359975 0.655858
#
# Coordination Sequence:
#
# PCOD9350232 Si02
#       7
#     8   8   8   8   8   8   4
#     4  10  19  31  44  60  88 120 148 177 216 260
#     4  10  17  28  43  64  91 115 145 177 213 260
#     4   8  15  27  43  65  92 118 138 167 219 268
#     4  10  18  28  44  66  87 113 146 176 215 261
#     4   9  16  27  45  68  93 117 140 173 220 267
#     4  10  17  24  40  66  90 109 134 177 223 260
#     4  10  18  28  44  64  84 120 150 176 214 252
#
# _framework density 13.827609000000001
#
# number of rings (size 3 to 8) (size 9 to 14) (size 15 to 20)
#    0.000    2.615    3.077    3.692    0.000    3.077 
#    0.000    1.538    0.000    1.846    0.000    1.077 
#    0.000    2.462    0.000    0.000    0.000    0.000 
#
# Total GULP energy -144767.193356 kJ/mol
# GULP energy per Si atom -5567.968975 kJ/mol
# Density = 1.379614 g / cm^3
# Si number density = 13.827609 Si / 1000 Ang^3
#
#
#
# Elastic Constant Matrix: (Units=GPa)
#
#
# Indices 1 2 3 4 5 6 
#
# 1 103.9713 50.2344 56.5463 0.0000 0.0000 0.0000
# 2 50.2344 82.5779 35.6559 0.0000 0.0000 0.0000
# 3 56.5463 35.6559 81.3440 0.0000 0.0000 0.0000
# 4 0.0000 0.0000 0.0000 15.2576 0.0000 0.0000
# 5 0.0000 0.0000 0.0000 0.0000 30.4150 0.0000
# 6 0.0000 0.0000 0.0000 0.0000 0.0000 21.4800
#
#
#
# Elastic Compliance Matrix: (Units=1/GPa)
#
#
# Indices 1 2 3 4 5 6 
#
# 1 0.018185 -0.006912 -0.009611 0.000000 0.000000 0.000000
# 2 -0.006912 0.017564 -0.002894 0.000000 0.000000 0.000000
# 3 -0.009611 -0.002894 0.020243 0.000000 0.000000 0.000000
# 4 0.000000 0.000000 0.000000 0.065541 0.000000 0.000000
# 5 0.000000 0.000000 0.000000 0.000000 0.032878 0.000000
# 6 0.000000 0.000000 0.000000 0.000000 0.000000 0.046555
#
#
# Mechanical properties :
#
#
# Convention : Reuss Voigt Hill
#
# Bulk Modulus (GPa) = 58.28419 61.41850 59.85135
# Shear Modulus (GPa) = 20.36477 21.79430 21.07953
#
# Velocity S-wave (km/s) = 3.84182 3.97437 3.90866
# Velocity P-wave (km/s) = 7.86902 8.09781 7.98424
#
# Compressibility (1/GPa) = 0.01715731
#
# Stress axis : x y z
#
# Youngs Moduli (GPa) = 54.98987 56.93353 49.39890
#
# Poissons Ratio (x) = 0.39355 0.47480
# Poissons Ratio (y) = 0.38012 0.14295
# Poissons Ratio (z) = 0.52853 0.16476
#
# Static dielectric constant tensor:
#      x y z
#    x 1.456960 0.000000 0.000000 
#    y 0.000000 1.440090 0.000000 
#    z 0.000000 0.000000 1.465440 
# 
# From -- ./inp_files/13311.got.cif
#   From: 2010.05.17/outbox.cif.g08.bks.cpg/sg35_7_cif.got.tgz:13311.got - 2010.06.03 17:29:28.
