data_PCOD9350417
_publ_section_title
;
Structure prediction by ZEFSAII (Michael W. Deem and Ramdas Pophale) SiO2 
 PCOD9350417
Probable space group: C M M 2
;
_chemical_formula_sum "Si O2"
_cell_formula_units_Z 64
_cell_length_a 29.448544
_cell_length_b 8.602755
_cell_length_c 16.029706
_cell_angle_alpha 90.000000
_cell_angle_beta 90.000000
_cell_angle_gamma 90.000000
_cell_volume 4060.943423
_symmetry_space_group_name_H-M "C M M 2"
_symmetry_group_IT_number 35
_symmetry_cell_setting 'orthorhombic'
loop_
_space_group_symop_operation_xyz
x,y,z
-x,-y,z
-x,y,z
x,-y,z
1/2+x,1/2+y,z
1/2-x,1/2-y,z
1/2-x,1/2+y,z
1/2+x,1/2-y,z
loop_
_atom_site_type_symbol
_atom_site_label
_atom_site_fract_x
_atom_site_fract_y
_atom_site_fract_z
Si Si1 0.449379 0.812331 0.265720
Si Si2 0.300905 0.686207 0.357640
Si Si3 0.050893 0.187556 0.452947
Si Si4 0.354691 0.812116 0.197832
Si Si5 0.198447 0.814550 0.857863
Si Si6 0.144964 0.187684 0.526478
Si Si7 0.801415 0.313011 0.032289
Si Si8 0.801247 0.315152 0.683611
O O1 0.500000 0.760527 0.239597
O O2 0.441949 0.753807 0.360104
O O3 0.406910 0.761131 0.209894
O O4 0.449365 0.000000 0.267043
O O5 0.299937 0.500000 0.352480
O O6 0.250000 0.750000 0.361103
O O7 0.326450 0.751237 0.276709
O O8 0.327835 0.729031 0.441954
O O9 0.092633 0.234461 0.511433
O O10 0.000000 0.233267 0.480265
O O11 0.052234 0.000000 0.446803
O O12 0.331264 0.763659 0.111559
O O13 0.353600 0.000000 0.199818
O O14 0.250000 0.750000 0.857616
O O15 0.179277 0.753251 0.770376
O O16 0.199003 0.000000 0.858652
O O17 0.179145 0.750440 0.944736
O O18 0.168498 0.264737 0.605582
O O19 0.147126 0.000000 0.535775
O O20 0.799427 0.500000 0.028508
O O21 0.750000 0.250000 0.042467
O O22 0.798301 0.500000 0.690318
O O23 0.750000 0.250000 0.671956
#
# Coordination Sequence:
#
# PCOD9350417 Si02
#       8
#     8   8   8   8   8   8   8   8
#     4   9  17  30  48  69  93 122 158 199 241 282
#     4  11  22  33  45  63  92 130 164 197 230 273
#     4   9  17  31  50  70  93 122 157 198 241 281
#     4  10  20  32  47  68  95 127 161 197 236 280
#     4  10  18  31  50  70  93 121 153 194 237 281
#     4  10  20  33  47  69  96 126 161 196 235 280
#     4  10  19  31  46  67  94 124 158 195 233 279
#     4  11  21  33  50  71  96 127 159 196 236 281
#
# _framework density 15.759886
#
# number of rings (size 3 to 8) (size 9 to 14) (size 15 to 20)
#    0.000    2.000    1.250    5.250    0.000    4.500 
#    0.000    0.000    0.000    0.000    0.000    0.875 
#    0.000    3.000    0.000    0.000    0.000    0.000 
#
# Total GULP energy -178491.032517 kJ/mol
# GULP energy per Si atom -5577.844766 kJ/mol
# Density = 1.572402 g / cm^3
# Si number density = 15.759886 Si / 1000 Ang^3
#
#
#
# Elastic Constant Matrix: (Units=GPa)
#
#
# Indices 1 2 3 4 5 6 
#
# 1 114.8230 30.0117 71.3660 0.0000 0.0000 0.0000
# 2 30.0117 52.1622 43.7388 0.0000 0.0000 0.0000
# 3 71.3660 43.7388 146.9519 0.0000 0.0000 0.0000
# 4 0.0000 0.0000 0.0000 23.5893 0.0000 0.0000
# 5 0.0000 0.0000 0.0000 0.0000 7.5349 0.0000
# 6 0.0000 0.0000 0.0000 0.0000 0.0000 8.4643
#
#
#
# Elastic Compliance Matrix: (Units=1/GPa)
#
#
# Indices 1 2 3 4 5 6 
#
# 1 0.012788 -0.002865 -0.005357 0.000000 0.000000 0.000000
# 2 -0.002865 0.026189 -0.006403 0.000000 0.000000 0.000000
# 3 -0.005357 -0.006403 0.011313 0.000000 0.000000 0.000000
# 4 0.000000 0.000000 0.000000 0.042392 0.000000 0.000000
# 5 0.000000 0.000000 0.000000 0.000000 0.132716 0.000000
# 6 0.000000 0.000000 0.000000 0.000000 0.000000 0.118143
#
#
# Mechanical properties :
#
#
# Convention : Reuss Voigt Hill
#
# Bulk Modulus (GPa) = 47.53495 67.13001 57.33248
# Shear Modulus (GPa) = 13.16466 19.17241 16.16854
#
# Velocity S-wave (km/s) = 2.89334 3.49167 3.20649
# Velocity P-wave (km/s) = 6.43346 7.67747 7.08283
#
# Compressibility (1/GPa) = 0.02103715
#
# Stress axis : x y z
#
# Youngs Moduli (GPa) = 78.19968 38.18428 88.39646
#
# Poissons Ratio (x) = 0.10940 0.47358
# Poissons Ratio (y) = 0.22405 0.56604
# Poissons Ratio (z) = 0.41895 0.24451
#
# Static dielectric constant tensor:
#      x y z
#    x 1.503460 0.000000 0.000000 
#    y 0.000000 1.532120 0.000000 
#    z 0.000000 0.000000 1.525430 
# 
# From -- ./inp_files/17725.got.cif
#   From: 2010.05.17/outbox.cif.g08.bks.cpg/sg35_9_cif.got.tgz:17725.got - 2010.06.03 17:29:28.
