data_PCOD9350809
_publ_section_title
;
Structure prediction by ZEFSAII (Michael W. Deem and Ramdas Pophale) SiO2 
 PCOD9350809
Probable space group: C M C 21
;
_chemical_formula_sum "Si O2"
_cell_formula_units_Z 48
_cell_length_a 18.699218
_cell_length_b 11.027111
_cell_length_c 10.110919
_cell_angle_alpha 90.000000
_cell_angle_beta 90.000000
_cell_angle_gamma 90.000000
_cell_volume 2084.854840
_symmetry_space_group_name_H-M "C M C 21"
_symmetry_group_IT_number 36
_symmetry_cell_setting 'orthorhombic'
loop_
_space_group_symop_operation_xyz
x,y,z
-x,-y,1/2+z
x,-y,1/2+z
-x,y,z
1/2+x,1/2+y,z
1/2-x,1/2-y,1/2+z
1/2+x,1/2-y,1/2+z
1/2-x,1/2+y,z
loop_
_atom_site_type_symbol
_atom_site_label
_atom_site_fract_x
_atom_site_fract_y
_atom_site_fract_z
Si Si1 0.656986 0.525789 0.379740
Si Si2 0.119901 0.543551 0.763962
Si Si3 0.500000 0.451136 0.856605
Si Si4 0.652148 0.205699 0.994892
Si Si5 0.500000 0.223394 0.657950
Si Si6 0.251117 0.563782 0.121071
Si Si7 0.000000 0.348606 0.853050
Si Si8 0.500000 0.743084 0.586557
O O1 0.576008 0.482298 0.355638
O O2 0.652341 0.663761 0.430148
O O3 0.699738 0.457854 0.494006
O O4 0.699566 0.534340 0.244288
O O5 0.162768 0.602993 0.885129
O O6 0.177116 0.507881 0.652023
O O7 0.068044 0.648281 0.710344
O O8 0.069162 0.435229 0.820789
O O9 0.500000 0.352998 0.734320
O O10 0.500000 0.377452 0.997653
O O11 0.715227 0.196416 0.102288
O O12 0.571916 0.186730 0.047352
O O13 0.500000 0.208150 0.499377
O O14 0.000000 0.242972 0.743488
#
# Coordination Sequence:
#
# PCOD9350809 Si02
#       8
#     8   8   4   8   4   8   4   4
#     4  11  27  45  70  91 127 178 223 281 334 384
#     4  11  21  37  62  99 139 168 207 262 336 403
#     4  10  23  49  67  83 126 178 230 273 322 385
#     4  11  22  42  65  94 137 173 210 264 333 398
#     4  11  21  35  68  98 130 172 211 260 331 401
#     4  12  25  42  66 103 132 171 220 273 336 405
#     4  11  22  30  62 107 136 166 206 265 338 411
#     4  10  18  40  61  94 130 174 205 256 333 399
#
# _framework density 23.023187
#
# number of rings (size 3 to 8) (size 9 to 14) (size 15 to 20)
#    0.000    1.000    6.667    1.500    4.667    0.667 
#    0.000    3.333    0.000    0.000    0.000    0.000 
#    0.000    0.000    0.000    0.000    0.000    0.000 
#
# Total GULP energy -134028.163975 kJ/mol
# GULP energy per Si atom -5584.506832 kJ/mol
# Density = 2.297079 g / cm^3
# Si number density = 23.023187 Si / 1000 Ang^3
#
#
#
# Elastic Constant Matrix: (Units=GPa)
#
#
# Indices 1 2 3 4 5 6 
#
# 1 186.7875 24.6248 46.9577 0.0000 0.0000 0.0000
# 2 24.6248 24.4971 1.4619 0.0000 0.0000 0.0000
# 3 46.9577 1.4619 116.9311 0.0000 0.0000 0.0000
# 4 0.0000 0.0000 0.0000 6.9260 0.0000 0.0000
# 5 0.0000 0.0000 0.0000 0.0000 21.4699 0.0000
# 6 0.0000 0.0000 0.0000 0.0000 0.0000 17.9273
#
#
#
# Elastic Compliance Matrix: (Units=1/GPa)
#
#
# Indices 1 2 3 4 5 6 
#
# 1 0.006929 -0.006804 -0.002697 0.000000 0.000000 0.000000
# 2 -0.006804 0.047533 0.002138 0.000000 0.000000 0.000000
# 3 -0.002697 0.002138 0.009609 0.000000 0.000000 0.000000
# 4 0.000000 0.000000 0.000000 0.144384 0.000000 0.000000
# 5 0.000000 0.000000 0.000000 0.000000 0.046577 0.000000
# 6 0.000000 0.000000 0.000000 0.000000 0.000000 0.055781
#
#
# Mechanical properties :
#
#
# Convention : Reuss Voigt Hill
#
# Bulk Modulus (GPa) = 20.26598 52.70051 36.48324
# Shear Modulus (GPa) = 14.62048 26.27607 20.44827
#
# Velocity S-wave (km/s) = 2.52272 3.38196 2.98343
# Velocity P-wave (km/s) = 4.16017 6.17981 5.26769
#
# Compressibility (1/GPa) = 0.04934377
#
# Stress axis : x y z
#
# Youngs Moduli (GPa) = 144.32538 21.03803 104.07387
#
# Poissons Ratio (x) = 0.14314 0.28073
# Poissons Ratio (y) = 0.98198 -0.22252
# Poissons Ratio (z) = 0.38931 -0.04498
#
# Static dielectric constant tensor:
#      x y z
#    x 1.893430 0.000000 0.000000 
#    y 0.000000 1.879380 0.000000 
#    z 0.000000 0.000000 1.909380 
# 
# From -- ./inp_files/4701.got.cif
#   From: 2010.05.17/outbox.cif.g08.bks.cpg/sg36_3_cif.got.tgz:4701.got - 2010.06.03 17:41:39.
