data_PCOD9350098
_publ_section_title
;
Structure prediction by ZEFSAII (Michael W. Deem and Ramdas Pophale) SiO2 
 PCOD9350098
Probable space group: C M M 2
;
_chemical_formula_sum "Si O2"
_cell_formula_units_Z 48
_cell_length_a 8.602306
_cell_length_b 15.747187
_cell_length_c 17.718229
_cell_angle_alpha 90.000000
_cell_angle_beta 90.000000
_cell_angle_gamma 90.000000
_cell_volume 2400.148884
_symmetry_space_group_name_H-M "C M M 2"
_symmetry_group_IT_number 35
_symmetry_cell_setting 'orthorhombic'
loop_
_space_group_symop_operation_xyz
x,y,z
-x,-y,z
-x,y,z
x,-y,z
1/2+x,1/2+y,z
1/2-x,1/2-y,z
1/2-x,1/2+y,z
1/2+x,1/2-y,z
loop_
_atom_site_type_symbol
_atom_site_label
_atom_site_fract_x
_atom_site_fract_y
_atom_site_fract_z
Si Si1 0.685828 0.500000 0.998410
Si Si2 0.686958 0.160144 0.090447
Si Si3 0.686999 0.339996 0.736731
Si Si4 0.189314 0.400764 0.253057
Si Si5 0.186368 0.098557 0.574444
Si Si6 0.814165 0.500000 0.828983
Si Si7 0.681893 0.896479 0.416619
O O1 0.500000 0.500000 0.997512
O O2 0.750670 0.500000 0.913815
O O3 0.747706 0.417444 0.042250
O O4 0.500000 0.158194 0.088224
O O5 0.750000 0.250000 0.062661
O O6 0.738399 0.147205 0.177790
O O7 0.500000 0.341521 0.738919
O O8 0.750000 0.250000 0.764157
O O9 0.739320 0.353707 0.649586
O O10 0.751620 0.417454 0.785347
O O11 0.233659 0.500000 0.244895
O O12 0.244904 0.368075 0.334836
O O13 0.000000 0.399203 0.255956
O O14 0.239681 0.133242 0.493610
O O15 0.000000 0.097849 0.574974
O O16 0.239523 0.000000 0.580371
O O17 0.000000 0.500000 0.829182
O O18 0.500000 0.875751 0.421168
O O19 0.694869 0.000000 0.414846
#
# Coordination Sequence:
#
# PCOD9350098 Si02
#       7
#     4   8   8   8   8   4   8
#     4  12  26  46  70  97 126 159 200 249 306 371
#     4  11  22  40  65  94 128 166 207 255 308 367
#     4  11  23  42  65  94 129 166 206 255 307 365
#     4   8  14  29  54  81 114 159 205 253 306 358
#     4   9  17  32  53  79 118 162 201 250 309 358
#     4  12  26  46  72  99 124 159 200 245 308 375
#     4   8  14  25  47  79 111 152 208 256 298 353
#
# _framework density 19.998760000000001
#
# number of rings (size 3 to 8) (size 9 to 14) (size 15 to 20)
#    0.000    2.167    1.667    3.500    0.000    2.000 
#    0.000    5.833    0.000    4.000    0.000    0.000 
#    0.000    0.000    0.000    0.000    0.000    0.000 
#
# Total GULP energy -134006.206037 kJ/mol
# GULP energy per Si atom -5583.591918 kJ/mol
# Density = 1.995324 g / cm^3
# Si number density = 19.998760 Si / 1000 Ang^3
#
#
#
# Elastic Constant Matrix: (Units=GPa)
#
#
# Indices 1 2 3 4 5 6 
#
# 1 69.7061 40.9989 48.2982 0.0000 0.0000 0.0000
# 2 40.9989 133.9526 75.0191 0.0000 0.0000 0.0000
# 3 48.2982 75.0191 162.7606 0.0000 0.0000 0.0000
# 4 0.0000 0.0000 0.0000 -12.8771 0.0000 0.0000
# 5 0.0000 0.0000 0.0000 0.0000 27.1530 0.0000
# 6 0.0000 0.0000 0.0000 0.0000 0.0000 21.7591
#
#
#
# Elastic Compliance Matrix: (Units=1/GPa)
#
#
# Indices 1 2 3 4 5 6 
#
# 1 0.019290 -0.003637 -0.004048 0.000000 0.000000 0.000000
# 2 -0.003637 0.010749 -0.003875 0.000000 0.000000 0.000000
# 3 -0.004048 -0.003875 0.009131 0.000000 0.000000 0.000000
# 4 0.000000 0.000000 0.000000 -0.077657 0.000000 0.000000
# 5 0.000000 0.000000 0.000000 0.000000 0.036828 0.000000
# 6 0.000000 0.000000 0.000000 0.000000 0.000000 0.045958
#
#
# Mechanical properties :
#
#
# Convention : Reuss Voigt Hill
#
# Bulk Modulus (GPa) = 62.30520 77.22798 69.76659
# Shear Modulus (GPa) = 68.71171 20.68055 44.69613
#
# Velocity S-wave (km/s) = 5.86793 3.21922 4.73265
# Velocity P-wave (km/s) = 8.78250 7.24693 8.05141
#
# Compressibility (1/GPa) = 0.01605002
#
# Stress axis : x y z
#
# Youngs Moduli (GPa) = 51.84091 93.03458 109.51512
#
# Poissons Ratio (x) = 0.33838 0.44328
# Poissons Ratio (y) = 0.18855 0.42437
# Poissons Ratio (z) = 0.20984 0.36050
#
# Static dielectric constant tensor:
#      x y z
#    x 1.680700 0.000000 0.000000 
#    y 0.000000 1.714500 0.000000 
#    z 0.000000 0.000000 1.721170 
# 
# From -- ./inp_files/17918.got.cif
#   From: 2010.05.17/outbox.cif.g08.bks.cpg/sg35_9_cif.got.tgz:17918.got - 2010.06.03 17:29:28.
