data_PCOD9350434
_publ_section_title
;
Structure prediction by ZEFSAII (Michael W. Deem and Ramdas Pophale) SiO2 
 PCOD9350434
Probable space group: C M M 2
;
_chemical_formula_sum "Si O2"
_cell_formula_units_Z 56
_cell_length_a 19.476896
_cell_length_b 14.960429
_cell_length_c 9.701603
_cell_angle_alpha 90.000000
_cell_angle_beta 90.000000
_cell_angle_gamma 90.000000
_cell_volume 2826.879468
_symmetry_space_group_name_H-M "C M M 2"
_symmetry_group_IT_number 35
_symmetry_cell_setting 'orthorhombic'
loop_
_space_group_symop_operation_xyz
x,y,z
-x,-y,z
-x,y,z
x,-y,z
1/2+x,1/2+y,z
1/2-x,1/2-y,z
1/2-x,1/2+y,z
1/2+x,1/2-y,z
loop_
_atom_site_type_symbol
_atom_site_label
_atom_site_fract_x
_atom_site_fract_y
_atom_site_fract_z
Si Si1 0.926104 0.106457 0.714640
Si Si2 0.745065 0.599743 0.487311
Si Si3 0.156222 0.399086 0.969969
Si Si4 0.771903 0.146935 0.786828
Si Si5 0.678447 0.196305 0.249107
Si Si6 0.417502 0.104907 0.683773
Si Si7 0.883177 0.229390 0.486711
O O1 0.854247 0.136683 0.783271
O O2 0.926511 0.155515 0.566671
O O3 0.000000 0.127450 0.782756
O O4 0.921371 0.000000 0.698842
O O5 0.717304 0.500000 0.458867
O O6 0.691409 0.681691 0.489417
O O7 0.798238 0.623482 0.365947
O O8 0.761219 0.600999 0.650711
O O9 0.136638 0.500000 0.004235
O O10 0.152062 0.340593 0.105524
O O11 0.235098 0.395101 0.918090
O O12 0.112410 0.372690 0.835169
O O13 0.750000 0.250000 0.784468
O O14 0.750000 0.250000 0.222964
O O15 0.615962 0.247639 0.325923
O O16 0.392832 0.180660 0.576177
O O17 0.400816 0.000000 0.650481
O O18 0.000000 0.389449 0.687355
#
# Coordination Sequence:
#
# PCOD9350434 Si02
#       7
#     8   8   8   8   8   8   8
#     4  10  20  35  58  90 124 154 190 240 295 350
#     4  10  18  31  52  80 113 144 181 228 278 333
#     4  11  21  34  54  79 111 149 190 236 287 344
#     4  11  20  33  55  84 116 152 193 237 286 342
#     4  10  21  34  50  78 115 150 185 230 283 338
#     4  10  22  39  58  81 110 147 192 241 291 343
#     4  10  19  34  55  79 108 146 190 232 278 334
#
# _framework density 19.809829000000001
#
# number of rings (size 3 to 8) (size 9 to 14) (size 15 to 20)
#    0.000    1.714    0.000    8.571    0.000    2.286 
#    0.000    1.429    0.000    1.714    0.000   15.000 
#    0.000   66.286    0.000    0.000    0.000    0.000 
#
# Total GULP energy -155896.671643 kJ/mol
# GULP energy per Si atom -5567.738273 kJ/mol
# Density = 1.976474 g / cm^3
# Si number density = 19.809829 Si / 1000 Ang^3
#
#
#
# Elastic Constant Matrix: (Units=GPa)
#
#
# Indices 1 2 3 4 5 6 
#
# 1 101.8737 32.6519 14.0389 0.0000 0.0000 0.0000
# 2 32.6519 113.5171 35.4327 0.0000 0.0000 0.0000
# 3 14.0389 35.4327 91.6145 0.0000 0.0000 0.0000
# 4 0.0000 0.0000 0.0000 18.6010 0.0000 0.0000
# 5 0.0000 0.0000 0.0000 0.0000 14.4261 0.0000
# 6 0.0000 0.0000 0.0000 0.0000 0.0000 19.4889
#
#
#
# Elastic Compliance Matrix: (Units=1/GPa)
#
#
# Indices 1 2 3 4 5 6 
#
# 1 0.010834 -0.002955 -0.000517 0.000000 0.000000 0.000000
# 2 -0.002955 0.010825 -0.003734 0.000000 0.000000 0.000000
# 3 -0.000517 -0.003734 0.012439 0.000000 0.000000 0.000000
# 4 0.000000 0.000000 0.000000 0.053761 0.000000 0.000000
# 5 0.000000 0.000000 0.000000 0.000000 0.069319 0.000000
# 6 0.000000 0.000000 0.000000 0.000000 0.000000 0.051311
#
#
# Mechanical properties :
#
#
# Convention : Reuss Voigt Hill
#
# Bulk Modulus (GPa) = 50.79847 52.36139 51.57993
# Shear Modulus (GPa) = 21.79007 25.49532 23.64269
#
# Velocity S-wave (km/s) = 3.32017 3.59137 3.45843
# Velocity P-wave (km/s) = 6.35584 6.60959 6.48396
#
# Compressibility (1/GPa) = 0.01968563
#
# Stress axis : x y z
#
# Youngs Moduli (GPa) = 92.29801 92.38198 80.39468
#
# Poissons Ratio (x) = 0.27298 0.04160
# Poissons Ratio (y) = 0.27273 0.30017
# Poissons Ratio (z) = 0.04776 0.34493
#
# Static dielectric constant tensor:
#      x y z
#    x 1.779610 0.000000 0.000000 
#    y 0.000000 1.760060 0.000000 
#    z 0.000000 0.000000 1.708630 
# 
# From -- ./inp_files/9279.got.cif
#   From: 2010.05.17/outbox.cif.g08.bks.cpg/sg35_5_cif.got.tgz:9279.got - 2010.06.03 17:29:28.
