data_PCOD9350550
_publ_section_title
;
Structure prediction by ZEFSAII (Michael W. Deem and Ramdas Pophale) SiO2 
 PCOD9350550
Probable space group: C M C 21
;
_chemical_formula_sum "Si O2"
_cell_formula_units_Z 60
_cell_length_a 21.987261
_cell_length_b 32.006920
_cell_length_c 5.030432
_cell_angle_alpha 90.000000
_cell_angle_beta 90.000000
_cell_angle_gamma 90.000000
_cell_volume 3540.138872
_symmetry_space_group_name_H-M "C M C 21"
_symmetry_group_IT_number 36
_symmetry_cell_setting 'orthorhombic'
loop_
_space_group_symop_operation_xyz
x,y,z
-x,-y,1/2+z
x,-y,1/2+z
-x,y,z
1/2+x,1/2+y,z
1/2-x,1/2-y,1/2+z
1/2+x,1/2-y,1/2+z
1/2-x,1/2+y,z
loop_
_atom_site_type_symbol
_atom_site_label
_atom_site_fract_x
_atom_site_fract_y
_atom_site_fract_z
Si Si1 0.500000 0.975475 0.531930
Si Si2 0.427553 0.866691 0.961418
Si Si3 0.270014 0.806103 0.379993
Si Si4 0.069172 0.725395 0.587245
Si Si5 0.143255 0.385336 0.448100
Si Si6 0.636400 0.971006 0.638958
Si Si7 0.069748 0.222118 0.602126
Si Si8 0.308385 0.289731 0.880988
O O1 0.500000 0.982464 0.215963
O O2 0.564711 0.957496 0.617051
O O3 0.500000 0.871842 0.997994
O O4 0.408158 0.870842 0.657694
O O5 0.405553 0.820318 0.049708
O O6 0.388836 0.894818 0.164824
O O7 0.309504 0.847266 0.430533
O O8 0.305380 0.761389 0.399236
O O9 0.240637 0.806489 0.089967
O O10 0.216020 0.802728 0.594988
O O11 0.093367 0.760319 0.384917
O O12 0.000000 0.721343 0.487481
O O13 0.065843 0.740162 0.888655
O O14 0.170453 0.428350 0.566040
O O15 0.646317 0.006843 0.418875
O O16 0.124373 0.195863 0.470587
O O17 0.000000 0.205194 0.623429
#
# Coordination Sequence:
#
# PCOD9350550 Si02
#       8
#     4   8   8   8   8   8   8   8
#     4   8  16  30  48  64  82 108 142 182 234 294
#     4  11  22  32  46  68  92 118 149 199 254 288
#     4  10  21  33  49  69  90 130 160 194 234 274
#     4   9  17  28  41  62  91 117 147 186 236 283
#     4  12  23  36  52  68  94 118 161 201 238 303
#     4  10  21  37  52  69  88 118 153 198 248 298
#     4  10  18  29  48  68  89 122 158 197 239 278
#     4  10  19  33  49  67  96 122 163 195 229 284
#
# _framework density 16.948488999999999
#
# number of rings (size 3 to 8) (size 9 to 14) (size 15 to 20)
#    0.000    1.867    0.000    5.200    1.867    4.267 
#    2.400    0.000    0.000    0.000    0.000    0.000 
#    0.000    0.000    0.000    0.000    0.000   13.333 
#
# Total GULP energy -167264.661187 kJ/mol
# GULP energy per Si atom -5575.488706 kJ/mol
# Density = 1.690991 g / cm^3
# Si number density = 16.948489 Si / 1000 Ang^3
#
#
#
# Elastic Constant Matrix: (Units=GPa)
#
#
# Indices 1 2 3 4 5 6 
#
# 1 62.0182 17.4100 -1.2680 0.0000 0.0000 0.0000
# 2 17.4100 58.7512 -1.6534 0.0000 0.0000 0.0000
# 3 -1.2680 -1.6534 51.0468 0.0000 0.0000 0.0000
# 4 0.0000 0.0000 0.0000 12.3069 0.0000 0.0000
# 5 0.0000 0.0000 0.0000 0.0000 12.7048 0.0000
# 6 0.0000 0.0000 0.0000 0.0000 0.0000 16.1765
#
#
#
# Elastic Compliance Matrix: (Units=1/GPa)
#
#
# Indices 1 2 3 4 5 6 
#
# 1 0.017591 -0.005205 0.000268 0.000000 0.000000 0.000000
# 2 -0.005205 0.018577 0.000472 0.000000 0.000000 0.000000
# 3 0.000268 0.000472 0.019612 0.000000 0.000000 0.000000
# 4 0.000000 0.000000 0.000000 0.081256 0.000000 0.000000
# 5 0.000000 0.000000 0.000000 0.000000 0.078711 0.000000
# 6 0.000000 0.000000 0.000000 0.000000 0.000000 0.061818
#
#
# Mechanical properties :
#
#
# Convention : Reuss Voigt Hill
#
# Bulk Modulus (GPa) = 21.34446 22.31038 21.82742
# Shear Modulus (GPa) = 16.55027 18.72612 17.63819
#
# Velocity S-wave (km/s) = 3.12830 3.32759 3.22948
# Velocity P-wave (km/s) = 5.06650 5.28734 5.17810
#
# Compressibility (1/GPa) = 0.04685056
#
# Stress axis : x y z
#
# Youngs Moduli (GPa) = 56.84708 53.83076 50.98962
#
# Poissons Ratio (x) = 0.28021 -0.01368
# Poissons Ratio (y) = 0.29591 -0.02409
# Poissons Ratio (z) = -0.01526 -0.02543
#
# Static dielectric constant tensor:
#      x y z
#    x 1.633910 0.000000 0.000000 
#    y 0.000000 1.606760 0.000000 
#    z 0.000000 0.000000 1.623960 
# 
# From -- ./inp_files/1509.got.cif
#   From: 2010.05.17/outbox.cif.g08.bks.cpg/sg36_1_cif.got.tgz:1509.got - 2010.06.03 17:41:39.
