data_PCOD9350224
_publ_section_title
;
Structure prediction by ZEFSAII (Michael W. Deem and Ramdas Pophale) SiO2 
 PCOD9350224
Probable space group: C M M 2
;
_chemical_formula_sum "Si O2"
_cell_formula_units_Z 56
_cell_length_a 20.939928
_cell_length_b 19.483426
_cell_length_c 7.181285
_cell_angle_alpha 90.000000
_cell_angle_beta 90.000000
_cell_angle_gamma 90.000000
_cell_volume 2929.831696
_symmetry_space_group_name_H-M "C M M 2"
_symmetry_group_IT_number 35
_symmetry_cell_setting 'orthorhombic'
loop_
_space_group_symop_operation_xyz
x,y,z
-x,-y,z
-x,y,z
x,-y,z
1/2+x,1/2+y,z
1/2-x,1/2-y,z
1/2-x,1/2+y,z
1/2+x,1/2-y,z
loop_
_atom_site_type_symbol
_atom_site_label
_atom_site_fract_x
_atom_site_fract_y
_atom_site_fract_z
Si Si1 0.613721 0.167623 0.630580
Si Si2 0.430473 0.749091 0.301931
Si Si3 0.812823 0.796300 0.766925
Si Si4 0.199799 0.189226 0.208824
Si Si5 0.705280 0.923121 0.121958
Si Si6 0.737542 0.079875 0.677964
Si Si7 0.430556 0.865160 0.028540
O O1 0.576257 0.187154 0.445391
O O2 0.633498 0.244144 0.700371
O O3 0.675550 0.119313 0.594794
O O4 0.577958 0.134104 0.805532
O O5 0.500000 0.715851 0.330824
O O6 0.367251 0.702356 0.310013
O O7 0.430151 0.787043 0.102620
O O8 0.750000 0.750000 0.736887
O O9 0.798128 0.868408 0.665199
O O10 0.816336 0.807413 0.988404
O O11 0.250000 0.250000 0.253157
O O12 0.242678 0.121775 0.230465
O O13 0.632567 0.897280 0.119629
O O14 0.707660 0.000000 0.189118
O O15 0.723684 0.920454 0.902055
O O16 0.744989 0.000000 0.623227
O O17 0.500000 0.895132 0.077158
#
# Coordination Sequence:
#
# PCOD9350224 Si02
#       7
#     8   8   8   8   8   8   8
#     4  10  18  32  51  73 102 140 178 216 260 317
#     4  11  22  33  52  79 104 135 178 222 265 313
#     4   8  14  27  48  74 101 132 169 217 268 307
#     4  10  16  32  54  76 104 137 173 224 264 309
#     4   9  17  31  54  81 107 141 180 216 262 320
#     4   8  15  28  49  76 106 138 175 217 261 315
#     4  10  19  34  52  75 110 143 171 215 262 311
#
# _framework density 19.113724999999999
#
# number of rings (size 3 to 8) (size 9 to 14) (size 15 to 20)
#    0.000    2.571    2.857    2.143    0.000    2.000 
#    0.000    0.714    0.000    2.571    0.000    0.000 
#    0.000    1.714    0.000    0.000    0.000    0.000 
#
# Total GULP energy -155967.191089 kJ/mol
# GULP energy per Si atom -5570.256825 kJ/mol
# Density = 1.907022 g / cm^3
# Si number density = 19.113725 Si / 1000 Ang^3
#
#
#
# Elastic Constant Matrix: (Units=GPa)
#
#
# Indices 1 2 3 4 5 6 
#
# 1 121.5005 68.9226 20.5365 0.0000 0.0000 0.0000
# 2 68.9226 116.4766 3.7953 0.0000 0.0000 0.0000
# 3 20.5365 3.7953 58.8053 0.0000 0.0000 0.0000
# 4 0.0000 0.0000 0.0000 10.2710 0.0000 0.0000
# 5 0.0000 0.0000 0.0000 0.0000 6.7048 0.0000
# 6 0.0000 0.0000 0.0000 0.0000 0.0000 10.2898
#
#
#
# Elastic Compliance Matrix: (Units=1/GPa)
#
#
# Indices 1 2 3 4 5 6 
#
# 1 0.013331 -0.007753 -0.004155 0.000000 0.000000 0.000000
# 2 -0.007753 0.013112 0.001861 0.000000 0.000000 0.000000
# 3 -0.004155 0.001861 0.018336 0.000000 0.000000 0.000000
# 4 0.000000 0.000000 0.000000 0.097362 0.000000 0.000000
# 5 0.000000 0.000000 0.000000 0.000000 0.149146 0.000000
# 6 0.000000 0.000000 0.000000 0.000000 0.000000 0.097183
#
#
# Mechanical properties :
#
#
# Convention : Reuss Voigt Hill
#
# Bulk Modulus (GPa) = 40.50889 53.69903 47.10396
# Shear Modulus (GPa) = 11.99640 19.02166 15.50903
#
# Velocity S-wave (km/s) = 2.50798 3.15807 2.85161
# Velocity P-wave (km/s) = 5.44300 6.43843 5.96153
#
# Compressibility (1/GPa) = 0.02468594
#
# Stress axis : x y z
#
# Youngs Moduli (GPa) = 75.01589 76.26464 54.53685
#
# Poissons Ratio (x) = 0.59125 0.22660
# Poissons Ratio (y) = 0.58157 -0.10150
# Poissons Ratio (z) = 0.31169 -0.14194
#
# Static dielectric constant tensor:
#      x y z
#    x 1.735670 0.000000 0.000000 
#    y 0.000000 1.669400 0.000000 
#    z 0.000000 0.000000 1.743290 
# 
# From -- ./inp_files/9485.got.cif
#   From: 2010.05.17/outbox.cif.g08.bks.cpg/sg35_5_cif.got.tgz:9485.got - 2010.06.03 17:29:28.
