data_PCOD9350435
_publ_section_title
;
Structure prediction by ZEFSAII (Michael W. Deem and Ramdas Pophale) SiO2 
 PCOD9350435
Probable space group: C M M 2
;
_chemical_formula_sum "Si O2"
_cell_formula_units_Z 64
_cell_length_a 30.036479
_cell_length_b 8.440484
_cell_length_c 12.838011
_cell_angle_alpha 90.000000
_cell_angle_beta 90.000000
_cell_angle_gamma 90.000000
_cell_volume 3254.723622
_symmetry_space_group_name_H-M "C M M 2"
_symmetry_group_IT_number 35
_symmetry_cell_setting 'orthorhombic'
loop_
_space_group_symop_operation_xyz
x,y,z
-x,-y,z
-x,y,z
x,-y,z
1/2+x,1/2+y,z
1/2-x,1/2-y,z
1/2-x,1/2+y,z
1/2+x,1/2-y,z
loop_
_atom_site_type_symbol
_atom_site_label
_atom_site_fract_x
_atom_site_fract_y
_atom_site_fract_z
Si Si1 0.930660 0.182207 0.543770
Si Si2 0.703805 0.308724 0.393302
Si Si3 0.827346 0.817083 0.605787
Si Si4 0.951204 0.311741 0.768448
Si Si5 0.139791 0.689021 0.220231
Si Si6 0.950656 0.308619 0.313131
Si Si7 0.854893 0.807896 0.826797
Si Si8 0.699278 0.689256 0.030344
O O1 0.877484 0.181905 0.560550
O O2 0.948680 0.272666 0.645001
O O3 0.942469 0.252776 0.431811
O O4 0.945673 0.000000 0.548200
O O5 0.701104 0.500000 0.392392
O O6 0.750000 0.250000 0.345900
O O7 0.700721 0.245879 0.511893
O O8 0.664249 0.236917 0.326606
O O9 0.831312 0.746365 0.720685
O O10 0.812766 0.000000 0.618283
O O11 0.949303 0.500000 0.782002
O O12 0.906831 0.240614 0.821002
O O13 0.000000 0.254812 0.806154
O O14 0.140021 0.500000 0.207516
O O15 0.088965 0.744898 0.236808
O O16 0.168741 0.762013 0.127780
O O17 0.949485 0.500000 0.314317
O O18 0.000000 0.256674 0.280930
O O19 0.854379 0.000000 0.822922
O O20 0.827074 0.754818 0.926833
O O21 0.701600 0.500000 0.026675
O O22 0.750000 0.750000 0.036776
#
# Coordination Sequence:
#
# PCOD9350435 Si02
#       8
#     8   8   8   8   8   8   8   8
#     4  10  18  31  52  80 115 158 200 237 281 337
#     4  11  21  35  55  82 116 150 188 233 287 350
#     4   8  16  32  53  78 113 150 183 227 281 336
#     4  10  20  33  52  83 122 161 200 240 283 336
#     4  11  23  40  61  84 115 152 195 240 291 349
#     4  10  21  36  55  82 116 152 192 240 291 345
#     4   9  20  39  61  86 115 150 194 243 293 345
#     4  11  24  43  67  90 114 146 193 247 297 350
#
# _framework density 19.663727000000002
#
# number of rings (size 3 to 8) (size 9 to 14) (size 15 to 20)
#    0.000    2.000    1.250    3.375    0.000    4.750 
#    0.000    1.250    0.000    2.250    0.000    0.000 
#    0.000    0.000    0.000    0.000    0.000    0.000 
#
# Total GULP energy -178509.629786 kJ/mol
# GULP energy per Si atom -5578.425931 kJ/mol
# Density = 1.961897 g / cm^3
# Si number density = 19.663727 Si / 1000 Ang^3
#
#
#
# Elastic Constant Matrix: (Units=GPa)
#
#
# Indices 1 2 3 4 5 6 
#
# 1 143.5515 18.0443 72.1201 0.0000 0.0000 0.0000
# 2 18.0443 23.1254 13.6772 0.0000 0.0000 0.0000
# 3 72.1201 13.6772 118.2506 0.0000 0.0000 0.0000
# 4 0.0000 0.0000 0.0000 13.2192 0.0000 0.0000
# 5 0.0000 0.0000 0.0000 0.0000 16.4173 0.0000
# 6 0.0000 0.0000 0.0000 0.0000 0.0000 16.1947
#
#
#
# Elastic Compliance Matrix: (Units=1/GPa)
#
#
# Indices 1 2 3 4 5 6 
#
# 1 0.010505 -0.004731 -0.005859 0.000000 0.000000 0.000000
# 2 -0.004731 0.048549 -0.002730 0.000000 0.000000 0.000000
# 3 -0.005859 -0.002730 0.012346 0.000000 0.000000 0.000000
# 4 0.000000 0.000000 0.000000 0.075647 0.000000 0.000000
# 5 0.000000 0.000000 0.000000 0.000000 0.060911 0.000000
# 6 0.000000 0.000000 0.000000 0.000000 0.000000 0.061748
#
#
# Mechanical properties :
#
#
# Convention : Reuss Voigt Hill
#
# Bulk Modulus (GPa) = 22.34215 54.73452 38.53834
# Shear Modulus (GPa) = 16.06341 21.23866 18.65103
#
# Velocity S-wave (km/s) = 2.86126 3.29004 3.08311
# Velocity P-wave (km/s) = 4.72255 6.50601 5.68466
#
# Compressibility (1/GPa) = 0.04475844
#
# Stress axis : x y z
#
# Youngs Moduli (GPa) = 95.19616 20.59795 80.99781
#
# Poissons Ratio (x) = 0.09745 0.47461
# Poissons Ratio (y) = 0.45038 0.22111
# Poissons Ratio (z) = 0.55780 0.05623
#
# Static dielectric constant tensor:
#      x y z
#    x 1.530020 0.000000 0.000000 
#    y 0.000000 1.673350 0.000000 
#    z 0.000000 0.000000 1.689710 
# 
# From -- ./inp_files/14548.got.cif
#   From: 2010.05.17/outbox.cif.g08.bks.cpg/sg35_8_cif.got.tgz:14548.got - 2010.06.03 17:29:28.
