data_PCOD9350230
_publ_section_title
;
Structure prediction by ZEFSAII (Michael W. Deem and Ramdas Pophale) SiO2 
 PCOD9350230
Probable space group: C M M 2
;
_chemical_formula_sum "Si O2"
_cell_formula_units_Z 64
_cell_length_a 23.507975
_cell_length_b 15.538007
_cell_length_c 8.874427
_cell_angle_alpha 90.000000
_cell_angle_beta 90.000000
_cell_angle_gamma 90.000000
_cell_volume 3241.536038
_symmetry_space_group_name_H-M "C M M 2"
_symmetry_group_IT_number 35
_symmetry_cell_setting 'orthorhombic'
loop_
_space_group_symop_operation_xyz
x,y,z
-x,-y,z
-x,y,z
x,-y,z
1/2+x,1/2+y,z
1/2-x,1/2-y,z
1/2-x,1/2+y,z
1/2+x,1/2-y,z
loop_
_atom_site_type_symbol
_atom_site_label
_atom_site_fract_x
_atom_site_fract_y
_atom_site_fract_z
Si Si1 0.349946 0.404823 0.125000
Si Si2 0.063821 0.595123 0.190026
Si Si3 0.882342 0.724308 0.985252
Si Si4 0.729195 0.152064 0.129956
Si Si5 0.639993 0.403672 0.488969
Si Si6 0.236130 0.351613 0.478815
Si Si7 0.066280 0.760281 0.661948
Si Si8 0.887440 0.599097 0.511514
O O1 0.372655 0.500000 0.085443
O O2 0.283752 0.400208 0.073076
O O3 0.355715 0.394920 0.306691
O O4 0.376729 0.318689 0.058304
O O5 0.075137 0.500000 0.124654
O O6 0.104797 0.608199 0.331356
O O7 0.000000 0.594856 0.251331
O O8 0.069910 0.668990 0.068457
O O9 0.898896 0.743151 0.814962
O O10 0.826427 0.665359 0.026500
O O11 0.750000 0.250000 0.144739
O O12 0.724496 0.122399 0.303931
O O13 0.619465 0.500000 0.523840
O O14 0.706081 0.394470 0.537775
O O15 0.600102 0.331566 0.563123
O O16 0.250000 0.250000 0.485079
O O17 0.177029 0.375606 0.557183
O O18 0.070407 0.668690 0.579398
O O19 0.000000 0.783905 0.686162
O O20 0.898881 0.500000 0.550507
#
# Coordination Sequence:
#
# PCOD9350230 Si02
#       8
#     8   8   8   8   8   8   8   8
#     4   9  19  37  65  94 121 155 199 259 322 372
#     4  10  21  37  61  90 117 155 210 266 313 362
#     4  11  21  39  61  85 125 167 208 253 303 371
#     4   8  16  31  57  89 119 150 189 240 305 362
#     4  10  21  40  67  96 126 161 208 265 317 370
#     4  10  16  34  66  95 124 152 191 255 318 374
#     4  12  27  43  60  85 127 179 215 251 305 369
#     4  11  22  39  63  91 122 157 205 262 315 369
#
# _framework density 19.743727
#
# number of rings (size 3 to 8) (size 9 to 14) (size 15 to 20)
#    0.000    1.875    2.500    2.625    0.000    3.000 
#    6.750    0.625    0.000    2.625    0.000    0.000 
#    0.000    0.000    0.000    0.000    0.000    0.000 
#
# Total GULP energy -178247.176313 kJ/mol
# GULP energy per Si atom -5570.224260 kJ/mol
# Density = 1.969879 g / cm^3
# Si number density = 19.743727 Si / 1000 Ang^3
#
#
#
# Elastic Constant Matrix: (Units=GPa)
#
#
# Indices 1 2 3 4 5 6 
#
# 1 91.8979 22.0684 32.9110 0.0000 0.0000 0.0000
# 2 22.0684 123.5837 53.8586 0.0000 0.0000 0.0000
# 3 32.9110 53.8586 49.1842 0.0000 0.0000 0.0000
# 4 0.0000 0.0000 0.0000 1.6709 0.0000 0.0000
# 5 0.0000 0.0000 0.0000 0.0000 18.1446 0.0000
# 6 0.0000 0.0000 0.0000 0.0000 0.0000 17.9244
#
#
#
# Elastic Compliance Matrix: (Units=1/GPa)
#
#
# Indices 1 2 3 4 5 6 
#
# 1 0.014958 0.003234 -0.013551 0.000000 0.000000 0.000000
# 2 0.003234 0.016178 -0.019880 0.000000 0.000000 0.000000
# 3 -0.013551 -0.019880 0.051168 0.000000 0.000000 0.000000
# 4 0.000000 0.000000 0.000000 0.598464 0.000000 0.000000
# 5 0.000000 0.000000 0.000000 0.000000 0.055113 0.000000
# 6 0.000000 0.000000 0.000000 0.000000 0.000000 0.055790
#
#
# Mechanical properties :
#
#
# Convention : Reuss Voigt Hill
#
# Bulk Modulus (GPa) = 45.63733 53.59352 49.61542
# Shear Modulus (GPa) = 5.81825 17.93649 11.87737
#
# Velocity S-wave (km/s) = 1.71851 3.01735 2.45537
# Velocity P-wave (km/s) = 5.20603 6.27237 5.76391
#
# Compressibility (1/GPa) = 0.02191189
#
# Stress axis : x y z
#
# Youngs Moduli (GPa) = 66.85503 61.81327 19.54351
#
# Poissons Ratio (x) = -0.19993 0.26483
# Poissons Ratio (y) = -0.21624 0.38852
# Poissons Ratio (z) = 0.90593 1.22882
#
# Static dielectric constant tensor:
#      x y z
#    x 1.752740 0.000000 0.000000 
#    y 0.000000 1.705870 0.000000 
#    z 0.000000 0.000000 1.697580 
# 
# From -- ./inp_files/9926.got.cif
#   From: 2010.05.17/outbox.cif.g08.bks.cpg/sg35_5_cif.got.tgz:9926.got - 2010.06.03 17:29:28.
