data_PCOD9350203
_publ_section_title
;
Structure prediction by ZEFSAII (Michael W. Deem and Ramdas Pophale) SiO2 
 PCOD9350203
Probable space group: C M M 2
;
_chemical_formula_sum "Si O2"
_cell_formula_units_Z 28
_cell_length_a 30.000000
_cell_length_b 15.000000
_cell_length_c 6.000000
_cell_angle_alpha 90.000000
_cell_angle_beta 90.000000
_cell_angle_gamma 90.000000
_cell_volume 2700.000000
_symmetry_space_group_name_H-M "C M M 2"
_symmetry_group_IT_number 35
_symmetry_cell_setting 'orthorhombic'
loop_
_space_group_symop_operation_xyz
x,y,z
-x,-y,z
-x,y,z
x,-y,z
1/2+x,1/2+y,z
1/2-x,1/2-y,z
1/2-x,1/2+y,z
1/2+x,1/2-y,z
loop_
_atom_site_type_symbol
_atom_site_label
_atom_site_fract_x
_atom_site_fract_y
_atom_site_fract_z
Si Si1 0.091514 0.892964 0.497330
Si Si2 0.320630 0.760961 0.851803
Si Si3 0.637243 0.100661 0.505043
Si Si4 0.801365 0.103838 0.532739
Si Si5 0.412880 0.703386 0.005964
Si Si6 0.446684 0.893535 0.176150
Si Si7 0.777019 0.601888 0.177368
O O1 0.145602 0.890938 0.481646
O O2 0.079495 0.845580 0.750258
O O3 0.078780 0.000000 0.505073
O O4 0.076481 0.847829 0.250973
O O5 0.348962 0.824639 0.682883
O O6 0.296645 0.681525 0.716607
O O7 0.359417 0.717655 0.004207
O O8 0.288393 0.825205 0.991526
O O9 0.590097 0.115382 0.376256
O O10 0.678427 0.101878 0.330979
O O11 0.635705 0.000000 0.603015
O O12 0.766602 0.121162 0.330213
O O13 0.792763 0.000000 0.603144
O O14 0.435065 0.804040 0.025928
O O15 0.500000 0.887318 0.231776
O O16 0.440581 0.000000 0.097655
O O17 0.771974 0.500000 0.090209
#
# Coordination Sequence:
#
# PCOD9350203 Si02
#       7
#     8   8   8   8   8   8   8
#     4  10  22  44  71  98 133 180 232 291 351 417
#     4  11  22  39  67  93 128 179 237 290 353 420
#     4  10  21  40  63  92 133 180 233 285 351 428
#     4   9  21  41  60  89 128 169 224 283 343 407
#     4  11  22  41  69 100 137 180 234 284 349 424
#     4  10  21  40  69 106 147 187 231 290 357 432
#     4  10  21  41  63  88 128 176 225 287 349 411
#
# _framework density 10.370369999999999
#
# number of rings (size 3 to 8) (size 9 to 14) (size 15 to 20)
#    0.000    1.857    1.429    2.571    0.000    1.714 
#    7.714    3.571    0.000   11.143    0.000    0.000 
#    0.000    0.000    0.000    0.000    0.000    0.000 
#
# Total GULP energy -156081.103949 kJ/mol
# GULP energy per Si atom -5574.325141 kJ/mol
# Density = 1.034677 g / cm^3
# Si number density = 10.370370 Si / 1000 Ang^3
#
#
#
# Elastic Constant Matrix: (Units=GPa)
#
#
# Indices 1 2 3 4 5 6 
#
# 1 81.1744 21.1940 22.7705 0.0000 0.0000 0.0000
# 2 21.1940 180.6307 78.9507 0.0000 0.0000 0.0000
# 3 22.7705 78.9507 115.6328 0.0000 0.0000 0.0000
# 4 0.0000 0.0000 0.0000 48.7726 0.0000 0.0000
# 5 0.0000 0.0000 0.0000 0.0000 29.9840 0.0000
# 6 0.0000 0.0000 0.0000 0.0000 0.0000 37.4472
#
#
#
# Elastic Compliance Matrix: (Units=1/GPa)
#
#
# Indices 1 2 3 4 5 6 
#
# 1 0.013082 -0.000583 -0.002178 0.000000 0.000000 0.000000
# 2 -0.000583 0.007917 -0.005291 0.000000 0.000000 0.000000
# 3 -0.002178 -0.005291 0.012689 0.000000 0.000000 0.000000
# 4 0.000000 0.000000 0.000000 0.020503 0.000000 0.000000
# 5 0.000000 0.000000 0.000000 0.000000 0.033351 0.000000
# 6 0.000000 0.000000 0.000000 0.000000 0.000000 0.026704
#
#
# Mechanical properties :
#
#
# Convention : Reuss Voigt Hill
#
# Bulk Modulus (GPa) = 56.86648 69.25204 63.05926
# Shear Modulus (GPa) = 36.70726 40.20895 38.45810
#
# Velocity S-wave (km/s) = 4.21148 4.40778 4.31075
# Velocity P-wave (km/s) = 7.15025 7.70497 7.43279
#
# Compressibility (1/GPa) = 0.01758505
#
# Stress axis : x y z
#
# Youngs Moduli (GPa) = 76.43874 126.30960 78.80617
#
# Poissons Ratio (x) = 0.07363 0.17165
# Poissons Ratio (y) = 0.04456 0.41694
# Poissons Ratio (z) = 0.16650 0.66827
#
# Static dielectric constant tensor:
#      x y z
#    x 1.733790 0.000000 0.000000 
#    y 0.000000 1.804190 0.000000 
#    z 0.000000 0.000000 1.818070 
# 
# From -- ./inp_files/4016.got.cif
#   From: 2010.05.17/outbox.ucp.g08.bks.cvg/sg35_3_cif.got.tgz:4016.got - 2010.06.11 10:36:28.
