data_PCOD9350157
_publ_section_title
;
Structure prediction by ZEFSAII (Michael W. Deem and Ramdas Pophale) SiO2 
 PCOD9350157
Probable space group: C M M 2
;
_chemical_formula_sum "Si O2"
_cell_formula_units_Z 32
_cell_length_a 9.000000
_cell_length_b 30.000000
_cell_length_c 12.000000
_cell_angle_alpha 90.000000
_cell_angle_beta 90.000000
_cell_angle_gamma 90.000000
_cell_volume 3240.000000
_symmetry_space_group_name_H-M "C M M 2"
_symmetry_group_IT_number 35
_symmetry_cell_setting 'orthorhombic'
loop_
_space_group_symop_operation_xyz
x,y,z
-x,-y,z
-x,y,z
x,-y,z
1/2+x,1/2+y,z
1/2-x,1/2-y,z
1/2-x,1/2+y,z
1/2+x,1/2-y,z
loop_
_atom_site_type_symbol
_atom_site_label
_atom_site_fract_x
_atom_site_fract_y
_atom_site_fract_z
Si Si1 0.181431 0.048424 0.045820
Si Si2 0.172336 0.933584 0.798713
Si Si3 0.177870 0.635623 0.485524
Si Si4 0.327045 0.793962 0.660966
Si Si5 0.836198 0.170208 0.850646
Si Si6 0.827084 0.146114 0.107516
Si Si7 0.821640 0.951228 0.551995
Si Si8 0.324230 0.202479 0.290669
O O1 0.225726 0.094465 0.104896
O O2 0.000000 0.050732 0.041750
O O3 0.222152 0.000000 0.093585
O O4 0.235255 0.050321 0.916946
O O5 0.172772 0.880363 0.806889
O O6 0.236128 0.947768 0.680049
O O7 0.000000 0.948432 0.797904
O O8 0.224808 0.662158 0.596227
O O9 0.253927 0.588260 0.481653
O O10 0.220752 0.668336 0.386944
O O11 0.000000 0.630085 0.486274
O O12 0.500000 0.789778 0.643119
O O13 0.250000 0.750000 0.616269
O O14 0.286000 0.800999 0.789302
O O15 0.000000 0.188259 0.821394
O O16 0.824091 0.164497 0.981901
O O17 0.727428 0.178252 0.179413
O O18 0.000000 0.147034 0.144738
O O19 0.000000 0.946219 0.556119
O O20 0.786345 0.000000 0.507841
O O21 0.500000 0.208094 0.294480
O O22 0.250000 0.250000 0.303700
#
# Coordination Sequence:
#
# PCOD9350157 Si02
#       8
#     8   8   8   8   8   8   8   8
#     4   8  13  24  47  80 116 151 185 222 265 315
#     4   8  13  24  45  76 113 149 183 220 262 310
#     4  10  23  41  58  80 111 147 186 230 283 339
#     4  11  22  35  54  80 109 143 183 227 280 341
#     4   9  17  32  53  79 114 152 182 219 274 331
#     4   9  19  35  57  86 116 146 185 230 278 330
#     4  10  19  31  54  87 117 149 190 231 271 320
#     4  11  24  43  65  84 104 138 187 239 291 340
#
# _framework density 9.8765429999999999
#
# number of rings (size 3 to 8) (size 9 to 14) (size 15 to 20)
#    0.000    2.500    1.250    3.000    0.000    4.250 
#    0.000    0.625    0.000    2.625    0.000    0.000 
#    0.000    0.000    0.000    0.000    0.000    0.000 
#
# Total GULP energy -178296.186148 kJ/mol
# GULP energy per Si atom -5571.755817 kJ/mol
# Density = 0.985406 g / cm^3
# Si number density = 9.876543 Si / 1000 Ang^3
#
#
#
# Elastic Constant Matrix: (Units=GPa)
#
#
# Indices 1 2 3 4 5 6 
#
# 1 11.6392 44.2828 24.9687 0.0000 0.0000 0.0000
# 2 44.2828 149.0753 50.9683 0.0000 0.0000 0.0000
# 3 24.9687 50.9683 42.6024 0.0000 0.0000 0.0000
# 4 0.0000 0.0000 0.0000 20.8396 0.0000 0.0000
# 5 0.0000 0.0000 0.0000 0.0000 16.9829 0.0000
# 6 0.0000 0.0000 0.0000 0.0000 0.0000 -61.7917
#
#
#
# Elastic Compliance Matrix: (Units=1/GPa)
#
#
# Indices 1 2 3 4 5 6 
#
# 1 -0.186846 0.030564 0.072942 0.000000 0.000000 0.000000
# 2 0.030564 0.006351 -0.025512 0.000000 0.000000 0.000000
# 3 0.072942 -0.025512 0.011244 0.000000 0.000000 0.000000
# 4 0.000000 0.000000 0.000000 0.047985 0.000000 0.000000
# 5 0.000000 0.000000 0.000000 0.000000 0.058883 0.000000
# 6 0.000000 0.000000 0.000000 0.000000 0.000000 -0.016183
#
#
# Mechanical properties :
#
#
# Convention : Reuss Voigt Hill
#
# Bulk Modulus (GPa) = -75.40376 49.30627 -13.04874
# Shear Modulus (GPa) = -20.92258 0.74598 -10.08830
#
# Velocity S-wave (km/s) = -3.25807 0.61520 -2.26236
# Velocity P-wave (km/s) = 7.23944 5.05174 3.66670
#
# Compressibility (1/GPa) = -0.01326194
#
# Stress axis : x y z
#
# Youngs Moduli (GPa) = -5.35199 157.44722 88.93748
#
# Poissons Ratio (x) = -4.81222 -6.48731
# Poissons Ratio (y) = 0.16358 2.26895
# Poissons Ratio (z) = 0.39039 4.01675
#
# Static dielectric constant tensor:
#      x y z
#    x 1.667530 0.000000 0.000000 
#    y 0.000000 1.702900 0.000000 
#    z 0.000000 0.000000 1.762980 
# 
# From -- ./inp_files/12011.got.cif
#   From: 2010.05.17/outbox.ucp.g08.bks.cvg/sg35_7_cif.got.tgz:12011.got - 2010.06.11 10:36:28.
