data_PCOD9350245
_publ_section_title
;
Structure prediction by ZEFSAII (Michael W. Deem and Ramdas Pophale) SiO2 
 PCOD9350245
Probable space group: C M M 2
;
_chemical_formula_sum "Si O2"
_cell_formula_units_Z 56
_cell_length_a 8.719444
_cell_length_b 19.057742
_cell_length_c 19.132236
_cell_angle_alpha 90.000000
_cell_angle_beta 90.000000
_cell_angle_gamma 90.000000
_cell_volume 3179.259410
_symmetry_space_group_name_H-M "C M M 2"
_symmetry_group_IT_number 35
_symmetry_cell_setting 'orthorhombic'
loop_
_space_group_symop_operation_xyz
x,y,z
-x,-y,z
-x,y,z
x,-y,z
1/2+x,1/2+y,z
1/2-x,1/2-y,z
1/2-x,1/2+y,z
1/2+x,1/2-y,z
loop_
_atom_site_type_symbol
_atom_site_label
_atom_site_fract_x
_atom_site_fract_y
_atom_site_fract_z
Si Si1 0.183342 0.670319 0.760960
Si Si2 0.314421 0.081834 0.338121
Si Si3 0.183413 0.171476 0.464465
Si Si4 0.178584 0.585265 0.184637
Si Si5 0.684983 0.328722 0.905475
Si Si6 0.315846 0.580619 0.038964
Si Si7 0.683814 0.670768 0.618979
O O1 0.250000 0.750000 0.760615
O O2 0.249064 0.639889 0.833115
O O3 0.242709 0.637400 0.688326
O O4 0.000000 0.672640 0.762133
O O5 0.500000 0.085017 0.338284
O O6 0.249042 0.125777 0.401769
O O7 0.262991 0.108055 0.261038
O O8 0.270921 0.000000 0.345221
O O9 0.250000 0.250000 0.459997
O O10 0.220744 0.141194 0.542032
O O11 0.000000 0.175354 0.459794
O O12 0.187400 0.500000 0.186429
O O13 0.262397 0.608447 0.114369
O O14 0.000000 0.604222 0.178898
O O15 0.500000 0.326195 0.901171
O O16 0.750000 0.250000 0.912451
O O17 0.732891 0.373285 0.973015
O O18 0.500000 0.579357 0.038840
O O19 0.260965 0.500000 0.031760
O O20 0.500000 0.673445 0.627250
O O21 0.750000 0.750000 0.616132
#
# Coordination Sequence:
#
# PCOD9350245 Si02
#       7
#     8   8   8   8   8   8   8
#     4  10  17  26  43  66  91 120 155 191 228 272
#     4   9  18  33  52  73  98 128 161 198 241 287
#     4  10  20  32  49  73 100 129 161 199 242 287
#     4   8  15  29  49  71  93 120 155 193 232 276
#     4  10  19  31  47  68  96 124 152 189 232 277
#     4   9  18  32  50  71  93 120 155 193 232 274
#     4   9  16  27  43  65  92 121 155 193 232 274
#
# _framework density 17.614163999999999
#
# number of rings (size 3 to 8) (size 9 to 14) (size 15 to 20)
#    0.000    2.714    0.000    5.143    0.000    3.714 
#    0.000    2.143    0.000    2.571    0.000    2.000 
#    0.000    0.000    0.000    0.000    0.000    0.000 
#
# Total GULP energy -155940.470504 kJ/mol
# GULP energy per Si atom -5569.302518 kJ/mol
# Density = 1.757407 g / cm^3
# Si number density = 17.614164 Si / 1000 Ang^3
#
#
#
# Elastic Constant Matrix: (Units=GPa)
#
#
# Indices 1 2 3 4 5 6 
#
# 1 59.6810 17.2362 57.4388 0.0000 0.0000 0.0000
# 2 17.2362 28.9716 55.4794 0.0000 0.0000 0.0000
# 3 57.4388 55.4794 227.2686 0.0000 0.0000 0.0000
# 4 0.0000 0.0000 0.0000 53.9668 0.0000 0.0000
# 5 0.0000 0.0000 0.0000 0.0000 31.1100 0.0000
# 6 0.0000 0.0000 0.0000 0.0000 0.0000 15.7009
#
#
#
# Elastic Compliance Matrix: (Units=1/GPa)
#
#
# Indices 1 2 3 4 5 6 
#
# 1 0.022475 -0.004683 -0.004537 0.000000 0.000000 0.000000
# 2 -0.004683 0.065792 -0.014877 0.000000 0.000000 0.000000
# 3 -0.004537 -0.014877 0.009178 0.000000 0.000000 0.000000
# 4 0.000000 0.000000 0.000000 0.018530 0.000000 0.000000
# 5 0.000000 0.000000 0.000000 0.000000 0.032144 0.000000
# 6 0.000000 0.000000 0.000000 0.000000 0.000000 0.063691
#
#
# Mechanical properties :
#
#
# Convention : Reuss Voigt Hill
#
# Bulk Modulus (GPa) = 20.30414 64.02556 42.16485
# Shear Modulus (GPa) = 18.08839 32.54000 25.31419
#
# Velocity S-wave (km/s) = 3.20804 4.30277 3.79509
# Velocity P-wave (km/s) = 5.02735 7.81748 6.57218
#
# Compressibility (1/GPa) = 0.04925104
#
# Stress axis : x y z
#
# Youngs Moduli (GPa) = 44.49444 15.19948 108.95046
#
# Poissons Ratio (x) = 0.07117 0.49431
# Poissons Ratio (y) = 0.20835 1.62088
# Poissons Ratio (z) = 0.20187 0.22613
#
# Static dielectric constant tensor:
#      x y z
#    x 1.593520 0.000000 0.000000 
#    y 0.000000 1.582530 0.000000 
#    z 0.000000 0.000000 1.660920 
# 
# From -- ./inp_files/18237.got.cif
#   From: 2010.05.17/outbox.cif.g08.bks.cpg/sg35_10_cif.got.tgz:18237.got - 2010.06.03 17:29:28.
