data_PCOD9350972
_publ_section_title
;
Structure prediction by ZEFSAII (Michael W. Deem and Ramdas Pophale) SiO2 
 PCOD9350972
Probable space group: C M C 21
;
_chemical_formula_sum "Si O2"
_cell_formula_units_Z 64
_cell_length_a 8.555956
_cell_length_b 20.766747
_cell_length_c 20.457346
_cell_angle_alpha 90.000000
_cell_angle_beta 90.000000
_cell_angle_gamma 90.000000
_cell_volume 3634.848423
_symmetry_space_group_name_H-M "C M C 21"
_symmetry_group_IT_number 36
_symmetry_cell_setting 'orthorhombic'
loop_
_space_group_symop_operation_xyz
x,y,z
-x,-y,1/2+z
x,-y,1/2+z
-x,y,z
1/2+x,1/2+y,z
1/2-x,1/2-y,1/2+z
1/2+x,1/2-y,1/2+z
1/2-x,1/2+y,z
loop_
_atom_site_type_symbol
_atom_site_label
_atom_site_fract_x
_atom_site_fract_y
_atom_site_fract_z
Si Si1 0.187356 0.226701 0.122330
Si Si2 0.310901 0.447131 0.462782
Si Si3 0.188053 0.273206 0.978428
Si Si4 0.190802 0.168568 0.872802
Si Si5 0.689252 0.668323 0.723638
Si Si6 0.312314 0.412437 0.992757
Si Si7 0.811894 0.046731 0.640347
Si Si8 0.685523 0.912092 0.606109
O O1 0.248546 0.276185 0.176263
O O2 0.245685 0.154222 0.133331
O O3 0.000000 0.227299 0.122157
O O4 0.242708 0.249370 0.050013
O O5 0.500000 0.445828 0.466935
O O6 0.262049 0.399186 0.405431
O O7 0.263810 0.521779 0.456412
O O8 0.249031 0.421397 0.532154
O O9 0.243045 0.225271 0.921485
O O10 0.000000 0.270319 0.979207
O O11 0.239397 0.346457 0.968441
O O12 0.242487 0.175965 0.798292
O O13 0.000000 0.169363 0.872192
O O14 0.500000 0.670636 0.722117
O O15 0.735592 0.598843 0.694207
O O16 0.500000 0.407073 0.989346
O O17 0.270136 0.424148 0.069004
O O18 0.000000 0.039766 0.641436
O O19 0.738811 0.976092 0.644459
O O20 0.500000 0.908512 0.604761
#
# Coordination Sequence:
#
# PCOD9350972 Si02
#       8
#     8   8   8   8   8   8   8   8
#     4  11  21  35  55  79 111 147 181 225 275 324
#     4   9  17  34  54  76 106 141 177 217 270 324
#     4  10  19  32  53  78 106 142 178 217 267 322
#     4   9  18  35  57  78 105 145 185 219 268 330
#     4  10  20  36  58  81 108 145 186 225 270 328
#     4   9  17  29  50  77 106 135 172 223 264 305
#     4   9  18  33  52  77 108 140 174 220 272 322
#     4  11  21  32  53  82 108 137 179 228 270 317
#
# _framework density 17.607336
#
# number of rings (size 3 to 8) (size 9 to 14) (size 15 to 20)
#    0.000    2.250    2.500    2.250    0.000    3.000 
#    0.000    2.500    0.000    1.500    0.000    0.000 
#    0.000    0.000    0.000    0.000    0.000    0.000 
#
# Total GULP energy -178515.450645 kJ/mol
# GULP energy per Si atom -5578.607833 kJ/mol
# Density = 1.756726 g / cm^3
# Si number density = 17.607336 Si / 1000 Ang^3
#
#
#
# Elastic Constant Matrix: (Units=GPa)
#
#
# Indices 1 2 3 4 5 6 
#
# 1 16.0721 30.1078 25.9783 0.0000 0.0000 0.0000
# 2 30.1078 178.2222 96.2325 0.0000 0.0000 0.0000
# 3 25.9783 96.2325 130.1907 0.0000 0.0000 0.0000
# 4 0.0000 0.0000 0.0000 25.3072 0.0000 0.0000
# 5 0.0000 0.0000 0.0000 0.0000 15.3455 0.0000
# 6 0.0000 0.0000 0.0000 0.0000 0.0000 27.8386
#
#
#
# Elastic Compliance Matrix: (Units=1/GPa)
#
#
# Indices 1 2 3 4 5 6 
#
# 1 0.102273 -0.010415 -0.012709 0.000000 0.000000 0.000000
# 2 -0.010415 0.010398 -0.005608 0.000000 0.000000 0.000000
# 3 -0.012709 -0.005608 0.014362 0.000000 0.000000 0.000000
# 4 0.000000 0.000000 0.000000 0.039514 0.000000 0.000000
# 5 0.000000 0.000000 0.000000 0.000000 0.065166 0.000000
# 6 0.000000 0.000000 0.000000 0.000000 0.000000 0.035921
#
#
# Mechanical properties :
#
#
# Convention : Reuss Voigt Hill
#
# Bulk Modulus (GPa) = 14.37417 69.90245 42.13831
# Shear Modulus (GPa) = 14.35590 25.17602 19.76596
#
# Velocity S-wave (km/s) = 2.85851 3.78545 3.35415
# Velocity P-wave (km/s) = 4.36763 7.67419 6.24377
#
# Compressibility (1/GPa) = 0.06956923
#
# Stress axis : x y z
#
# Youngs Moduli (GPa) = 9.77778 96.16778 69.62675
#
# Poissons Ratio (x) = 1.00158 0.88490
# Poissons Ratio (y) = 0.10183 0.39047
# Poissons Ratio (z) = 0.12427 0.53931
#
# Static dielectric constant tensor:
#      x y z
#    x 1.602260 0.000000 0.000000 
#    y 0.000000 1.598480 0.000000 
#    z 0.000000 0.000000 1.586020 
# 
# From -- ./inp_files/13914.got.cif
#   From: 2010.05.17/outbox.cif.g08.bks.cpg/sg36_7_cif.got.tgz:13914.got - 2010.06.03 17:41:39.
