data_PCOD9350633
_publ_section_title
;
Structure prediction by ZEFSAII (Michael W. Deem and Ramdas Pophale) SiO2 
 PCOD9350633
Probable space group: C M C 21
;
_chemical_formula_sum "Si O2"
_cell_formula_units_Z 64
_cell_length_a 8.562552
_cell_length_b 23.122439
_cell_length_c 17.021491
_cell_angle_alpha 90.000000
_cell_angle_beta 90.000000
_cell_angle_gamma 90.000000
_cell_volume 3370.035408
_symmetry_space_group_name_H-M "C M C 21"
_symmetry_group_IT_number 36
_symmetry_cell_setting 'orthorhombic'
loop_
_space_group_symop_operation_xyz
x,y,z
-x,-y,1/2+z
x,-y,1/2+z
-x,y,z
1/2+x,1/2+y,z
1/2-x,1/2-y,1/2+z
1/2+x,1/2-y,1/2+z
1/2-x,1/2+y,z
loop_
_atom_site_type_symbol
_atom_site_label
_atom_site_fract_x
_atom_site_fract_y
_atom_site_fract_z
Si Si1 0.185941 0.355247 0.245190
Si Si2 0.819089 0.102461 0.511371
Si Si3 0.686512 0.657306 0.070322
Si Si4 0.815825 0.025452 0.363198
Si Si5 0.680650 0.425411 0.701411
Si Si6 0.315868 0.282607 0.100337
Si Si7 0.322882 0.032052 0.643221
Si Si8 0.187393 0.400103 0.410848
O O1 0.264385 0.311157 0.183691
O O2 0.208681 0.419606 0.209287
O O3 0.239225 0.360958 0.335537
O O4 0.000000 0.343517 0.243915
O O5 0.805907 0.078177 0.424378
O O6 0.788620 0.168820 0.533170
O O7 0.700048 0.065650 0.562718
O O8 0.000000 0.091727 0.537028
O O9 0.500000 0.649374 0.068302
O O10 0.747833 0.626679 0.150334
O O11 0.727728 0.724416 0.077738
O O12 0.753703 0.626580 0.992613
O O13 0.746970 0.050373 0.281951
O O14 0.000000 0.011979 0.351016
O O15 0.741664 0.966229 0.395497
O O16 0.500000 0.411685 0.718661
O O17 0.699522 0.480915 0.645816
O O18 0.500000 0.270715 0.103667
O O19 0.500000 0.010424 0.651463
O O20 0.000000 0.399935 0.410944
#
# Coordination Sequence:
#
# PCOD9350633 Si02
#       8
#     8   8   8   8   8   8   8   8
#     4   9  19  36  58  84 114 149 187 233 288 345
#     4   9  19  35  56  82 110 144 186 232 282 343
#     4  11  24  41  58  82 118 159 201 242 291 347
#     4  10  20  36  58  85 116 148 187 232 287 351
#     4  10  21  36  55  79 113 154 189 228 283 347
#     4  10  21  39  61  84 112 149 198 244 288 345
#     4  10  18  31  54  83 113 144 180 226 284 338
#     4  11  22  38  60  89 120 151 192 241 295 348
#
# _framework density 18.990898000000001
#
# number of rings (size 3 to 8) (size 9 to 14) (size 15 to 20)
#    0.000    2.000    1.250    2.250    0.000    6.500 
#    2.250    0.000    0.000    0.000    0.000    0.000 
#    0.000    0.000    0.000    0.000    0.000    0.000 
#
# Total GULP energy -178384.570269 kJ/mol
# GULP energy per Si atom -5574.517821 kJ/mol
# Density = 1.894767 g / cm^3
# Si number density = 18.990898 Si / 1000 Ang^3
#
#
#
# Elastic Constant Matrix: (Units=GPa)
#
#
# Indices 1 2 3 4 5 6 
#
# 1 31.5786 22.3410 28.7057 0.0000 0.0000 0.0000
# 2 22.3410 94.3192 65.7233 0.0000 0.0000 0.0000
# 3 28.7057 65.7233 83.3408 0.0000 0.0000 0.0000
# 4 0.0000 0.0000 0.0000 20.5835 0.0000 0.0000
# 5 0.0000 0.0000 0.0000 0.0000 23.3689 0.0000
# 6 0.0000 0.0000 0.0000 0.0000 0.0000 25.7758
#
#
#
# Elastic Compliance Matrix: (Units=1/GPa)
#
#
# Indices 1 2 3 4 5 6 
#
# 1 0.046106 0.000322 -0.016134 0.000000 0.000000 0.000000
# 2 0.000322 0.023538 -0.018673 0.000000 0.000000 0.000000
# 3 -0.016134 -0.018673 0.032282 0.000000 0.000000 0.000000
# 4 0.000000 0.000000 0.000000 0.048583 0.000000 0.000000
# 5 0.000000 0.000000 0.000000 0.000000 0.042792 0.000000
# 6 0.000000 0.000000 0.000000 0.000000 0.000000 0.038796
#
#
# Mechanical properties :
#
#
# Convention : Reuss Voigt Hill
#
# Bulk Modulus (GPa) = 30.34488 49.19764 39.77126
# Shear Modulus (GPa) = 16.02299 20.11021 18.06660
#
# Velocity S-wave (km/s) = 2.90784 3.25767 3.08771
# Velocity P-wave (km/s) = 5.22373 6.33340 5.80514
#
# Compressibility (1/GPa) = 0.03295449
#
# Stress axis : x y z
#
# Youngs Moduli (GPa) = 21.68919 42.48513 30.97718
#
# Poissons Ratio (x) = -0.01367 0.49980
# Poissons Ratio (y) = -0.00698 0.57843
# Poissons Ratio (z) = 0.34994 0.79332
#
# Static dielectric constant tensor:
#      x y z
#    x 1.665450 0.000000 0.000000 
#    y 0.000000 1.648520 0.000000 
#    z 0.000000 0.000000 1.708680 
# 
# From -- ./inp_files/10885.got.cif
#   From: 2010.05.17/outbox.cif.g08.bks.cpg/sg36_6_cif.got.tgz:10885.got - 2010.06.03 17:41:39.
