data_PCOD9350635
_publ_section_title
;
Structure prediction by ZEFSAII (Michael W. Deem and Ramdas Pophale) SiO2 
 PCOD9350635
Probable space group: C M C 21
;
_chemical_formula_sum "Si O2"
_cell_formula_units_Z 64
_cell_length_a 7.731655
_cell_length_b 21.845873
_cell_length_c 14.435785
_cell_angle_alpha 90.000000
_cell_angle_beta 90.000000
_cell_angle_gamma 90.000000
_cell_volume 2438.272703
_symmetry_space_group_name_H-M "C M C 21"
_symmetry_group_IT_number 36
_symmetry_cell_setting 'orthorhombic'
loop_
_space_group_symop_operation_xyz
x,y,z
-x,-y,1/2+z
x,-y,1/2+z
-x,y,z
1/2+x,1/2+y,z
1/2-x,1/2-y,1/2+z
1/2+x,1/2-y,1/2+z
1/2-x,1/2+y,z
loop_
_atom_site_type_symbol
_atom_site_label
_atom_site_fract_x
_atom_site_fract_y
_atom_site_fract_z
Si Si1 0.294341 0.474458 0.605310
Si Si2 0.197268 0.398649 0.435763
Si Si3 0.210275 0.666969 0.761458
Si Si4 0.705748 0.854882 0.819808
Si Si5 0.208330 0.786461 0.649613
Si Si6 0.198078 0.726603 0.473253
Si Si7 0.796857 0.106208 0.578986
Si Si8 0.702998 0.512930 0.314075
O O1 0.500000 0.480284 0.616680
O O2 0.271001 0.418489 0.534752
O O3 0.233427 0.537884 0.558045
O O4 0.224353 0.476912 0.709941
O O5 0.272626 0.347509 0.365499
O O6 0.207224 0.460202 0.372597
O O7 0.000000 0.382784 0.452034
O O8 0.270589 0.729029 0.711918
O O9 0.273829 0.615423 0.689718
O O10 0.000000 0.666514 0.762468
O O11 0.500000 0.856137 0.832306
O O12 0.744776 0.843859 0.712035
O O13 0.781372 0.918585 0.854570
O O14 0.781233 0.797579 0.878628
O O15 0.275815 0.775165 0.545665
O O16 0.000000 0.783996 0.643635
O O17 0.199119 0.662605 0.531911
O O18 0.000000 0.744031 0.455355
O O19 0.000000 0.112299 0.556672
O O20 0.500000 0.496793 0.312994
#
# Coordination Sequence:
#
# PCOD9350635 Si02
#       8
#     8   8   8   8   8   8   8   8
#     4  10  22  37  54  82 119 159 197 234 287 355
#     4  11  22  36  59  89 120 155 195 242 294 349
#     4   9  19  36  57  81 112 147 185 232 291 345
#     4  11  23  40  61  89 118 151 198 249 297 348
#     4   9  19  39  62  82 112 153 191 235 292 354
#     4   9  20  38  59  84 116 152 193 238 295 353
#     4  10  18  31  55  84 111 144 192 240 278 329
#     4  11  23  41  61  85 122 163 199 240 294 357
#
# _framework density 26.248089
#
# number of rings (size 3 to 8) (size 9 to 14) (size 15 to 20)
#    0.000    2.000    1.250    3.000    0.000    7.500 
#    2.250    0.000    0.000    0.000    0.000    0.000 
#    0.000    0.000    0.000    0.000    0.000    0.000 
#
# Total GULP energy -178986.881523 kJ/mol
# GULP energy per Si atom -5593.340048 kJ/mol
# Density = 2.618835 g / cm^3
# Si number density = 26.248089 Si / 1000 Ang^3
#
#
#
# Elastic Constant Matrix: (Units=GPa)
#
#
# Indices 1 2 3 4 5 6 
#
# 1 73.9981 9.0516 8.1031 0.0000 0.0000 0.0000
# 2 9.0516 83.5965 18.7402 0.0000 0.0000 0.0000
# 3 8.1031 18.7402 154.3882 0.0000 0.0000 0.0000
# 4 0.0000 0.0000 0.0000 55.0904 0.0000 0.0000
# 5 0.0000 0.0000 0.0000 0.0000 26.4427 0.0000
# 6 0.0000 0.0000 0.0000 0.0000 0.0000 22.7075
#
#
#
# Elastic Compliance Matrix: (Units=1/GPa)
#
#
# Indices 1 2 3 4 5 6 
#
# 1 0.013741 -0.001363 -0.000556 0.000000 0.000000 0.000000
# 2 -0.001363 0.012432 -0.001437 0.000000 0.000000 0.000000
# 3 -0.000556 -0.001437 0.006681 0.000000 0.000000 0.000000
# 4 0.000000 0.000000 0.000000 0.018152 0.000000 0.000000
# 5 0.000000 0.000000 0.000000 0.000000 0.037818 0.000000
# 6 0.000000 0.000000 0.000000 0.000000 0.000000 0.044038
#
#
# Mechanical properties :
#
#
# Convention : Reuss Voigt Hill
#
# Bulk Modulus (GPa) = 38.25364 42.64141 40.44753
# Shear Modulus (GPa) = 33.71788 39.25397 36.48592
#
# Velocity S-wave (km/s) = 3.58800 3.87136 3.73237
# Velocity P-wave (km/s) = 5.63653 6.02196 5.83243
#
# Compressibility (1/GPa) = 0.02614130
#
# Stress axis : x y z
#
# Youngs Moduli (GPa) = 72.77241 80.43702 149.68190
#
# Poissons Ratio (x) = 0.10966 0.08318
# Poissons Ratio (y) = 0.09921 0.21517
# Poissons Ratio (z) = 0.04044 0.11563
#
# Static dielectric constant tensor:
#      x y z
#    x 1.947560 0.000000 0.000000 
#    y 0.000000 2.095590 0.000000 
#    z 0.000000 0.000000 2.146710 
# 
# From -- ./inp_files/10987.got.cif
#   From: 2010.05.17/outbox.cif.g08.bks.cpg/sg36_6_cif.got.tgz:10987.got - 2010.06.03 17:41:39.
