data_PCOD9350860
_publ_section_title
;
Structure prediction by ZEFSAII (Michael W. Deem and Ramdas Pophale) SiO2 
 PCOD9350860
Probable space group: C M C 21
;
_chemical_formula_sum "Si O2"
_cell_formula_units_Z 64
_cell_length_a 7.782573
_cell_length_b 15.258660
_cell_length_c 21.622569
_cell_angle_alpha 90.000000
_cell_angle_beta 90.000000
_cell_angle_gamma 90.000000
_cell_volume 2567.715429
_symmetry_space_group_name_H-M "C M C 21"
_symmetry_group_IT_number 36
_symmetry_cell_setting 'orthorhombic'
loop_
_space_group_symop_operation_xyz
x,y,z
-x,-y,1/2+z
x,-y,1/2+z
-x,y,z
1/2+x,1/2+y,z
1/2-x,1/2-y,1/2+z
1/2+x,1/2-y,1/2+z
1/2-x,1/2+y,z
loop_
_atom_site_type_symbol
_atom_site_label
_atom_site_fract_x
_atom_site_fract_y
_atom_site_fract_z
Si Si1 0.203184 0.687210 0.967610
Si Si2 0.204044 0.739488 0.092678
Si Si3 0.204076 0.940639 0.042265
Si Si4 0.291470 0.376875 0.915481
Si Si5 0.691060 0.637935 0.842208
Si Si6 0.709374 0.695986 0.717289
Si Si7 0.692262 0.962364 0.793697
Si Si8 0.294454 0.501955 0.167869
O O1 0.255686 0.780109 0.938038
O O2 0.234103 0.624630 0.910105
O O3 0.000000 0.691307 0.977128
O O4 0.278682 0.681061 0.036677
O O5 0.217470 0.839568 0.066318
O O6 0.277011 0.742409 0.162065
O O7 0.000000 0.721542 0.100052
O O8 0.275345 0.001063 0.097639
O O9 0.000000 0.958636 0.038401
O O10 0.269890 0.939738 0.971980
O O11 0.500000 0.382657 0.912601
O O12 0.218311 0.393517 0.847935
O O13 0.500000 0.671502 0.851962
O O14 0.775569 0.697154 0.787951
O O15 0.685156 0.542015 0.812054
O O16 0.500000 0.705046 0.720805
O O17 0.741446 0.597281 0.691956
O O18 0.500000 0.997675 0.798213
O O19 0.722067 0.937469 0.722459
O O20 0.500000 0.512934 0.165797
#
# Coordination Sequence:
#
# PCOD9350860 Si02
#       8
#     8   8   8   8   8   8   8   8
#     4   9  17  29  48  72  95 118 146 185 230 277
#     4   7  10  20  40  65  88 109 140 181 222 264
#     4   7  11  22  44  69  88 111 148 190 228 273
#     4   9  17  31  50  71  95 124 156 189 231 280
#     4  10  19  31  48  68  93 124 156 191 230 273
#     4   7  11  21  40  64  85 110 146 183 218 261
#     4  11  21  31  45  68  97 126 158 194 230 271
#     4   8  13  25  45  67  89 114 148 189 233 277
#
# _framework density 24.924880000000002
#
# number of rings (size 3 to 8) (size 9 to 14) (size 15 to 20)
#    0.000    3.500    0.000    5.250    0.000    0.500 
#    0.000    0.625    0.000   12.000    0.000    3.500 
#    0.000    0.000    0.000    0.000    0.000    0.000 
#
# Total GULP energy -178276.591575 kJ/mol
# GULP energy per Si atom -5571.143487 kJ/mol
# Density = 2.486815 g / cm^3
# Si number density = 24.924880 Si / 1000 Ang^3
#
#
#
# Elastic Constant Matrix: (Units=GPa)
#
#
# Indices 1 2 3 4 5 6 
#
# 1 50.3500 4.2551 6.7114 0.0000 0.0000 0.0000
# 2 4.2551 17.0890 123.6597 0.0000 0.0000 0.0000
# 3 6.7114 123.6597 -25.1834 0.0000 0.0000 0.0000
# 4 0.0000 0.0000 0.0000 30.6550 0.0000 0.0000
# 5 0.0000 0.0000 0.0000 0.0000 -5.8772 0.0000
# 6 0.0000 0.0000 0.0000 0.0000 0.0000 5.3721
#
#
#
# Elastic Compliance Matrix: (Units=1/GPa)
#
#
# Indices 1 2 3 4 5 6 
#
# 1 0.020032 -0.001194 -0.000524 0.000000 0.000000 0.000000
# 2 -0.001194 0.001673 0.007897 0.000000 0.000000 0.000000
# 3 -0.000524 0.007897 -0.001073 0.000000 0.000000 0.000000
# 4 0.000000 0.000000 0.000000 0.032621 0.000000 0.000000
# 5 0.000000 0.000000 0.000000 0.000000 -0.170148 0.000000
# 6 0.000000 0.000000 0.000000 0.000000 0.000000 0.186147
#
#
# Mechanical properties :
#
#
# Convention : Reuss Voigt Hill
#
# Bulk Modulus (GPa) = 30.31386 34.61200 32.46293
# Shear Modulus (GPa) = 73.64783 -0.12806 36.75988
#
# Velocity S-wave (km/s) = 5.44170 -0.22692 3.84451
# Velocity P-wave (km/s) = 7.18827 3.72129 5.72360
#
# Compressibility (1/GPa) = 0.03298821
#
# Stress axis : x y z
#
# Youngs Moduli (GPa) = 49.92068 597.74658 -931.77370
#
# Poissons Ratio (x) = 0.71369 -0.48852
# Poissons Ratio (y) = 0.05960 7.35785
# Poissons Ratio (z) = 0.02617 -4.72017
#
# Static dielectric constant tensor:
#      x y z
#    x 1.888870 0.000000 0.000000 
#    y 0.000000 2.061920 0.000000 
#    z 0.000000 0.000000 2.129260 
# 
# From -- ./inp_files/15775.got.cif
#   From: 2010.05.17/outbox.cif.g08.bks.cpg/sg36_8_cif.got.tgz:15775.got - 2010.06.03 17:41:39.
