data_PCOD9350774
_publ_section_title
;
Structure prediction by ZEFSAII (Michael W. Deem and Ramdas Pophale) SiO2 
 PCOD9350774
Probable space group: C M C 21
;
_chemical_formula_sum "Si O2"
_cell_formula_units_Z 64
_cell_length_a 8.732948
_cell_length_b 20.784338
_cell_length_c 20.232335
_cell_angle_alpha 90.000000
_cell_angle_beta 90.000000
_cell_angle_gamma 90.000000
_cell_volume 3672.341647
_symmetry_space_group_name_H-M "C M C 21"
_symmetry_group_IT_number 36
_symmetry_cell_setting 'orthorhombic'
loop_
_space_group_symop_operation_xyz
x,y,z
-x,-y,1/2+z
x,-y,1/2+z
-x,y,z
1/2+x,1/2+y,z
1/2-x,1/2-y,1/2+z
1/2+x,1/2-y,1/2+z
1/2-x,1/2+y,z
loop_
_atom_site_type_symbol
_atom_site_label
_atom_site_fract_x
_atom_site_fract_y
_atom_site_fract_z
Si Si1 0.315968 0.330612 0.654050
Si Si2 0.684429 0.665255 0.773102
Si Si3 0.314657 0.480535 0.285199
Si Si4 0.685824 0.419725 0.031610
Si Si5 0.186434 0.025540 0.138095
Si Si6 0.817815 0.585007 0.385860
Si Si7 0.316138 0.698021 0.622076
Si Si8 0.682994 0.298435 0.806041
O O1 0.500000 0.328340 0.650194
O O2 0.263315 0.400652 0.630375
O O3 0.249499 0.269474 0.616009
O O4 0.275129 0.322049 0.731643
O O5 0.500000 0.671099 0.777233
O O6 0.727316 0.593982 0.796658
O O7 0.726635 0.672309 0.695359
O O8 0.760260 0.725064 0.810388
O O9 0.500000 0.485502 0.288394
O O10 0.268452 0.500090 0.210589
O O11 0.244246 0.529568 0.337223
O O12 0.500000 0.420449 0.027879
O O13 0.734581 0.477615 0.080180
O O14 0.732787 0.353104 0.067158
O O15 0.753660 0.425337 0.959143
O O16 0.000000 0.025327 0.138056
O O17 0.758124 0.652968 0.357387
O O18 0.000000 0.584445 0.386070
O O19 0.500000 0.701146 0.620696
O O20 0.500000 0.301541 0.812102
#
# Coordination Sequence:
#
# PCOD9350774 Si02
#       8
#     8   8   8   8   8   8   8   8
#     4   9  17  30  53  82 110 137 173 223 272 324
#     4   9  17  31  56  87 114 138 175 228 279 328
#     4  10  18  35  60  84 112 147 186 228 279 340
#     4  10  20  37  59  79 105 148 190 227 278 340
#     4   9  16  32  58  84 107 138 186 230 267 329
#     4  12  25  38  53  79 115 151 191 238 281 332
#     4   9  17  31  53  81 109 137 175 222 271 328
#     4  10  19  34  56  80 110 146 184 226 275 333
#
# _framework density 17.427572999999999
#
# number of rings (size 3 to 8) (size 9 to 14) (size 15 to 20)
#    0.000    2.250    2.500    1.500    0.000    1.500 
#    0.000    2.500    0.000    4.500    0.000    0.000 
#    0.000    0.000    0.000    0.000    0.000    0.000 
#
# Total GULP energy -178532.612529 kJ/mol
# GULP energy per Si atom -5579.144142 kJ/mol
# Density = 1.738791 g / cm^3
# Si number density = 17.427573 Si / 1000 Ang^3
#
#
#
# Elastic Constant Matrix: (Units=GPa)
#
#
# Indices 1 2 3 4 5 6 
#
# 1 28.4326 40.9707 33.0448 0.0000 0.0000 0.0000
# 2 40.9707 172.5017 80.5139 0.0000 0.0000 0.0000
# 3 33.0448 80.5139 113.6410 0.0000 0.0000 0.0000
# 4 0.0000 0.0000 0.0000 25.8359 0.0000 0.0000
# 5 0.0000 0.0000 0.0000 0.0000 16.6973 0.0000
# 6 0.0000 0.0000 0.0000 0.0000 0.0000 30.6184
#
#
#
# Elastic Compliance Matrix: (Units=1/GPa)
#
#
# Indices 1 2 3 4 5 6 
#
# 1 0.061906 -0.009415 -0.011331 0.000000 0.000000 0.000000
# 2 -0.009415 0.010093 -0.004413 0.000000 0.000000 0.000000
# 3 -0.011331 -0.004413 0.015221 0.000000 0.000000 0.000000
# 4 0.000000 0.000000 0.000000 0.038706 0.000000 0.000000
# 5 0.000000 0.000000 0.000000 0.000000 0.059890 0.000000
# 6 0.000000 0.000000 0.000000 0.000000 0.000000 0.032660
#
#
# Mechanical properties :
#
#
# Convention : Reuss Voigt Hill
#
# Bulk Modulus (GPa) = 27.09825 69.29268 48.19546
# Shear Modulus (GPa) = 17.78758 25.30003 21.54381
#
# Velocity S-wave (km/s) = 3.19824 3.81428 3.51976
# Velocity P-wave (km/s) = 5.40566 7.69708 6.65080
#
# Compressibility (1/GPa) = 0.03690276
#
# Stress axis : x y z
#
# Youngs Moduli (GPa) = 16.15343 99.07942 65.69778
#
# Poissons Ratio (x) = 0.93280 0.74443
# Poissons Ratio (y) = 0.15208 0.28993
# Poissons Ratio (z) = 0.18304 0.43725
#
# Static dielectric constant tensor:
#      x y z
#    x 1.588120 0.000000 0.000000 
#    y 0.000000 1.597790 0.000000 
#    z 0.000000 0.000000 1.565680 
# 
# From -- ./inp_files/13856.got.cif
#   From: 2010.05.17/outbox.cif.g08.bks.cpg/sg36_7_cif.got.tgz:13856.got - 2010.06.03 17:41:39.
