data_PCOD9350533
_publ_section_title
;
Structure prediction by ZEFSAII (Michael W. Deem and Ramdas Pophale) SiO2 
 PCOD9350533
Probable space group: C M C 21
;
_chemical_formula_sum "Si O2"
_cell_formula_units_Z 56
_cell_length_a 25.617464
_cell_length_b 13.755042
_cell_length_c 8.863756
_cell_angle_alpha 90.000000
_cell_angle_beta 90.000000
_cell_angle_gamma 90.000000
_cell_volume 3123.315437
_symmetry_space_group_name_H-M "C M C 21"
_symmetry_group_IT_number 36
_symmetry_cell_setting 'orthorhombic'
loop_
_space_group_symop_operation_xyz
x,y,z
-x,-y,1/2+z
x,-y,1/2+z
-x,y,z
1/2+x,1/2+y,z
1/2-x,1/2-y,1/2+z
1/2+x,1/2-y,1/2+z
1/2-x,1/2+y,z
loop_
_atom_site_type_symbol
_atom_site_label
_atom_site_fract_x
_atom_site_fract_y
_atom_site_fract_z
Si Si1 0.500000 0.572034 0.841970
Si Si2 0.386343 0.385007 0.338430
Si Si3 0.611188 0.281479 0.661756
Si Si4 0.280350 0.298723 0.316260
Si Si5 0.302617 0.147791 0.565100
Si Si6 0.826792 0.079707 0.339141
Si Si7 0.000000 0.863554 0.690223
Si Si8 0.240061 0.029003 0.055391
O O1 0.553842 0.622075 0.787083
O O2 0.500000 0.457694 0.799585
O O3 0.500000 0.588331 0.022561
O O4 0.381890 0.352801 0.515067
O O5 0.339228 0.325238 0.263447
O O6 0.370820 0.497101 0.320241
O O7 0.639085 0.182712 0.608019
O O8 0.645403 0.320610 0.801204
O O9 0.551058 0.295780 0.702675
O O10 0.286541 0.198943 0.407888
O O11 0.237499 0.305594 0.186936
O O12 0.263713 0.383020 0.437035
O O13 0.293124 0.032246 0.564615
O O14 0.782122 0.062859 0.214134
O O15 0.800180 0.053290 0.495285
#
# Coordination Sequence:
#
# PCOD9350533 Si02
#       8
#     4   8   8   8   8   8   4   8
#     4  10  18  28  46  66  92 136 158 188 232 286
#     4   9  17  29  44  65  96 125 165 191 229 285
#     4  10  19  32  46  70  97 129 167 201 239 292
#     4  10  21  33  46  74  97 130 168 202 245 295
#     4  11  20  33  50  69  99 134 162 202 252 293
#     4  11  16  30  46  66  99 129 159 199 235 284
#     4  10  20  30  46  70  98 124 168 202 230 294
#     4  11  20  31  48  70 102 130 163 202 245 293
#
# _framework density 17.929663999999999
#
# number of rings (size 3 to 8) (size 9 to 14) (size 15 to 20)
#    0.000    1.714    8.571    0.857    0.000    0.000 
#    0.000    0.000    0.000    0.000    0.000    1.000 
#    0.000    0.286    0.000    0.000    0.000    0.000 
#
# Total GULP energy -155969.558599 kJ/mol
# GULP energy per Si atom -5570.341379 kJ/mol
# Density = 1.788886 g / cm^3
# Si number density = 17.929664 Si / 1000 Ang^3
#
#
#
# Elastic Constant Matrix: (Units=GPa)
#
#
# Indices 1 2 3 4 5 6 
#
# 1 116.7959 39.1022 18.1797 0.0000 0.0000 0.0000
# 2 39.1022 45.3591 0.2307 0.0000 0.0000 0.0000
# 3 18.1797 0.2307 38.2403 0.0000 0.0000 0.0000
# 4 0.0000 0.0000 0.0000 24.0390 0.0000 0.0000
# 5 0.0000 0.0000 0.0000 0.0000 15.6707 0.0000
# 6 0.0000 0.0000 0.0000 0.0000 0.0000 26.3976
#
#
#
# Elastic Compliance Matrix: (Units=1/GPa)
#
#
# Indices 1 2 3 4 5 6 
#
# 1 0.013399 -0.011519 -0.006301 0.000000 0.000000 0.000000
# 2 -0.011519 0.031949 0.005283 0.000000 0.000000 0.000000
# 3 -0.006301 0.005283 0.029114 0.000000 0.000000 0.000000
# 4 0.000000 0.000000 0.000000 0.041599 0.000000 0.000000
# 5 0.000000 0.000000 0.000000 0.000000 0.063813 0.000000
# 6 0.000000 0.000000 0.000000 0.000000 0.000000 0.037882
#
#
# Mechanical properties :
#
#
# Convention : Reuss Voigt Hill
#
# Bulk Modulus (GPa) = 20.24684 35.04670 27.64677
# Shear Modulus (GPa) = 19.28328 22.74696 21.01512
#
# Velocity S-wave (km/s) = 3.28303 3.56571 3.42729
# Velocity P-wave (km/s) = 5.06833 6.04497 5.57806
#
# Compressibility (1/GPa) = 0.04939042
#
# Stress axis : x y z
#
# Youngs Moduli (GPa) = 74.63250 31.29967 34.34790
#
# Poissons Ratio (x) = 0.36053 0.21641
# Poissons Ratio (y) = 0.85967 -0.18147
# Poissons Ratio (z) = 0.47022 -0.16537
#
# Static dielectric constant tensor:
#      x y z
#    x 1.664510 0.000000 0.000000 
#    y 0.000000 1.641630 0.000000 
#    z 0.000000 0.000000 1.643190 
# 
# From -- ./inp_files/5632.got.cif
#   From: 2010.05.17/outbox.cif.g08.bks.cpg/sg36_3_cif.got.tgz:5632.got - 2010.06.03 17:41:39.
