data_PCOD9350528
_publ_section_title
;
Structure prediction by ZEFSAII (Michael W. Deem and Ramdas Pophale) SiO2 
 PCOD9350528
Probable space group: C M C 21
;
_chemical_formula_sum "Si O2"
_cell_formula_units_Z 40
_cell_length_a 23.265778
_cell_length_b 8.752382
_cell_length_c 7.895539
_cell_angle_alpha 90.000000
_cell_angle_beta 90.000000
_cell_angle_gamma 90.000000
_cell_volume 1607.776317
_symmetry_space_group_name_H-M "C M C 21"
_symmetry_group_IT_number 36
_symmetry_cell_setting 'orthorhombic'
loop_
_space_group_symop_operation_xyz
x,y,z
-x,-y,1/2+z
x,-y,1/2+z
-x,y,z
1/2+x,1/2+y,z
1/2-x,1/2-y,1/2+z
1/2+x,1/2-y,1/2+z
1/2-x,1/2+y,z
loop_
_atom_site_type_symbol
_atom_site_label
_atom_site_fract_x
_atom_site_fract_y
_atom_site_fract_z
Si Si1 0.377110 0.310523 0.864380
Si Si2 0.500000 0.752529 0.271609
Si Si3 0.500000 0.079426 0.402630
Si Si4 0.811374 0.189580 0.683088
Si Si5 0.124963 0.445786 0.842106
Si Si6 0.310211 0.731262 0.054932
O O1 0.441914 0.341724 0.804655
O O2 0.331232 0.356200 0.720430
O O3 0.371994 0.125008 0.866293
O O4 0.359571 0.364019 0.050887
O O5 0.500000 0.893546 0.406945
O O6 0.500000 0.833395 0.084234
O O7 0.440159 0.108734 0.305692
O O8 0.828945 0.368053 0.719248
O O9 0.750192 0.189673 0.592956
O O10 0.806507 0.139107 0.878954
O O11 0.141044 0.357252 0.015045
#
# Coordination Sequence:
#
# PCOD9350528 Si02
#       6
#     8   4   4   8   8   8
#     4  11  18  33  44  67  92 120 158 179 218 259
#     4  10  20  26  42  66  92 120 149 185 210 264
#     4  10  18  28  40  66  94 118 151 181 216 254
#     4  10  20  30  45  60  85 125 153 187 223 255
#     4   9  20  29  46  65  91 124 151 186 212 263
#     4  10  19  31  44  60  87 122 155 186 222 256
#
# _framework density 24.879083999999999
#
# number of rings (size 3 to 8) (size 9 to 14) (size 15 to 20)
#    1.200    0.800    4.000    1.200    8.400    0.000 
#    0.000    0.000    0.000    0.000    0.000    0.000 
#    0.000    0.000    0.000  126.000    0.000    0.200 
#
# Total GULP energy -111560.286025 kJ/mol
# GULP energy per Si atom -5578.014301 kJ/mol
# Density = 2.482246 g / cm^3
# Si number density = 24.879084 Si / 1000 Ang^3
#
#
#
# Elastic Constant Matrix: (Units=GPa)
#
#
# Indices 1 2 3 4 5 6 
#
# 1 129.2798 -5.5335 15.4353 0.0000 0.0000 0.0000
# 2 -5.5335 51.6162 -0.9344 0.0000 0.0000 0.0000
# 3 15.4353 -0.9344 135.3297 0.0000 0.0000 0.0000
# 4 0.0000 0.0000 0.0000 36.2547 0.0000 0.0000
# 5 0.0000 0.0000 0.0000 0.0000 35.4058 0.0000
# 6 0.0000 0.0000 0.0000 0.0000 0.0000 -9.0812
#
#
#
# Elastic Compliance Matrix: (Units=1/GPa)
#
#
# Indices 1 2 3 4 5 6 
#
# 1 0.007877 0.000828 -0.000893 0.000000 0.000000 0.000000
# 2 0.000828 0.019463 0.000040 0.000000 0.000000 0.000000
# 3 -0.000893 0.000040 0.007491 0.000000 0.000000 0.000000
# 4 0.000000 0.000000 0.000000 0.027583 0.000000 0.000000
# 5 0.000000 0.000000 0.000000 0.000000 0.028244 0.000000
# 6 0.000000 0.000000 0.000000 0.000000 0.000000 -0.110118
#
#
# Mechanical properties :
#
#
# Convention : Reuss Voigt Hill
#
# Bulk Modulus (GPa) = 28.74974 37.12895 32.93934
# Shear Modulus (GPa) = -639.69868 32.99974 -303.34947
#
# Velocity S-wave (km/s) = -16.05245 3.64594 -11.05415
# Velocity P-wave (km/s) = 18.22071 5.71664 12.23344
#
# Compressibility (1/GPa) = 0.03478293
#
# Stress axis : x y z
#
# Youngs Moduli (GPa) = 126.94869 51.37877 133.48532
#
# Poissons Ratio (x) = -0.04256 0.11917
# Poissons Ratio (y) = -0.10515 -0.00533
# Poissons Ratio (z) = 0.11333 -0.00205
#
# Static dielectric constant tensor:
#      x y z
#    x 1.931020 0.000000 0.000000 
#    y 0.000000 2.019530 0.000000 
#    z 0.000000 0.000000 2.039830 
# 
# From -- ./inp_files/4066.got.cif
#   From: 2010.05.17/outbox.cif.g08.bks.cpg/sg36_3_cif.got.tgz:4066.got - 2010.06.03 17:41:39.
