data_PCOD9350704
_publ_section_title
;
Structure prediction by ZEFSAII (Michael W. Deem and Ramdas Pophale) SiO2 
 PCOD9350704
Probable space group: C M C 21
;
_chemical_formula_sum "Si O2"
_cell_formula_units_Z 64
_cell_length_a 22.943548
_cell_length_b 23.449726
_cell_length_c 5.431290
_cell_angle_alpha 90.000000
_cell_angle_beta 90.000000
_cell_angle_gamma 90.000000
_cell_volume 2922.142179
_symmetry_space_group_name_H-M "C M C 21"
_symmetry_group_IT_number 36
_symmetry_cell_setting 'orthorhombic'
loop_
_space_group_symop_operation_xyz
x,y,z
-x,-y,1/2+z
x,-y,1/2+z
-x,y,z
1/2+x,1/2+y,z
1/2-x,1/2-y,1/2+z
1/2+x,1/2-y,1/2+z
1/2-x,1/2+y,z
loop_
_atom_site_type_symbol
_atom_site_label
_atom_site_fract_x
_atom_site_fract_y
_atom_site_fract_z
Si Si1 0.433752 0.705423 0.774360
Si Si2 0.629852 0.980606 0.442835
Si Si3 0.755948 0.557339 0.464792
Si Si4 0.174159 0.635209 0.846217
Si Si5 0.661906 0.232732 0.540395
Si Si6 0.873227 0.025984 0.494716
Si Si7 0.433322 0.635227 0.276863
Si Si8 0.740590 0.675180 0.229961
O O1 0.500000 0.726997 0.807008
O O2 0.382901 0.750037 0.829452
O O3 0.429247 0.681545 0.497841
O O4 0.425726 0.659132 0.998756
O O5 0.600914 0.010362 0.676875
O O6 0.691743 0.014744 0.393763
O O7 0.639261 0.913428 0.491769
O O8 0.784257 0.595752 0.678463
O O9 0.696977 0.524393 0.525536
O O10 0.736774 0.607382 0.276793
O O11 0.136000 0.680128 0.694550
O O12 0.216522 0.675616 0.998607
O O13 0.682098 0.290046 0.681154
O O14 0.722380 0.206487 0.439840
O O15 0.891560 0.085473 0.372312
O O16 0.894016 0.017199 0.777133
O O17 0.500000 0.613107 0.286379
#
# Coordination Sequence:
#
# PCOD9350704 Si02
#       8
#     8   8   8   8   8   8   8   8
#     4  10  23  43  67  86 113 158 204 254 300 364
#     4  10  18  33  50  69 104 147 186 225 260 331
#     4  10  22  34  52  75 110 157 195 234 277 355
#     4  10  21  34  50  77 112 153 184 233 291 347
#     4  11  23  35  57  86 121 152 199 239 304 367
#     4  12  25  36  56  85 111 152 201 254 306 348
#     4  10  23  43  62  84 110 150 204 257 315 357
#     4  11  21  34  52  82 116 159 187 238 299 353
#
# _framework density 21.90174
#
# number of rings (size 3 to 8) (size 9 to 14) (size 15 to 20)
#    0.000    1.500    2.500    3.000    5.250    0.500 
#    0.000    0.000    0.000    0.000    0.000    0.000 
#    0.000    9.000    0.000    0.000    0.000    0.000 
#
# Total GULP energy -178338.763914 kJ/mol
# GULP energy per Si atom -5573.086372 kJ/mol
# Density = 2.185189 g / cm^3
# Si number density = 21.901740 Si / 1000 Ang^3
#
#
#
# Elastic Constant Matrix: (Units=GPa)
#
#
# Indices 1 2 3 4 5 6 
#
# 1 23.5962 -8.8071 -8.6026 0.0000 0.0000 0.0000
# 2 -8.8071 71.0117 10.6679 0.0000 0.0000 0.0000
# 3 -8.6026 10.6679 65.9415 0.0000 0.0000 0.0000
# 4 0.0000 0.0000 0.0000 27.8168 0.0000 0.0000
# 5 0.0000 0.0000 0.0000 0.0000 16.2856 0.0000
# 6 0.0000 0.0000 0.0000 0.0000 0.0000 17.9443
#
#
#
# Elastic Compliance Matrix: (Units=1/GPa)
#
#
# Indices 1 2 3 4 5 6 
#
# 1 0.046125 0.004937 0.005219 0.000000 0.000000 0.000000
# 2 0.004937 0.014961 -0.001776 0.000000 0.000000 0.000000
# 3 0.005219 -0.001776 0.016133 0.000000 0.000000 0.000000
# 4 0.000000 0.000000 0.000000 0.035950 0.000000 0.000000
# 5 0.000000 0.000000 0.000000 0.000000 0.061404 0.000000
# 6 0.000000 0.000000 0.000000 0.000000 0.000000 0.055728
#
#
# Mechanical properties :
#
#
# Convention : Reuss Voigt Hill
#
# Bulk Modulus (GPa) = 10.64088 16.34065 13.49077
# Shear Modulus (GPa) = 20.41912 23.56210 21.99061
#
# Velocity S-wave (km/s) = 3.05668 3.28351 3.17212
# Velocity P-wave (km/s) = 4.16254 4.67465 4.42601
#
# Compressibility (1/GPa) = 0.09397718
#
# Stress axis : x y z
#
# Youngs Moduli (GPa) = 21.68026 66.83910 61.98415
#
# Poissons Ratio (x) = -0.32996 -0.32348
# Poissons Ratio (y) = -0.10703 0.11011
# Poissons Ratio (z) = -0.11314 0.11873
#
# Static dielectric constant tensor:
#      x y z
#    x 1.773090 0.000000 0.000000 
#    y 0.000000 1.848250 0.000000 
#    z 0.000000 0.000000 1.943120 
# 
# From -- ./inp_files/1662.got.cif
#   From: 2010.05.17/outbox.cif.g08.bks.cpg/sg36_1_cif.got.tgz:1662.got - 2010.06.03 17:41:39.
