data_PCOD9350089
_publ_section_title
;
Structure prediction by ZEFSAII (Michael W. Deem and Ramdas Pophale) SiO2 
 PCOD9350089
Probable space group: C M M 2
;
_chemical_formula_sum "Si O2"
_cell_formula_units_Z 48
_cell_length_a 8.138062
_cell_length_b 15.916804
_cell_length_c 17.910739
_cell_angle_alpha 90.000000
_cell_angle_beta 90.000000
_cell_angle_gamma 90.000000
_cell_volume 2320.012730
_symmetry_space_group_name_H-M "C M M 2"
_symmetry_group_IT_number 35
_symmetry_cell_setting 'orthorhombic'
loop_
_space_group_symop_operation_xyz
x,y,z
-x,-y,z
-x,y,z
x,-y,z
1/2+x,1/2+y,z
1/2-x,1/2-y,z
1/2-x,1/2+y,z
1/2+x,1/2-y,z
loop_
_atom_site_type_symbol
_atom_site_label
_atom_site_fract_x
_atom_site_fract_y
_atom_site_fract_z
Si Si1 0.299329 0.401091 0.889420
Si Si2 0.304363 0.659554 0.047922
Si Si3 0.307271 0.602642 0.728105
Si Si4 0.798203 0.500000 0.314225
Si Si5 0.804137 0.500000 0.143505
Si Si6 0.301532 0.597325 0.566930
Si Si7 0.695358 0.159589 0.408752
O O1 0.500000 0.396943 0.887260
O O2 0.258647 0.500000 0.897622
O O3 0.236857 0.370645 0.808325
O O4 0.239615 0.354120 0.963172
O O5 0.500000 0.657577 0.043787
O O6 0.250000 0.750000 0.076714
O O7 0.250229 0.582536 0.099016
O O8 0.500000 0.626066 0.728446
O O9 0.301945 0.500000 0.727948
O O10 0.237644 0.628969 0.647666
O O11 0.742580 0.500000 0.228677
O O12 0.741940 0.417578 0.358912
O O13 0.000000 0.500000 0.314453
O O14 0.000000 0.500000 0.146317
O O15 0.500000 0.596721 0.571007
O O16 0.247678 0.500000 0.557230
O O17 0.250806 0.647478 0.494160
O O18 0.500000 0.156023 0.407847
O O19 0.750000 0.250000 0.380238
#
# Coordination Sequence:
#
# PCOD9350089 Si02
#       7
#     8   8   8   4   4   8   8
#     4   8  13  26  50  78 110 150 193 236 281 332
#     4  11  22  38  60  90 122 157 197 238 287 346
#     4   7  11  21  43  76 109 145 189 234 278 325
#     4   9  22  43  65  86 113 146 182 229 291 349
#     4  11  23  43  67  90 117 148 186 239 297 355
#     4   9  16  29  52  83 115 149 192 235 279 333
#     4  11  22  39  60  85 115 150 188 231 283 340
#
# _framework density 20.689540000000001
#
# number of rings (size 3 to 8) (size 9 to 14) (size 15 to 20)
#    0.000    2.667    1.667    3.250    0.000    0.667 
#    0.000    5.833    0.000    4.000    0.000    0.000 
#    0.000    0.000    0.000    0.000    0.000    0.000 
#
# Total GULP energy -133885.149579 kJ/mol
# GULP energy per Si atom -5578.547899 kJ/mol
# Density = 2.064245 g / cm^3
# Si number density = 20.689540 Si / 1000 Ang^3
#
#
#
# Elastic Constant Matrix: (Units=GPa)
#
#
# Indices 1 2 3 4 5 6 
#
# 1 21.0879 11.5972 17.4932 0.0000 0.0000 0.0000
# 2 11.5972 129.9192 80.4113 0.0000 0.0000 0.0000
# 3 17.4932 80.4113 170.1461 0.0000 0.0000 0.0000
# 4 0.0000 0.0000 0.0000 157.1737 0.0000 0.0000
# 5 0.0000 0.0000 0.0000 0.0000 23.7892 0.0000
# 6 0.0000 0.0000 0.0000 0.0000 0.0000 18.3074
#
#
#
# Elastic Compliance Matrix: (Units=1/GPa)
#
#
# Indices 1 2 3 4 5 6 
#
# 1 0.052168 -0.001890 -0.004470 0.000000 0.000000 0.000000
# 2 -0.001890 0.010948 -0.004980 0.000000 0.000000 0.000000
# 3 -0.004470 -0.004980 0.008690 0.000000 0.000000 0.000000
# 4 0.000000 0.000000 0.000000 0.006362 0.000000 0.000000
# 5 0.000000 0.000000 0.000000 0.000000 0.042036 0.000000
# 6 0.000000 0.000000 0.000000 0.000000 0.000000 0.054623
#
#
# Mechanical properties :
#
#
# Convention : Reuss Voigt Hill
#
# Bulk Modulus (GPa) = 20.35561 60.01740 40.18650
# Shear Modulus (GPa) = 23.37728 53.96417 38.67072
#
# Velocity S-wave (km/s) = 3.36506 5.11268 4.32799
# Velocity P-wave (km/s) = 4.99581 7.99526 6.66642
#
# Compressibility (1/GPa) = 0.04912650
#
# Stress axis : x y z
#
# Youngs Moduli (GPa) = 19.16874 91.34182 115.07061
#
# Poissons Ratio (x) = 0.17263 0.51441
# Poissons Ratio (y) = 0.03623 0.57301
# Poissons Ratio (z) = 0.08569 0.45485
#
# Static dielectric constant tensor:
#      x y z
#    x 1.726880 0.000000 0.000000 
#    y 0.000000 1.528360 0.000000 
#    z 0.000000 0.000000 1.773310 
# 
# From -- ./inp_files/17921.got.cif
#   From: 2010.05.17/outbox.cif.g08.bks.cpg/sg35_9_cif.got.tgz:17921.got - 2010.06.03 17:29:28.
