data_PCOD9350999
_publ_section_title
;
Structure prediction by ZEFSAII (Michael W. Deem and Ramdas Pophale) SiO2 
 PCOD9350999
Probable space group: C M C 21
;
_chemical_formula_sum "Si O2"
_cell_formula_units_Z 64
_cell_length_a 8.642695
_cell_length_b 20.728643
_cell_length_c 20.376238
_cell_angle_alpha 90.000000
_cell_angle_beta 90.000000
_cell_angle_gamma 90.000000
_cell_volume 3650.430326
_symmetry_space_group_name_H-M "C M C 21"
_symmetry_group_IT_number 36
_symmetry_cell_setting 'orthorhombic'
loop_
_space_group_symop_operation_xyz
x,y,z
-x,-y,1/2+z
x,-y,1/2+z
-x,y,z
1/2+x,1/2+y,z
1/2-x,1/2-y,1/2+z
1/2+x,1/2-y,1/2+z
1/2-x,1/2+y,z
loop_
_atom_site_type_symbol
_atom_site_label
_atom_site_fract_x
_atom_site_fract_y
_atom_site_fract_z
Si Si1 0.313570 0.301417 0.911600
Si Si2 0.314687 0.522736 0.893936
Si Si3 0.185895 0.804793 0.234343
Si Si4 0.686897 0.583224 0.502164
Si Si5 0.687102 0.021033 0.252807
Si Si6 0.685342 0.085086 0.646821
Si Si7 0.185692 0.659891 0.877472
Si Si8 0.313675 0.164065 0.269304
O O1 0.500000 0.304040 0.907598
O O2 0.269554 0.226086 0.914621
O O3 0.248336 0.328739 0.843274
O O4 0.265219 0.348170 0.970377
O O5 0.500000 0.522624 0.889954
O O6 0.248588 0.500796 0.823627
O O7 0.255002 0.594845 0.906818
O O8 0.267849 0.472378 0.950413
O O9 0.248610 0.848406 0.175934
O O10 0.253046 0.831870 0.302993
O O11 0.232786 0.729383 0.231632
O O12 0.000000 0.808704 0.236593
O O13 0.500000 0.582755 0.507280
O O14 0.757606 0.573684 0.573402
O O15 0.500000 0.019075 0.255165
O O16 0.737859 0.971733 0.196364
O O17 0.736172 0.095127 0.241090
O O18 0.500000 0.087325 0.648388
O O19 0.000000 0.655213 0.875616
O O20 0.500000 0.164095 0.271975
#
# Coordination Sequence:
#
# PCOD9350999 Si02
#       8
#     8   8   8   8   8   8   8   8
#     4   9  18  34  54  78 107 140 178 222 271 323
#     4  11  21  34  56  83 111 145 185 229 280 330
#     4  10  19  33  54  80 110 142 178 223 274 326
#     4  10  22  39  56  78 109 147 188 229 278 336
#     4  10  20  35  55  81 112 143 183 231 276 327
#     4  11  23  37  55  80 110 149 189 228 278 335
#     4  10  19  32  54  82 111 139 176 226 274 324
#     4   9  18  32  54  82 108 137 175 224 275 319
#
# _framework density 17.53218
#
# number of rings (size 3 to 8) (size 9 to 14) (size 15 to 20)
#    0.000    2.000    2.500    1.500    0.000    3.000 
#    0.000    1.250    0.000    6.000    0.000    0.000 
#    0.000    0.000    0.000    0.000    0.000    0.000 
#
# Total GULP energy -178560.861568 kJ/mol
# GULP energy per Si atom -5580.026924 kJ/mol
# Density = 1.749228 g / cm^3
# Si number density = 17.532180 Si / 1000 Ang^3
#
#
#
# Elastic Constant Matrix: (Units=GPa)
#
#
# Indices 1 2 3 4 5 6 
#
# 1 18.8943 31.1165 26.3913 0.0000 0.0000 0.0000
# 2 31.1165 159.0787 81.4608 0.0000 0.0000 0.0000
# 3 26.3913 81.4608 121.4470 0.0000 0.0000 0.0000
# 4 0.0000 0.0000 0.0000 26.7696 0.0000 0.0000
# 5 0.0000 0.0000 0.0000 0.0000 27.6799 0.0000
# 6 0.0000 0.0000 0.0000 0.0000 0.0000 22.6151
#
#
#
# Elastic Compliance Matrix: (Units=1/GPa)
#
#
# Indices 1 2 3 4 5 6 
#
# 1 0.087441 -0.011231 -0.011468 0.000000 0.000000 0.000000
# 2 -0.011231 0.011018 -0.004949 0.000000 0.000000 0.000000
# 3 -0.011468 -0.004949 0.014046 0.000000 0.000000 0.000000
# 4 0.000000 0.000000 0.000000 0.037356 0.000000 0.000000
# 5 0.000000 0.000000 0.000000 0.000000 0.036127 0.000000
# 6 0.000000 0.000000 0.000000 0.000000 0.000000 0.044218
#
#
# Mechanical properties :
#
#
# Convention : Reuss Voigt Hill
#
# Bulk Modulus (GPa) = 17.48039 64.15079 40.81559
# Shear Modulus (GPa) = 16.41642 26.10966 21.26304
#
# Velocity S-wave (km/s) = 3.06332 3.86326 3.48631
# Velocity P-wave (km/s) = 4.74384 7.52126 6.28782
#
# Compressibility (1/GPa) = 0.05720697
#
# Stress axis : x y z
#
# Youngs Moduli (GPa) = 11.43626 90.76417 71.19451
#
# Poissons Ratio (x) = 1.01939 0.81648
# Poissons Ratio (y) = 0.12844 0.35237
# Poissons Ratio (z) = 0.13115 0.44923
#
# Static dielectric constant tensor:
#      x y z
#    x 1.594030 0.000000 0.000000 
#    y 0.000000 1.633210 0.000000 
#    z 0.000000 0.000000 1.552280 
# 
# From -- ./inp_files/13850.got.cif
#   From: 2010.05.17/outbox.cif.g08.bks.cpg/sg36_7_cif.got.tgz:13850.got - 2010.06.03 17:41:39.
