data_PCOD9350579
_publ_section_title
;
Structure prediction by ZEFSAII (Michael W. Deem and Ramdas Pophale) SiO2 
 PCOD9350579
Probable space group: C M C 21
;
_chemical_formula_sum "Si O2"
_cell_formula_units_Z 48
_cell_length_a 29.525971
_cell_length_b 12.616467
_cell_length_c 5.277127
_cell_angle_alpha 90.000000
_cell_angle_beta 90.000000
_cell_angle_gamma 90.000000
_cell_volume 1965.800726
_symmetry_space_group_name_H-M "C M C 21"
_symmetry_group_IT_number 36
_symmetry_cell_setting 'orthorhombic'
loop_
_space_group_symop_operation_xyz
x,y,z
-x,-y,1/2+z
x,-y,1/2+z
-x,y,z
1/2+x,1/2+y,z
1/2-x,1/2-y,1/2+z
1/2+x,1/2-y,1/2+z
1/2-x,1/2+y,z
loop_
_atom_site_type_symbol
_atom_site_label
_atom_site_fract_x
_atom_site_fract_y
_atom_site_fract_z
Si Si1 0.549370 0.365641 0.961890
Si Si2 0.258916 0.818683 0.365904
Si Si3 0.447236 0.070932 0.778522
Si Si4 0.165494 0.150642 0.769233
Si Si5 0.855720 0.287765 0.270641
Si Si6 0.580223 0.598023 0.956489
O O1 0.500000 0.336539 0.878539
O O2 0.551684 0.492609 0.005667
O O3 0.581426 0.346531 0.725904
O O4 0.559589 0.325315 0.242187
O O5 0.251764 0.772588 0.650591
O O6 0.215659 0.892180 0.309032
O O7 0.309482 0.858994 0.315837
O O8 0.500000 0.113703 0.792594
O O9 0.444002 0.988755 0.010708
O O10 0.402499 0.146088 0.800816
O O11 0.155080 0.203066 0.499021
O O12 0.127515 0.064364 0.834114
O O13 0.153472 0.237224 0.990246
#
# Coordination Sequence:
#
# PCOD9350579 Si02
#       6
#     8   8   8   8   8   8
#     4  10  19  33  48  64  92 141 185 200 232 296
#     4   8  16  30  51  74  99 131 161 190 243 310
#     4  10  21  38  58  76 103 141 175 212 267 324
#     4  10  19  32  52  80 105 133 165 209 263 300
#     4  10  19  35  56  78 103 131 168 211 251 317
#     4  10  18  30  49  68  96 129 172 210 246 287
#
# _framework density 24.417529999999999
#
# number of rings (size 3 to 8) (size 9 to 14) (size 15 to 20)
#    0.000    2.333    0.000    4.500    0.000    0.000 
#    0.000    6.667    7.333    0.000    0.000    0.000 
#    0.000    0.000    0.000    0.000    0.000    0.000 
#
# Total GULP energy -133644.614062 kJ/mol
# GULP energy per Si atom -5568.525586 kJ/mol
# Density = 2.436195 g / cm^3
# Si number density = 24.417530 Si / 1000 Ang^3
#
#
#
# Elastic Constant Matrix: (Units=GPa)
#
#
# Indices 1 2 3 4 5 6 
#
# 1 177.0358 28.0035 12.6416 0.0000 0.0000 0.0000
# 2 28.0035 42.5964 -5.2243 0.0000 0.0000 0.0000
# 3 12.6416 -5.2243 165.1989 0.0000 0.0000 0.0000
# 4 0.0000 0.0000 0.0000 17.7979 0.0000 0.0000
# 5 0.0000 0.0000 0.0000 0.0000 30.1750 0.0000
# 6 0.0000 0.0000 0.0000 0.0000 0.0000 27.4466
#
#
#
# Elastic Compliance Matrix: (Units=1/GPa)
#
#
# Indices 1 2 3 4 5 6 
#
# 1 0.006367 -0.004262 -0.000622 0.000000 0.000000 0.000000
# 2 -0.004262 0.026421 0.001162 0.000000 0.000000 0.000000
# 3 -0.000622 0.001162 0.006138 0.000000 0.000000 0.000000
# 4 0.000000 0.000000 0.000000 0.056186 0.000000 0.000000
# 5 0.000000 0.000000 0.000000 0.000000 0.033140 0.000000
# 6 0.000000 0.000000 0.000000 0.000000 0.000000 0.036434
#
#
# Mechanical properties :
#
#
# Convention : Reuss Voigt Hill
#
# Bulk Modulus (GPa) = 31.76575 50.63033 41.19804
# Shear Modulus (GPa) = 27.37855 38.37792 32.87824
#
# Velocity S-wave (km/s) = 3.35216 3.96881 3.67345
# Velocity P-wave (km/s) = 5.29342 6.46392 5.90773
#
# Compressibility (1/GPa) = 0.03148044
#
# Stress axis : x y z
#
# Youngs Moduli (GPa) = 157.05532 37.84919 162.92887
#
# Poissons Ratio (x) = 0.16132 0.10135
# Poissons Ratio (y) = 0.66940 -0.18927
# Poissons Ratio (z) = 0.09769 -0.04397
#
# Static dielectric constant tensor:
#      x y z
#    x 2.141740 0.000000 0.000000 
#    y 0.000000 1.964320 0.000000 
#    z 0.000000 0.000000 2.007750 
# 
# From -- ./inp_files/1748.got.cif
#   From: 2010.05.17/outbox.cif.g08.bks.cpg/sg36_1_cif.got.tgz:1748.got - 2010.06.03 17:41:39.
