data_PCOD9350490
_publ_section_title
;
Structure prediction by ZEFSAII (Michael W. Deem and Ramdas Pophale) SiO2 
 PCOD9350490
Probable space group: C M C 21
;
_chemical_formula_sum "Si O2"
_cell_formula_units_Z 64
_cell_length_a 7.369518
_cell_length_b 20.675054
_cell_length_c 20.797671
_cell_angle_alpha 90.000000
_cell_angle_beta 90.000000
_cell_angle_gamma 90.000000
_cell_volume 3168.840940
_symmetry_space_group_name_H-M "C M C 21"
_symmetry_group_IT_number 36
_symmetry_cell_setting 'orthorhombic'
loop_
_space_group_symop_operation_xyz
x,y,z
-x,-y,1/2+z
x,-y,1/2+z
-x,y,z
1/2+x,1/2+y,z
1/2-x,1/2-y,1/2+z
1/2+x,1/2-y,1/2+z
1/2-x,1/2+y,z
loop_
_atom_site_type_symbol
_atom_site_label
_atom_site_fract_x
_atom_site_fract_y
_atom_site_fract_z
Si Si1 0.779646 0.829456 0.961410
Si Si2 0.777635 0.026801 0.481336
Si Si3 0.718603 0.846952 0.352406
Si Si4 0.777311 0.090557 0.231160
Si Si5 0.720551 0.292921 0.816920
Si Si6 0.289128 0.573166 0.087523
Si Si7 0.718981 0.189050 0.996117
Si Si8 0.289079 0.508419 0.838968
O O1 0.723248 0.898425 0.988960
O O2 0.725949 0.822111 0.886461
O O3 0.000000 0.829234 0.961638
O O4 0.721492 0.763871 0.997085
O O5 0.000000 0.023906 0.481317
O O6 0.712446 0.979109 0.537264
O O7 0.714687 0.004066 0.410557
O O8 0.500000 0.846574 0.352798
O O9 0.779199 0.781801 0.316319
O O10 0.778063 0.839756 0.426927
O O11 0.776902 0.915562 0.325059
O O12 0.721347 0.159815 0.260234
O O13 0.712594 0.077139 0.159143
O O14 0.000000 0.090659 0.229545
O O15 0.716218 0.036332 0.282203
O O16 0.500000 0.292537 0.816855
O O17 0.500000 0.555613 0.095205
O O18 0.279910 0.642612 0.052786
O O19 0.500000 0.188698 0.996124
O O20 0.500000 0.489886 0.843708
#
# Coordination Sequence:
#
# PCOD9350490 Si02
#       8
#     8   8   8   8   8   8   8   8
#     4   8  13  24  44  67  86 110 152 193 218 254
#     4   9  15  25  44  69  92 116 150 190 228 266
#     4   9  17  28  46  70  92 114 150 195 231 267
#     4   9  17  29  46  68  93 122 157 191 224 270
#     4   8  13  25  44  65  86 113 151 188 217 258
#     4  10  19  30  46  70  96 121 151 190 234 276
#     4   9  17  29  46  68  91 118 152 190 229 272
#     4  10  17  28  48  71  94 120 151 191 235 273
#
# _framework density 20.196660000000001
#
# number of rings (size 3 to 8) (size 9 to 14) (size 15 to 20)
#    0.000    3.000    2.500    1.500    0.000    0.000 
#    0.000    1.875    0.000    4.500    0.000    0.000 
#    0.000    0.000    0.000    0.000    0.000    0.000 
#
# Total GULP energy -178499.253668 kJ/mol
# GULP energy per Si atom -5578.101677 kJ/mol
# Density = 2.015069 g / cm^3
# Si number density = 20.196660 Si / 1000 Ang^3
#
#
#
# Elastic Constant Matrix: (Units=GPa)
#
#
# Indices 1 2 3 4 5 6 
#
# 1 68.6856 -10.0188 3.2804 0.0000 0.0000 0.0000
# 2 -10.0188 151.6129 83.7626 0.0000 0.0000 0.0000
# 3 3.2804 83.7626 133.0053 0.0000 0.0000 0.0000
# 4 0.0000 0.0000 0.0000 25.6774 0.0000 0.0000
# 5 0.0000 0.0000 0.0000 0.0000 -1.4337 0.0000
# 6 0.0000 0.0000 0.0000 0.0000 0.0000 13.5211
#
#
#
# Elastic Compliance Matrix: (Units=1/GPa)
#
#
# Indices 1 2 3 4 5 6 
#
# 1 0.014897 0.001821 -0.001514 0.000000 0.000000 0.000000
# 2 0.001821 0.010338 -0.006555 0.000000 0.000000 0.000000
# 3 -0.001514 -0.006555 0.011684 0.000000 0.000000 0.000000
# 4 0.000000 0.000000 0.000000 0.038945 0.000000 0.000000
# 5 0.000000 0.000000 0.000000 0.000000 -0.697500 0.000000
# 6 0.000000 0.000000 0.000000 0.000000 0.000000 0.073959
#
#
# Mechanical properties :
#
#
# Convention : Reuss Voigt Hill
#
# Bulk Modulus (GPa) = 40.94689 56.37245 48.65967
# Shear Modulus (GPa) = -9.48694 25.97159 8.24232
#
# Velocity S-wave (km/s) = -2.16967 3.58988 2.02235
# Velocity P-wave (km/s) = 3.74719 6.71978 5.44044
#
# Compressibility (1/GPa) = 0.02442188
#
# Stress axis : x y z
#
# Youngs Moduli (GPa) = 67.12751 96.73306 85.58593
#
# Poissons Ratio (x) = -0.17615 0.12960
# Poissons Ratio (y) = -0.12224 0.56104
# Poissons Ratio (z) = 0.10165 0.63411
#
# Static dielectric constant tensor:
#      x y z
#    x 1.797700 0.000000 0.000000 
#    y 0.000000 1.714580 0.000000 
#    z 0.000000 0.000000 1.679720 
# 
# From -- ./inp_files/14455.got.cif
#   From: 2010.05.17/outbox.cif.g08.bks.cpg/sg36_8_cif.got.tgz:14455.got - 2010.06.03 17:41:39.
