data_PCOD9350322
_publ_section_title
;
Structure prediction by ZEFSAII (Michael W. Deem and Ramdas Pophale) SiO2 
 PCOD9350322
Probable space group: C M M 2
;
_chemical_formula_sum "Si O2"
_cell_formula_units_Z 56
_cell_length_a 14.901874
_cell_length_b 15.583965
_cell_length_c 13.073039
_cell_angle_alpha 90.000000
_cell_angle_beta 90.000000
_cell_angle_gamma 90.000000
_cell_volume 3035.955545
_symmetry_space_group_name_H-M "C M M 2"
_symmetry_group_IT_number 35
_symmetry_cell_setting 'orthorhombic'
loop_
_space_group_symop_operation_xyz
x,y,z
-x,-y,z
-x,y,z
x,-y,z
1/2+x,1/2+y,z
1/2-x,1/2-y,z
1/2-x,1/2+y,z
1/2+x,1/2-y,z
loop_
_atom_site_type_symbol
_atom_site_label
_atom_site_fract_x
_atom_site_fract_y
_atom_site_fract_z
Si Si1 0.602694 0.604650 0.524540
Si Si2 0.400493 0.165632 0.241714
Si Si3 0.396649 0.640745 0.159695
Si Si4 0.896910 0.895620 0.756455
Si Si5 0.770106 0.901872 0.344406
Si Si6 0.710572 0.604699 0.953702
Si Si7 0.598286 0.900007 0.019929
O O1 0.500000 0.631375 0.501826
O O2 0.602572 0.500000 0.521590
O O3 0.625810 0.630829 0.640472
O O4 0.671935 0.633642 0.438644
O O5 0.500000 0.152104 0.286024
O O6 0.396751 0.260156 0.193632
O O7 0.318662 0.150293 0.317020
O O8 0.389806 0.105089 0.142447
O O9 0.500000 0.610363 0.158896
O O10 0.335128 0.597140 0.245605
O O11 0.350939 0.630563 0.049627
O O12 0.832333 0.866673 0.846957
O O13 0.000000 0.870322 0.777236
O O14 0.895311 0.000000 0.756655
O O15 0.743669 0.000000 0.367126
O O16 0.712991 0.500000 0.954652
O O17 0.812042 0.637534 0.970349
O O18 0.500000 0.860771 0.996761
O O19 0.594556 0.000000 0.990604
#
# Coordination Sequence:
#
# PCOD9350322 Si02
#       7
#     8   8   8   8   8   8   8
#     4   8  15  28  46  70 100 130 159 197 249 304
#     4  10  21  35  48  66  95 135 172 200 238 291
#     4  11  22  32  45  72 104 132 157 194 251 302
#     4   8  14  26  44  68 100 133 161 193 242 304
#     4  11  20  31  50  74  98 127 164 207 246 287
#     4  10  18  28  47  74 102 132 163 202 248 296
#     4   9  17  30  47  67  92 126 169 207 238 280
#
# _framework density 18.445592000000001
#
# number of rings (size 3 to 8) (size 9 to 14) (size 15 to 20)
#    0.000    2.429    1.429    3.000    0.000    3.143 
#    0.000    0.000    0.000    0.857    7.429    4.000 
#    0.000    0.000    0.000    0.000    0.000    0.000 
#
# Total GULP energy -156157.289228 kJ/mol
# GULP energy per Si atom -5577.046044 kJ/mol
# Density = 1.840361 g / cm^3
# Si number density = 18.445592 Si / 1000 Ang^3
#
#
#
# Elastic Constant Matrix: (Units=GPa)
#
#
# Indices 1 2 3 4 5 6 
#
# 1 183.5021 16.2405 104.6604 0.0000 0.0000 0.0000
# 2 16.2405 23.7393 5.7052 0.0000 0.0000 0.0000
# 3 104.6604 5.7052 126.5283 0.0000 0.0000 0.0000
# 4 0.0000 0.0000 0.0000 2.1428 0.0000 0.0000
# 5 0.0000 0.0000 0.0000 0.0000 30.0629 0.0000
# 6 0.0000 0.0000 0.0000 0.0000 0.0000 -2.7075
#
#
#
# Elastic Compliance Matrix: (Units=1/GPa)
#
#
# Indices 1 2 3 4 5 6 
#
# 1 0.010956 -0.005375 -0.008820 0.000000 0.000000 0.000000
# 2 -0.005375 0.045223 0.002407 0.000000 0.000000 0.000000
# 3 -0.008820 0.002407 0.015090 0.000000 0.000000 0.000000
# 4 0.000000 0.000000 0.000000 0.466673 0.000000 0.000000
# 5 0.000000 0.000000 0.000000 0.000000 0.033264 0.000000
# 6 0.000000 0.000000 0.000000 0.000000 0.000000 -0.369342
#
#
# Mechanical properties :
#
#
# Convention : Reuss Voigt Hill
#
# Bulk Modulus (GPa) = 20.96737 65.22022 43.09379
# Shear Modulus (GPa) = 20.71795 19.71055 20.21425
#
# Velocity S-wave (km/s) = 3.35504 3.27246 3.31401
# Velocity P-wave (km/s) = 5.13812 7.05078 6.16903
#
# Compressibility (1/GPa) = 0.04769315
#
# Stress axis : x y z
#
# Youngs Moduli (GPa) = 91.27737 22.11259 66.26782
#
# Poissons Ratio (x) = 0.11886 0.58447
# Poissons Ratio (y) = 0.49064 -0.15952
# Poissons Ratio (z) = 0.80505 -0.05323
#
# Static dielectric constant tensor:
#      x y z
#    x 1.657600 0.000000 0.000000 
#    y 0.000000 1.686080 0.000000 
#    z 0.000000 0.000000 1.614930 
# 
# From -- ./inp_files/12977.got.cif
#   From: 2010.05.17/outbox.cif.g08.bks.cpg/sg35_7_cif.got.tgz:12977.got - 2010.06.03 17:29:28.
