data_PCOD9350379
_publ_section_title
;
Structure prediction by ZEFSAII (Michael W. Deem and Ramdas Pophale) SiO2 
 PCOD9350379
Probable space group: C M M 2
;
_chemical_formula_sum "Si O2"
_cell_formula_units_Z 64
_cell_length_a 8.830381
_cell_length_b 15.049462
_cell_length_c 22.039833
_cell_angle_alpha 90.000000
_cell_angle_beta 90.000000
_cell_angle_gamma 90.000000
_cell_volume 2928.928139
_symmetry_space_group_name_H-M "C M M 2"
_symmetry_group_IT_number 35
_symmetry_cell_setting 'orthorhombic'
loop_
_space_group_symop_operation_xyz
x,y,z
-x,-y,z
-x,y,z
x,-y,z
1/2+x,1/2+y,z
1/2-x,1/2-y,z
1/2-x,1/2+y,z
1/2+x,1/2-y,z
loop_
_atom_site_type_symbol
_atom_site_label
_atom_site_fract_x
_atom_site_fract_y
_atom_site_fract_z
Si Si1 0.681777 0.149060 0.570590
Si Si2 0.683828 0.348824 0.447983
Si Si3 0.321019 0.607912 0.184279
Si Si4 0.173445 0.608803 0.059696
Si Si5 0.327785 0.394231 0.314388
Si Si6 0.820702 0.151988 0.692292
Si Si7 0.827392 0.108971 0.935081
Si Si8 0.166815 0.395056 0.814424
O O1 0.500000 0.152072 0.569185
O O2 0.750000 0.250000 0.571719
O O3 0.747133 0.107548 0.508561
O O4 0.741312 0.108105 0.633562
O O5 0.500000 0.352588 0.451493
O O6 0.750000 0.250000 0.449637
O O7 0.736400 0.380642 0.381466
O O8 0.500000 0.628311 0.181986
O O9 0.308684 0.500000 0.182374
O O10 0.239869 0.640402 0.123804
O O11 0.258609 0.637691 0.250429
O O12 0.178044 0.500000 0.060345
O O13 0.000000 0.635760 0.053707
O O14 0.264896 0.637211 0.000341
O O15 0.500000 0.357827 0.316738
O O16 0.338487 0.500000 0.307788
O O17 0.750000 0.250000 0.695349
O O18 0.777535 0.113716 0.757510
O O19 0.000000 0.153710 0.682805
O O20 0.730411 0.140836 0.877727
O O21 0.000000 0.136670 0.927273
O O22 0.824477 0.000000 0.935060
O O23 0.150940 0.500000 0.824132
O O24 0.000000 0.357486 0.799661
#
# Coordination Sequence:
#
# PCOD9350379 Si02
#       8
#     8   8   8   8   8   8   8   8
#     4  10  18  31  50  71  95 122 156 197 239 280
#     4  10  18  30  49  71  94 120 153 193 234 279
#     4   8  13  23  39  58  81 111 148 188 228 271
#     4   9  15  22  34  56  86 118 151 188 232 279
#     4   8  15  28  46  67  91 121 156 192 230 274
#     4  11  21  35  55  77 100 127 163 202 241 287
#     4   9  16  26  41  62  89 123 161 197 234 279
#     4  10  20  34  51  73 103 134 162 198 245 291
#
# _framework density 21.850997
#
# number of rings (size 3 to 8) (size 9 to 14) (size 15 to 20)
#    0.000    2.625    0.000    6.000    0.000    3.750 
#    0.000    1.875    0.000    5.250    0.000    0.875 
#    0.000    2.000    0.000    0.000    0.000    0.000 
#
# Total GULP energy -178407.730218 kJ/mol
# GULP energy per Si atom -5575.241569 kJ/mol
# Density = 2.180126 g / cm^3
# Si number density = 21.850997 Si / 1000 Ang^3
#
#
#
# Elastic Constant Matrix: (Units=GPa)
#
#
# Indices 1 2 3 4 5 6 
#
# 1 126.4300 5.0998 63.2760 0.0000 0.0000 0.0000
# 2 5.0998 32.9855 8.0226 0.0000 0.0000 0.0000
# 3 63.2760 8.0226 204.1501 0.0000 0.0000 0.0000
# 4 0.0000 0.0000 0.0000 9.4424 0.0000 0.0000
# 5 0.0000 0.0000 0.0000 0.0000 40.1153 0.0000
# 6 0.0000 0.0000 0.0000 0.0000 0.0000 5.0442
#
#
#
# Elastic Compliance Matrix: (Units=1/GPa)
#
#
# Indices 1 2 3 4 5 6 
#
# 1 0.009380 -0.000750 -0.002878 0.000000 0.000000 0.000000
# 2 -0.000750 0.030669 -0.000973 0.000000 0.000000 0.000000
# 3 -0.002878 -0.000973 0.005829 0.000000 0.000000 0.000000
# 4 0.000000 0.000000 0.000000 0.105905 0.000000 0.000000
# 5 0.000000 0.000000 0.000000 0.000000 0.024928 0.000000
# 6 0.000000 0.000000 0.000000 0.000000 0.000000 0.198249
#
#
# Mechanical properties :
#
#
# Convention : Reuss Voigt Hill
#
# Bulk Modulus (GPa) = 27.26581 57.37361 42.31971
# Shear Modulus (GPa) = 12.61394 30.06485 21.33940
#
# Velocity S-wave (km/s) = 2.40525 3.71334 3.12843
# Velocity P-wave (km/s) = 4.49653 6.68573 5.69727
#
# Compressibility (1/GPa) = 0.03667597
#
# Stress axis : x y z
#
# Youngs Moduli (GPa) = 106.60867 32.60627 171.56874
#
# Poissons Ratio (x) = 0.02446 0.49375
# Poissons Ratio (y) = 0.07999 0.16688
# Poissons Ratio (z) = 0.30680 0.03171
#
# Static dielectric constant tensor:
#      x y z
#    x 1.760460 0.000000 0.000000 
#    y 0.000000 1.887430 0.000000 
#    z 0.000000 0.000000 1.870660 
# 
# From -- ./inp_files/18505.got.cif
#   From: 2010.05.17/outbox.cif.g08.bks.cpg/sg35_10_cif.got.tgz:18505.got - 2010.06.03 17:29:28.
