data_PCOD9350076
_publ_section_title
;
Structure prediction by ZEFSAII (Michael W. Deem and Ramdas Pophale) SiO2 
 PCOD9350076
Probable space group: C M M 2
;
_chemical_formula_sum "Si O2"
_cell_formula_units_Z 56
_cell_length_a 8.561823
_cell_length_b 18.807113
_cell_length_c 18.821491
_cell_angle_alpha 90.000000
_cell_angle_beta 90.000000
_cell_angle_gamma 90.000000
_cell_volume 3030.696195
_symmetry_space_group_name_H-M "C M M 2"
_symmetry_group_IT_number 35
_symmetry_cell_setting 'orthorhombic'
loop_
_space_group_symop_operation_xyz
x,y,z
-x,-y,z
-x,y,z
x,-y,z
1/2+x,1/2+y,z
1/2-x,1/2-y,z
1/2-x,1/2+y,z
1/2+x,1/2-y,z
loop_
_atom_site_type_symbol
_atom_site_label
_atom_site_fract_x
_atom_site_fract_y
_atom_site_fract_z
Si Si1 0.814471 0.829490 0.497140
Si Si2 0.188299 0.415636 0.364562
Si Si3 0.809044 0.417441 0.054699
Si Si4 0.812275 0.670054 0.916586
Si Si5 0.317344 0.086425 0.209543
Si Si6 0.686213 0.830422 0.649081
Si Si7 0.812513 0.082644 0.782298
O O1 0.750000 0.750000 0.486606
O O2 0.765165 0.875766 0.429888
O O3 0.741868 0.855913 0.571435
O O4 0.000000 0.827096 0.504609
O O5 0.217178 0.500000 0.370024
O O6 0.247146 0.391113 0.286267
O O7 0.000000 0.405696 0.366876
O O8 0.763056 0.500000 0.043550
O O9 0.751574 0.392408 0.132665
O O10 0.000000 0.417154 0.057147
O O11 0.760339 0.368400 0.989512
O O12 0.750000 0.750000 0.912746
O O13 0.752471 0.624777 0.849989
O O14 0.000000 0.671066 0.915309
O O15 0.500000 0.107060 0.209971
O O16 0.313836 0.000000 0.209247
O O17 0.500000 0.828241 0.651413
O O18 0.750000 0.750000 0.658318
O O19 0.750649 0.879818 0.711296
O O20 0.000000 0.086177 0.782904
O O21 0.764871 0.000000 0.785018
#
# Coordination Sequence:
#
# PCOD9350076 Si02
#       7
#     8   8   8   8   8   8   8
#     4  11  22  37  56  78 108 144 182 222 267 318
#     4   9  17  31  53  80 109 142 181 223 268 320
#     4   8  14  27  50  78 104 134 177 226 271 316
#     4  11  22  36  55  79 110 146 183 221 264 317
#     4   7  11  23  46  75 104 135 174 220 268 317
#     4  11  22  39  62  84 109 140 177 218 263 318
#     4  11  24  41  60  83 111 140 174 218 266 315
#
# _framework density 18.477602000000001
#
# number of rings (size 3 to 8) (size 9 to 14) (size 15 to 20)
#    0.000    2.286    0.000    6.857    0.000    2.571 
#    0.000    0.714    0.000    3.429    0.000    4.000 
#    0.000    0.000    0.000    0.000    0.000    0.000 
#
# Total GULP energy -156218.476119 kJ/mol
# GULP energy per Si atom -5579.231290 kJ/mol
# Density = 1.843555 g / cm^3
# Si number density = 18.477602 Si / 1000 Ang^3
#
#
#
# Elastic Constant Matrix: (Units=GPa)
#
#
# Indices 1 2 3 4 5 6 
#
# 1 62.2599 38.0541 48.8265 0.0000 0.0000 0.0000
# 2 38.0541 85.6892 91.9496 0.0000 0.0000 0.0000
# 3 48.8265 91.9496 207.6202 0.0000 0.0000 0.0000
# 4 0.0000 0.0000 0.0000 -122.8110 0.0000 0.0000
# 5 0.0000 0.0000 0.0000 0.0000 -12.8105 0.0000
# 6 0.0000 0.0000 0.0000 0.0000 0.0000 8.1832
#
#
#
# Elastic Compliance Matrix: (Units=1/GPa)
#
#
# Indices 1 2 3 4 5 6 
#
# 1 0.022334 -0.008161 -0.001638 0.000000 0.000000 0.000000
# 2 -0.008161 0.025220 -0.009250 0.000000 0.000000 0.000000
# 3 -0.001638 -0.009250 0.009298 0.000000 0.000000 0.000000
# 4 0.000000 0.000000 0.000000 -0.008143 0.000000 0.000000
# 5 0.000000 0.000000 0.000000 0.000000 -0.078061 0.000000
# 6 0.000000 0.000000 0.000000 0.000000 0.000000 0.122202
#
#
# Mechanical properties :
#
#
# Convention : Reuss Voigt Hill
#
# Bulk Modulus (GPa) = 53.31966 79.24774 66.28370
# Shear Modulus (GPa) = 36.44284 -13.70505 11.36890
#
# Velocity S-wave (km/s) = 4.44584 -2.72639 2.48317
# Velocity P-wave (km/s) = 7.43458 5.75071 6.64619
#
# Compressibility (1/GPa) = 0.01875481
#
# Stress axis : x y z
#
# Youngs Moduli (GPa) = 44.77406 39.65084 107.54471
#
# Poissons Ratio (x) = 0.32357 0.17619
# Poissons Ratio (y) = 0.36538 0.99481
# Poissons Ratio (z) = 0.07336 0.36678
#
# Static dielectric constant tensor:
#      x y z
#    x 1.620740 0.000000 0.000000 
#    y 0.000000 1.605550 0.000000 
#    z 0.000000 0.000000 1.657210 
# 
# From -- ./inp_files/18209.got.cif
#   From: 2010.05.17/outbox.cif.g08.bks.cpg/sg35_10_cif.got.tgz:18209.got - 2010.06.03 17:29:28.
