data_PCOD9350502
_publ_section_title
;
Structure prediction by ZEFSAII (Michael W. Deem and Ramdas Pophale) SiO2 
 PCOD9350502
Probable space group: C M C 21
;
_chemical_formula_sum "Si O2"
_cell_formula_units_Z 52
_cell_length_a 7.350736
_cell_length_b 35.878316
_cell_length_c 7.674507
_cell_angle_alpha 90.000000
_cell_angle_beta 90.000000
_cell_angle_gamma 90.000000
_cell_volume 2024.013303
_symmetry_space_group_name_H-M "C M C 21"
_symmetry_group_IT_number 36
_symmetry_cell_setting 'orthorhombic'
loop_
_space_group_symop_operation_xyz
x,y,z
-x,-y,1/2+z
x,-y,1/2+z
-x,y,z
1/2+x,1/2+y,z
1/2-x,1/2-y,1/2+z
1/2+x,1/2-y,1/2+z
1/2-x,1/2+y,z
loop_
_atom_site_type_symbol
_atom_site_label
_atom_site_fract_x
_atom_site_fract_y
_atom_site_fract_z
Si Si1 0.285973 0.372933 0.081130
Si Si2 0.721542 0.226058 0.372612
Si Si3 0.205801 0.803537 0.252912
Si Si4 0.000000 0.096720 0.031039
Si Si5 0.779840 0.537691 0.128375
Si Si6 0.782810 0.545619 0.530081
Si Si7 0.793154 0.652532 0.194080
O O1 0.500000 0.364491 0.066564
O O2 0.212279 0.344563 0.226462
O O3 0.275049 0.416405 0.121673
O O4 0.204207 0.364685 0.891429
O O5 0.500000 0.226455 0.379215
O O6 0.794938 0.210652 0.553210
O O7 0.789983 0.267959 0.346390
O O8 0.767715 0.195429 0.225391
O O9 0.000000 0.807576 0.319498
O O10 0.160303 0.064530 0.011209
O O11 0.157436 0.127696 0.084692
O O12 0.729398 0.548380 0.327086
O O13 0.000000 0.541369 0.104419
O O14 0.728502 0.494417 0.102797
O O15 0.000000 0.545509 0.534361
O O16 0.000000 0.652172 0.128968
#
# Coordination Sequence:
#
# PCOD9350502 Si02
#       7
#     8   8   8   4   8   8   8
#     4  10  17  30  55  80 107 142 188 226 268 325
#     4   9  19  34  53  82 112 143 183 229 276 329
#     4   9  19  34  55  80 111 144 182 228 277 327
#     4  12  20  32  56  82 112 140 190 224 276 320
#     4  10  22  36  56  82 110 143 179 229 273 325
#     4  10  20  36  55  77 109 141 180 224 273 321
#     4  10  18  31  54  81 108 141 186 231 267 317
#
# _framework density 25.691531000000001
#
# number of rings (size 3 to 8) (size 9 to 14) (size 15 to 20)
#    0.000    2.154    2.308    0.923    2.154    1.231 
#    0.000    0.000    3.385    0.000    0.000    0.000 
#    0.000    0.000    0.000    0.000    0.000    0.000 
#
# Total GULP energy -144939.303801 kJ/mol
# GULP energy per Si atom -5574.588608 kJ/mol
# Density = 2.563306 g / cm^3
# Si number density = 25.691531 Si / 1000 Ang^3
#
#
#
# Elastic Constant Matrix: (Units=GPa)
#
#
# Indices 1 2 3 4 5 6 
#
# 1 109.2575 -79.3843 84.3472 0.0000 0.0000 0.0000
# 2 -79.3843 -667.4937 613.1235 0.0000 0.0000 0.0000
# 3 84.3472 613.1235 -278.2323 0.0000 0.0000 0.0000
# 4 0.0000 0.0000 0.0000 25.4065 0.0000 0.0000
# 5 0.0000 0.0000 0.0000 0.0000 -4.3568 0.0000
# 6 0.0000 0.0000 0.0000 0.0000 0.0000 -9.0876
#
#
#
# Elastic Compliance Matrix: (Units=1/GPa)
#
#
# Indices 1 2 3 4 5 6 
#
# 1 0.008457 -0.001317 -0.000339 0.000000 0.000000 0.000000
# 2 -0.001317 0.001668 0.003276 0.000000 0.000000 0.000000
# 3 -0.000339 0.003276 0.003523 0.000000 0.000000 0.000000
# 4 0.000000 0.000000 0.000000 0.039360 0.000000 0.000000
# 5 0.000000 0.000000 0.000000 0.000000 -0.229526 0.000000
# 6 0.000000 0.000000 0.000000 0.000000 0.000000 -0.110040
#
#
# Mechanical properties :
#
#
# Convention : Reuss Voigt Hill
#
# Bulk Modulus (GPa) = 59.21404 44.41161 51.81283
# Shear Modulus (GPa) = -17.59525 -94.57791 -56.08658
#
# Velocity S-wave (km/s) = -2.61983 -6.07394 -4.67741
# Velocity P-wave (km/s) = 3.73453 5.64503 2.99330
#
# Compressibility (1/GPa) = 0.01688789
#
# Stress axis : x y z
#
# Youngs Moduli (GPa) = 118.24018 599.50643 283.84928
#
# Poissons Ratio (x) = 0.78980 0.09629
# Poissons Ratio (y) = 0.15577 -0.93000
# Poissons Ratio (z) = 0.04011 -1.96421
#
# Static dielectric constant tensor:
#      x y z
#    x 2.069100 0.000000 0.000000 
#    y 0.000000 2.062590 0.000000 
#    z 0.000000 0.000000 2.168290 
# 
# From -- ./inp_files/7011.got.cif
#   From: 2010.05.17/outbox.cif.g08.bks.cpg/sg36_4_cif.got.tgz:7011.got - 2010.06.03 17:41:39.
