data_PCOD9350828
_publ_section_title
;
Structure prediction by ZEFSAII (Michael W. Deem and Ramdas Pophale) SiO2 
 PCOD9350828
Probable space group: C M C 21
;
_chemical_formula_sum "Si O2"
_cell_formula_units_Z 48
_cell_length_a 19.012831
_cell_length_b 38.766370
_cell_length_c 5.207772
_cell_angle_alpha 90.000000
_cell_angle_beta 90.000000
_cell_angle_gamma 90.000000
_cell_volume 3838.432313
_symmetry_space_group_name_H-M "C M C 21"
_symmetry_group_IT_number 36
_symmetry_cell_setting 'orthorhombic'
loop_
_space_group_symop_operation_xyz
x,y,z
-x,-y,1/2+z
x,-y,1/2+z
-x,y,z
1/2+x,1/2+y,z
1/2-x,1/2-y,1/2+z
1/2+x,1/2-y,1/2+z
1/2-x,1/2+y,z
loop_
_atom_site_type_symbol
_atom_site_label
_atom_site_fract_x
_atom_site_fract_y
_atom_site_fract_z
Si Si1 0.655624 0.752071 0.473760
Si Si2 0.414587 0.979581 0.477628
Si Si3 0.291182 0.792137 0.974257
Si Si4 0.500000 0.804989 0.889111
Si Si5 0.128498 0.357271 0.943401
Si Si6 0.914336 0.398840 0.443913
Si Si7 0.500000 0.239698 0.889072
O O1 0.675911 0.777408 0.238162
O O2 0.710639 0.720645 0.465552
O O3 0.574208 0.741973 0.443572
O O4 0.670132 0.772909 0.736763
O O5 0.500000 0.980745 0.478990
O O6 0.396996 0.939405 0.452541
O O7 0.390270 0.997499 0.738669
O O8 0.302955 0.833019 0.954900
O O9 0.566853 0.828791 0.939315
O O10 0.500000 0.791628 0.596892
O O11 0.500000 0.774565 0.098839
O O12 0.118308 0.379674 0.688671
O O13 0.115462 0.381175 0.188629
O O14 0.000000 0.395163 0.449565
#
# Coordination Sequence:
#
# PCOD9350828 Si02
#       7
#     8   8   8   4   8   8   4
#     4  10  19  30  42  56  72  99 129 156 193 236
#     4   9  17  29  40  51  70  94 119 151 185 213
#     4  10  20  30  40  55  78  99 121 156 201 237
#     4  12  20  26  40  60  74  99 118 166 206 227
#     4  12  19  28  38  55  79  95 119 156 199 235
#     4  11  20  27  40  58  73  94 125 155 187 227
#     4  12  18  30  44  58  70  95 136 162 192 237
#
# _framework density 12.505103999999999
#
# number of rings (size 3 to 8) (size 9 to 14) (size 15 to 20)
#    0.000    1.333    5.000    3.000    0.000    2.667 
#    0.000    0.000    0.000    0.000    0.000    0.000 
#    0.000    0.000    0.000    0.000    0.000    0.000 
#
# Total GULP energy -133857.934416 kJ/mol
# GULP energy per Si atom -5577.413934 kJ/mol
# Density = 1.247664 g / cm^3
# Si number density = 12.505104 Si / 1000 Ang^3
#
#
#
# Elastic Constant Matrix: (Units=GPa)
#
#
# Indices 1 2 3 4 5 6 
#
# 1 67.3564 61.5589 40.9505 0.0000 0.0000 0.0000
# 2 61.5589 206.2200 145.6214 0.0000 0.0000 0.0000
# 3 40.9505 145.6214 195.1207 0.0000 0.0000 0.0000
# 4 0.0000 0.0000 0.0000 102.9488 0.0000 0.0000
# 5 0.0000 0.0000 0.0000 0.0000 6.8670 0.0000
# 6 0.0000 0.0000 0.0000 0.0000 0.0000 15.3338
#
#
#
# Elastic Compliance Matrix: (Units=1/GPa)
#
#
# Indices 1 2 3 4 5 6 
#
# 1 0.020445 -0.006497 0.000558 0.000000 0.000000 0.000000
# 2 -0.006497 0.012317 -0.007829 0.000000 0.000000 0.000000
# 3 0.000558 -0.007829 0.010851 0.000000 0.000000 0.000000
# 4 0.000000 0.000000 0.000000 0.009714 0.000000 0.000000
# 5 0.000000 0.000000 0.000000 0.000000 0.145623 0.000000
# 6 0.000000 0.000000 0.000000 0.000000 0.000000 0.065215
#
#
# Mechanical properties :
#
#
# Convention : Reuss Voigt Hill
#
# Bulk Modulus (GPa) = 62.20094 107.21764 84.70929
# Shear Modulus (GPa) = 16.83167 39.73436 28.28302
#
# Velocity S-wave (km/s) = 3.67275 5.64300 4.76091
# Velocity P-wave (km/s) = 8.23613 11.33063 9.90497
#
# Compressibility (1/GPa) = 0.01607693
#
# Stress axis : x y z
#
# Youngs Moduli (GPa) = 48.91169 81.18984 92.16129
#
# Poissons Ratio (x) = 0.52750 -0.05143
# Poissons Ratio (y) = 0.31778 0.72150
# Poissons Ratio (z) = -0.02729 0.63561
#
# Static dielectric constant tensor:
#      x y z
#    x 1.419000 0.000000 0.000000 
#    y 0.000000 1.388000 0.000000 
#    z 0.000000 0.000000 1.424810 
# 
# From -- ./inp_files/1503.got.cif
#   From: 2010.05.17/outbox.cif.g08.bks.cpg/sg36_1_cif.got.tgz:1503.got - 2010.06.03 17:41:39.
