data_PCOD9350066
_publ_section_title
;
Structure prediction by ZEFSAII (Michael W. Deem and Ramdas Pophale) SiO2 
 PCOD9350066
Probable space group: C M M 2
;
_chemical_formula_sum "Si O2"
_cell_formula_units_Z 48
_cell_length_a 17.400863
_cell_length_b 15.097753
_cell_length_c 8.955070
_cell_angle_alpha 90.000000
_cell_angle_beta 90.000000
_cell_angle_gamma 90.000000
_cell_volume 2352.621647
_symmetry_space_group_name_H-M "C M M 2"
_symmetry_group_IT_number 35
_symmetry_cell_setting 'orthorhombic'
loop_
_space_group_symop_operation_xyz
x,y,z
-x,-y,z
-x,y,z
x,-y,z
1/2+x,1/2+y,z
1/2-x,1/2-y,z
1/2-x,1/2+y,z
1/2+x,1/2-y,z
loop_
_atom_site_type_symbol
_atom_site_label
_atom_site_fract_x
_atom_site_fract_y
_atom_site_fract_z
Si Si1 0.199540 0.000000 0.620080
Si Si2 0.324666 0.000000 0.233512
Si Si3 0.120697 0.500000 0.551006
Si Si4 0.668700 0.197280 0.242263
Si Si5 0.087035 0.154834 0.090265
Si Si6 0.176178 0.185065 0.788575
Si Si7 0.355925 0.500000 0.301879
Si Si8 0.587311 0.193902 0.558447
O O1 0.191237 0.091994 0.707225
O O2 0.139887 0.000000 0.480821
O O3 0.288232 0.000000 0.572415
O O4 0.330871 0.099299 0.170056
O O5 0.235266 0.000000 0.278277
O O6 0.385863 0.000000 0.370300
O O7 0.088456 0.591686 0.611850
O O8 0.750000 0.250000 0.225570
O O9 0.600986 0.251093 0.165706
O O10 0.646755 0.194890 0.418362
O O11 0.109927 0.084154 0.216803
O O12 0.000000 0.138930 0.043254
O O13 0.142087 0.157051 0.947805
O O14 0.250000 0.250000 0.804083
O O15 0.116944 0.240761 0.686426
O O16 0.500000 0.216305 0.512816
#
# Coordination Sequence:
#
# PCOD9350066 Si02
#       8
#     4   4   4   8   8   8   4   8
#     4  11  23  44  70 103 121 164 228 281 314 386
#     4   9  20  35  64  96 124 156 215 271 317 369
#     4   9  19  37  62  94 129 161 207 273 319 371
#     4  11  21  40  66  95 127 171 220 271 318 386
#     4  12  26  44  63  96 136 174 214 268 330 391
#     4  12  25  43  68  94 134 176 219 266 325 393
#     4  11  22  42  72  95 130 165 218 277 324 378
#     4  11  22  39  65  98 131 170 214 270 330 383
#
# _framework density 20.402771000000001
#
# number of rings (size 3 to 8) (size 9 to 14) (size 15 to 20)
#    0.000    1.000    3.333    4.000    2.333    0.000 
#    0.000    5.833    0.000    0.000    0.000    0.000 
#    0.000    0.000    0.000    0.000    0.000    0.000 
#
# Total GULP energy -133889.116424 kJ/mol
# GULP energy per Si atom -5578.713184 kJ/mol
# Density = 2.035633 g / cm^3
# Si number density = 20.402771 Si / 1000 Ang^3
#
#
#
# Elastic Constant Matrix: (Units=GPa)
#
#
# Indices 1 2 3 4 5 6 
#
# 1 95.6917 45.6367 30.8437 0.0000 0.0000 0.0000
# 2 45.6367 151.5266 40.2016 0.0000 0.0000 0.0000
# 3 30.8437 40.2016 84.3079 0.0000 0.0000 0.0000
# 4 0.0000 0.0000 0.0000 12.1064 0.0000 0.0000
# 5 0.0000 0.0000 0.0000 0.0000 23.5382 0.0000
# 6 0.0000 0.0000 0.0000 0.0000 0.0000 17.6145
#
#
#
# Elastic Compliance Matrix: (Units=1/GPa)
#
#
# Indices 1 2 3 4 5 6 
#
# 1 0.012957 -0.003028 -0.003296 0.000000 0.000000 0.000000
# 2 -0.003028 0.008263 -0.002832 0.000000 0.000000 0.000000
# 3 -0.003296 -0.002832 0.014418 0.000000 0.000000 0.000000
# 4 0.000000 0.000000 0.000000 0.082601 0.000000 0.000000
# 5 0.000000 0.000000 0.000000 0.000000 0.042484 0.000000
# 6 0.000000 0.000000 0.000000 0.000000 0.000000 0.056771
#
#
# Mechanical properties :
#
#
# Convention : Reuss Voigt Hill
#
# Bulk Modulus (GPa) = 57.72217 62.76557 60.24387
# Shear Modulus (GPa) = 20.69696 24.97479 22.83587
#
# Velocity S-wave (km/s) = 3.18845 3.50249 3.34915
# Velocity P-wave (km/s) = 6.47362 6.86925 6.67437
#
# Compressibility (1/GPa) = 0.01732437
#
# Stress axis : x y z
#
# Youngs Moduli (GPa) = 77.18018 121.02360 69.35841
#
# Poissons Ratio (x) = 0.36643 0.22863
# Poissons Ratio (y) = 0.23368 0.19645
# Poissons Ratio (z) = 0.25442 0.34279
#
# Static dielectric constant tensor:
#      x y z
#    x 1.707180 0.000000 0.000000 
#    y 0.000000 1.760980 0.000000 
#    z 0.000000 0.000000 1.786510 
# 
# From -- ./inp_files/8419.got.cif
#   From: 2010.05.17/outbox.cif.g08.bks.cpg/sg35_5_cif.got.tgz:8419.got - 2010.06.03 17:29:28.
