data_PCOD9350571
_publ_section_title
;
Structure prediction by ZEFSAII (Michael W. Deem and Ramdas Pophale) SiO2 
 PCOD9350571
Probable space group: C M C 21
;
_chemical_formula_sum "Si O2"
_cell_formula_units_Z 60
_cell_length_a 22.401814
_cell_length_b 25.505756
_cell_length_c 5.377324
_cell_angle_alpha 90.000000
_cell_angle_beta 90.000000
_cell_angle_gamma 90.000000
_cell_volume 3072.469586
_symmetry_space_group_name_H-M "C M C 21"
_symmetry_group_IT_number 36
_symmetry_cell_setting 'orthorhombic'
loop_
_space_group_symop_operation_xyz
x,y,z
-x,-y,1/2+z
x,-y,1/2+z
-x,y,z
1/2+x,1/2+y,z
1/2-x,1/2-y,1/2+z
1/2+x,1/2-y,1/2+z
1/2-x,1/2+y,z
loop_
_atom_site_type_symbol
_atom_site_label
_atom_site_fract_x
_atom_site_fract_y
_atom_site_fract_z
Si Si1 0.799014 0.033603 0.396060
Si Si2 0.673607 0.322684 0.398026
Si Si3 0.687609 0.855579 0.397704
Si Si4 0.687325 0.199222 0.397596
Si Si5 0.436598 0.466306 0.863291
Si Si6 0.188907 0.854666 0.897914
Si Si7 0.000000 0.467806 0.354338
Si Si8 0.131868 0.465554 0.428128
O O1 0.771623 0.091745 0.397976
O O2 0.787608 0.000159 0.646436
O O3 0.868590 0.052239 0.391522
O O4 0.741893 0.343685 0.397409
O O5 0.673028 0.260374 0.399319
O O6 0.650066 0.346481 0.652326
O O7 0.650098 0.346405 0.143458
O O8 0.664110 0.828094 0.647492
O O9 0.675751 0.917034 0.405381
O O10 0.664191 0.829191 0.145330
O O11 0.759979 0.191332 0.397533
O O12 0.438111 0.491463 0.588465
O O13 0.500000 0.436184 0.890798
O O14 0.064186 0.442667 0.407350
O O15 0.000000 0.514018 0.565771
O O16 0.138870 0.495506 0.691493
#
# Coordination Sequence:
#
# PCOD9350571 Si02
#       8
#     8   8   8   8   8   8   4   8
#     4  10  19  30  42  62  93 119 143 177 209 260
#     4  10  19  33  48  64  89 112 152 200 229 256
#     4  10  18  30  48  69  90 117 151 190 221 271
#     4  10  19  33  48  65  90 112 151 201 231 255
#     4   8  14  25  41  58  79 108 138 171 206 234
#     4  10  18  30  46  64  86 119 151 181 219 270
#     4   8  16  30  48  64  90 128 154 184 224 262
#     4  10  19  32  47  69  99 127 155 186 223 275
#
# _framework density 19.528265999999999
#
# number of rings (size 3 to 8) (size 9 to 14) (size 15 to 20)
#    0.000    2.400    0.000    5.600    0.000    0.000 
#    0.000   16.000    0.000    0.000    0.000    0.000 
#   22.000    0.000    0.000    0.000    0.000    0.000 
#
# Total GULP energy -167054.925479 kJ/mol
# GULP energy per Si atom -5568.497516 kJ/mol
# Density = 1.948382 g / cm^3
# Si number density = 19.528266 Si / 1000 Ang^3
#
#
#
# Elastic Constant Matrix: (Units=GPa)
#
#
# Indices 1 2 3 4 5 6 
#
# 1 29.5843 5.3452 -4.6693 0.0000 0.0000 0.0000
# 2 5.3452 91.0753 43.4505 0.0000 0.0000 0.0000
# 3 -4.6693 43.4505 180.7170 0.0000 0.0000 0.0000
# 4 0.0000 0.0000 0.0000 33.9140 0.0000 0.0000
# 5 0.0000 0.0000 0.0000 0.0000 7.2699 0.0000
# 6 0.0000 0.0000 0.0000 0.0000 0.0000 1.0537
#
#
#
# Elastic Compliance Matrix: (Units=1/GPa)
#
#
# Indices 1 2 3 4 5 6 
#
# 1 0.034549 -0.002771 0.001559 0.000000 0.000000 0.000000
# 2 -0.002771 0.012625 -0.003107 0.000000 0.000000 0.000000
# 3 0.001559 -0.003107 0.006321 0.000000 0.000000 0.000000
# 4 0.000000 0.000000 0.000000 0.029486 0.000000 0.000000
# 5 0.000000 0.000000 0.000000 0.000000 0.137554 0.000000
# 6 0.000000 0.000000 0.000000 0.000000 0.000000 0.949001
#
#
# Mechanical properties :
#
#
# Convention : Reuss Voigt Hill
#
# Bulk Modulus (GPa) = 22.29392 43.29215 32.79304
# Shear Modulus (GPa) = 4.19067 25.59753 14.89410
#
# Velocity S-wave (km/s) = 1.46650 3.62442 2.76469
# Velocity P-wave (km/s) = 3.78266 6.30336 5.19811
#
# Compressibility (1/GPa) = 0.04485528
#
# Stress axis : x y z
#
# Youngs Moduli (GPa) = 28.94479 79.20847 158.20691
#
# Poissons Ratio (x) = 0.21952 -0.24664
# Poissons Ratio (y) = 0.08022 0.49156
# Poissons Ratio (z) = -0.04512 0.24611
#
# Static dielectric constant tensor:
#      x y z
#    x 1.749890 0.000000 0.000000 
#    y 0.000000 1.714670 0.000000 
#    z 0.000000 0.000000 1.856650 
# 
# From -- ./inp_files/1636.got.cif
#   From: 2010.05.17/outbox.cif.g08.bks.cpg/sg36_1_cif.got.tgz:1636.got - 2010.06.03 17:41:39.
