data_PCOD9350287
_publ_section_title
;
Structure prediction by ZEFSAII (Michael W. Deem and Ramdas Pophale) SiO2 
 PCOD9350287
Probable space group: C M M 2
;
_chemical_formula_sum "Si O2"
_cell_formula_units_Z 64
_cell_length_a 17.226130
_cell_length_b 13.146762
_cell_length_c 14.031648
_cell_angle_alpha 90.000000
_cell_angle_beta 90.000000
_cell_angle_gamma 90.000000
_cell_volume 3177.716892
_symmetry_space_group_name_H-M "C M M 2"
_symmetry_group_IT_number 35
_symmetry_cell_setting 'orthorhombic'
loop_
_space_group_symop_operation_xyz
x,y,z
-x,-y,z
-x,y,z
x,-y,z
1/2+x,1/2+y,z
1/2-x,1/2-y,z
1/2-x,1/2+y,z
1/2+x,1/2-y,z
loop_
_atom_site_type_symbol
_atom_site_label
_atom_site_fract_x
_atom_site_fract_y
_atom_site_fract_z
Si Si1 0.588614 0.252224 0.799040
Si Si2 0.405827 0.616899 0.623915
Si Si3 0.880918 0.883289 0.965322
Si Si4 0.884882 0.617683 0.301762
Si Si5 0.089421 0.183192 0.410650
Si Si6 0.204391 0.112367 0.248500
Si Si7 0.804164 0.381156 0.939117
Si Si8 0.624672 0.772041 0.116004
O O1 0.500000 0.210389 0.789831
O O2 0.619388 0.297212 0.699458
O O3 0.583613 0.352239 0.865056
O O4 0.647465 0.178562 0.857010
O O5 0.500000 0.615125 0.630566
O O6 0.378873 0.500000 0.640613
O O7 0.386592 0.652971 0.517013
O O8 0.788218 0.861843 0.949753
O O9 0.892011 0.000000 0.989441
O O10 0.914911 0.807500 0.044382
O O11 0.907188 0.500000 0.314960
O O12 0.905888 0.696494 0.385143
O O13 0.791460 0.621273 0.287676
O O14 0.914490 0.666213 0.201936
O O15 0.144941 0.129153 0.334803
O O16 0.000000 0.151209 0.397247
O O17 0.182061 0.194777 0.170516
O O18 0.196070 0.000000 0.206663
O O19 0.813790 0.500000 0.921067
O O20 0.838487 0.351507 0.042377
#
# Coordination Sequence:
#
# PCOD9350287 Si02
#       8
#     8   8   8   8   8   8   8   8
#     4  10  20  35  55  77 101 131 169 212 257 307
#     4   9  18  34  56  79 101 129 167 210 260 316
#     4  10  19  32  52  78 106 135 169 212 259 302
#     4  10  20  34  52  75 105 140 175 209 247 296
#     4  10  20  35  55  77 101 131 169 212 257 307
#     4  10  19  32  52  78 106 135 169 212 259 302
#     4  10  20  34  52  75 105 140 175 209 247 296
#     4  10  17  30  53  78 101 134 179 216 245 290
#
# _framework density 20.140246000000001
#
# number of rings (size 3 to 8) (size 9 to 14) (size 15 to 20)
#    0.000    2.125    0.000    6.000    0.000    4.000 
#    0.000   13.125    0.000   17.250    0.000    0.000 
#    0.000    0.000    0.000    0.000    0.000    0.000 
#
# Total GULP energy -178444.192665 kJ/mol
# GULP energy per Si atom -5576.381021 kJ/mol
# Density = 2.009441 g / cm^3
# Si number density = 20.140246 Si / 1000 Ang^3
#
#
#
# Elastic Constant Matrix: (Units=GPa)
#
#
# Indices 1 2 3 4 5 6 
#
# 1 92.9720 29.0936 32.4377 0.0000 0.0000 0.0000
# 2 29.0936 115.0761 26.8333 0.0000 0.0000 0.0000
# 3 32.4377 26.8333 107.5563 0.0000 0.0000 0.0000
# 4 0.0000 0.0000 0.0000 20.3758 0.0000 0.0000
# 5 0.0000 0.0000 0.0000 0.0000 14.8938 0.0000
# 6 0.0000 0.0000 0.0000 0.0000 0.0000 14.5818
#
#
#
# Elastic Compliance Matrix: (Units=1/GPa)
#
#
# Indices 1 2 3 4 5 6 
#
# 1 0.012639 -0.002449 -0.003201 0.000000 0.000000 0.000000
# 2 -0.002449 0.009701 -0.001682 0.000000 0.000000 0.000000
# 3 -0.003201 -0.001682 0.010682 0.000000 0.000000 0.000000
# 4 0.000000 0.000000 0.000000 0.049078 0.000000 0.000000
# 5 0.000000 0.000000 0.000000 0.000000 0.067142 0.000000
# 6 0.000000 0.000000 0.000000 0.000000 0.000000 0.068579
#
#
# Mechanical properties :
#
#
# Convention : Reuss Voigt Hill
#
# Bulk Modulus (GPa) = 54.46757 54.70374 54.58565
# Shear Modulus (GPa) = 20.95523 25.11960 23.03741
#
# Velocity S-wave (km/s) = 3.22912 3.53545 3.38575
# Velocity P-wave (km/s) = 6.40358 6.62467 6.51506
#
# Compressibility (1/GPa) = 0.01835955
#
# Stress axis : x y z
#
# Youngs Moduli (GPa) = 79.11988 103.08004 93.61258
#
# Poissons Ratio (x) = 0.25245 0.29963
# Poissons Ratio (y) = 0.19377 0.15742
# Poissons Ratio (z) = 0.25325 0.17335
#
# Static dielectric constant tensor:
#      x y z
#    x 1.755400 0.000000 0.000000 
#    y 0.000000 1.742960 0.000000 
#    z 0.000000 0.000000 1.698020 
# 
# From -- ./inp_files/17228.got.cif
#   From: 2010.05.17/outbox.cif.g08.bks.cpg/sg35_9_cif.got.tgz:17228.got - 2010.06.03 17:29:28.
