data_PCOD9350886
_publ_section_title
;
Structure prediction by ZEFSAII (Michael W. Deem and Ramdas Pophale) SiO2 
 PCOD9350886
Probable space group: C M C 21
;
_chemical_formula_sum "Si O2"
_cell_formula_units_Z 40
_cell_length_a 13.121106
_cell_length_b 20.327033
_cell_length_c 8.104336
_cell_angle_alpha 90.000000
_cell_angle_beta 90.000000
_cell_angle_gamma 90.000000
_cell_volume 2161.533021
_symmetry_space_group_name_H-M "C M C 21"
_symmetry_group_IT_number 36
_symmetry_cell_setting 'orthorhombic'
loop_
_space_group_symop_operation_xyz
x,y,z
-x,-y,1/2+z
x,-y,1/2+z
-x,y,z
1/2+x,1/2+y,z
1/2-x,1/2-y,1/2+z
1/2+x,1/2-y,1/2+z
1/2-x,1/2+y,z
loop_
_atom_site_type_symbol
_atom_site_label
_atom_site_fract_x
_atom_site_fract_y
_atom_site_fract_z
Si Si1 0.000000 0.598511 0.647341
Si Si2 0.329070 0.184158 0.501213
Si Si3 0.886817 0.822358 0.606832
Si Si4 0.387316 0.273945 0.987426
Si Si5 0.170042 0.366468 0.628665
Si Si6 0.500000 0.960552 0.508096
O O1 0.901678 0.643691 0.620658
O O2 0.000000 0.538679 0.518627
O O3 0.000000 0.564379 0.822407
O O4 0.368436 0.259174 0.491168
O O5 0.211846 0.189459 0.559179
O O6 0.337100 0.152235 0.321209
O O7 0.882684 0.790826 0.792131
O O8 0.790600 0.870405 0.589303
O O9 0.000000 0.849878 0.582690
O O10 0.500000 0.293536 0.046593
O O11 0.372116 0.196904 0.027605
O O12 0.100385 0.428752 0.590831
#
# Coordination Sequence:
#
# PCOD9350886 Si02
#       6
#     4   8   8   8   8   4
#     4  12  24  38  54  72 100 136 175 216 259 304
#     4  10  19  31  49  76 105 134 171 209 252 302
#     4   9  17  30  50  76 107 138 165 204 253 302
#     4   9  17  30  50  76 107 138 165 204 253 302
#     4  10  19  31  49  76 105 134 171 209 252 302
#     4  12  24  38  54  72 100 136 175 216 259 304
#
# _framework density 18.505386000000001
#
# number of rings (size 3 to 8) (size 9 to 14) (size 15 to 20)
#    0.000    2.000    2.000    3.000    0.000    1.600 
#    0.000    0.000    0.000    1.200    0.000    0.000 
#    0.000    0.000    0.000    0.000    0.000    0.000 
#
# Total GULP energy -111593.098391 kJ/mol
# GULP energy per Si atom -5579.654920 kJ/mol
# Density = 1.846327 g / cm^3
# Si number density = 18.505386 Si / 1000 Ang^3
#
#
#
# Elastic Constant Matrix: (Units=GPa)
#
#
# Indices 1 2 3 4 5 6 
#
# 1 181.1685 34.2455 12.3969 0.0000 0.0000 0.0000
# 2 34.2455 45.3674 -5.7627 0.0000 0.0000 0.0000
# 3 12.3969 -5.7627 25.9681 0.0000 0.0000 0.0000
# 4 0.0000 0.0000 0.0000 25.1849 0.0000 0.0000
# 5 0.0000 0.0000 0.0000 0.0000 12.1531 0.0000
# 6 0.0000 0.0000 0.0000 0.0000 0.0000 11.9100
#
#
#
# Elastic Compliance Matrix: (Units=1/GPa)
#
#
# Indices 1 2 3 4 5 6 
#
# 1 0.006935 -0.005819 -0.004602 0.000000 0.000000 0.000000
# 2 -0.005819 0.027565 0.008895 0.000000 0.000000 0.000000
# 3 -0.004602 0.008895 0.042680 0.000000 0.000000 0.000000
# 4 0.000000 0.000000 0.000000 0.039706 0.000000 0.000000
# 5 0.000000 0.000000 0.000000 0.000000 0.082284 0.000000
# 6 0.000000 0.000000 0.000000 0.000000 0.000000 0.083963
#
#
# Mechanical properties :
#
#
# Convention : Reuss Voigt Hill
#
# Bulk Modulus (GPa) = 13.49040 37.14040 25.31540
# Shear Modulus (GPa) = 16.08271 23.95788 20.02030
#
# Velocity S-wave (km/s) = 2.95122 3.60202 3.29274
# Velocity P-wave (km/s) = 4.34957 6.11662 5.30715
#
# Compressibility (1/GPa) = 0.07412679
#
# Stress axis : x y z
#
# Youngs Moduli (GPa) = 144.20505 36.27841 23.43041
#
# Poissons Ratio (x) = 0.21111 0.10782
# Poissons Ratio (y) = 0.83914 -0.20841
# Poissons Ratio (z) = 0.66361 -0.32269
#
# Static dielectric constant tensor:
#      x y z
#    x 1.681770 0.000000 0.000000 
#    y 0.000000 1.582060 0.000000 
#    z 0.000000 0.000000 1.678130 
# 
# From -- ./inp_files/3901.got.cif
#   From: 2010.05.17/outbox.cif.g08.bks.cpg/sg36_2_cif.got.tgz:3901.got - 2010.06.03 17:41:39.
