data_PCOD9350060
_publ_section_title
;
Structure prediction by ZEFSAII (Michael W. Deem and Ramdas Pophale) SiO2 
 PCOD9350060
Probable space group: C M M 2
;
_chemical_formula_sum "Si O2"
_cell_formula_units_Z 40
_cell_length_a 14.842594
_cell_length_b 8.593624
_cell_length_c 17.130041
_cell_angle_alpha 90.000000
_cell_angle_beta 90.000000
_cell_angle_gamma 90.000000
_cell_volume 2184.965371
_symmetry_space_group_name_H-M "C M M 2"
_symmetry_group_IT_number 35
_symmetry_cell_setting 'orthorhombic'
loop_
_space_group_symop_operation_xyz
x,y,z
-x,-y,z
-x,y,z
x,-y,z
1/2+x,1/2+y,z
1/2-x,1/2-y,z
1/2-x,1/2+y,z
1/2+x,1/2-y,z
loop_
_atom_site_type_symbol
_atom_site_label
_atom_site_fract_x
_atom_site_fract_y
_atom_site_fract_z
Si Si1 0.648811 0.187558 0.333580
Si Si2 0.500000 0.314695 0.033123
Si Si3 0.000000 0.688038 0.207316
Si Si4 0.850887 0.686111 0.919127
Si Si5 0.148994 0.813819 0.751252
Si Si6 0.500000 0.812591 0.636497
Si Si7 0.500000 0.810469 0.456692
O O1 0.750000 0.250000 0.332686
O O2 0.588140 0.231388 0.258363
O O3 0.588728 0.238454 0.408213
O O4 0.652676 0.000000 0.335037
O O5 0.500000 0.500000 0.026509
O O6 0.500000 0.263963 0.122922
O O7 0.414135 0.245642 0.987904
O O8 0.000000 0.500000 0.199648
O O9 0.850103 0.500000 0.916276
O O10 0.750000 0.750000 0.929733
O O11 0.883510 0.751004 0.835421
O O12 0.250000 0.750000 0.741222
O O13 0.085922 0.751247 0.682976
O O14 0.149328 0.000000 0.752790
O O15 0.500000 0.761194 0.546320
O O16 0.500000 0.000000 0.638928
O O17 0.500000 0.000000 0.455652
#
# Coordination Sequence:
#
# PCOD9350060 Si02
#       7
#     8   4   4   8   8   4   4
#     4   9  18  36  60  82 107 142 180 221 273 329
#     4  12  24  38  57  84 116 149 186 229 278 329
#     4   9  20  38  56  78 111 146 181 222 273 332
#     4  11  22  39  60  83 111 147 190 233 280 330
#     4  11  22  38  57  81 112 148 191 234 279 330
#     4  11  21  36  57  82 114 150 187 231 282 329
#     4   8  18  36  56  80 111 145 180 220 271 332
#
# _framework density 18.306925
#
# number of rings (size 3 to 8) (size 9 to 14) (size 15 to 20)
#    0.000    1.800    0.000    7.800    0.000    2.400 
#    0.000    7.500    0.000    0.000    0.000    0.000 
#    0.000    0.000    0.000    0.000    0.000    0.000 
#
# Total GULP energy -111733.494239 kJ/mol
# GULP energy per Si atom -5586.674712 kJ/mol
# Density = 1.826526 g / cm^3
# Si number density = 18.306925 Si / 1000 Ang^3
#
#
#
# Elastic Constant Matrix: (Units=GPa)
#
#
# Indices 1 2 3 4 5 6 
#
# 1 150.1011 47.9781 101.4605 0.0000 0.0000 0.0000
# 2 47.9781 123.3669 67.7981 0.0000 0.0000 0.0000
# 3 101.4605 67.7981 193.1902 0.0000 0.0000 0.0000
# 4 0.0000 0.0000 0.0000 24.1301 0.0000 0.0000
# 5 0.0000 0.0000 0.0000 0.0000 26.0774 0.0000
# 6 0.0000 0.0000 0.0000 0.0000 0.0000 35.6041
#
#
#
# Elastic Compliance Matrix: (Units=1/GPa)
#
#
# Indices 1 2 3 4 5 6 
#
# 1 0.010496 -0.001304 -0.005054 0.000000 0.000000 0.000000
# 2 -0.001304 0.010205 -0.002896 0.000000 0.000000 0.000000
# 3 -0.005054 -0.002896 0.008847 0.000000 0.000000 0.000000
# 4 0.000000 0.000000 0.000000 0.041442 0.000000 0.000000
# 5 0.000000 0.000000 0.000000 0.000000 0.038347 0.000000
# 6 0.000000 0.000000 0.000000 0.000000 0.000000 0.028087
#
#
# Mechanical properties :
#
#
# Convention : Reuss Voigt Hill
#
# Bulk Modulus (GPa) = 90.59791 100.12576 95.36183
# Shear Modulus (GPa) = 31.32582 33.79041 32.55811
#
# Velocity S-wave (km/s) = 4.14109 4.30091 4.22175
# Velocity P-wave (km/s) = 8.51238 8.91489 8.71596
#
# Compressibility (1/GPa) = 0.01103778
#
# Stress axis : x y z
#
# Youngs Moduli (GPa) = 95.27846 97.99298 113.02952
#
# Poissons Ratio (x) = 0.12778 0.57130
# Poissons Ratio (y) = 0.12424 0.32738
# Poissons Ratio (z) = 0.48158 0.28383
#
# Static dielectric constant tensor:
#      x y z
#    x 1.604910 0.000000 0.000000 
#    y 0.000000 1.613450 0.000000 
#    z 0.000000 0.000000 1.611340 
# 
# From -- ./inp_files/14829.got.cif
#   From: 2010.05.17/outbox.cif.g08.bks.cpg/sg35_8_cif.got.tgz:14829.got - 2010.06.03 17:29:28.
