data_PCOD9350185
_publ_section_title
;
Structure prediction by ZEFSAII (Michael W. Deem and Ramdas Pophale) SiO2 
 PCOD9350185
Probable space group: C M M 2
;
_chemical_formula_sum "Si O2"
_cell_formula_units_Z 28
_cell_length_a 21.000000
_cell_length_b 9.000000
_cell_length_c 15.000000
_cell_angle_alpha 90.000000
_cell_angle_beta 90.000000
_cell_angle_gamma 90.000000
_cell_volume 2835.000000
_symmetry_space_group_name_H-M "C M M 2"
_symmetry_group_IT_number 35
_symmetry_cell_setting 'orthorhombic'
loop_
_space_group_symop_operation_xyz
x,y,z
-x,-y,z
-x,y,z
x,-y,z
1/2+x,1/2+y,z
1/2-x,1/2-y,z
1/2-x,1/2+y,z
1/2+x,1/2-y,z
loop_
_atom_site_type_symbol
_atom_site_label
_atom_site_fract_x
_atom_site_fract_y
_atom_site_fract_z
Si Si1 0.929316 0.327190 0.541100
Si Si2 0.686434 0.677231 0.015508
Si Si3 0.315262 0.822440 0.824422
Si Si4 0.575184 0.324775 0.156486
Si Si5 0.816079 0.323139 0.269813
Si Si6 0.431114 0.326616 0.727174
Si Si7 0.688996 0.324585 0.462362
O O1 0.910627 0.500000 0.528835
O O2 0.934580 0.283977 0.643989
O O3 0.877037 0.212619 0.508241
O O4 0.000000 0.307516 0.500672
O O5 0.696924 0.500000 0.998687
O O6 0.750000 0.750000 0.058396
O O7 0.681242 0.776293 0.927519
O O8 0.620181 0.689148 0.069135
O O9 0.250000 0.750000 0.788622
O O10 0.373711 0.734947 0.783133
O O11 0.316737 0.000000 0.811843
O O12 0.500000 0.282792 0.147985
O O13 0.576320 0.500000 0.181347
O O14 0.618321 0.232663 0.225630
O O15 0.811197 0.500000 0.263474
O O16 0.750000 0.250000 0.236185
O O17 0.817392 0.264870 0.370494
O O18 0.500000 0.320489 0.774133
O O19 0.421790 0.500000 0.700838
O O20 0.698728 0.500000 0.449706
O O21 0.750000 0.250000 0.510230
#
# Coordination Sequence:
#
# PCOD9350185 Si02
#       7
#     8   8   8   8   8   8   8
#     4  10  21  38  59  84 115 149 187 230 277 331
#     4  10  20  36  58  82 110 147 188 230 279 333
#     4  11  22  37  58  84 114 147 187 233 280 330
#     4  10  22  39  58  83 115 149 186 229 277 329
#     4  11  22  38  60  84 112 147 187 230 279 333
#     4  10  21  38  59  83 113 149 188 229 278 335
#     4  11  22  38  60  85 114 147 187 232 279 331
#
# _framework density 9.8765429999999999
#
# number of rings (size 3 to 8) (size 9 to 14) (size 15 to 20)
#    0.000    1.571    0.000    7.286    0.000    6.000 
#    0.000    4.286    0.000    0.000    0.000    0.000 
#    0.000    0.000    0.000    0.000    0.000    0.000 
#
# Total GULP energy -155980.435867 kJ/mol
# GULP energy per Si atom -5570.729852 kJ/mol
# Density = 0.985406 g / cm^3
# Si number density = 9.876543 Si / 1000 Ang^3
#
#
#
# Elastic Constant Matrix: (Units=GPa)
#
#
# Indices 1 2 3 4 5 6 
#
# 1 167.7196 55.1844 30.4297 0.0000 0.0000 0.0000
# 2 55.1844 119.1481 -8.3463 0.0000 0.0000 0.0000
# 3 30.4297 -8.3463 23.9867 0.0000 0.0000 0.0000
# 4 0.0000 0.0000 0.0000 21.3667 0.0000 0.0000
# 5 0.0000 0.0000 0.0000 0.0000 31.5738 0.0000
# 6 0.0000 0.0000 0.0000 0.0000 0.0000 38.1541
#
#
#
# Elastic Compliance Matrix: (Units=1/GPa)
#
#
# Indices 1 2 3 4 5 6 
#
# 1 0.010881 -0.006157 -0.015946 0.000000 0.000000 0.000000
# 2 -0.006157 0.012086 0.012016 0.000000 0.000000 0.000000
# 3 -0.015946 0.012016 0.066100 0.000000 0.000000 0.000000
# 4 0.000000 0.000000 0.000000 0.046802 0.000000 0.000000
# 5 0.000000 0.000000 0.000000 0.000000 0.031672 0.000000
# 6 0.000000 0.000000 0.000000 0.000000 0.000000 0.026210
#
#
# Mechanical properties :
#
#
# Convention : Reuss Voigt Hill
#
# Bulk Modulus (GPa) = 14.51517 51.71003 33.11260
# Shear Modulus (GPa) = 21.10688 33.79135 27.44912
#
# Velocity S-wave (km/s) = 3.27239 4.14053 3.73179
# Velocity P-wave (km/s) = 4.65213 7.00669 5.94710
#
# Compressibility (1/GPa) = 0.06889344
#
# Stress axis : x y z
#
# Youngs Moduli (GPa) = 91.90119 82.73911 15.12854
#
# Poissons Ratio (x) = 0.50941 0.24124
# Poissons Ratio (y) = 0.56581 -0.18178
# Poissons Ratio (z) = 1.46548 -0.99419
#
# Static dielectric constant tensor:
#      x y z
#    x 1.937320 0.000000 0.000000 
#    y 0.000000 1.666070 0.000000 
#    z 0.000000 0.000000 1.768590 
# 
# From -- ./inp_files/17404.got.cif
#   From: 2010.05.17/outbox.ucp.g08.bks.cvg/sg35_9_cif.got.tgz:17404.got - 2010.06.11 10:36:28.
