data_PCOD9350865
_publ_section_title
;
Structure prediction by ZEFSAII (Michael W. Deem and Ramdas Pophale) SiO2 
 PCOD9350865
Probable space group: C M C 21
;
_chemical_formula_sum "Si O2"
_cell_formula_units_Z 64
_cell_length_a 9.259877
_cell_length_b 13.783197
_cell_length_c 21.198357
_cell_angle_alpha 90.000000
_cell_angle_beta 90.000000
_cell_angle_gamma 90.000000
_cell_volume 2705.561331
_symmetry_space_group_name_H-M "C M C 21"
_symmetry_group_IT_number 36
_symmetry_cell_setting 'orthorhombic'
loop_
_space_group_symop_operation_xyz
x,y,z
-x,-y,1/2+z
x,-y,1/2+z
-x,y,z
1/2+x,1/2+y,z
1/2-x,1/2-y,1/2+z
1/2+x,1/2-y,1/2+z
1/2-x,1/2+y,z
loop_
_atom_site_type_symbol
_atom_site_label
_atom_site_fract_x
_atom_site_fract_y
_atom_site_fract_z
Si Si1 0.335070 0.278530 0.089380
Si Si2 0.835442 0.246492 0.212995
Si Si3 0.163539 0.456706 0.493154
Si Si4 0.663865 0.559739 0.864043
Si Si5 0.164212 0.315125 0.969734
Si Si6 0.833034 0.520846 0.741717
Si Si7 0.833805 0.012098 0.115847
Si Si8 0.337140 0.213883 0.332677
O O1 0.500000 0.245432 0.092874
O O2 0.240131 0.236074 0.145758
O O3 0.336295 0.395596 0.101480
O O4 0.263516 0.263985 0.021080
O O5 0.835193 0.362378 0.228353
O O6 0.748853 0.196315 0.269266
O O7 0.000000 0.214355 0.211946
O O8 0.260263 0.433087 0.432113
O O9 0.150901 0.573707 0.489919
O O10 0.240056 0.440053 0.560202
O O11 0.000000 0.417827 0.488146
O O12 0.500000 0.520182 0.868415
O O13 0.762551 0.507966 0.811054
O O14 0.652239 0.669761 0.839324
O O15 0.228746 0.316708 0.899560
O O16 0.000000 0.273554 0.967419
O O17 0.738165 0.478621 0.684513
O O18 0.000000 0.489590 0.738342
O O19 0.000000 0.044488 0.114066
O O20 0.500000 0.174819 0.329944
#
# Coordination Sequence:
#
# PCOD9350865 Si02
#       8
#     8   8   8   8   8   8   8   8
#     4   9  16  26  43  67  93 120 152 191 231 272
#     4   9  16  26  43  67  93 120 152 191 231 272
#     4  10  19  31  48  70  96 125 156 191 232 277
#     4  10  19  31  48  70  96 125 156 191 232 277
#     4   9  18  32  49  69  94 124 156 191 231 274
#     4   9  16  27  44  67  93 120 153 192 232 273
#     4   9  16  27  44  67  93 120 153 192 232 273
#     4   9  18  32  49  69  94 124 156 191 231 274
#
# _framework density 23.654979999999998
#
# number of rings (size 3 to 8) (size 9 to 14) (size 15 to 20)
#    0.000    2.750    0.000    2.250    0.000    7.500 
#    0.000    0.000    0.000    1.500    0.000    7.000 
#    0.000    0.000    0.000    0.000    0.000    0.000 
#
# Total GULP energy -179043.318207 kJ/mol
# GULP energy per Si atom -5595.103694 kJ/mol
# Density = 2.360114 g / cm^3
# Si number density = 23.654980 Si / 1000 Ang^3
#
#
#
# Elastic Constant Matrix: (Units=GPa)
#
#
# Indices 1 2 3 4 5 6 
#
# 1 191.3201 -5.6200 129.9242 0.0000 0.0000 0.0000
# 2 -5.6200 51.5497 9.8153 0.0000 0.0000 0.0000
# 3 129.9242 9.8153 249.4287 0.0000 0.0000 0.0000
# 4 0.0000 0.0000 0.0000 44.1906 0.0000 0.0000
# 5 0.0000 0.0000 0.0000 0.0000 40.8862 0.0000
# 6 0.0000 0.0000 0.0000 0.0000 0.0000 5.3023
#
#
#
# Elastic Compliance Matrix: (Units=1/GPa)
#
#
# Indices 1 2 3 4 5 6 
#
# 1 0.008238 0.001728 -0.004359 0.000000 0.000000 0.000000
# 2 0.001728 0.019908 -0.001684 0.000000 0.000000 0.000000
# 3 -0.004359 -0.001684 0.006346 0.000000 0.000000 0.000000
# 4 0.000000 0.000000 0.000000 0.022629 0.000000 0.000000
# 5 0.000000 0.000000 0.000000 0.000000 0.024458 0.000000
# 6 0.000000 0.000000 0.000000 0.000000 0.000000 0.188596
#
#
# Mechanical properties :
#
#
# Convention : Reuss Voigt Hill
#
# Bulk Modulus (GPa) = 38.66595 84.50416 61.58505
# Shear Modulus (GPa) = 17.39585 41.95443 29.67514
#
# Velocity S-wave (km/s) = 2.71477 4.21598 3.54573
# Velocity P-wave (km/s) = 5.11936 7.71366 6.54631
#
# Compressibility (1/GPa) = 0.02586255
#
# Stress axis : x y z
#
# Youngs Moduli (GPa) = 121.39289 50.23186 157.58173
#
# Poissons Ratio (x) = -0.08680 0.68689
# Poissons Ratio (y) = -0.20977 0.26529
# Poissons Ratio (z) = 0.52914 0.08457
#
# Static dielectric constant tensor:
#      x y z
#    x 1.832680 0.000000 0.000000 
#    y 0.000000 1.996100 0.000000 
#    z 0.000000 0.000000 1.841980 
# 
# From -- ./inp_files/13769.got.cif
#   From: 2010.05.17/outbox.cif.g08.bks.cpg/sg36_7_cif.got.tgz:13769.got - 2010.06.03 17:41:39.
