data_PCOD9350381
_publ_section_title
;
Structure prediction by ZEFSAII (Michael W. Deem and Ramdas Pophale) SiO2 
 PCOD9350381
Probable space group: C M M 2
;
_chemical_formula_sum "Si O2"
_cell_formula_units_Z 56
_cell_length_a 29.943391
_cell_length_b 8.209622
_cell_length_c 13.245200
_cell_angle_alpha 90.000000
_cell_angle_beta 90.000000
_cell_angle_gamma 90.000000
_cell_volume 3255.987005
_symmetry_space_group_name_H-M "C M M 2"
_symmetry_group_IT_number 35
_symmetry_cell_setting 'orthorhombic'
loop_
_space_group_symop_operation_xyz
x,y,z
-x,-y,z
-x,y,z
x,-y,z
1/2+x,1/2+y,z
1/2-x,1/2-y,z
1/2-x,1/2+y,z
1/2+x,1/2-y,z
loop_
_atom_site_type_symbol
_atom_site_label
_atom_site_fract_x
_atom_site_fract_y
_atom_site_fract_z
Si Si1 0.356647 0.196511 0.796850
Si Si2 0.698777 0.196668 0.600971
Si Si3 0.199296 0.694719 0.212304
Si Si4 0.356676 0.800515 0.403355
Si Si5 0.199313 0.807193 0.986834
Si Si6 0.549519 0.198361 0.483067
Si Si7 0.450480 0.198475 0.719152
O O1 0.326908 0.253914 0.701602
O O2 0.333750 0.245025 0.900898
O O3 0.407537 0.254712 0.781393
O O4 0.357421 0.000000 0.792102
O O5 0.750000 0.250000 0.600308
O O6 0.672662 0.250255 0.500258
O O7 0.697532 0.000000 0.601608
O O8 0.198896 0.500000 0.213695
O O9 0.250000 0.750000 0.232918
O O10 0.166473 0.754895 0.300164
O O11 0.187248 0.749611 0.099492
O O12 0.407665 0.746431 0.420189
O O13 0.356787 0.000000 0.402802
O O14 0.250000 0.750000 0.965698
O O15 0.199474 0.000000 0.985917
O O16 0.500000 0.253336 0.451009
O O17 0.555710 0.242019 0.601086
O O18 0.549327 0.000000 0.480076
O O19 0.500000 0.253700 0.751219
O O20 0.450832 0.000000 0.722398
#
# Coordination Sequence:
#
# PCOD9350381 Si02
#       7
#     8   8   8   8   8   8   8
#     4  10  18  30  49  72 100 128 157 195 238 285
#     4  10  19  29  42  65  98 129 153 183 228 282
#     4  10  19  32  50  69  93 124 161 200 237 278
#     4   9  16  27  43  67  97 126 153 187 233 281
#     4  11  22  36  52  69  92 123 165 206 243 285
#     4   8  12  21  40  67  98 127 154 186 229 280
#     4   8  13  23  43  71 100 128 158 193 234 280
#
# _framework density 17.199085
#
# number of rings (size 3 to 8) (size 9 to 14) (size 15 to 20)
#    0.000    2.571    1.429    4.286    0.000    1.714 
#    0.000    0.714    0.000    1.286    0.000    4.000 
#    0.000    4.571    0.000    0.000    0.000    0.000 
#
# Total GULP energy -156124.109890 kJ/mol
# GULP energy per Si atom -5575.861068 kJ/mol
# Density = 1.715994 g / cm^3
# Si number density = 17.199085 Si / 1000 Ang^3
#
#
#
# Elastic Constant Matrix: (Units=GPa)
#
#
# Indices 1 2 3 4 5 6 
#
# 1 186.1821 16.3386 116.9289 0.0000 0.0000 0.0000
# 2 16.3386 16.9434 12.0903 0.0000 0.0000 0.0000
# 3 116.9289 12.0903 131.5377 0.0000 0.0000 0.0000
# 4 0.0000 0.0000 0.0000 7.6018 0.0000 0.0000
# 5 0.0000 0.0000 0.0000 0.0000 24.2059 0.0000
# 6 0.0000 0.0000 0.0000 0.0000 0.0000 15.5342
#
#
#
# Elastic Compliance Matrix: (Units=1/GPa)
#
#
# Indices 1 2 3 4 5 6 
#
# 1 0.012459 -0.004400 -0.010671 0.000000 0.000000 0.000000
# 2 -0.004400 0.064716 -0.002037 0.000000 0.000000 0.000000
# 3 -0.010671 -0.002037 0.017275 0.000000 0.000000 0.000000
# 4 0.000000 0.000000 0.000000 0.131548 0.000000 0.000000
# 5 0.000000 0.000000 0.000000 0.000000 0.041312 0.000000
# 6 0.000000 0.000000 0.000000 0.000000 0.000000 0.064374
#
#
# Mechanical properties :
#
#
# Convention : Reuss Voigt Hill
#
# Bulk Modulus (GPa) = 16.60165 69.48653 43.04409
# Shear Modulus (GPa) = 12.95408 22.08873 17.52141
#
# Velocity S-wave (km/s) = 2.74740 3.58760 3.19523
# Velocity P-wave (km/s) = 4.44273 7.59277 6.22045
#
# Compressibility (1/GPa) = 0.06023498
#
# Stress axis : x y z
#
# Youngs Moduli (GPa) = 80.26505 15.45202 57.88656
#
# Poissons Ratio (x) = 0.06799 0.61769
# Poissons Ratio (y) = 0.35315 0.11793
# Poissons Ratio (z) = 0.85648 0.03148
#
# Static dielectric constant tensor:
#      x y z
#    x 1.820300 0.000000 0.000000 
#    y 0.000000 1.618430 0.000000 
#    z 0.000000 0.000000 1.575910 
# 
# From -- ./inp_files/17684.got.cif
#   From: 2010.05.17/outbox.cif.g08.bks.cpg/sg35_9_cif.got.tgz:17684.got - 2010.06.03 17:29:28.
