data_PCOD9350200
_publ_section_title
;
Structure prediction by ZEFSAII (Michael W. Deem and Ramdas Pophale) SiO2 
 PCOD9350200
Probable space group: C M M 2
;
_chemical_formula_sum "Si O2"
_cell_formula_units_Z 20
_cell_length_a 18.000000
_cell_length_b 9.000000
_cell_length_c 12.000000
_cell_angle_alpha 90.000000
_cell_angle_beta 90.000000
_cell_angle_gamma 90.000000
_cell_volume 1944.000000
_symmetry_space_group_name_H-M "C M M 2"
_symmetry_group_IT_number 35
_symmetry_cell_setting 'orthorhombic'
loop_
_space_group_symop_operation_xyz
x,y,z
-x,-y,z
-x,y,z
x,-y,z
1/2+x,1/2+y,z
1/2-x,1/2-y,z
1/2-x,1/2+y,z
1/2+x,1/2-y,z
loop_
_atom_site_type_symbol
_atom_site_label
_atom_site_fract_x
_atom_site_fract_y
_atom_site_fract_z
Si Si1 0.416167 0.824852 0.654030
Si Si2 0.083641 0.823905 0.413900
Si Si3 0.675875 0.829351 0.228503
Si Si4 0.412632 0.338370 0.061920
Si Si5 0.676729 0.669620 0.839192
O O1 0.500000 0.800639 0.699135
O O2 0.412140 0.742144 0.536805
O O3 0.356137 0.758683 0.736297
O O4 0.406122 0.000000 0.637764
O O5 0.144605 0.748919 0.337842
O O6 0.000000 0.791867 0.369868
O O7 0.092672 0.000000 0.416538
O O8 0.750000 0.750000 0.190020
O O9 0.616700 0.797064 0.133148
O O10 0.688734 0.000000 0.249205
O O11 0.500000 0.338750 0.062037
O O12 0.387194 0.500000 0.110204
O O13 0.382299 0.330372 0.937921
O O14 0.692843 0.500000 0.807639
O O15 0.750000 0.750000 0.881488
#
# Coordination Sequence:
#
# PCOD9350200 Si02
#       5
#     8   8   8   8   8
#     4  10  21  38  61  89 120 154 196 244 291 344
#     4  10  21  39  63  89 119 155 195 240 291 348
#     4  12  25  40  60  87 120 156 196 242 293 348
#     4  10  22  41  64  89 118 153 194 240 291 349
#     4  11  23  39  60  87 120 157 197 241 292 348
#
# _framework density 10.288066000000001
#
# number of rings (size 3 to 8) (size 9 to 14) (size 15 to 20)
#    0.000    1.400    0.000    5.400    0.000   10.000 
#    0.000    4.000    0.000    0.000    0.000    0.000 
#    0.000    0.000    0.000    0.000    0.000    0.000 
#
# Total GULP energy -111722.369012 kJ/mol
# GULP energy per Si atom -5586.118451 kJ/mol
# Density = 1.026465 g / cm^3
# Si number density = 10.288066 Si / 1000 Ang^3
#
#
#
# Elastic Constant Matrix: (Units=GPa)
#
#
# Indices 1 2 3 4 5 6 
#
# 1 62.7353 39.1000 24.8845 0.0000 0.0000 0.0000
# 2 39.1000 85.9310 25.3044 0.0000 0.0000 0.0000
# 3 24.8845 25.3044 39.0808 0.0000 0.0000 0.0000
# 4 0.0000 0.0000 0.0000 34.2176 0.0000 0.0000
# 5 0.0000 0.0000 0.0000 0.0000 39.1505 0.0000
# 6 0.0000 0.0000 0.0000 0.0000 0.0000 25.0573
#
#
#
# Elastic Compliance Matrix: (Units=1/GPa)
#
#
# Indices 1 2 3 4 5 6 
#
# 1 0.025450 -0.008412 -0.010759 0.000000 0.000000 0.000000
# 2 -0.008412 0.017159 -0.005754 0.000000 0.000000 0.000000
# 3 -0.010759 -0.005754 0.036164 0.000000 0.000000 0.000000
# 4 0.000000 0.000000 0.000000 0.029225 0.000000 0.000000
# 5 0.000000 0.000000 0.000000 0.000000 0.025542 0.000000
# 6 0.000000 0.000000 0.000000 0.000000 0.000000 0.039908
#
#
# Mechanical properties :
#
#
# Convention : Reuss Voigt Hill
#
# Bulk Modulus (GPa) = 34.57311 40.70275 37.63793
# Shear Modulus (GPa) = 21.46467 26.24896 23.85682
#
# Velocity S-wave (km/s) = 3.23334 3.57557 3.40875
# Velocity P-wave (km/s) = 5.54782 6.07213 5.81589
#
# Compressibility (1/GPa) = 0.02892422
#
# Stress axis : x y z
#
# Youngs Moduli (GPa) = 39.29208 58.27725 27.65164
#
# Poissons Ratio (x) = 0.49024 0.29749
# Poissons Ratio (y) = 0.33053 0.15911
# Poissons Ratio (z) = 0.42273 0.33533
#
# Static dielectric constant tensor:
#      x y z
#    x 1.761310 0.000000 0.000000 
#    y 0.000000 1.717050 0.000000 
#    z 0.000000 0.000000 1.706980 
# 
# From -- ./inp_files/11002.got.cif
#   From: 2010.05.17/outbox.ucp.g08.bks.cvg/sg35_6_cif.got.tgz:11002.got - 2010.06.11 10:36:28.
