data_PCOD9350629
_publ_section_title
;
Structure prediction by ZEFSAII (Michael W. Deem and Ramdas Pophale) SiO2 
 PCOD9350629
Probable space group: C M C 21
;
_chemical_formula_sum "Si O2"
_cell_formula_units_Z 64
_cell_length_a 7.933604
_cell_length_b 23.701436
_cell_length_c 16.670547
_cell_angle_alpha 90.000000
_cell_angle_beta 90.000000
_cell_angle_gamma 90.000000
_cell_volume 3134.693107
_symmetry_space_group_name_H-M "C M C 21"
_symmetry_group_IT_number 36
_symmetry_cell_setting 'orthorhombic'
loop_
_space_group_symop_operation_xyz
x,y,z
-x,-y,1/2+z
x,-y,1/2+z
-x,y,z
1/2+x,1/2+y,z
1/2-x,1/2-y,1/2+z
1/2+x,1/2-y,1/2+z
1/2-x,1/2+y,z
loop_
_atom_site_type_symbol
_atom_site_label
_atom_site_fract_x
_atom_site_fract_y
_atom_site_fract_z
Si Si1 0.700625 0.859839 0.482010
Si Si2 0.810488 0.125007 0.249608
Si Si3 0.699388 0.443948 0.044967
Si Si4 0.192490 0.551822 0.115414
Si Si5 0.702886 0.282498 0.629253
Si Si6 0.795543 0.032122 0.364791
Si Si7 0.204004 0.654329 0.649554
Si Si8 0.296455 0.905804 0.313828
O O1 0.500000 0.852910 0.475455
O O2 0.733325 0.917386 0.531711
O O3 0.759366 0.810628 0.542655
O O4 0.766359 0.870506 0.392108
O O5 0.815174 0.077823 0.180110
O O6 0.731236 0.177492 0.201716
O O7 0.729301 0.088398 0.320006
O O8 0.000000 0.141612 0.274809
O O9 0.500000 0.454187 0.048929
O O10 0.789114 0.485722 0.106759
O O11 0.737841 0.381206 0.072839
O O12 0.758653 0.461184 0.956701
O O13 0.000000 0.566574 0.136662
O O14 0.500000 0.283263 0.636230
O O15 0.762231 0.218821 0.641215
O O16 0.000000 0.034478 0.361714
O O17 0.745980 0.971951 0.326841
O O18 0.263081 0.622639 0.730877
O O19 0.000000 0.654717 0.651259
O O20 0.500000 0.902601 0.313725
#
# Coordination Sequence:
#
# PCOD9350629 Si02
#       8
#     8   8   8   8   8   8   8   8
#     4   9  18  33  55  82 108 139 179 224 269 317
#     4   9  18  34  55  79 106 139 177 222 268 319
#     4  11  22  35  52  78 112 147 179 221 274 327
#     4  10  18  31  53  80 108 139 175 218 270 326
#     4   9  19  37  58  78 106 144 185 224 267 322
#     4  10  21  35  53  82 113 141 178 221 273 332
#     4  10  22  39  57  80 110 148 188 227 274 328
#     4  10  20  36  57  83 111 143 183 227 277 329
#
# _framework density 20.416671999999998
#
# number of rings (size 3 to 8) (size 9 to 14) (size 15 to 20)
#    0.000    2.250    1.250    1.500    0.000    5.000 
#    2.250    0.000    0.000    0.000    0.000    0.000 
#    0.000    0.000    0.000    0.000    0.000    0.000 
#
# Total GULP energy -178387.687133 kJ/mol
# GULP energy per Si atom -5574.615223 kJ/mol
# Density = 2.037020 g / cm^3
# Si number density = 20.416672 Si / 1000 Ang^3
#
#
#
# Elastic Constant Matrix: (Units=GPa)
#
#
# Indices 1 2 3 4 5 6 
#
# 1 16.6707 -2.3105 4.8340 0.0000 0.0000 0.0000
# 2 -2.3105 141.2218 44.6237 0.0000 0.0000 0.0000
# 3 4.8340 44.6237 71.4608 0.0000 0.0000 0.0000
# 4 0.0000 0.0000 0.0000 28.4444 0.0000 0.0000
# 5 0.0000 0.0000 0.0000 0.0000 -19.2653 0.0000
# 6 0.0000 0.0000 0.0000 0.0000 0.0000 22.7368
#
#
#
# Elastic Compliance Matrix: (Units=1/GPa)
#
#
# Indices 1 2 3 4 5 6 
#
# 1 0.062138 0.002921 -0.006028 0.000000 0.000000 0.000000
# 2 0.002921 0.008959 -0.005792 0.000000 0.000000 0.000000
# 3 -0.006028 -0.005792 0.018018 0.000000 0.000000 0.000000
# 4 0.000000 0.000000 0.000000 0.035156 0.000000 0.000000
# 5 0.000000 0.000000 0.000000 0.000000 -0.051907 0.000000
# 6 0.000000 0.000000 0.000000 0.000000 0.000000 0.043982
#
#
# Mechanical properties :
#
#
# Convention : Reuss Voigt Hill
#
# Bulk Modulus (GPa) = 14.02158 35.96086 24.99122
# Shear Modulus (GPa) = 31.66233 18.53025 25.09629
#
# Velocity S-wave (km/s) = 3.94230 3.01591 3.50981
# Velocity P-wave (km/s) = 5.25404 5.45705 5.35651
#
# Compressibility (1/GPa) = 0.07131866
#
# Stress axis : x y z
#
# Youngs Moduli (GPa) = 16.09317 111.61890 55.49914
#
# Poissons Ratio (x) = -0.32607 0.33452
# Poissons Ratio (y) = -0.04701 0.32146
# Poissons Ratio (z) = 0.09700 0.64651
#
# Static dielectric constant tensor:
#      x y z
#    x 1.781520 0.000000 0.000000 
#    y 0.000000 1.721770 0.000000 
#    z 0.000000 0.000000 1.779320 
# 
# From -- ./inp_files/11026.got.cif
#   From: 2010.05.17/outbox.cif.g08.bks.cpg/sg36_6_cif.got.tgz:11026.got - 2010.06.03 17:41:39.
