data_PCOD9350823
_publ_section_title
;
Structure prediction by ZEFSAII (Michael W. Deem and Ramdas Pophale) SiO2 
 PCOD9350823
Probable space group: C M C 21
;
_chemical_formula_sum "Si O2"
_cell_formula_units_Z 64
_cell_length_a 23.836355
_cell_length_b 18.739354
_cell_length_c 7.267438
_cell_angle_alpha 90.000000
_cell_angle_beta 90.000000
_cell_angle_gamma 90.000000
_cell_volume 3246.203904
_symmetry_space_group_name_H-M "C M C 21"
_symmetry_group_IT_number 36
_symmetry_cell_setting 'orthorhombic'
loop_
_space_group_symop_operation_xyz
x,y,z
-x,-y,1/2+z
x,-y,1/2+z
-x,y,z
1/2+x,1/2+y,z
1/2-x,1/2-y,1/2+z
1/2+x,1/2-y,1/2+z
1/2-x,1/2+y,z
loop_
_atom_site_type_symbol
_atom_site_label
_atom_site_fract_x
_atom_site_fract_y
_atom_site_fract_z
Si Si1 0.732018 0.613141 0.785430
Si Si2 0.279837 0.032556 0.249129
Si Si3 0.564358 0.887589 0.480956
Si Si4 0.436833 0.162756 0.410628
Si Si5 0.627238 0.037110 0.497937
Si Si6 0.168573 0.247262 0.841371
Si Si7 0.336534 0.788958 0.408550
Si Si8 0.725217 0.658271 0.372572
O O1 0.742602 0.530756 0.839048
O O2 0.682442 0.663688 0.860384
O O3 0.789834 0.654890 0.837936
O O4 0.719924 0.615506 0.564501
O O5 0.320184 0.986001 0.120379
O O6 0.240002 0.099761 0.218563
O O7 0.333381 0.072424 0.342956
O O8 0.500000 0.889220 0.419261
O O9 0.562953 0.870127 0.701584
O O10 0.594467 0.964374 0.451687
O O11 0.603541 0.826612 0.393798
O O12 0.500000 0.186276 0.450315
O O13 0.389751 0.223696 0.419038
O O14 0.417720 0.097057 0.540581
O O15 0.170148 0.268809 0.624319
O O16 0.222742 0.288989 0.916292
O O17 0.324122 0.712321 0.317173
#
# Coordination Sequence:
#
# PCOD9350823 Si02
#       8
#     8   8   8   8   8   8   8   8
#     4  10  19  29  47  68  94 121 159 199 248 290
#     4  12  20  30  48  67  96 129 155 197 243 290
#     4  10  19  31  47  69  96 130 165 198 237 287
#     4  10  19  32  49  69  95 129 165 201 239 285
#     4  12  20  32  46  68  99 130 164 194 235 292
#     4   9  17  32  47  67  91 124 159 200 240 293
#     4   9  18  31  49  67  90 125 160 199 241 291
#     4  10  19  31  46  69  94 120 158 202 247 292
#
# _framework density 19.715335
#
# number of rings (size 3 to 8) (size 9 to 14) (size 15 to 20)
#    0.000    1.750    5.000    1.125    0.000    0.000 
#    0.000    0.000    0.000    0.000    0.000    0.875 
#    0.000    0.000    0.000    0.000    0.000    0.000 
#
# Total GULP energy -178236.774519 kJ/mol
# GULP energy per Si atom -5569.899204 kJ/mol
# Density = 1.967046 g / cm^3
# Si number density = 19.715335 Si / 1000 Ang^3
#
#
#
# Elastic Constant Matrix: (Units=GPa)
#
#
# Indices 1 2 3 4 5 6 
#
# 1 131.5633 89.4914 16.8483 0.0000 0.0000 0.0000
# 2 89.4914 135.9601 13.2353 0.0000 0.0000 0.0000
# 3 16.8483 13.2353 33.6714 0.0000 0.0000 0.0000
# 4 0.0000 0.0000 0.0000 20.5033 0.0000 0.0000
# 5 0.0000 0.0000 0.0000 0.0000 20.1933 0.0000
# 6 0.0000 0.0000 0.0000 0.0000 0.0000 39.5436
#
#
#
# Elastic Compliance Matrix: (Units=1/GPa)
#
#
# Indices 1 2 3 4 5 6 
#
# 1 0.014161 -0.008975 -0.003558 0.000000 0.000000 0.000000
# 2 -0.008975 0.013336 -0.000751 0.000000 0.000000 0.000000
# 3 -0.003558 -0.000751 0.031774 0.000000 0.000000 0.000000
# 4 0.000000 0.000000 0.000000 0.048773 0.000000 0.000000
# 5 0.000000 0.000000 0.000000 0.000000 0.049521 0.000000
# 6 0.000000 0.000000 0.000000 0.000000 0.000000 0.025289
#
#
# Mechanical properties :
#
#
# Convention : Reuss Voigt Hill
#
# Bulk Modulus (GPa) = 30.57807 60.03830 45.30819
# Shear Modulus (GPa) = 22.69386 28.15601 25.42493
#
# Velocity S-wave (km/s) = 3.39643 3.78316 3.59500
# Velocity P-wave (km/s) = 5.56098 7.04285 6.34532
#
# Compressibility (1/GPa) = 0.03270317
#
# Stress axis : x y z
#
# Youngs Moduli (GPa) = 70.61403 74.98671 31.47178
#
# Poissons Ratio (x) = 0.67300 0.11198
# Poissons Ratio (y) = 0.63376 0.02364
# Poissons Ratio (z) = 0.25126 0.05632
#
# Static dielectric constant tensor:
#      x y z
#    x 1.662790 0.000000 0.000000 
#    y 0.000000 1.690170 0.000000 
#    z 0.000000 0.000000 2.033530 
# 
# From -- ./inp_files/5874.got.cif
#   From: 2010.05.17/outbox.cif.g08.bks.cpg/sg36_3_cif.got.tgz:5874.got - 2010.06.03 17:41:39.
