data_PCOD9350975
_publ_section_title
;
Structure prediction by ZEFSAII (Michael W. Deem and Ramdas Pophale) SiO2 
 PCOD9350975
Probable space group: C M C 21
;
_chemical_formula_sum "Si O2"
_cell_formula_units_Z 44
_cell_length_a 22.220207
_cell_length_b 20.259734
_cell_length_c 5.018608
_cell_angle_alpha 90.000000
_cell_angle_beta 90.000000
_cell_angle_gamma 90.000000
_cell_volume 2259.254282
_symmetry_space_group_name_H-M "C M C 21"
_symmetry_group_IT_number 36
_symmetry_cell_setting 'orthorhombic'
loop_
_space_group_symop_operation_xyz
x,y,z
-x,-y,1/2+z
x,-y,1/2+z
-x,y,z
1/2+x,1/2+y,z
1/2-x,1/2-y,1/2+z
1/2+x,1/2-y,1/2+z
1/2-x,1/2+y,z
loop_
_atom_site_type_symbol
_atom_site_label
_atom_site_fract_x
_atom_site_fract_y
_atom_site_fract_z
Si Si1 0.000000 0.047555 0.483110
Si Si2 0.203274 0.678050 0.669342
Si Si3 0.794236 0.457711 0.454043
Si Si4 0.067353 0.851851 0.311653
Si Si5 0.348034 0.544287 0.047319
Si Si6 0.669334 0.743371 0.663232
O O1 0.053531 0.097063 0.570261
O O2 0.000000 0.985868 0.693808
O O3 0.185889 0.608150 0.798240
O O4 0.275328 0.691308 0.691857
O O5 0.184292 0.696927 0.369125
O O6 0.173125 0.731747 0.862360
O O7 0.810692 0.482812 0.749544
O O8 0.722789 0.444551 0.499752
O O9 0.111355 0.892186 0.504010
O O10 0.105568 0.789242 0.223147
O O11 0.000000 0.837215 0.419319
O O12 0.360889 0.489700 0.824782
#
# Coordination Sequence:
#
# PCOD9350975 Si02
#       6
#     4   8   8   8   8   8
#     4  10  22  36  52  74 108 150 186 222 252 286
#     4  10  20  36  55  73 105 138 178 216 265 321
#     4  10  19  32  53  80 106 132 172 220 266 313
#     4  10  22  37  52  75 107 141 192 220 254 300
#     4  10  20  32  48  71 105 142 179 217 255 296
#     4  10  21  36  52  75 102 145 181 214 259 308
#
# _framework density 19.475451
#
# number of rings (size 3 to 8) (size 9 to 14) (size 15 to 20)
#    0.545    1.455    1.818    2.182    0.000    2.909 
#    0.000    0.000    0.000    0.000    0.000    0.000 
#    0.000   14.545    0.000    0.000    0.000    0.000 
#
# Total GULP energy -122660.872814 kJ/mol
# GULP energy per Si atom -5575.494219 kJ/mol
# Density = 1.943112 g / cm^3
# Si number density = 19.475451 Si / 1000 Ang^3
#
#
#
# Elastic Constant Matrix: (Units=GPa)
#
#
# Indices 1 2 3 4 5 6 
#
# 1 41.3357 8.1615 -4.7298 0.0000 0.0000 0.0000
# 2 8.1615 43.3615 -11.3220 0.0000 0.0000 0.0000
# 3 -4.7298 -11.3220 74.3483 0.0000 0.0000 0.0000
# 4 0.0000 0.0000 0.0000 10.0635 0.0000 0.0000
# 5 0.0000 0.0000 0.0000 0.0000 7.3272 0.0000
# 6 0.0000 0.0000 0.0000 0.0000 0.0000 20.0253
#
#
#
# Elastic Compliance Matrix: (Units=1/GPa)
#
#
# Indices 1 2 3 4 5 6 
#
# 1 0.025186 -0.004501 0.000917 0.000000 0.000000 0.000000
# 2 -0.004501 0.024821 0.003494 0.000000 0.000000 0.000000
# 3 0.000917 0.003494 0.014041 0.000000 0.000000 0.000000
# 4 0.000000 0.000000 0.000000 0.099369 0.000000 0.000000
# 5 0.000000 0.000000 0.000000 0.000000 0.136477 0.000000
# 6 0.000000 0.000000 0.000000 0.000000 0.000000 0.049937
#
#
# Mechanical properties :
#
#
# Convention : Reuss Voigt Hill
#
# Bulk Modulus (GPa) = 15.65775 15.91832 15.78803
# Shear Modulus (GPa) = 13.46618 18.61226 16.03922
#
# Velocity S-wave (km/s) = 2.63238 3.09476 2.87289
# Velocity P-wave (km/s) = 4.15890 4.57835 4.37366
#
# Compressibility (1/GPa) = 0.06386613
#
# Stress axis : x y z
#
# Youngs Moduli (GPa) = 39.70492 40.28792 71.22233
#
# Poissons Ratio (x) = 0.18134 -0.06530
# Poissons Ratio (y) = 0.17872 -0.24882
# Poissons Ratio (z) = -0.03640 -0.14075
#
# Static dielectric constant tensor:
#      x y z
#    x 1.733650 0.000000 0.000000 
#    y 0.000000 1.712940 0.000000 
#    z 0.000000 0.000000 1.706220 
# 
# From -- ./inp_files/1559.got.cif
#   From: 2010.05.17/outbox.cif.g08.bks.cpg/sg36_1_cif.got.tgz:1559.got - 2010.06.03 17:41:39.
