data_PCOD9350128
_publ_section_title
;
Structure prediction by ZEFSAII (Michael W. Deem and Ramdas Pophale) SiO2 
 PCOD9350128
Probable space group: C M M 2
;
_chemical_formula_sum "Si O2"
_cell_formula_units_Z 48
_cell_length_a 28.620823
_cell_length_b 8.658850
_cell_length_c 10.450051
_cell_angle_alpha 90.000000
_cell_angle_beta 90.000000
_cell_angle_gamma 90.000000
_cell_volume 2589.767307
_symmetry_space_group_name_H-M "C M M 2"
_symmetry_group_IT_number 35
_symmetry_cell_setting 'orthorhombic'
loop_
_space_group_symop_operation_xyz
x,y,z
-x,-y,z
-x,y,z
x,-y,z
1/2+x,1/2+y,z
1/2-x,1/2-y,z
1/2-x,1/2+y,z
1/2+x,1/2-y,z
loop_
_atom_site_type_symbol
_atom_site_label
_atom_site_fract_x
_atom_site_fract_y
_atom_site_fract_z
Si Si1 0.553784 0.685445 0.505760
Si Si2 0.146418 0.683807 0.906806
Si Si3 0.302295 0.314903 0.656483
Si Si4 0.146418 0.683807 0.406161
Si Si5 0.197372 0.184747 0.156484
Si Si6 0.053784 0.814555 0.807209
O O1 0.500000 0.722918 0.474254
O O2 0.559549 0.500000 0.494037
O O3 0.592222 0.769856 0.421341
O O4 0.561031 0.723332 0.656485
O O5 0.151756 0.500000 0.908357
O O6 0.171653 0.753466 0.782106
O O7 0.092222 0.730143 0.891628
O O8 0.170219 0.755402 0.031653
O O9 0.302290 0.500000 0.656480
O O10 0.250000 0.250000 0.656485
O O11 0.328347 0.253459 0.530862
O O12 0.151755 0.500000 0.404604
O O13 0.170219 0.755408 0.281316
O O14 0.250000 0.250000 0.156485
O O15 0.199084 0.000000 0.156481
O O16 0.000000 0.777082 0.838715
O O17 0.059549 0.000000 0.818932
#
# Coordination Sequence:
#
# PCOD9350128 Si02
#       6
#     8   8   8   8   8   8
#     4   9  18  35  61  92 126 164 205 250 305 365
#     4  12  24  40  62  93 126 160 204 255 308 365
#     4  12  24  40  61  88 121 158 204 255 307 363
#     4  12  24  40  62  93 126 160 204 255 308 365
#     4  12  26  46  67  88 121 166 208 253 309 373
#     4   9  18  35  61  92 126 164 205 250 305 365
#
# _framework density 18.534483000000002
#
# number of rings (size 3 to 8) (size 9 to 14) (size 15 to 20)
#    0.000    1.000    1.667    8.000    0.000    0.667 
#    0.000    2.500    0.000    5.000    0.000    0.000 
#    0.000    0.000    0.000    0.000    0.000    0.000 
#
# Total GULP energy -134259.663920 kJ/mol
# GULP energy per Si atom -5594.152663 kJ/mol
# Density = 1.849230 g / cm^3
# Si number density = 18.534483 Si / 1000 Ang^3
#
#
#
# Elastic Constant Matrix: (Units=GPa)
#
#
# Indices 1 2 3 4 5 6 
#
# 1 160.2117 87.9818 88.1870 0.0000 0.0000 0.0000
# 2 87.9818 177.7278 80.1780 0.0000 0.0000 0.0000
# 3 88.1870 80.1780 156.3714 0.0000 0.0000 0.0000
# 4 0.0000 0.0000 0.0000 29.7256 0.0000 0.0000
# 5 0.0000 0.0000 0.0000 0.0000 54.5222 0.0000
# 6 0.0000 0.0000 0.0000 0.0000 0.0000 40.1034
#
#
#
# Elastic Compliance Matrix: (Units=1/GPa)
#
#
# Indices 1 2 3 4 5 6 
#
# 1 0.010300 -0.003224 -0.004155 0.000000 0.000000 0.000000
# 2 -0.003224 0.008329 -0.002452 0.000000 0.000000 0.000000
# 3 -0.004155 -0.002452 0.009996 0.000000 0.000000 0.000000
# 4 0.000000 0.000000 0.000000 0.033641 0.000000 0.000000
# 5 0.000000 0.000000 0.000000 0.000000 0.018341 0.000000
# 6 0.000000 0.000000 0.000000 0.000000 0.000000 0.024936
#
#
# Mechanical properties :
#
#
# Convention : Reuss Voigt Hill
#
# Bulk Modulus (GPa) = 111.59734 111.88939 111.74336
# Shear Modulus (GPa) = 39.00376 40.73452 39.86914
#
# Velocity S-wave (km/s) = 4.59234 4.69312 4.64300
# Velocity P-wave (km/s) = 9.40536 9.47979 9.44265
#
# Compressibility (1/GPa) = 0.00896079
#
# Stress axis : x y z
#
# Youngs Moduli (GPa) = 97.09144 120.06354 100.04055
#
# Poissons Ratio (x) = 0.38709 0.41571
# Poissons Ratio (y) = 0.31303 0.24534
# Poissons Ratio (z) = 0.40346 0.29444
#
# Static dielectric constant tensor:
#      x y z
#    x 1.633350 0.000000 0.000000 
#    y 0.000000 1.618310 0.000000 
#    z 0.000000 0.000000 1.604910 
# 
# From -- ./inp_files/10478.got.cif
#   From: 2010.05.17/outbox.cif.g08.bks.cpg/sg35_6_cif.got.tgz:10478.got - 2010.06.03 17:29:28.
