data_PCOD9350361
_publ_section_title
;
Structure prediction by ZEFSAII (Michael W. Deem and Ramdas Pophale) SiO2 
 PCOD9350361
Probable space group: C M M 2
;
_chemical_formula_sum "Si O2"
_cell_formula_units_Z 64
_cell_length_a 14.450003
_cell_length_b 22.012965
_cell_length_c 9.118871
_cell_angle_alpha 90.000000
_cell_angle_beta 90.000000
_cell_angle_gamma 90.000000
_cell_volume 2900.598061
_symmetry_space_group_name_H-M "C M M 2"
_symmetry_group_IT_number 35
_symmetry_cell_setting 'orthorhombic'
loop_
_space_group_symop_operation_xyz
x,y,z
-x,-y,z
-x,y,z
x,-y,z
1/2+x,1/2+y,z
1/2-x,1/2-y,z
1/2-x,1/2+y,z
1/2+x,1/2-y,z
loop_
_atom_site_type_symbol
_atom_site_label
_atom_site_fract_x
_atom_site_fract_y
_atom_site_fract_z
Si Si1 0.596304 0.707156 0.454730
Si Si2 0.241726 0.381806 0.482438
Si Si3 0.891731 0.135916 0.011796
Si Si4 0.602753 0.769376 0.146356
Si Si5 0.800188 0.934530 0.763847
Si Si6 0.708080 0.888622 0.167436
Si Si7 0.395320 0.100005 0.888986
Si Si8 0.841889 0.712196 0.711116
O O1 0.500000 0.672159 0.446494
O O2 0.682317 0.665129 0.426076
O O3 0.597854 0.752830 0.319006
O O4 0.602784 0.739703 0.612274
O O5 0.296337 0.426461 0.589906
O O6 0.195468 0.406688 0.336032
O O7 0.180531 0.339786 0.589360
O O8 0.855638 0.118260 0.848859
O O9 0.000000 0.118705 0.030642
O O10 0.887070 0.207365 0.053465
O O11 0.813388 0.102452 0.111134
O O12 0.500000 0.795467 0.111040
O O13 0.685054 0.817280 0.142307
O O14 0.691878 0.930305 0.807643
O O15 0.838083 0.000000 0.807775
O O16 0.632290 0.914995 0.056069
O O17 0.500000 0.082024 0.852775
O O18 0.384382 0.172079 0.842034
O O19 0.750000 0.750000 0.755829
#
# Coordination Sequence:
#
# PCOD9350361 Si02
#       8
#     8   8   8   8   8   8   8   8
#     4  10  18  29  51  84 123 166 206 241 291 364
#     4  10  20  35  56  85 118 159 205 255 310 371
#     4  10  22  38  61  91 122 162 210 259 310 375
#     4  10  19  31  55  91 131 173 205 236 294 370
#     4  10  24  46  67  84 111 157 215 280 338 380
#     4  11  20  35  58  89 134 165 197 241 301 384
#     4  10  22  39  60  90 123 157 206 262 314 373
#     4   9  18  33  52  83 125 174 213 243 292 353
#
# _framework density 22.064415
#
# number of rings (size 3 to 8) (size 9 to 14) (size 15 to 20)
#    0.000    2.000    2.500    1.125    0.000    5.000 
#    0.000    4.375    0.000    0.000    0.000    0.000 
#    0.000    0.000    0.000    0.000    0.000    0.000 
#
# Total GULP energy -178298.844651 kJ/mol
# GULP energy per Si atom -5571.838895 kJ/mol
# Density = 2.201420 g / cm^3
# Si number density = 22.064415 Si / 1000 Ang^3
#
#
#
# Elastic Constant Matrix: (Units=GPa)
#
#
# Indices 1 2 3 4 5 6 
#
# 1 111.9472 0.0818 20.0699 0.0000 0.0000 0.0000
# 2 0.0818 33.1666 9.6036 0.0000 0.0000 0.0000
# 3 20.0699 9.6036 119.3498 0.0000 0.0000 0.0000
# 4 0.0000 0.0000 0.0000 6.7884 0.0000 0.0000
# 5 0.0000 0.0000 0.0000 0.0000 17.4894 0.0000
# 6 0.0000 0.0000 0.0000 0.0000 0.0000 18.1912
#
#
#
# Elastic Compliance Matrix: (Units=1/GPa)
#
#
# Indices 1 2 3 4 5 6 
#
# 1 0.009217 0.000436 -0.001585 0.000000 0.000000 0.000000
# 2 0.000436 0.030891 -0.002559 0.000000 0.000000 0.000000
# 3 -0.001585 -0.002559 0.008851 0.000000 0.000000 0.000000
# 4 0.000000 0.000000 0.000000 0.147310 0.000000 0.000000
# 5 0.000000 0.000000 0.000000 0.000000 0.057178 0.000000
# 6 0.000000 0.000000 0.000000 0.000000 0.000000 0.054972
#
#
# Mechanical properties :
#
#
# Convention : Reuss Voigt Hill
#
# Bulk Modulus (GPa) = 24.07146 35.99713 30.03430
# Shear Modulus (GPa) = 15.16621 24.14103 19.65362
#
# Velocity S-wave (km/s) = 2.62460 3.31133 2.98776
# Velocity P-wave (km/s) = 4.48531 5.56506 5.05410
#
# Compressibility (1/GPa) = 0.04154297
#
# Stress axis : x y z
#
# Youngs Moduli (GPa) = 108.49973 32.37220 112.97943
#
# Poissons Ratio (x) = -0.01412 0.17907
# Poissons Ratio (y) = -0.04733 0.28911
# Poissons Ratio (z) = 0.17197 0.08284
#
# Static dielectric constant tensor:
#      x y z
#    x 1.815510 0.000000 0.000000 
#    y 0.000000 1.856310 0.000000 
#    z 0.000000 0.000000 1.914650 
# 
# From -- ./inp_files/7853.got.cif
#   From: 2010.05.17/outbox.cif.g08.bks.cpg/sg35_4_cif.got.tgz:7853.got - 2010.06.03 17:29:28.
