data_PCOD9350260
_publ_section_title
;
Structure prediction by ZEFSAII (Michael W. Deem and Ramdas Pophale) SiO2 
 PCOD9350260
Probable space group: C M M 2
;
_chemical_formula_sum "Si O2"
_cell_formula_units_Z 48
_cell_length_a 19.222227
_cell_length_b 8.733217
_cell_length_c 16.191457
_cell_angle_alpha 90.000000
_cell_angle_beta 90.000000
_cell_angle_gamma 90.000000
_cell_volume 2718.090320
_symmetry_space_group_name_H-M "C M M 2"
_symmetry_group_IT_number 35
_symmetry_cell_setting 'orthorhombic'
loop_
_space_group_symop_operation_xyz
x,y,z
-x,-y,z
-x,y,z
x,-y,z
1/2+x,1/2+y,z
1/2-x,1/2-y,z
1/2-x,1/2+y,z
1/2+x,1/2-y,z
loop_
_atom_site_type_symbol
_atom_site_label
_atom_site_fract_x
_atom_site_fract_y
_atom_site_fract_z
Si Si1 0.917075 0.317109 0.847000
Si Si2 0.827633 0.817162 0.180453
Si Si3 0.419178 0.815518 0.034113
Si Si4 0.328521 0.316422 0.362729
Si Si5 0.671184 0.182914 0.530208
Si Si6 0.672318 0.317969 0.700526
O O1 0.904943 0.500000 0.838146
O O2 0.874082 0.228599 0.778309
O O3 0.000000 0.292250 0.838351
O O4 0.897420 0.272015 0.940831
O O5 0.750000 0.750000 0.174686
O O6 0.873310 0.754998 0.105918
O O7 0.857826 0.778583 0.271895
O O8 0.823021 0.000000 0.176237
O O9 0.500000 0.771713 0.044253
O O10 0.415393 0.000000 0.038288
O O11 0.325821 0.500000 0.372154
O O12 0.250000 0.250000 0.359567
O O13 0.361657 0.243729 0.444816
O O14 0.750000 0.250000 0.530276
O O15 0.641317 0.245825 0.616098
O O16 0.673475 0.000000 0.530355
O O17 0.677286 0.500000 0.691263
O O18 0.750000 0.250000 0.711601
#
# Coordination Sequence:
#
# PCOD9350260 Si02
#       6
#     8   8   8   8   8   8
#     4   9  19  37  57  75  98 130 167 206 251 303
#     4  10  20  32  50  76 105 135 167 208 251 293
#     4   9  19  36  56  75  98 131 168 206 250 302
#     4   9  16  27  43  67  98 130 164 201 244 292
#     4  10  17  27  45  69  98 131 165 202 246 294
#     4  11  21  33  51  76 105 134 167 207 250 294
#
# _framework density 17.659458000000001
#
# number of rings (size 3 to 8) (size 9 to 14) (size 15 to 20)
#    0.000    2.333    0.000    7.000    0.000    4.000 
#    0.000    1.667    0.000    1.000    0.000    4.667 
#    0.000    0.000    0.000    0.000    0.000    0.000 
#
# Total GULP energy -133796.031635 kJ/mol
# GULP energy per Si atom -5574.834651 kJ/mol
# Density = 1.761926 g / cm^3
# Si number density = 17.659458 Si / 1000 Ang^3
#
#
#
# Elastic Constant Matrix: (Units=GPa)
#
#
# Indices 1 2 3 4 5 6 
#
# 1 28.1408 27.8474 57.8770 0.0000 0.0000 0.0000
# 2 27.8474 105.8503 79.3523 0.0000 0.0000 0.0000
# 3 57.8770 79.3523 204.5510 0.0000 0.0000 0.0000
# 4 0.0000 0.0000 0.0000 33.2411 0.0000 0.0000
# 5 0.0000 0.0000 0.0000 0.0000 -20.7873 0.0000
# 6 0.0000 0.0000 0.0000 0.0000 0.0000 21.0049
#
#
#
# Elastic Compliance Matrix: (Units=1/GPa)
#
#
# Indices 1 2 3 4 5 6 
#
# 1 0.087897 -0.006317 -0.022420 0.000000 0.000000 0.000000
# 2 -0.006317 0.013775 -0.003557 0.000000 0.000000 0.000000
# 3 -0.022420 -0.003557 0.012612 0.000000 0.000000 0.000000
# 4 0.000000 0.000000 0.000000 0.030083 0.000000 0.000000
# 5 0.000000 0.000000 0.000000 0.000000 -0.048106 0.000000
# 6 0.000000 0.000000 0.000000 0.000000 0.000000 0.047608
#
#
# Mechanical properties :
#
#
# Convention : Reuss Voigt Hill
#
# Bulk Modulus (GPa) = 20.12147 74.29952 47.21049
# Shear Modulus (GPa) = 22.22004 18.25610 20.23807
#
# Velocity S-wave (km/s) = 3.55103 3.21874 3.38896
# Velocity P-wave (km/s) = 5.31338 7.48188 6.48886
#
# Compressibility (1/GPa) = 0.04969817
#
# Stress axis : x y z
#
# Youngs Moduli (GPa) = 11.37693 72.59289 79.28940
#
# Poissons Ratio (x) = 0.45857 1.77764
# Poissons Ratio (y) = 0.07187 0.28200
# Poissons Ratio (z) = 0.25507 0.25818
#
# Static dielectric constant tensor:
#      x y z
#    x 1.571800 0.000000 0.000000 
#    y 0.000000 1.596170 0.000000 
#    z 0.000000 0.000000 1.657270 
# 
# From -- ./inp_files/15135.got.cif
#   From: 2010.05.17/outbox.cif.g08.bks.cpg/sg35_8_cif.got.tgz:15135.got - 2010.06.03 17:29:28.
