data_PCOD9350672
_publ_section_title
;
Structure prediction by ZEFSAII (Michael W. Deem and Ramdas Pophale) SiO2 
 PCOD9350672
Probable space group: C M C 21
;
_chemical_formula_sum "Si O2"
_cell_formula_units_Z 64
_cell_length_a 7.551792
_cell_length_b 21.141715
_cell_length_c 20.077900
_cell_angle_alpha 90.000000
_cell_angle_beta 90.000000
_cell_angle_gamma 90.000000
_cell_volume 3205.594029
_symmetry_space_group_name_H-M "C M C 21"
_symmetry_group_IT_number 36
_symmetry_cell_setting 'orthorhombic'
loop_
_space_group_symop_operation_xyz
x,y,z
-x,-y,1/2+z
x,-y,1/2+z
-x,y,z
1/2+x,1/2+y,z
1/2-x,1/2-y,1/2+z
1/2+x,1/2-y,1/2+z
1/2-x,1/2+y,z
loop_
_atom_site_type_symbol
_atom_site_label
_atom_site_fract_x
_atom_site_fract_y
_atom_site_fract_z
Si Si1 0.790477 0.494383 0.625000
Si Si2 0.792672 0.075190 0.901767
Si Si3 0.286793 0.490989 0.273831
Si Si4 0.703470 0.348665 0.633268
Si Si5 0.786754 0.135762 0.278542
Si Si6 0.288931 0.820898 0.922621
Si Si7 0.781523 0.191721 0.990507
Si Si8 0.714727 0.951103 0.986809
O O1 0.756597 0.523474 0.697461
O O2 0.705276 0.424736 0.623001
O O3 0.730984 0.536638 0.563049
O O4 0.000000 0.483868 0.617954
O O5 0.717602 0.057332 0.829284
O O6 0.000000 0.089775 0.892261
O O7 0.776572 0.011118 0.944363
O O8 0.720004 0.133281 0.944572
O O9 0.500000 0.492539 0.279827
O O10 0.223107 0.563049 0.287493
O O11 0.500000 0.326940 0.636680
O O12 0.781625 0.339302 0.707184
O O13 0.780350 0.318184 0.566517
O O14 0.743490 0.175546 0.343704
O O15 0.000000 0.132472 0.273184
O O16 0.500000 0.821201 0.932276
O O17 0.219489 0.885605 0.955595
O O18 0.223929 0.757513 0.958014
O O19 0.000000 0.189797 0.992088
O O20 0.500000 0.950630 0.984237
#
# Coordination Sequence:
#
# PCOD9350672 Si02
#       8
#     8   8   8   8   8   8   8   8
#     4  10  19  30  47  74 104 132 164 205 253 304
#     4  10  18  32  55  76  96 126 170 215 250 290
#     4   9  18  31  49  75 101 127 165 212 254 297
#     4   9  17  32  53  73  96 128 170 213 248 291
#     4   9  17  30  49  75 100 125 164 209 252 295
#     4  10  20  34  51  73 103 137 168 201 247 305
#     4   9  18  33  54  76  97 131 174 209 245 294
#     4  10  20  32  48  74 105 132 163 204 253 304
#
# _framework density 19.965098999999999
#
# number of rings (size 3 to 8) (size 9 to 14) (size 15 to 20)
#    0.000    2.500    2.500    1.125    0.000    3.000 
#    0.000    2.500    0.000    1.500    0.000    0.000 
#    0.000    0.000    0.000    0.000    0.000    0.000 
#
# Total GULP energy -178501.476450 kJ/mol
# GULP energy per Si atom -5578.171139 kJ/mol
# Density = 1.991966 g / cm^3
# Si number density = 19.965099 Si / 1000 Ang^3
#
#
#
# Elastic Constant Matrix: (Units=GPa)
#
#
# Indices 1 2 3 4 5 6 
#
# 1 44.6875 -8.0846 -9.7554 0.0000 0.0000 0.0000
# 2 -8.0846 98.5671 69.3769 0.0000 0.0000 0.0000
# 3 -9.7554 69.3769 180.3264 0.0000 0.0000 0.0000
# 4 0.0000 0.0000 0.0000 31.2641 0.0000 0.0000
# 5 0.0000 0.0000 0.0000 0.0000 19.5450 0.0000
# 6 0.0000 0.0000 0.0000 0.0000 0.0000 7.7636
#
#
#
# Elastic Compliance Matrix: (Units=1/GPa)
#
#
# Indices 1 2 3 4 5 6 
#
# 1 0.022780 0.001373 0.000704 0.000000 0.000000 0.000000
# 2 0.001373 0.013996 -0.005310 0.000000 0.000000 0.000000
# 3 0.000704 -0.005310 0.007627 0.000000 0.000000 0.000000
# 4 0.000000 0.000000 0.000000 0.031986 0.000000 0.000000
# 5 0.000000 0.000000 0.000000 0.000000 0.051164 0.000000
# 6 0.000000 0.000000 0.000000 0.000000 0.000000 0.128806
#
#
# Mechanical properties :
#
#
# Convention : Reuss Voigt Hill
#
# Bulk Modulus (GPa) = 26.36060 47.40606 36.88333
# Shear Modulus (GPa) = 18.15088 29.85083 24.00086
#
# Velocity S-wave (km/s) = 3.01845 3.87091 3.47095
# Velocity P-wave (km/s) = 5.03786 6.61624 5.88025
#
# Compressibility (1/GPa) = 0.03793540
#
# Stress axis : x y z
#
# Youngs Moduli (GPa) = 43.89867 71.45087 131.11975
#
# Poissons Ratio (x) = -0.09809 -0.09234
# Poissons Ratio (y) = -0.06026 0.69628
# Poissons Ratio (z) = -0.03091 0.37942
#
# Static dielectric constant tensor:
#      x y z
#    x 1.758780 0.000000 0.000000 
#    y 0.000000 1.664230 0.000000 
#    z 0.000000 0.000000 1.732070 
# 
# From -- ./inp_files/15618.got.cif
#   From: 2010.05.17/outbox.cif.g08.bks.cpg/sg36_8_cif.got.tgz:15618.got - 2010.06.03 17:41:39.
