data_PCOD9350085
_publ_section_title
;
Structure prediction by ZEFSAII (Michael W. Deem and Ramdas Pophale) SiO2 
 PCOD9350085
Probable space group: C M M 2
;
_chemical_formula_sum "Si O2"
_cell_formula_units_Z 48
_cell_length_a 10.163874
_cell_length_b 25.884450
_cell_length_c 10.015622
_cell_angle_alpha 90.000000
_cell_angle_beta 90.000000
_cell_angle_gamma 90.000000
_cell_volume 2634.972818
_symmetry_space_group_name_H-M "C M M 2"
_symmetry_group_IT_number 35
_symmetry_cell_setting 'orthorhombic'
loop_
_space_group_symop_operation_xyz
x,y,z
-x,-y,z
-x,y,z
x,-y,z
1/2+x,1/2+y,z
1/2-x,1/2-y,z
1/2-x,1/2+y,z
1/2+x,1/2-y,z
loop_
_atom_site_type_symbol
_atom_site_label
_atom_site_fract_x
_atom_site_fract_y
_atom_site_fract_z
Si Si1 0.758743 0.374398 0.896330
Si Si2 0.844593 0.439411 0.646685
Si Si3 0.744175 0.624088 0.409159
Si Si4 0.000000 0.694513 0.820996
Si Si5 0.000000 0.183490 0.793282
Si Si6 0.500000 0.814212 0.492696
Si Si7 0.500000 0.307556 0.474379
Si Si8 0.159791 0.061918 0.151075
O O1 0.809498 0.415877 0.788921
O O2 0.873736 0.331426 0.890962
O O3 0.628062 0.345661 0.846331
O O4 0.722618 0.405454 0.029780
O O5 0.823217 0.500000 0.645156
O O6 0.751957 0.412058 0.539320
O O7 0.000000 0.430425 0.615995
O O8 0.625897 0.664473 0.413804
O O9 0.723877 0.586811 0.283375
O O10 0.875146 0.657932 0.427418
O O11 0.000000 0.683343 0.657932
O O12 0.000000 0.756254 0.833980
O O13 0.000000 0.182483 0.633093
O O14 0.500000 0.753774 0.457799
O O15 0.000000 0.068548 0.153196
O O16 0.184689 0.000000 0.141188
#
# Coordination Sequence:
#
# PCOD9350085 Si02
#       8
#     8   8   8   4   4   4   4   8
#     4  12  21  43  63  94 126 171 211 257 322 374
#     4  11  22  39  64  96 129 160 213 275 320 369
#     4  12  21  43  63  94 126 171 211 257 322 374
#     4  11  22  41  66  99 133 163 205 267 326 373
#     4  11  22  37  68  99 127 165 213 265 318 379
#     4  11  22  41  66  99 133 163 205 267 326 373
#     4  11  22  37  68  99 127 165 213 265 318 379
#     4  11  26  45  64  90 131 172 211 267 322 367
#
# _framework density 18.216507
#
# number of rings (size 3 to 8) (size 9 to 14) (size 15 to 20)
#    0.000    0.667    6.667    2.000    0.000    3.333 
#    0.000    6.667    0.000    0.000    0.000    0.000 
#    0.000    0.000    0.000    0.000    0.000    0.000 
#
# Total GULP energy -133991.108761 kJ/mol
# GULP energy per Si atom -5582.962865 kJ/mol
# Density = 1.817505 g / cm^3
# Si number density = 18.216507 Si / 1000 Ang^3
#
#
#
# Elastic Constant Matrix: (Units=GPa)
#
#
# Indices 1 2 3 4 5 6 
#
# 1 114.1250 35.8998 5.3299 0.0000 0.0000 0.0000
# 2 35.8998 124.6192 14.5870 0.0000 0.0000 0.0000
# 3 5.3299 14.5870 69.6793 0.0000 0.0000 0.0000
# 4 0.0000 0.0000 0.0000 17.2088 0.0000 0.0000
# 5 0.0000 0.0000 0.0000 0.0000 2.3328 0.0000
# 6 0.0000 0.0000 0.0000 0.0000 0.0000 28.6657
#
#
#
# Elastic Compliance Matrix: (Units=1/GPa)
#
#
# Indices 1 2 3 4 5 6 
#
# 1 0.009637 -0.002758 -0.000160 0.000000 0.000000 0.000000
# 2 -0.002758 0.009015 -0.001676 0.000000 0.000000 0.000000
# 3 -0.000160 -0.001676 0.014715 0.000000 0.000000 0.000000
# 4 0.000000 0.000000 0.000000 0.058110 0.000000 0.000000
# 5 0.000000 0.000000 0.000000 0.000000 0.428667 0.000000
# 6 0.000000 0.000000 0.000000 0.000000 0.000000 0.034885
#
#
# Mechanical properties :
#
#
# Convention : Reuss Voigt Hill
#
# Bulk Modulus (GPa) = 41.35758 46.67302 44.01530
# Shear Modulus (GPa) = 8.73704 26.48190 17.60947
#
# Velocity S-wave (km/s) = 2.19240 3.81692 3.11252
# Velocity P-wave (km/s) = 5.40014 6.71581 6.09358
#
# Compressibility (1/GPa) = 0.02417936
#
# Stress axis : x y z
#
# Youngs Moduli (GPa) = 103.76446 110.92574 67.95959
#
# Poissons Ratio (x) = 0.30588 0.01087
# Poissons Ratio (y) = 0.28613 0.11392
# Poissons Ratio (z) = 0.01659 0.18595
#
# Static dielectric constant tensor:
#      x y z
#    x 1.661680 0.000000 0.000000 
#    y 0.000000 1.612960 0.000000 
#    z 0.000000 0.000000 1.608750 
# 
# From -- ./inp_files/5452.got.cif
#   From: 2010.05.17/outbox.cif.g08.bks.cpg/sg35_3_cif.got.tgz:5452.got - 2010.06.03 17:29:28.
