data_PCOD9350447
_publ_section_title
;
Structure prediction by ZEFSAII (Michael W. Deem and Ramdas Pophale) SiO2 
 PCOD9350447
Probable space group: C M M 2
;
_chemical_formula_sum "Si O2"
_cell_formula_units_Z 32
_cell_length_a 9.013381
_cell_length_b 15.222348
_cell_length_c 12.195150
_cell_angle_alpha 90.000000
_cell_angle_beta 90.000000
_cell_angle_gamma 90.000000
_cell_volume 1673.233388
_symmetry_space_group_name_H-M "C M M 2"
_symmetry_group_IT_number 35
_symmetry_cell_setting 'orthorhombic'
loop_
_space_group_symop_operation_xyz
x,y,z
-x,-y,z
-x,y,z
x,-y,z
1/2+x,1/2+y,z
1/2-x,1/2-y,z
1/2-x,1/2+y,z
1/2+x,1/2-y,z
loop_
_atom_site_type_symbol
_atom_site_label
_atom_site_fract_x
_atom_site_fract_y
_atom_site_fract_z
Si Si1 0.830989 0.106857 0.173850
Si Si2 0.823098 0.657957 0.397187
Si Si3 0.324322 0.500000 0.527934
Si Si4 0.834829 0.397408 0.960350
Si Si5 0.674018 0.500000 0.788766
O O1 0.727490 0.136923 0.272906
O O2 0.000000 0.137996 0.190167
O O3 0.836288 0.000000 0.175342
O O4 0.765961 0.139244 0.057572
O O5 0.750000 0.750000 0.428127
O O6 0.753601 0.583567 0.473984
O O7 0.000000 0.659752 0.404990
O O8 0.500000 0.500000 0.501413
O O9 0.307780 0.500000 0.659063
O O10 0.853991 0.500000 0.994632
O O11 0.750181 0.414480 0.845677
O O12 0.000000 0.358893 0.950164
O O13 0.500000 0.500000 0.817446
#
# Coordination Sequence:
#
# PCOD9350447 Si02
#       5
#     8   8   4   8   4
#     4  10  18  31  55  83 115 149 186 231 285 343
#     4  12  25  40  60  86 119 156 198 244 295 350
#     4  11  23  40  61  86 117 155 201 245 292 347
#     4   8  15  26  46  77 110 141 183 230 276 336
#     4   9  17  30  51  80 111 147 191 237 286 343
#
# _framework density 19.124649000000002
#
# number of rings (size 3 to 8) (size 9 to 14) (size 15 to 20)
#    0.750    1.250    1.250    4.125    0.000    3.000 
#    0.000    0.000    0.000    1.500    0.000    3.500 
#    0.000    0.000    0.000    0.000    0.000    0.000 
#
# Total GULP energy -89172.630490 kJ/mol
# GULP energy per Si atom -5573.289406 kJ/mol
# Density = 1.908112 g / cm^3
# Si number density = 19.124649 Si / 1000 Ang^3
#
#
#
# Elastic Constant Matrix: (Units=GPa)
#
#
# Indices 1 2 3 4 5 6 
#
# 1 207.4692 53.7734 83.5311 0.0000 0.0000 0.0000
# 2 53.7734 78.9850 36.9265 0.0000 0.0000 0.0000
# 3 83.5311 36.9265 103.7270 0.0000 0.0000 0.0000
# 4 0.0000 0.0000 0.0000 -14.9262 0.0000 0.0000
# 5 0.0000 0.0000 0.0000 0.0000 14.1102 0.0000
# 6 0.0000 0.0000 0.0000 0.0000 0.0000 19.2994
#
#
#
# Elastic Compliance Matrix: (Units=1/GPa)
#
#
# Indices 1 2 3 4 5 6 
#
# 1 0.007609 -0.002778 -0.005138 0.000000 0.000000 0.000000
# 2 -0.002778 0.016203 -0.003531 0.000000 0.000000 0.000000
# 3 -0.005138 -0.003531 0.015036 0.000000 0.000000 0.000000
# 4 0.000000 0.000000 0.000000 -0.066996 0.000000 0.000000
# 5 0.000000 0.000000 0.000000 0.000000 0.070871 0.000000
# 6 0.000000 0.000000 0.000000 0.000000 0.000000 0.051815
#
#
# Mechanical properties :
#
#
# Convention : Reuss Voigt Hill
#
# Bulk Modulus (GPa) = 62.68653 82.07147 72.37900
# Shear Modulus (GPa) = 40.73358 18.09336 29.41347
#
# Velocity S-wave (km/s) = 4.62009 3.07917 3.92597
# Velocity P-wave (km/s) = 7.83003 7.45982 7.64716
#
# Compressibility (1/GPa) = 0.01595239
#
# Stress axis : x y z
#
# Youngs Moduli (GPa) = 131.42651 61.71839 66.50810
#
# Poissons Ratio (x) = 0.17144 0.34175
# Poissons Ratio (y) = 0.36508 0.23485
# Poissons Ratio (z) = 0.67533 0.21794
#
# Static dielectric constant tensor:
#      x y z
#    x 1.676760 0.000000 0.000000 
#    y 0.000000 1.602120 0.000000 
#    z 0.000000 0.000000 1.653790 
# 
# From -- ./inp_files/10920.got.cif
#   From: 2010.05.17/outbox.cif.g08.bks.cpg/sg35_6_cif.got.tgz:10920.got - 2010.06.03 17:29:28.
