data_PCOD9350744
_publ_section_title
;
Structure prediction by ZEFSAII (Michael W. Deem and Ramdas Pophale) SiO2 
 PCOD9350744
Probable space group: C M C 21
;
_chemical_formula_sum "Si O2"
_cell_formula_units_Z 56
_cell_length_a 15.814424
_cell_length_b 15.735530
_cell_length_c 9.675622
_cell_angle_alpha 90.000000
_cell_angle_beta 90.000000
_cell_angle_gamma 90.000000
_cell_volume 2407.762505
_symmetry_space_group_name_H-M "C M C 21"
_symmetry_group_IT_number 36
_symmetry_cell_setting 'orthorhombic'
loop_
_space_group_symop_operation_xyz
x,y,z
-x,-y,1/2+z
x,-y,1/2+z
-x,y,z
1/2+x,1/2+y,z
1/2-x,1/2-y,1/2+z
1/2+x,1/2-y,1/2+z
1/2-x,1/2+y,z
loop_
_atom_site_type_symbol
_atom_site_label
_atom_site_fract_x
_atom_site_fract_y
_atom_site_fract_z
Si Si1 0.401837 0.216058 0.512360
Si Si2 0.725677 0.506127 0.900653
Si Si3 0.000000 0.506200 0.112651
Si Si4 0.729935 0.342606 0.077058
Si Si5 0.000000 0.612725 0.854513
Si Si6 0.901087 0.126654 0.820597
Si Si7 0.825129 0.681123 0.960941
Si Si8 0.651255 0.109167 0.245378
O O1 0.500000 0.218822 0.553787
O O2 0.325820 0.187583 0.614381
O O3 0.385727 0.308934 0.447937
O O4 0.388587 0.152043 0.381642
O O5 0.630827 0.533733 0.865542
O O6 0.772697 0.452236 0.784134
O O7 0.733098 0.440057 0.025703
O O8 0.773758 0.596550 0.916708
O O9 0.000000 0.525335 0.948921
O O10 0.081715 0.553459 0.168664
O O11 0.000000 0.419116 0.197264
O O12 0.658867 0.345134 0.194604
O O13 0.706895 0.278382 0.948739
O O14 0.081936 0.665610 0.900071
O O15 0.000000 0.130908 0.784768
O O16 0.823267 0.675305 0.128362
#
# Coordination Sequence:
#
# PCOD9350744 Si02
#       8
#     8   8   4   8   4   8   8   8
#     4  10  20  38  66  96 128 166 218 276 341 406
#     4  11  23  41  61  96 131 172 223 283 346 394
#     4  10  18  34  56  94 135 171 217 275 360 420
#     4  11  24  41  70  95 133 182 224 282 341 417
#     4  10  22  34  60  96 135 177 223 293 350 434
#     4  11  24  43  68  95 130 180 233 277 336 405
#     4  11  21  38  62  96 130 172 227 279 339 418
#     4  10  19  34  61  89 131 168 217 274 335 417
#
# _framework density 23.258108
#
# number of rings (size 3 to 8) (size 9 to 14) (size 15 to 20)
#    0.000    1.429    5.000    0.857    1.000    0.571 
#    0.000    0.000    1.571    0.857    0.000    0.000 
#    0.000    0.000    0.000    0.000    0.000    0.000 
#
# Total GULP energy -156371.938369 kJ/mol
# GULP energy per Si atom -5584.712085 kJ/mol
# Density = 2.320517 g / cm^3
# Si number density = 23.258108 Si / 1000 Ang^3
#
#
#
# Elastic Constant Matrix: (Units=GPa)
#
#
# Indices 1 2 3 4 5 6 
#
# 1 171.4568 46.3633 21.3668 0.0000 0.0000 0.0000
# 2 46.3633 112.5701 8.7868 0.0000 0.0000 0.0000
# 3 21.3668 8.7868 20.5854 0.0000 0.0000 0.0000
# 4 0.0000 0.0000 0.0000 16.9465 0.0000 0.0000
# 5 0.0000 0.0000 0.0000 0.0000 45.2111 0.0000
# 6 0.0000 0.0000 0.0000 0.0000 0.0000 31.7449
#
#
#
# Elastic Compliance Matrix: (Units=1/GPa)
#
#
# Indices 1 2 3 4 5 6 
#
# 1 0.007324 -0.002507 -0.006532 0.000000 0.000000 0.000000
# 2 -0.002507 0.010047 -0.001687 0.000000 0.000000 0.000000
# 3 -0.006532 -0.001687 0.056079 0.000000 0.000000 0.000000
# 4 0.000000 0.000000 0.000000 0.059009 0.000000 0.000000
# 5 0.000000 0.000000 0.000000 0.000000 0.022118 0.000000
# 6 0.000000 0.000000 0.000000 0.000000 0.000000 0.031501
#
#
# Mechanical properties :
#
#
# Convention : Reuss Voigt Hill
#
# Bulk Modulus (GPa) = 19.23133 50.84956 35.04045
# Shear Modulus (GPa) = 22.23570 33.98685 28.11128
#
# Velocity S-wave (km/s) = 3.09535 3.82683 3.48036
# Velocity P-wave (km/s) = 4.58928 6.43714 5.59009
#
# Compressibility (1/GPa) = 0.05199848
#
# Stress axis : x y z
#
# Youngs Moduli (GPa) = 136.53274 99.52784 17.83215
#
# Poissons Ratio (x) = 0.24949 0.11648
# Poissons Ratio (y) = 0.34225 0.03008
# Poissons Ratio (z) = 0.89187 0.16789
#
# Static dielectric constant tensor:
#      x y z
#    x 1.890730 0.000000 0.000000 
#    y 0.000000 1.938200 0.000000 
#    z 0.000000 0.000000 1.958700 
# 
# From -- ./inp_files/8509.got.cif
#   From: 2010.05.17/outbox.cif.g08.bks.cpg/sg36_5_cif.got.tgz:8509.got - 2010.06.03 17:41:39.
