data_PCOD9350048
_publ_section_title
;
Structure prediction by ZEFSAII (Michael W. Deem and Ramdas Pophale) SiO2 
 PCOD9350048
Probable space group: C M M 2
;
_chemical_formula_sum "Si O2"
_cell_formula_units_Z 56
_cell_length_a 8.965933
_cell_length_b 18.625844
_cell_length_c 19.068179
_cell_angle_alpha 90.000000
_cell_angle_beta 90.000000
_cell_angle_gamma 90.000000
_cell_volume 3184.349079
_symmetry_space_group_name_H-M "C M M 2"
_symmetry_group_IT_number 35
_symmetry_cell_setting 'orthorhombic'
loop_
_space_group_symop_operation_xyz
x,y,z
-x,-y,z
-x,y,z
x,-y,z
1/2+x,1/2+y,z
1/2-x,1/2-y,z
1/2-x,1/2+y,z
1/2+x,1/2-y,z
loop_
_atom_site_type_symbol
_atom_site_label
_atom_site_fract_x
_atom_site_fract_y
_atom_site_fract_z
Si Si1 0.179300 0.670104 0.837440
Si Si2 0.320593 0.083516 0.547305
Si Si3 0.672437 0.587415 0.403845
Si Si4 0.673491 0.912710 0.261780
Si Si5 0.820555 0.671331 0.683101
Si Si6 0.321645 0.329498 0.978409
Si Si7 0.678201 0.085958 0.105298
O O1 0.250000 0.750000 0.834334
O O2 0.212335 0.638548 0.760279
O O3 0.000000 0.673852 0.846423
O O4 0.254411 0.637182 0.906438
O O5 0.500000 0.086557 0.544024
O O6 0.256774 0.111926 0.473829
O O7 0.270388 0.125502 0.616442
O O8 0.277198 0.000000 0.553893
O O9 0.500000 0.606091 0.408962
O O10 0.685193 0.500000 0.402854
O O11 0.738703 0.613106 0.329909
O O12 0.500000 0.893554 0.269379
O O13 0.724348 0.890373 0.184053
O O14 0.680677 0.000000 0.261373
O O15 0.750000 0.750000 0.679247
O O16 0.000000 0.678149 0.679941
O O17 0.500000 0.324369 0.973907
O O18 0.250000 0.250000 0.984791
O O19 0.268732 0.374655 0.045071
O O20 0.500000 0.099823 0.098087
O O21 0.698303 0.000000 0.100377
#
# Coordination Sequence:
#
# PCOD9350048 Si02
#       7
#     8   8   8   8   8   8   8
#     4   9  16  29  48  69  92 119 157 198 235 278
#     4   9  17  30  47  67  93 123 155 190 229 276
#     4   9  16  25  40  65  94 122 154 191 229 269
#     4   8  14  26  45  67  91 122 157 190 227 274
#     4   9  18  31  49  71  92 119 155 194 235 278
#     4  11  21  33  51  73  98 128 163 200 239 285
#     4   9  18  33  52  74 100 128 159 197 242 289
#
# _framework density 17.586010999999999
#
# number of rings (size 3 to 8) (size 9 to 14) (size 15 to 20)
#    0.000    2.857    0.000    3.857    0.000    3.714 
#    0.000    2.143    0.000    3.429    0.000    4.000 
#    0.000    0.000    0.000    0.000    0.000    0.000 
#
# Total GULP energy -155927.952765 kJ/mol
# GULP energy per Si atom -5568.855456 kJ/mol
# Density = 1.754598 g / cm^3
# Si number density = 17.586011 Si / 1000 Ang^3
#
#
#
# Elastic Constant Matrix: (Units=GPa)
#
#
# Indices 1 2 3 4 5 6 
#
# 1 67.1961 21.1245 74.5400 0.0000 0.0000 0.0000
# 2 21.1245 17.2694 42.9162 0.0000 0.0000 0.0000
# 3 74.5400 42.9162 211.1553 0.0000 0.0000 0.0000
# 4 0.0000 0.0000 0.0000 42.3593 0.0000 0.0000
# 5 0.0000 0.0000 0.0000 0.0000 25.9362 0.0000
# 6 0.0000 0.0000 0.0000 0.0000 0.0000 15.8388
#
#
#
# Elastic Compliance Matrix: (Units=1/GPa)
#
#
# Indices 1 2 3 4 5 6 
#
# 1 0.027243 -0.019044 -0.005747 0.000000 0.000000 0.000000
# 2 -0.019044 0.130314 -0.019763 0.000000 0.000000 0.000000
# 3 -0.005747 -0.019763 0.010781 0.000000 0.000000 0.000000
# 4 0.000000 0.000000 0.000000 0.023608 0.000000 0.000000
# 5 0.000000 0.000000 0.000000 0.000000 0.038556 0.000000
# 6 0.000000 0.000000 0.000000 0.000000 0.000000 0.063136
#
#
# Mechanical properties :
#
#
# Convention : Reuss Voigt Hill
#
# Bulk Modulus (GPa) = 12.62127 63.64247 38.13187
# Shear Modulus (GPa) = 12.22028 27.29621 19.75824
#
# Velocity S-wave (km/s) = 2.63893 3.94401 3.35553
# Velocity P-wave (km/s) = 4.05928 7.55037 6.06160
#
# Compressibility (1/GPa) = 0.07923133
#
# Stress axis : x y z
#
# Youngs Moduli (GPa) = 36.70619 7.67376 92.75480
#
# Poissons Ratio (x) = 0.14614 0.53302
# Poissons Ratio (y) = 0.69904 1.83309
# Poissons Ratio (z) = 0.21093 0.15166
#
# Static dielectric constant tensor:
#      x y z
#    x 1.585290 0.000000 0.000000 
#    y 0.000000 1.585910 0.000000 
#    z 0.000000 0.000000 1.643720 
# 
# From -- ./inp_files/18281.got.cif
#   From: 2010.05.17/outbox.cif.g08.bks.cpg/sg35_10_cif.got.tgz:18281.got - 2010.06.03 17:29:28.
