data_PCOD9350011
_publ_section_title
;
Structure prediction by ZEFSAII (Michael W. Deem and Ramdas Pophale) SiO2 
 PCOD9350011
Probable space group: C M M 2
;
_chemical_formula_sum "Si O2"
_cell_formula_units_Z 48
_cell_length_a 10.009303
_cell_length_b 16.154474
_cell_length_c 14.371168
_cell_angle_alpha 90.000000
_cell_angle_beta 90.000000
_cell_angle_gamma 90.000000
_cell_volume 2323.746370
_symmetry_space_group_name_H-M "C M M 2"
_symmetry_group_IT_number 35
_symmetry_cell_setting 'orthorhombic'
loop_
_space_group_symop_operation_xyz
x,y,z
-x,-y,z
-x,y,z
x,-y,z
1/2+x,1/2+y,z
1/2-x,1/2-y,z
1/2-x,1/2+y,z
1/2+x,1/2-y,z
loop_
_atom_site_type_symbol
_atom_site_label
_atom_site_fract_x
_atom_site_fract_y
_atom_site_fract_z
Si Si1 0.765238 0.850673 0.783210
Si Si2 0.748099 0.405334 0.222245
Si Si3 0.839253 0.833622 0.579531
Si Si4 0.000000 0.363253 0.882557
Si Si5 0.650477 0.098841 0.422885
Si Si6 0.000000 0.622930 0.096401
Si Si7 0.000000 0.819573 0.128656
Si Si8 0.000000 0.837514 0.916140
O O1 0.750000 0.750000 0.780988
O O2 0.812534 0.875006 0.680362
O O3 0.626704 0.884929 0.820212
O O4 0.872508 0.870363 0.861786
O O5 0.699614 0.500000 0.236108
O O6 0.806881 0.372730 0.319915
O O7 0.868138 0.407503 0.148416
O O8 0.630137 0.349147 0.183441
O O9 0.750000 0.750000 0.581636
O O10 0.767269 0.881088 0.495579
O O11 0.000000 0.821742 0.568829
O O12 0.000000 0.262824 0.900271
O O13 0.000000 0.397506 0.987082
O O14 0.500000 0.130556 0.447202
O O15 0.639706 0.000000 0.417659
O O16 0.000000 0.721868 0.111745
O O17 0.000000 0.857025 0.024552
#
# Coordination Sequence:
#
# PCOD9350011 Si02
#       8
#     8   8   8   4   8   4   4   4
#     4   9  17  30  52  82 119 156 191 239 296 363
#     4  11  23  42  63  86 122 168 207 245 307 380
#     4  11  23  37  61  95 125 154 196 255 306 354
#     4   9  18  29  54  85 116 154 197 245 298 355
#     4  10  23  44  65  83 113 162 208 247 303 376
#     4  11  21  39  62  93 122 160 207 263 302 349
#     4  11  23  35  62  97 126 154 205 261 306 345
#     4   9  16  33  50  81 122 154 191 239 302 353
#
# _framework density 20.656299000000001
#
# number of rings (size 3 to 8) (size 9 to 14) (size 15 to 20)
#    0.000    1.833    1.667    2.500    5.833    4.333 
#    0.000    0.000    0.000    6.000    0.000    0.000 
#    0.000    0.000    0.000    0.000    0.000    0.000 
#
# Total GULP energy -133968.897448 kJ/mol
# GULP energy per Si atom -5582.037394 kJ/mol
# Density = 2.060928 g / cm^3
# Si number density = 20.656299 Si / 1000 Ang^3
#
#
#
# Elastic Constant Matrix: (Units=GPa)
#
#
# Indices 1 2 3 4 5 6 
#
# 1 199.7867 22.7786 88.3523 0.0000 0.0000 0.0000
# 2 22.7786 31.3474 17.3764 0.0000 0.0000 0.0000
# 3 88.3523 17.3764 153.6603 0.0000 0.0000 0.0000
# 4 0.0000 0.0000 0.0000 92.6460 0.0000 0.0000
# 5 0.0000 0.0000 0.0000 0.0000 13.7268 0.0000
# 6 0.0000 0.0000 0.0000 0.0000 0.0000 25.8707
#
#
#
# Elastic Compliance Matrix: (Units=1/GPa)
#
#
# Indices 1 2 3 4 5 6 
#
# 1 0.006973 -0.003035 -0.003666 0.000000 0.000000 0.000000
# 2 -0.003035 0.035355 -0.002253 0.000000 0.000000 0.000000
# 3 -0.003666 -0.002253 0.008871 0.000000 0.000000 0.000000
# 4 0.000000 0.000000 0.000000 0.010794 0.000000 0.000000
# 5 0.000000 0.000000 0.000000 0.000000 0.072850 0.000000
# 6 0.000000 0.000000 0.000000 0.000000 0.000000 0.038654
#
#
# Mechanical properties :
#
#
# Convention : Reuss Voigt Hill
#
# Bulk Modulus (GPa) = 30.03873 71.31211 50.67542
# Shear Modulus (GPa) = 24.69144 43.53452 34.11298
#
# Velocity S-wave (km/s) = 3.46113 4.59580 4.06822
# Velocity P-wave (km/s) = 5.52687 7.92212 6.83031
#
# Compressibility (1/GPa) = 0.03329036
#
# Stress axis : x y z
#
# Youngs Moduli (GPa) = 143.42032 28.28482 112.73299
#
# Poissons Ratio (x) = 0.08583 0.41327
# Poissons Ratio (y) = 0.43521 0.25401
# Poissons Ratio (z) = 0.52577 0.06373
#
# Static dielectric constant tensor:
#      x y z
#    x 1.713590 0.000000 0.000000 
#    y 0.000000 1.774230 0.000000 
#    z 0.000000 0.000000 1.723770 
# 
# From -- ./inp_files/15309.got.cif
#   From: 2010.05.17/outbox.cif.g08.bks.cpg/sg35_8_cif.got.tgz:15309.got - 2010.06.03 17:29:28.
