data_PCOD9350789
_publ_section_title
;
Structure prediction by ZEFSAII (Michael W. Deem and Ramdas Pophale) SiO2 
 PCOD9350789
Probable space group: C M C 21
;
_chemical_formula_sum "Si O2"
_cell_formula_units_Z 28
_cell_length_a 11.756534
_cell_length_b 21.865623
_cell_length_c 4.854024
_cell_angle_alpha 90.000000
_cell_angle_beta 90.000000
_cell_angle_gamma 90.000000
_cell_volume 1247.794535
_symmetry_space_group_name_H-M "C M C 21"
_symmetry_group_IT_number 36
_symmetry_cell_setting 'orthorhombic'
loop_
_space_group_symop_operation_xyz
x,y,z
-x,-y,1/2+z
x,-y,1/2+z
-x,y,z
1/2+x,1/2+y,z
1/2-x,1/2-y,1/2+z
1/2+x,1/2-y,1/2+z
1/2-x,1/2+y,z
loop_
_atom_site_type_symbol
_atom_site_label
_atom_site_fract_x
_atom_site_fract_y
_atom_site_fract_z
Si Si1 0.763423 0.291031 0.362480
Si Si2 0.500000 0.465798 0.834665
Si Si3 0.221532 0.909267 0.100990
Si Si4 0.628164 0.093432 0.070987
O O1 0.710790 0.258252 0.627514
O O2 0.686267 0.342419 0.215498
O O3 0.864282 0.335924 0.463272
O O4 0.500000 0.529927 0.006071
O O5 0.614171 0.436532 0.949530
O O6 0.282509 0.940383 0.366035
O O7 0.321266 0.904733 0.875408
O O8 0.500000 0.070419 0.056347
#
# Coordination Sequence:
#
# PCOD9350789 Si02
#       4
#     8   4   8   8
#     4  10  18  36  55  89 130 160 211 249 310 388
#     4  12  26  46  72  92 124 176 224 286 336 362
#     4  10  22  39  61  92 125 161 220 257 327 390
#     4  10  20  37  62  87 127 168 204 247 337 373
#
# _framework density 22.439591
#
# number of rings (size 3 to 8) (size 9 to 14) (size 15 to 20)
#    1.714    0.000    2.857    2.571    0.000    0.000 
#    5.143    0.000    0.000   17.143    0.000    0.000 
#    0.000    0.000    0.000    0.000    0.000    0.000 
#
# Total GULP energy -77984.827960 kJ/mol
# GULP energy per Si atom -5570.344854 kJ/mol
# Density = 2.238852 g / cm^3
# Si number density = 22.439591 Si / 1000 Ang^3
#
#
#
# Elastic Constant Matrix: (Units=GPa)
#
#
# Indices 1 2 3 4 5 6 
#
# 1 83.3192 7.8547 -0.8423 0.0000 0.0000 0.0000
# 2 7.8547 34.2872 -0.6800 0.0000 0.0000 0.0000
# 3 -0.8423 -0.6800 120.1479 0.0000 0.0000 0.0000
# 4 0.0000 0.0000 0.0000 27.5040 0.0000 0.0000
# 5 0.0000 0.0000 0.0000 0.0000 19.6051 0.0000
# 6 0.0000 0.0000 0.0000 0.0000 0.0000 14.3975
#
#
#
# Elastic Compliance Matrix: (Units=1/GPa)
#
#
# Indices 1 2 3 4 5 6 
#
# 1 0.012268 -0.002809 0.000070 0.000000 0.000000 0.000000
# 2 -0.002809 0.029812 0.000149 0.000000 0.000000 0.000000
# 3 0.000070 0.000149 0.008324 0.000000 0.000000 0.000000
# 4 0.000000 0.000000 0.000000 0.036358 0.000000 0.000000
# 5 0.000000 0.000000 0.000000 0.000000 0.051007 0.000000
# 6 0.000000 0.000000 0.000000 0.000000 0.000000 0.069456
#
#
# Mechanical properties :
#
#
# Convention : Reuss Voigt Hill
#
# Bulk Modulus (GPa) = 22.11201 27.82433 24.96817
# Shear Modulus (GPa) = 21.97994 27.72944 24.85469
#
# Velocity S-wave (km/s) = 3.13312 3.51912 3.33171
# Velocity P-wave (km/s) = 4.79207 5.37948 5.09425
#
# Compressibility (1/GPa) = 0.04522428
#
# Stress axis : x y z
#
# Youngs Moduli (GPa) = 81.51587 33.54367 120.12862
#
# Poissons Ratio (x) = 0.09422 -0.00842
# Poissons Ratio (y) = 0.22897 -0.01790
# Poissons Ratio (z) = -0.00571 -0.00500
#
# Static dielectric constant tensor:
#      x y z
#    x 1.789730 0.000000 0.000000 
#    y 0.000000 1.948050 0.000000 
#    z 0.000000 0.000000 1.835780 
# 
# From -- ./inp_files/179.got.cif
#   From: 2010.05.17/outbox.cif.g08.bks.cpg/sg36_1_cif.got.tgz:179.got - 2010.06.03 17:41:39.
