data_PCOD9350425
_publ_section_title
;
Structure prediction by ZEFSAII (Michael W. Deem and Ramdas Pophale) SiO2 
 PCOD9350425
Probable space group: C M M 2
;
_chemical_formula_sum "Si O2"
_cell_formula_units_Z 64
_cell_length_a 24.152386
_cell_length_b 20.774741
_cell_length_c 6.439345
_cell_angle_alpha 90.000000
_cell_angle_beta 90.000000
_cell_angle_gamma 90.000000
_cell_volume 3231.002938
_symmetry_space_group_name_H-M "C M M 2"
_symmetry_group_IT_number 35
_symmetry_cell_setting 'orthorhombic'
loop_
_space_group_symop_operation_xyz
x,y,z
-x,-y,z
-x,y,z
x,-y,z
1/2+x,1/2+y,z
1/2-x,1/2-y,z
1/2-x,1/2+y,z
1/2+x,1/2-y,z
loop_
_atom_site_type_symbol
_atom_site_label
_atom_site_fract_x
_atom_site_fract_y
_atom_site_fract_z
Si Si1 0.436519 0.570820 0.387650
Si Si2 0.680602 0.854661 0.308402
Si Si3 0.438449 0.671976 0.023530
Si Si4 0.691685 0.253351 0.635683
Si Si5 0.150619 0.885937 0.710065
Si Si6 0.367369 0.074039 0.700835
Si Si7 0.244426 0.427583 0.980060
Si Si8 0.103084 0.689814 0.941861
O O1 0.500000 0.573659 0.471406
O O2 0.432188 0.500000 0.279894
O O3 0.431043 0.633314 0.239740
O O4 0.388019 0.573481 0.557466
O O5 0.697077 0.792287 0.438815
O O6 0.653102 0.903849 0.473127
O O7 0.731791 0.882182 0.175790
O O8 0.633610 0.834853 0.146106
O O9 0.500000 0.654664 0.948973
O O10 0.391657 0.643718 0.876251
O O11 0.434458 0.749968 0.015456
O O12 0.750000 0.250000 0.753050
O O13 0.675917 0.325771 0.584524
O O14 0.646084 0.223442 0.784868
O O15 0.201982 0.915000 0.838025
O O16 0.410143 0.125017 0.807226
O O17 0.386408 0.000000 0.701632
O O18 0.310683 0.077523 0.837394
O O19 0.248120 0.500000 0.061150
#
# Coordination Sequence:
#
# PCOD9350425 Si02
#       8
#     8   8   8   8   8   8   8   8
#     4  10  22  39  57  78 105 139 183 236 289 334
#     4  10  18  31  51  75 105 143 177 211 258 311
#     4  10  22  39  58  80 104 135 182 236 285 330
#     4  10  20  32  48  73 105 138 175 218 262 312
#     4  11  21  36  55  77 105 143 185 227 273 323
#     4   9  18  33  53  80 113 144 176 211 252 312
#     4  10  21  34  49  76 112 145 177 212 254 311
#     4   9  19  34  53  77 104 137 177 217 264 320
#
# _framework density 19.808091000000001
#
# number of rings (size 3 to 8) (size 9 to 14) (size 15 to 20)
#    0.000    2.125    0.000    4.125    0.000    6.000 
#    0.000    1.250    0.000    0.375    0.000    0.000 
#    0.000    0.000    0.000    0.000    0.000    0.000 
#
# Total GULP energy -178243.579830 kJ/mol
# GULP energy per Si atom -5570.111870 kJ/mol
# Density = 1.976301 g / cm^3
# Si number density = 19.808091 Si / 1000 Ang^3
#
#
#
# Elastic Constant Matrix: (Units=GPa)
#
#
# Indices 1 2 3 4 5 6 
#
# 1 43.5982 32.0482 20.3452 0.0000 0.0000 0.0000
# 2 32.0482 114.6147 44.0692 0.0000 0.0000 0.0000
# 3 20.3452 44.0692 79.4223 0.0000 0.0000 0.0000
# 4 0.0000 0.0000 0.0000 4.3823 0.0000 0.0000
# 5 0.0000 0.0000 0.0000 0.0000 24.5945 0.0000
# 6 0.0000 0.0000 0.0000 0.0000 0.0000 28.5703
#
#
#
# Elastic Compliance Matrix: (Units=1/GPa)
#
#
# Indices 1 2 3 4 5 6 
#
# 1 0.029756 -0.006851 -0.003821 0.000000 0.000000 0.000000
# 2 -0.006851 0.012669 -0.005274 0.000000 0.000000 0.000000
# 3 -0.003821 -0.005274 0.016496 0.000000 0.000000 0.000000
# 4 0.000000 0.000000 0.000000 0.228191 0.000000 0.000000
# 5 0.000000 0.000000 0.000000 0.000000 0.040660 0.000000
# 6 0.000000 0.000000 0.000000 0.000000 0.000000 0.035001
#
#
# Mechanical properties :
#
#
# Convention : Reuss Voigt Hill
#
# Bulk Modulus (GPa) = 36.99882 47.84006 42.41944
# Shear Modulus (GPa) = 12.38621 20.92092 16.65357
#
# Velocity S-wave (km/s) = 2.50333 3.25342 2.90271
# Velocity P-wave (km/s) = 5.20334 6.19009 5.71804
#
# Compressibility (1/GPa) = 0.02702789
#
# Stress axis : x y z
#
# Youngs Moduli (GPa) = 33.60676 78.93548 60.61946
#
# Poissons Ratio (x) = 0.54079 0.23162
# Poissons Ratio (y) = 0.23024 0.31973
# Poissons Ratio (z) = 0.12841 0.41634
#
# Static dielectric constant tensor:
#      x y z
#    x 1.649570 0.000000 0.000000 
#    y 0.000000 1.763200 0.000000 
#    z 0.000000 0.000000 1.695160 
# 
# From -- ./inp_files/3787.got.cif
#   From: 2010.05.17/outbox.cif.g08.bks.cpg/sg35_2_cif.got.tgz:3787.got - 2010.06.03 17:29:28.
