data_PCOD9350667
_publ_section_title
;
Structure prediction by ZEFSAII (Michael W. Deem and Ramdas Pophale) SiO2 
 PCOD9350667
Probable space group: C M C 21
;
_chemical_formula_sum "Si O2"
_cell_formula_units_Z 64
_cell_length_a 8.058313
_cell_length_b 23.494526
_cell_length_c 17.060487
_cell_angle_alpha 90.000000
_cell_angle_beta 90.000000
_cell_angle_gamma 90.000000
_cell_volume 3229.997930
_symmetry_space_group_name_H-M "C M C 21"
_symmetry_group_IT_number 36
_symmetry_cell_setting 'orthorhombic'
loop_
_space_group_symop_operation_xyz
x,y,z
-x,-y,1/2+z
x,-y,1/2+z
-x,y,z
1/2+x,1/2+y,z
1/2-x,1/2-y,1/2+z
1/2+x,1/2-y,1/2+z
1/2-x,1/2+y,z
loop_
_atom_site_type_symbol
_atom_site_label
_atom_site_fract_x
_atom_site_fract_y
_atom_site_fract_z
Si Si1 0.201790 0.359810 0.236140
Si Si2 0.804758 0.104268 0.496107
Si Si3 0.700321 0.659242 0.064548
Si Si4 0.801223 0.025238 0.352761
Si Si5 0.689349 0.424650 0.691263
Si Si6 0.201140 0.288650 0.084646
Si Si7 0.310044 0.032684 0.636588
Si Si8 0.197629 0.398065 0.401532
O O1 0.256532 0.314499 0.169655
O O2 0.245554 0.422160 0.202195
O O3 0.259681 0.360934 0.326215
O O4 0.000000 0.356849 0.236680
O O5 0.769943 0.077062 0.412342
O O6 0.761912 0.169065 0.516431
O O7 0.700297 0.067712 0.557286
O O8 0.000000 0.095877 0.512158
O O9 0.500000 0.659266 0.070609
O O10 0.766187 0.626302 0.141612
O O11 0.756790 0.724557 0.068045
O O12 0.740873 0.626391 0.984213
O O13 0.734123 0.047638 0.269319
O O14 0.000000 0.017512 0.345380
O O15 0.737097 0.964629 0.384584
O O16 0.500000 0.408713 0.711331
O O17 0.694931 0.478188 0.632763
O O18 0.000000 0.289933 0.085283
O O19 0.500000 0.015445 0.650555
O O20 0.000000 0.393224 0.402641
#
# Coordination Sequence:
#
# PCOD9350667 Si02
#       8
#     8   8   8   8   8   8   8   8
#     4   8  16  32  54  80 104 136 180 225 268 318
#     4  10  20  34  54  82 110 139 178 228 278 326
#     4  10  22  39  57  79 111 151 190 229 280 334
#     4  10  21  36  54  82 116 144 178 224 279 338
#     4  10  20  35  54  78 110 146 181 224 274 328
#     4   9  19  39  60  77 105 146 191 229 272 331
#     4  10  18  32  54  80 109 142 180 218 269 331
#     4  11  21  35  57  86 115 144 184 231 280 332
#
# _framework density 19.814256
#
# number of rings (size 3 to 8) (size 9 to 14) (size 15 to 20)
#    0.000    2.250    1.250    2.625    0.000    5.000 
#    2.250    0.625    0.000    0.000    0.000    0.000 
#    0.000    0.000    0.000    0.000    0.000    0.000 
#
# Total GULP energy -178336.035866 kJ/mol
# GULP energy per Si atom -5573.001121 kJ/mol
# Density = 1.976916 g / cm^3
# Si number density = 19.814256 Si / 1000 Ang^3
#
#
#
# Elastic Constant Matrix: (Units=GPa)
#
#
# Indices 1 2 3 4 5 6 
#
# 1 24.6417 14.4038 16.0464 0.0000 0.0000 0.0000
# 2 14.4038 139.2310 73.6892 0.0000 0.0000 0.0000
# 3 16.0464 73.6892 90.1819 0.0000 0.0000 0.0000
# 4 0.0000 0.0000 0.0000 22.4621 0.0000 0.0000
# 5 0.0000 0.0000 0.0000 0.0000 17.6952 0.0000
# 6 0.0000 0.0000 0.0000 0.0000 0.0000 18.4050
#
#
#
# Elastic Compliance Matrix: (Units=1/GPa)
#
#
# Indices 1 2 3 4 5 6 
#
# 1 0.045945 -0.000751 -0.007561 0.000000 0.000000 0.000000
# 2 -0.000751 0.012668 -0.010217 0.000000 0.000000 0.000000
# 3 -0.007561 -0.010217 0.020783 0.000000 0.000000 0.000000
# 4 0.000000 0.000000 0.000000 0.044519 0.000000 0.000000
# 5 0.000000 0.000000 0.000000 0.000000 0.056513 0.000000
# 6 0.000000 0.000000 0.000000 0.000000 0.000000 0.054333
#
#
# Mechanical properties :
#
#
# Convention : Reuss Voigt Hill
#
# Bulk Modulus (GPa) = 23.62083 51.37036 37.49559
# Shear Modulus (GPa) = 17.48673 21.70681 19.59677
#
# Velocity S-wave (km/s) = 2.97397 3.31345 3.14829
# Velocity P-wave (km/s) = 4.87234 6.37345 5.67276
#
# Compressibility (1/GPa) = 0.04233552
#
# Stress axis : x y z
#
# Youngs Moduli (GPa) = 21.76536 78.94167 48.11676
#
# Poissons Ratio (x) = 0.05930 0.36382
# Poissons Ratio (y) = 0.01635 0.49162
# Poissons Ratio (z) = 0.16457 0.80657
#
# Static dielectric constant tensor:
#      x y z
#    x 1.721740 0.000000 0.000000 
#    y 0.000000 1.703810 0.000000 
#    z 0.000000 0.000000 1.758130 
# 
# From -- ./inp_files/10884.got.cif
#   From: 2010.05.17/outbox.cif.g08.bks.cpg/sg36_6_cif.got.tgz:10884.got - 2010.06.03 17:41:39.
