data_PCOD9350042
_publ_section_title
;
Structure prediction by ZEFSAII (Michael W. Deem and Ramdas Pophale) SiO2 
 PCOD9350042
Probable space group: C M M 2
;
_chemical_formula_sum "Si O2"
_cell_formula_units_Z 64
_cell_length_a 8.514976
_cell_length_b 31.862648
_cell_length_c 12.233560
_cell_angle_alpha 90.000000
_cell_angle_beta 90.000000
_cell_angle_gamma 90.000000
_cell_volume 3319.083286
_symmetry_space_group_name_H-M "C M M 2"
_symmetry_group_IT_number 35
_symmetry_cell_setting 'orthorhombic'
loop_
_space_group_symop_operation_xyz
x,y,z
-x,-y,z
-x,y,z
x,-y,z
1/2+x,1/2+y,z
1/2-x,1/2-y,z
1/2-x,1/2+y,z
1/2+x,1/2-y,z
loop_
_atom_site_type_symbol
_atom_site_label
_atom_site_fract_x
_atom_site_fract_y
_atom_site_fract_z
Si Si1 0.812257 0.204884 0.341390
Si Si2 0.188686 0.578175 0.571721
Si Si3 0.811764 0.625829 0.205537
Si Si4 0.691445 0.953334 0.810835
Si Si5 0.311173 0.673401 0.578705
Si Si6 0.188371 0.295030 0.809152
Si Si7 0.812016 0.047152 0.341499
Si Si8 0.308288 0.874455 0.954070
O O1 0.750000 0.250000 0.304499
O O2 0.751772 0.166309 0.269289
O O3 0.762057 0.196489 0.467056
O O4 0.000000 0.205030 0.338442
O O5 0.236164 0.556836 0.685955
O O6 0.243546 0.626369 0.575002
O O7 0.260343 0.556197 0.465811
O O8 0.000000 0.576750 0.563842
O O9 0.758102 0.583624 0.266378
O O10 0.000000 0.627429 0.207273
O O11 0.757721 0.626032 0.079663
O O12 0.500000 0.952981 0.813271
O O13 0.745067 0.916067 0.889937
O O14 0.743709 0.000000 0.842300
O O15 0.500000 0.671544 0.581435
O O16 0.249991 0.695822 0.687301
O O17 0.250000 0.250000 0.846801
O O18 0.240447 0.333102 0.887419
O O19 0.000000 0.294659 0.806503
O O20 0.000000 0.049460 0.335510
O O21 0.761580 0.000000 0.310160
O O22 0.500000 0.874857 0.953210
#
# Coordination Sequence:
#
# PCOD9350042 Si02
#       8
#     8   8   8   8   8   8   8   8
#     4  11  24  41  62  88 122 157 196 245 301 359
#     4  11  20  34  61  92 122 156 196 244 297 358
#     4  11  23  40  64  89 117 156 207 256 301 356
#     4   9  17  32  57  89 121 151 186 235 295 350
#     4  11  22  37  60  90 123 158 195 239 299 361
#     4  11  22  39  61  88 122 156 197 244 297 354
#     4  11  24  41  60  86 125 165 200 246 302 358
#     4   9  20  38  58  86 119 153 196 252 302 346
#
# _framework density 19.282433999999999
#
# number of rings (size 3 to 8) (size 9 to 14) (size 15 to 20)
#    0.000    1.500    2.500    3.000    0.000    5.000 
#    0.000    5.000    0.000    0.000    0.000    0.000 
#    0.000    0.000    0.000    0.000    0.000    0.000 
#
# Total GULP energy -178867.341278 kJ/mol
# GULP energy per Si atom -5589.604415 kJ/mol
# Density = 1.923855 g / cm^3
# Si number density = 19.282434 Si / 1000 Ang^3
#
#
#
# Elastic Constant Matrix: (Units=GPa)
#
#
# Indices 1 2 3 4 5 6 
#
# 1 33.1531 27.8899 25.8981 0.0000 0.0000 0.0000
# 2 27.8899 200.9007 92.8664 0.0000 0.0000 0.0000
# 3 25.8981 92.8664 160.3067 0.0000 0.0000 0.0000
# 4 0.0000 0.0000 0.0000 -1.2957 0.0000 0.0000
# 5 0.0000 0.0000 0.0000 0.0000 -3.9573 0.0000
# 6 0.0000 0.0000 0.0000 0.0000 0.0000 28.5426
#
#
#
# Elastic Compliance Matrix: (Units=1/GPa)
#
#
# Indices 1 2 3 4 5 6 
#
# 1 0.035919 -0.003147 -0.003980 0.000000 0.000000 0.000000
# 2 -0.003147 0.007074 -0.003589 0.000000 0.000000 0.000000
# 3 -0.003980 -0.003589 0.008960 0.000000 0.000000 0.000000
# 4 0.000000 0.000000 0.000000 -0.771797 0.000000 0.000000
# 5 0.000000 0.000000 0.000000 0.000000 -0.252699 0.000000
# 6 0.000000 0.000000 0.000000 0.000000 0.000000 0.035035
#
#
# Mechanical properties :
#
#
# Convention : Reuss Voigt Hill
#
# Bulk Modulus (GPa) = 32.76428 76.40771 54.58599
# Shear Modulus (GPa) = -5.51937 21.17167 7.82615
#
# Velocity S-wave (km/s) = -1.69369 3.31717 2.01681
# Velocity P-wave (km/s) = 3.63371 7.37449 5.81321
#
# Compressibility (1/GPa) = 0.03052104
#
# Stress axis : x y z
#
# Youngs Moduli (GPa) = 27.84022 141.36997 111.60233
#
# Poissons Ratio (x) = 0.44485 0.44417
# Poissons Ratio (y) = 0.08761 0.40059
# Poissons Ratio (z) = 0.11080 0.50744
#
# Static dielectric constant tensor:
#      x y z
#    x 1.658100 0.000000 0.000000 
#    y 0.000000 1.654540 0.000000 
#    z 0.000000 0.000000 1.652890 
# 
# From -- ./inp_files/11891.got.cif
#   From: 2010.05.17/outbox.cif.g08.bks.cpg/sg35_6_cif.got.tgz:11891.got - 2010.06.03 17:29:28.
