data_PCOD9350530
_publ_section_title
;
Structure prediction by ZEFSAII (Michael W. Deem and Ramdas Pophale) SiO2 
 PCOD9350530
Probable space group: C M C 21
;
_chemical_formula_sum "Si O2"
_cell_formula_units_Z 48
_cell_length_a 7.362899
_cell_length_b 14.823179
_cell_length_c 17.163737
_cell_angle_alpha 90.000000
_cell_angle_beta 90.000000
_cell_angle_gamma 90.000000
_cell_volume 1873.277200
_symmetry_space_group_name_H-M "C M C 21"
_symmetry_group_IT_number 36
_symmetry_cell_setting 'orthorhombic'
loop_
_space_group_symop_operation_xyz
x,y,z
-x,-y,1/2+z
x,-y,1/2+z
-x,y,z
1/2+x,1/2+y,z
1/2-x,1/2-y,1/2+z
1/2+x,1/2-y,1/2+z
1/2-x,1/2+y,z
loop_
_atom_site_type_symbol
_atom_site_label
_atom_site_fract_x
_atom_site_fract_y
_atom_site_fract_z
Si Si1 0.284602 0.717513 0.560540
Si Si2 0.703752 0.986819 0.066262
Si Si3 0.776732 0.480754 0.901082
Si Si4 0.207957 0.726667 0.229070
Si Si5 0.791581 0.489506 0.735250
Si Si6 0.717702 0.771133 0.893723
O O1 0.500000 0.703902 0.566052
O O2 0.191941 0.620405 0.553838
O O3 0.216976 0.757447 0.642606
O O4 0.258610 0.769174 0.478610
O O5 0.500000 0.027552 0.073509
O O6 0.793870 0.993802 0.150885
O O7 0.783633 0.020002 0.984192
O O8 0.715769 0.521486 0.818401
O O9 0.718992 0.375631 0.899348
O O10 0.000000 0.482709 0.901146
O O11 0.202583 0.618982 0.240487
O O12 0.288599 0.764288 0.310186
O O13 0.000000 0.759982 0.225633
O O14 0.000000 0.523987 0.730493
O O15 0.500000 0.772657 0.886948
#
# Coordination Sequence:
#
# PCOD9350530 Si02
#       6
#     8   8   8   8   8   8
#     4  10  18  28  44  67  93 115 139 177 222 262
#     4   9  16  27  45  65  84 110 143 177 214 257
#     4   7  11  21  39  61  79  99 133 173 206 238
#     4   8  15  28  46  66  87 114 146 181 220 256
#     4   8  13  24  43  63  80 103 143 183 206 238
#     4   8  14  28  47  62  81 115 154 179 204 255
#
# _framework density 25.623543999999999
#
# number of rings (size 3 to 8) (size 9 to 14) (size 15 to 20)
#    0.000    3.667    0.000    3.500    0.000    0.000 
#    0.000    3.333    0.000   15.000    0.000    0.000 
#    0.000    0.000    0.000    0.000    0.000    0.000 
#
# Total GULP energy -133629.589831 kJ/mol
# GULP energy per Si atom -5567.899576 kJ/mol
# Density = 2.556522 g / cm^3
# Si number density = 25.623544 Si / 1000 Ang^3
#
#
#
# Elastic Constant Matrix: (Units=GPa)
#
#
# Indices 1 2 3 4 5 6 
#
# 1 106.7337 -7.0023 19.0382 0.0000 0.0000 0.0000
# 2 -7.0023 51.3909 15.4479 0.0000 0.0000 0.0000
# 3 19.0382 15.4479 386.2096 0.0000 0.0000 0.0000
# 4 0.0000 0.0000 0.0000 26.8125 0.0000 0.0000
# 5 0.0000 0.0000 0.0000 0.0000 -0.6570 0.0000
# 6 0.0000 0.0000 0.0000 0.0000 0.0000 -4.3455
#
#
#
# Elastic Compliance Matrix: (Units=1/GPa)
#
#
# Indices 1 2 3 4 5 6 
#
# 1 0.009559 0.001462 -0.000530 0.000000 0.000000 0.000000
# 2 0.001462 0.019919 -0.000869 0.000000 0.000000 0.000000
# 3 -0.000530 -0.000869 0.002650 0.000000 0.000000 0.000000
# 4 0.000000 0.000000 0.000000 0.037296 0.000000 0.000000
# 5 0.000000 0.000000 0.000000 0.000000 -1.522050 0.000000
# 6 0.000000 0.000000 0.000000 0.000000 0.000000 -0.230122
#
#
# Mechanical properties :
#
#
# Convention : Reuss Voigt Hill
#
# Bulk Modulus (GPa) = 31.00276 66.58909 48.79593
# Shear Modulus (GPa) = -2.99021 38.81869 17.91424
#
# Velocity S-wave (km/s) = -1.08144 3.89647 2.64698
# Velocity P-wave (km/s) = 3.25058 6.80347 5.33167
#
# Compressibility (1/GPa) = 0.03225519
#
# Stress axis : x y z
#
# Youngs Moduli (GPa) = 104.60803 50.20324 377.34002
#
# Poissons Ratio (x) = -0.07339 0.19988
# Poissons Ratio (y) = -0.15291 0.32783
# Poissons Ratio (z) = 0.05541 0.04362
#
# Static dielectric constant tensor:
#      x y z
#    x 1.997480 0.000000 0.000000 
#    y 0.000000 1.997750 0.000000 
#    z 0.000000 0.000000 2.188690 
# 
# From -- ./inp_files/10459.got.cif
#   From: 2010.05.17/outbox.cif.g08.bks.cpg/sg36_6_cif.got.tgz:10459.got - 2010.06.03 17:41:39.
