data_PCOD9350565
_publ_section_title
;
Structure prediction by ZEFSAII (Michael W. Deem and Ramdas Pophale) SiO2 
 PCOD9350565
Probable space group: C M C 21
;
_chemical_formula_sum "Si O2"
_cell_formula_units_Z 64
_cell_length_a 9.249875
_cell_length_b 23.331795
_cell_length_c 16.448986
_cell_angle_alpha 90.000000
_cell_angle_beta 90.000000
_cell_angle_gamma 90.000000
_cell_volume 3549.957443
_symmetry_space_group_name_H-M "C M C 21"
_symmetry_group_IT_number 36
_symmetry_cell_setting 'orthorhombic'
loop_
_space_group_symop_operation_xyz
x,y,z
-x,-y,1/2+z
x,-y,1/2+z
-x,y,z
1/2+x,1/2+y,z
1/2-x,1/2-y,1/2+z
1/2+x,1/2-y,1/2+z
1/2-x,1/2+y,z
loop_
_atom_site_type_symbol
_atom_site_label
_atom_site_fract_x
_atom_site_fract_y
_atom_site_fract_z
Si Si1 0.661222 0.792404 0.926780
Si Si2 0.671816 0.614488 0.327882
Si Si3 0.172284 0.588252 0.999959
Si Si4 0.175866 0.720092 0.705192
Si Si5 0.835080 0.375092 0.081124
Si Si6 0.325652 0.650882 0.150382
Si Si7 0.829577 0.308976 0.388967
Si Si8 0.326580 0.467114 0.977108
O O1 0.500000 0.780917 0.897156
O O2 0.750024 0.829501 0.862447
O O3 0.741939 0.733922 0.945928
O O4 0.653952 0.831200 0.006160
O O5 0.500000 0.623153 0.335782
O O6 0.702756 0.612914 0.231926
O O7 0.710170 0.562704 0.389504
O O8 0.241652 0.623197 0.075148
O O9 0.000000 0.580973 0.012444
O O10 0.193510 0.626930 0.919308
O O11 0.250919 0.528002 0.987716
O O12 0.223384 0.665135 0.652812
O O13 0.217722 0.783022 0.671624
O O14 0.217495 0.707088 0.797965
O O15 0.000000 0.720056 0.701875
O O16 0.000000 0.395133 0.099629
O O17 0.735091 0.425758 0.047950
O O18 0.500000 0.650607 0.135796
O O19 0.000000 0.296842 0.395351
O O20 0.500000 0.471530 0.982137
#
# Coordination Sequence:
#
# PCOD9350565 Si02
#       8
#     8   8   8   8   8   8   8   8
#     4  10  18  29  52  84 114 142 177 224 276 329
#     4   9  18  35  60  84 109 147 187 230 280 336
#     4  11  24  39  56  81 115 153 193 237 283 332
#     4   9  17  33  58  84 112 146 182 221 274 339
#     4   9  18  33  55  82 110 141 181 227 274 327
#     4  10  19  36  62  86 114 148 187 232 286 343
#     4  10  20  36  55  77 112 152 185 222 276 338
#     4  10  21  39  60  80 108 147 192 233 279 336
#
# _framework density 18.028383999999999
#
# number of rings (size 3 to 8) (size 9 to 14) (size 15 to 20)
#    0.000    2.250    1.250    1.875    0.000    3.500 
#    2.250    1.250    0.000    0.000    0.000    0.000 
#    0.000    0.000    0.000    0.000    0.000    0.000 
#
# Total GULP energy -178347.344408 kJ/mol
# GULP energy per Si atom -5573.354513 kJ/mol
# Density = 1.798735 g / cm^3
# Si number density = 18.028384 Si / 1000 Ang^3
#
#
#
# Elastic Constant Matrix: (Units=GPa)
#
#
# Indices 1 2 3 4 5 6 
#
# 1 42.5178 63.1850 38.1541 0.0000 0.0000 0.0000
# 2 63.1850 147.1849 56.0221 0.0000 0.0000 0.0000
# 3 38.1541 56.0221 78.3242 0.0000 0.0000 0.0000
# 4 0.0000 0.0000 0.0000 20.7471 0.0000 0.0000
# 5 0.0000 0.0000 0.0000 0.0000 18.5760 0.0000
# 6 0.0000 0.0000 0.0000 0.0000 0.0000 17.6784
#
#
#
# Elastic Compliance Matrix: (Units=1/GPa)
#
#
# Indices 1 2 3 4 5 6 
#
# 1 0.084012 -0.028153 -0.020788 0.000000 0.000000 0.000000
# 2 -0.028153 0.018770 0.000289 0.000000 0.000000 0.000000
# 3 -0.020788 0.000289 0.022687 0.000000 0.000000 0.000000
# 4 0.000000 0.000000 0.000000 0.048199 0.000000 0.000000
# 5 0.000000 0.000000 0.000000 0.000000 0.053833 0.000000
# 6 0.000000 0.000000 0.000000 0.000000 0.000000 0.056566
#
#
# Mechanical properties :
#
#
# Convention : Reuss Voigt Hill
#
# Bulk Modulus (GPa) = 35.50544 64.74993 50.12769
# Shear Modulus (GPa) = 12.79556 18.77801 15.78679
#
# Velocity S-wave (km/s) = 2.66700 3.23085 2.96237
# Velocity P-wave (km/s) = 5.40562 7.06480 6.29016
#
# Compressibility (1/GPa) = 0.02816470
#
# Stress axis : x y z
#
# Youngs Moduli (GPa) = 11.90311 53.27615 44.07742
#
# Poissons Ratio (x) = 1.49989 0.91628
# Poissons Ratio (y) = 0.33511 -0.01272
# Poissons Ratio (z) = 0.24744 -0.01538
#
# Static dielectric constant tensor:
#      x y z
#    x 1.617320 0.000000 0.000000 
#    y 0.000000 1.610750 0.000000 
#    z 0.000000 0.000000 1.664370 
# 
# From -- ./inp_files/13938.got.cif
#   From: 2010.05.17/outbox.cif.g08.bks.cpg/sg36_7_cif.got.tgz:13938.got - 2010.06.03 17:41:39.
