data_PCOD9350598
_publ_section_title
;
Structure prediction by ZEFSAII (Michael W. Deem and Ramdas Pophale) SiO2 
 PCOD9350598
Probable space group: C M C 21
;
_chemical_formula_sum "Si O2"
_cell_formula_units_Z 64
_cell_length_a 8.378517
_cell_length_b 21.164976
_cell_length_c 19.921055
_cell_angle_alpha 90.000000
_cell_angle_beta 90.000000
_cell_angle_gamma 90.000000
_cell_volume 3532.622820
_symmetry_space_group_name_H-M "C M C 21"
_symmetry_group_IT_number 36
_symmetry_cell_setting 'orthorhombic'
loop_
_space_group_symop_operation_xyz
x,y,z
-x,-y,1/2+z
x,-y,1/2+z
-x,y,z
1/2+x,1/2+y,z
1/2-x,1/2-y,1/2+z
1/2+x,1/2-y,1/2+z
1/2-x,1/2+y,z
loop_
_atom_site_type_symbol
_atom_site_label
_atom_site_fract_x
_atom_site_fract_y
_atom_site_fract_z
Si Si1 0.192363 0.563821 0.837620
Si Si2 0.811341 0.882910 0.626844
Si Si3 0.306277 0.937290 0.762245
Si Si4 0.809849 0.240561 0.620785
Si Si5 0.806967 0.812731 0.260300
Si Si6 0.806006 0.312561 0.840622
Si Si7 0.690006 0.889436 0.480183
Si Si8 0.810370 0.747164 0.475880
O O1 0.247491 0.500877 0.799529
O O2 0.241845 0.625315 0.795755
O O3 0.247862 0.572448 0.914737
O O4 0.000000 0.561600 0.840366
O O5 0.754451 0.928112 0.686552
O O6 0.729684 0.814078 0.636052
O O7 0.766693 0.905615 0.551941
O O8 0.000000 0.873713 0.630496
O O9 0.500000 0.937163 0.760418
O O10 0.251101 0.876270 0.804939
O O11 0.758143 0.197757 0.683214
O O12 0.728779 0.224359 0.550465
O O13 0.000000 0.235676 0.613288
O O14 0.755815 0.749769 0.300052
O O15 0.000000 0.814827 0.262519
O O16 0.758950 0.300678 0.917571
O O17 0.000000 0.314464 0.838633
O O18 0.500000 0.896790 0.486595
O O19 0.728153 0.815412 0.467276
O O20 0.000000 0.757657 0.469621
#
# Coordination Sequence:
#
# PCOD9350598 Si02
#       8
#     8   8   8   8   8   8   8   8
#     4  10  22  36  56  83 110 143 182 227 267 314
#     4  11  21  33  53  82 108 139 181 226 269 315
#     4  10  20  39  58  77 109 146 184 220 268 327
#     4  10  19  33  53  78 108 146 180 218 273 325
#     4  10  19  34  56  78 106 144 178 216 270 325
#     4   9  17  32  55  78 102 139 178 215 266 322
#     4  10  19  33  52  78 108 141 178 218 269 325
#     4  10  18  30  51  80 107 136 177 228 274 315
#
# _framework density 18.116851
#
# number of rings (size 3 to 8) (size 9 to 14) (size 15 to 20)
#    0.000    2.000    2.500    3.750    0.000    2.000 
#    0.000    2.500    0.000    3.000    0.000    0.000 
#    0.000    0.000    0.000    0.000    0.000    0.000 
#
# Total GULP energy -178566.477810 kJ/mol
# GULP energy per Si atom -5580.202432 kJ/mol
# Density = 1.807562 g / cm^3
# Si number density = 18.116851 Si / 1000 Ang^3
#
#
#
# Elastic Constant Matrix: (Units=GPa)
#
#
# Indices 1 2 3 4 5 6 
#
# 1 5.2259 -0.8829 -2.6129 0.0000 0.0000 0.0000
# 2 -0.8829 106.2855 70.6939 0.0000 0.0000 0.0000
# 3 -2.6129 70.6939 154.0251 0.0000 0.0000 0.0000
# 4 0.0000 0.0000 0.0000 28.4426 0.0000 0.0000
# 5 0.0000 0.0000 0.0000 0.0000 23.9943 0.0000
# 6 0.0000 0.0000 0.0000 0.0000 0.0000 17.3627
#
#
#
# Elastic Compliance Matrix: (Units=1/GPa)
#
#
# Indices 1 2 3 4 5 6 
#
# 1 0.193043 -0.000827 0.003654 0.000000 0.000000 0.000000
# 2 -0.000827 0.013547 -0.006232 0.000000 0.000000 0.000000
# 3 0.003654 -0.006232 0.009415 0.000000 0.000000 0.000000
# 4 0.000000 0.000000 0.000000 0.035159 0.000000 0.000000
# 5 0.000000 0.000000 0.000000 0.000000 0.041677 0.000000
# 6 0.000000 0.000000 0.000000 0.000000 0.000000 0.057595
#
#
# Mechanical properties :
#
#
# Convention : Reuss Voigt Hill
#
# Bulk Modulus (GPa) = 4.78020 44.43694 24.60857
# Shear Modulus (GPa) = 11.71030 27.18248 19.44639
#
# Velocity S-wave (km/s) = 2.54515 3.87770 3.27981
# Velocity P-wave (km/s) = 3.35877 6.68056 5.28731
#
# Compressibility (1/GPa) = 0.20919611
#
# Stress axis : x y z
#
# Youngs Moduli (GPa) = 5.18019 73.81940 106.21807
#
# Poissons Ratio (x) = 0.06105 -0.38817
# Poissons Ratio (y) = 0.00428 0.66191
# Poissons Ratio (z) = -0.01893 0.46001
#
# Static dielectric constant tensor:
#      x y z
#    x 1.628780 0.000000 0.000000 
#    y 0.000000 1.590220 0.000000 
#    z 0.000000 0.000000 1.645500 
# 
# From -- ./inp_files/15718.got.cif
#   From: 2010.05.17/outbox.cif.g08.bks.cpg/sg36_8_cif.got.tgz:15718.got - 2010.06.03 17:41:39.
