data_PCOD9350057
_publ_section_title
;
Structure prediction by ZEFSAII (Michael W. Deem and Ramdas Pophale) SiO2 
 PCOD9350057
Probable space group: C M M 2
;
_chemical_formula_sum "Si O2"
_cell_formula_units_Z 48
_cell_length_a 8.280595
_cell_length_b 29.261430
_cell_length_c 10.568567
_cell_angle_alpha 90.000000
_cell_angle_beta 90.000000
_cell_angle_gamma 90.000000
_cell_volume 2560.785460
_symmetry_space_group_name_H-M "C M M 2"
_symmetry_group_IT_number 35
_symmetry_cell_setting 'orthorhombic'
loop_
_space_group_symop_operation_xyz
x,y,z
-x,-y,z
-x,y,z
x,-y,z
1/2+x,1/2+y,z
1/2-x,1/2-y,z
1/2-x,1/2+y,z
1/2+x,1/2-y,z
loop_
_atom_site_type_symbol
_atom_site_label
_atom_site_fract_x
_atom_site_fract_y
_atom_site_fract_z
Si Si1 0.695024 0.050994 0.506550
Si Si2 0.304649 0.448751 0.217603
Si Si3 0.308000 0.197879 0.858050
Si Si4 0.807644 0.855542 0.103967
Si Si5 0.197255 0.645917 0.608362
Si Si6 0.193955 0.697842 0.351864
O O1 0.500000 0.050606 0.509730
O O2 0.745919 0.059373 0.361156
O O3 0.750758 0.093374 0.591711
O O4 0.752505 0.000000 0.542079
O O5 0.500000 0.448077 0.219547
O O6 0.252265 0.500000 0.180567
O O7 0.248936 0.407428 0.128657
O O8 0.500000 0.199416 0.847477
O O9 0.250000 0.250000 0.865574
O O10 0.243951 0.171799 0.733281
O O11 0.263882 0.169663 0.982945
O O12 0.765310 0.827606 0.230446
O O13 0.000000 0.856500 0.088800
O O14 0.244700 0.672944 0.481478
O O15 0.000000 0.645706 0.611732
O O16 0.250000 0.750000 0.353649
O O17 0.000000 0.695825 0.343799
#
# Coordination Sequence:
#
# PCOD9350057 Si02
#       6
#     8   8   8   8   8   8
#     4   9  16  30  55  84 112 141 175 218 271 326
#     4   9  18  33  54  81 112 143 177 221 270 320
#     4  11  23  40  58  77 108 148 188 229 275 328
#     4  11  22  37  56  81 110 144 184 224 273 326
#     4   9  19  35  55  81 110 141 179 223 272 322
#     4  11  21  35  55  80 109 138 179 229 277 326
#
# _framework density 18.744250999999998
#
# number of rings (size 3 to 8) (size 9 to 14) (size 15 to 20)
#    0.000    2.000    1.667    2.500    0.000    0.667 
#    0.000    5.000    0.000    1.000    0.000    0.000 
#    0.000    0.000    0.000    0.000    0.000    0.000 
#
# Total GULP energy -133971.986939 kJ/mol
# GULP energy per Si atom -5582.166122 kJ/mol
# Density = 1.870159 g / cm^3
# Si number density = 18.744251 Si / 1000 Ang^3
#
#
#
# Elastic Constant Matrix: (Units=GPa)
#
#
# Indices 1 2 3 4 5 6 
#
# 1 18.3559 15.1037 7.5858 0.0000 0.0000 0.0000
# 2 15.1037 199.0848 90.7106 0.0000 0.0000 0.0000
# 3 7.5858 90.7106 131.2121 0.0000 0.0000 0.0000
# 4 0.0000 0.0000 0.0000 31.5614 0.0000 0.0000
# 5 0.0000 0.0000 0.0000 0.0000 -3.6200 0.0000
# 6 0.0000 0.0000 0.0000 0.0000 0.0000 0.8623
#
#
#
# Elastic Compliance Matrix: (Units=1/GPa)
#
#
# Indices 1 2 3 4 5 6 
#
# 1 0.058124 -0.004202 -0.000455 0.000000 0.000000 0.000000
# 2 -0.004202 0.007637 -0.005036 0.000000 0.000000 0.000000
# 3 -0.000455 -0.005036 0.011129 0.000000 0.000000 0.000000
# 4 0.000000 0.000000 0.000000 0.031684 0.000000 0.000000
# 5 0.000000 0.000000 0.000000 0.000000 -0.276241 0.000000
# 6 0.000000 0.000000 0.000000 0.000000 0.000000 1.159743
#
#
# Mechanical properties :
#
#
# Convention : Reuss Voigt Hill
#
# Bulk Modulus (GPa) = 17.39054 63.93923 40.66488
# Shear Modulus (GPa) = 4.85139 21.44422 13.14781
#
# Velocity S-wave (km/s) = 1.61053 3.38604 2.65133
# Velocity P-wave (km/s) = 3.57161 7.03367 5.57803
#
# Compressibility (1/GPa) = 0.05750253
#
# Stress axis : x y z
#
# Youngs Moduli (GPa) = 17.20449 130.94851 89.85206
#
# Poissons Ratio (x) = 0.55028 0.04090
# Poissons Ratio (y) = 0.07230 0.45254
# Poissons Ratio (z) = 0.00783 0.65952
#
# Static dielectric constant tensor:
#      x y z
#    x 1.643150 0.000000 0.000000 
#    y 0.000000 1.669930 0.000000 
#    z 0.000000 0.000000 1.613490 
# 
# From -- ./inp_files/5308.got.cif
#   From: 2010.05.17/outbox.cif.g08.bks.cpg/sg35_3_cif.got.tgz:5308.got - 2010.06.03 17:29:28.
