data_PCOD9350035
_publ_section_title
;
Structure prediction by ZEFSAII (Michael W. Deem and Ramdas Pophale) SiO2 
 PCOD9350035
Probable space group: C M M 2
;
_chemical_formula_sum "Si O2"
_cell_formula_units_Z 56
_cell_length_a 15.243479
_cell_length_b 22.018898
_cell_length_c 9.525742
_cell_angle_alpha 90.000000
_cell_angle_beta 90.000000
_cell_angle_gamma 90.000000
_cell_volume 3197.263952
_symmetry_space_group_name_H-M "C M M 2"
_symmetry_group_IT_number 35
_symmetry_cell_setting 'orthorhombic'
loop_
_space_group_symop_operation_xyz
x,y,z
-x,-y,z
-x,y,z
x,-y,z
1/2+x,1/2+y,z
1/2-x,1/2-y,z
1/2-x,1/2+y,z
1/2+x,1/2-y,z
loop_
_atom_site_type_symbol
_atom_site_label
_atom_site_fract_x
_atom_site_fract_y
_atom_site_fract_z
Si Si1 0.595801 0.641884 0.741330
Si Si2 0.602666 0.696388 0.272333
Si Si3 0.354377 0.740031 0.967188
Si Si4 0.236081 0.069744 0.857112
Si Si5 0.350212 0.248311 0.558323
Si Si6 0.394702 0.570715 0.128344
Si Si7 0.903128 0.349138 0.776574
O O1 0.500000 0.614592 0.745970
O O2 0.616115 0.681176 0.880407
O O3 0.669528 0.591332 0.735677
O O4 0.602203 0.693168 0.623668
O O5 0.500000 0.696385 0.305871
O O6 0.647276 0.736137 0.394245
O O7 0.626209 0.625351 0.238551
O O8 0.619714 0.730329 0.126369
O O9 0.250000 0.750000 0.955397
O O10 0.401135 0.795360 0.890837
O O11 0.323380 0.108826 0.828805
O O12 0.259836 0.000000 0.847061
O O13 0.176916 0.075808 0.000916
O O14 0.250000 0.250000 0.609137
O O15 0.387189 0.186569 0.627943
O O16 0.500000 0.579072 0.088888
O O17 0.388490 0.500000 0.177588
O O18 0.000000 0.377637 0.773279
#
# Coordination Sequence:
#
# PCOD9350035 Si02
#       7
#     8   8   8   8   8   8   8
#     4  11  19  34  55  80 111 141 174 222 278 331
#     4  11  20  31  50  83 113 142 186 224 265 333
#     4  11  18  32  54  81 110 144 176 223 279 332
#     4  11  21  35  56  81 108 144 191 227 266 329
#     4  11  21  36  54  77 110 149 179 225 282 334
#     4   9  18  33  54  82 119 155 182 221 277 334
#     4  11  21  37  56  78 110 146 183 231 283 323
#
# _framework density 17.514976000000001
#
# number of rings (size 3 to 8) (size 9 to 14) (size 15 to 20)
#    0.000    1.286    4.286    5.143    0.000    1.143 
#    0.000    0.714    0.000    1.714    0.000    0.000 
#    0.000    3.429    0.000    0.000    0.000    0.000 
#
# Total GULP energy -155877.776676 kJ/mol
# GULP energy per Si atom -5567.063453 kJ/mol
# Density = 1.747511 g / cm^3
# Si number density = 17.514976 Si / 1000 Ang^3
#
#
#
# Elastic Constant Matrix: (Units=GPa)
#
#
# Indices 1 2 3 4 5 6 
#
# 1 115.8086 29.3840 3.4230 0.0000 0.0000 0.0000
# 2 29.3840 89.8052 30.4496 0.0000 0.0000 0.0000
# 3 3.4230 30.4496 83.3112 0.0000 0.0000 0.0000
# 4 0.0000 0.0000 0.0000 19.3845 0.0000 0.0000
# 5 0.0000 0.0000 0.0000 0.0000 17.5663 0.0000
# 6 0.0000 0.0000 0.0000 0.0000 0.0000 8.3905
#
#
#
# Elastic Compliance Matrix: (Units=1/GPa)
#
#
# Indices 1 2 3 4 5 6 
#
# 1 0.009469 -0.003386 0.000848 0.000000 0.000000 0.000000
# 2 -0.003386 0.013921 -0.004949 0.000000 0.000000 0.000000
# 3 0.000848 -0.004949 0.013777 0.000000 0.000000 0.000000
# 4 0.000000 0.000000 0.000000 0.051588 0.000000 0.000000
# 5 0.000000 0.000000 0.000000 0.000000 0.056927 0.000000
# 6 0.000000 0.000000 0.000000 0.000000 0.000000 0.119182
#
#
# Mechanical properties :
#
#
# Convention : Reuss Voigt Hill
#
# Bulk Modulus (GPa) = 45.05635 46.15981 45.60808
# Shear Modulus (GPa) = 17.40733 24.11281 20.76007
#
# Velocity S-wave (km/s) = 3.15597 3.71441 3.44652
# Velocity P-wave (km/s) = 6.24984 6.69384 6.47565
#
# Compressibility (1/GPa) = 0.02219443
#
# Stress axis : x y z
#
# Youngs Moduli (GPa) = 105.60823 71.83355 72.58403
#
# Poissons Ratio (x) = 0.24322 -0.06159
# Poissons Ratio (y) = 0.35758 0.35921
# Poissons Ratio (z) = -0.08961 0.35550
#
# Static dielectric constant tensor:
#      x y z
#    x 1.620020 0.000000 0.000000 
#    y 0.000000 1.545540 0.000000 
#    z 0.000000 0.000000 1.642230 
# 
# From -- ./inp_files/7616.got.cif
#   From: 2010.05.17/outbox.cif.g08.bks.cpg/sg35_4_cif.got.tgz:7616.got - 2010.06.03 17:29:28.
