data_PCOD9350665
_publ_section_title
;
Structure prediction by ZEFSAII (Michael W. Deem and Ramdas Pophale) SiO2 
 PCOD9350665
Probable space group: C M C 21
;
_chemical_formula_sum "Si O2"
_cell_formula_units_Z 64
_cell_length_a 18.281038
_cell_length_b 9.754027
_cell_length_c 14.216855
_cell_angle_alpha 90.000000
_cell_angle_beta 90.000000
_cell_angle_gamma 90.000000
_cell_volume 2535.060561
_symmetry_space_group_name_H-M "C M C 21"
_symmetry_group_IT_number 36
_symmetry_cell_setting 'orthorhombic'
loop_
_space_group_symop_operation_xyz
x,y,z
-x,-y,1/2+z
x,-y,1/2+z
-x,y,z
1/2+x,1/2+y,z
1/2-x,1/2-y,1/2+z
1/2+x,1/2-y,1/2+z
1/2-x,1/2+y,z
loop_
_atom_site_type_symbol
_atom_site_label
_atom_site_fract_x
_atom_site_fract_y
_atom_site_fract_z
Si Si1 0.284711 0.069443 0.520070
Si Si2 0.610050 0.268598 0.910355
Si Si3 0.381902 0.413231 0.091104
Si Si4 0.923251 0.579938 0.757231
Si Si5 0.417727 0.734065 0.082261
Si Si6 0.275066 0.241030 0.356426
Si Si7 0.717579 0.084248 0.191489
Si Si8 0.363937 0.535018 0.790477
O O1 0.203932 0.104582 0.560046
O O2 0.349233 0.175329 0.547261
O O3 0.286463 0.095102 0.408761
O O4 0.293880 0.930221 0.580028
O O5 0.574645 0.138025 0.861894
O O6 0.695418 0.226849 0.894446
O O7 0.601548 0.408471 0.847569
O O8 0.585157 0.309691 0.014270
O O9 0.402267 0.572923 0.073186
O O10 0.404217 0.396488 0.200870
O O11 0.919904 0.714693 0.690521
O O12 0.853443 0.490662 0.732535
O O13 0.000000 0.507480 0.735328
O O14 0.500000 0.763441 0.043647
O O15 0.336201 0.356314 0.368685
O O16 0.276694 0.228293 0.243454
O O17 0.792552 0.022136 0.233826
#
# Coordination Sequence:
#
# PCOD9350665 Si02
#       8
#     8   8   8   8   8   8   8   8
#     4   9  20  34  55  86 110 155 199 232 282 349
#     4  10  19  33  52  83 113 139 186 233 285 334
#     4  10  20  32  55  88 112 146 192 241 286 343
#     4  10  19  35  56  75 106 150 192 225 277 351
#     4  10  20  37  59  83 117 156 193 235 288 355
#     4  10  19  34  53  82 116 142 183 244 284 335
#     4   9  19  33  52  78 110 145 184 232 279 332
#     4  10  18  32  54  79 115 143 175 236 294 325
#
# _framework density 25.245946
#
# number of rings (size 3 to 8) (size 9 to 14) (size 15 to 20)
#    0.000    2.250    2.500    0.750    0.000    0.500 
#    2.250    0.625    0.000    1.500    0.000    0.000 
#    0.000    0.000    0.000    0.000    0.000    0.000 
#
# Total GULP energy -178234.587231 kJ/mol
# GULP energy per Si atom -5569.830851 kJ/mol
# Density = 2.518848 g / cm^3
# Si number density = 25.245946 Si / 1000 Ang^3
#
#
#
# Elastic Constant Matrix: (Units=GPa)
#
#
# Indices 1 2 3 4 5 6 
#
# 1 103.9940 9.2735 4.5172 0.0000 0.0000 0.0000
# 2 9.2735 36.0479 0.6535 0.0000 0.0000 0.0000
# 3 4.5172 0.6535 96.4193 0.0000 0.0000 0.0000
# 4 0.0000 0.0000 0.0000 38.1187 0.0000 0.0000
# 5 0.0000 0.0000 0.0000 0.0000 -4.4550 0.0000
# 6 0.0000 0.0000 0.0000 0.0000 0.0000 -25.7087
#
#
#
# Elastic Compliance Matrix: (Units=1/GPa)
#
#
# Indices 1 2 3 4 5 6 
#
# 1 0.009861 -0.002529 -0.000445 0.000000 0.000000 0.000000
# 2 -0.002529 0.028393 -0.000074 0.000000 0.000000 0.000000
# 3 -0.000445 -0.000074 0.010393 0.000000 0.000000 0.000000
# 4 0.000000 0.000000 0.000000 0.026234 0.000000 0.000000
# 5 0.000000 0.000000 0.000000 0.000000 -0.224469 0.000000
# 6 0.000000 0.000000 0.000000 0.000000 0.000000 -0.038897
#
#
# Mechanical properties :
#
#
# Convention : Reuss Voigt Hill
#
# Bulk Modulus (GPa) = 23.50108 29.48328 26.49218
# Shear Modulus (GPa) = -29.72517 16.39214 -6.66651
#
# Velocity S-wave (km/s) = -3.43508 2.55090 -1.62676
# Velocity P-wave (km/s) = 2.53061 4.51441 2.64347
#
# Compressibility (1/GPa) = 0.04255124
#
# Stress axis : x y z
#
# Youngs Moduli (GPa) = 101.41218 35.22030 96.22130
#
# Poissons Ratio (x) = 0.08906 0.04280
# Poissons Ratio (y) = 0.25644 0.00712
# Poissons Ratio (z) = 0.04511 0.00261
#
# Static dielectric constant tensor:
#      x y z
#    x 2.205100 0.000000 0.000000 
#    y 0.000000 2.013000 0.000000 
#    z 0.000000 0.000000 2.099860 
# 
# From -- ./inp_files/12644.got.cif
#   From: 2010.05.17/outbox.cif.g08.bks.cpg/sg36_7_cif.got.tgz:12644.got - 2010.06.03 17:41:39.
