data_PCOD9350113
_publ_section_title
;
Structure prediction by ZEFSAII (Michael W. Deem and Ramdas Pophale) SiO2 
 PCOD9350113
Probable space group: C M M 2
;
_chemical_formula_sum "Si O2"
_cell_formula_units_Z 40
_cell_length_a 9.469471
_cell_length_b 15.014764
_cell_length_c 14.776742
_cell_angle_alpha 90.000000
_cell_angle_beta 90.000000
_cell_angle_gamma 90.000000
_cell_volume 2100.984844
_symmetry_space_group_name_H-M "C M M 2"
_symmetry_group_IT_number 35
_symmetry_cell_setting 'orthorhombic'
loop_
_space_group_symop_operation_xyz
x,y,z
-x,-y,z
-x,y,z
x,-y,z
1/2+x,1/2+y,z
1/2-x,1/2-y,z
1/2-x,1/2+y,z
1/2+x,1/2-y,z
loop_
_atom_site_type_symbol
_atom_site_label
_atom_site_fract_x
_atom_site_fract_y
_atom_site_fract_z
Si Si1 0.344867 0.395691 0.449290
Si Si2 0.330180 0.339634 0.991525
Si Si3 0.171737 0.500000 0.091687
Si Si4 0.170468 0.000000 0.280285
Si Si5 0.838799 0.892907 0.784665
Si Si6 0.841053 0.609404 0.612917
O O1 0.500000 0.353906 0.453051
O O2 0.361070 0.500000 0.478354
O O3 0.301610 0.413619 0.345062
O O4 0.236714 0.359203 0.521822
O O5 0.500000 0.341135 0.010673
O O6 0.250000 0.250000 0.017845
O O7 0.244748 0.416831 0.041797
O O8 0.313974 0.352707 0.883343
O O9 0.230853 0.500000 0.194039
O O10 0.000000 0.500000 0.086796
O O11 0.000000 0.000000 0.261163
O O12 0.738161 0.863182 0.704125
O O13 0.000000 0.874742 0.757576
O O14 0.824251 0.000000 0.794693
O O15 0.844178 0.500000 0.613217
O O16 0.000000 0.641497 0.613919
#
# Coordination Sequence:
#
# PCOD9350113 Si02
#       6
#     8   8   4   4   8   8
#     4   7  12  23  39  62  95 134 173 214 264 321
#     4  11  23  41  61  84 114 151 194 243 293 345
#     4  12  24  38  59  86 115 150 191 240 294 350
#     4   8  16  30  49  72 103 142 183 232 280 334
#     4   9  17  31  50  72 103 145 184 220 269 328
#     4   9  15  21  36  66 103 136 171 219 266 314
#
# _framework density 19.038691
#
# number of rings (size 3 to 8) (size 9 to 14) (size 15 to 20)
#    0.600    2.200    1.000    2.100    0.000    4.800 
#    0.000    0.000    0.000    0.000    0.000    1.400 
#    0.000    6.400    0.000    0.000    0.000    0.000 
#
# Total GULP energy -111334.463170 kJ/mol
# GULP energy per Si atom -5566.723158 kJ/mol
# Density = 1.899536 g / cm^3
# Si number density = 19.038691 Si / 1000 Ang^3
#
#
#
# Elastic Constant Matrix: (Units=GPa)
#
#
# Indices 1 2 3 4 5 6 
#
# 1 160.8630 57.4598 102.2365 0.0000 0.0000 0.0000
# 2 57.4598 71.2121 38.7697 0.0000 0.0000 0.0000
# 3 102.2365 38.7697 103.1657 0.0000 0.0000 0.0000
# 4 0.0000 0.0000 0.0000 -22.3601 0.0000 0.0000
# 5 0.0000 0.0000 0.0000 0.0000 15.5274 0.0000
# 6 0.0000 0.0000 0.0000 0.0000 0.0000 11.1099
#
#
#
# Elastic Compliance Matrix: (Units=1/GPa)
#
#
# Indices 1 2 3 4 5 6 
#
# 1 0.018816 -0.006325 -0.016269 0.000000 0.000000 0.000000
# 2 -0.006325 0.019780 -0.001166 0.000000 0.000000 0.000000
# 3 -0.016269 -0.001166 0.026254 0.000000 0.000000 0.000000
# 4 0.000000 0.000000 0.000000 -0.044723 0.000000 0.000000
# 5 0.000000 0.000000 0.000000 0.000000 0.064402 0.000000
# 6 0.000000 0.000000 0.000000 0.000000 0.000000 0.090010
#
#
# Mechanical properties :
#
#
# Convention : Reuss Voigt Hill
#
# Bulk Modulus (GPa) = 57.70162 81.35254 69.52708
# Shear Modulus (GPa) = 21.94558 9.97376 15.95967
#
# Velocity S-wave (km/s) = 3.39880 2.29130 2.89844
# Velocity P-wave (km/s) = 6.76578 7.05854 6.91371
#
# Compressibility (1/GPa) = 0.01733054
#
# Stress axis : x y z
#
# Youngs Moduli (GPa) = 53.14760 50.55493 38.08932
#
# Poissons Ratio (x) = 0.31974 0.61969
# Poissons Ratio (y) = 0.33613 0.04441
# Poissons Ratio (z) = 0.86467 0.05894
#
# Static dielectric constant tensor:
#      x y z
#    x 1.660220 0.000000 0.000000 
#    y 0.000000 1.742960 0.000000 
#    z 0.000000 0.000000 1.666830 
# 
# From -- ./inp_files/14809.got.cif
#   From: 2010.05.17/outbox.cif.g08.bks.cpg/sg35_8_cif.got.tgz:14809.got - 2010.06.03 17:29:28.
