data_PCOD9350688
_publ_section_title
;
Structure prediction by ZEFSAII (Michael W. Deem and Ramdas Pophale) SiO2 
 PCOD9350688
Probable space group: C M C 21
;
_chemical_formula_sum "Si O2"
_cell_formula_units_Z 64
_cell_length_a 8.510892
_cell_length_b 22.445806
_cell_length_c 14.553328
_cell_angle_alpha 90.000000
_cell_angle_beta 90.000000
_cell_angle_gamma 90.000000
_cell_volume 2780.177998
_symmetry_space_group_name_H-M "C M C 21"
_symmetry_group_IT_number 36
_symmetry_cell_setting 'orthorhombic'
loop_
_space_group_symop_operation_xyz
x,y,z
-x,-y,1/2+z
x,-y,1/2+z
-x,y,z
1/2+x,1/2+y,z
1/2-x,1/2-y,1/2+z
1/2+x,1/2-y,1/2+z
1/2-x,1/2+y,z
loop_
_atom_site_type_symbol
_atom_site_label
_atom_site_fract_x
_atom_site_fract_y
_atom_site_fract_z
Si Si1 0.811675 0.905067 0.875000
Si Si2 0.686525 0.849238 0.167858
Si Si3 0.687759 0.841514 0.486440
Si Si4 0.184110 0.082565 0.831019
Si Si5 0.311821 0.717004 0.160375
Si Si6 0.187266 0.960648 0.055347
Si Si7 0.316342 0.972107 0.714967
Si Si8 0.190532 0.775174 0.874730
O O1 0.764375 0.840257 0.912208
O O2 0.000000 0.905928 0.865888
O O3 0.742150 0.917427 0.775473
O O4 0.767262 0.955542 0.948974
O O5 0.500000 0.850027 0.188194
O O6 0.778184 0.862401 0.262374
O O7 0.724684 0.784609 0.127462
O O8 0.731985 0.903638 0.102726
O O9 0.500000 0.846179 0.478878
O O10 0.761459 0.896850 0.431407
O O11 0.733580 0.829925 0.591911
O O12 0.745331 0.781755 0.431914
O O13 0.273327 0.028650 0.780294
O O14 0.000000 0.068221 0.831087
O O15 0.500000 0.707587 0.157588
O O16 0.264220 0.720665 0.267355
O O17 0.234931 0.016256 0.117534
O O18 0.000000 0.953401 0.061242
O O19 0.500000 0.969572 0.699866
O O20 0.000000 0.771305 0.876202
#
# Coordination Sequence:
#
# PCOD9350688 Si02
#       8
#     8   8   8   8   8   8   8   8
#     4  10  21  40  64  88 116 158 204 247 295 354
#     4  10  18  32  56  84 119 155 193 241 290 338
#     4  11  21  37  59  87 120 157 197 242 295 351
#     4  11  21  36  59  84 112 148 196 244 292 350
#     4  10  20  35  54  83 120 160 197 234 291 357
#     4  10  20  36  61  91 117 150 203 249 296 356
#     4  11  23  40  62  87 118 154 195 249 305 353
#     4   9  19  38  61  84 120 160 195 238 294 351
#
# _framework density 23.020108
#
# number of rings (size 3 to 8) (size 9 to 14) (size 15 to 20)
#    0.000    1.750    1.250    5.625    0.000    3.000 
#    2.250    1.875    0.000    0.000    0.000    0.000 
#    0.000    0.000    0.000    0.000    0.000    0.000 
#
# Total GULP energy -178874.442293 kJ/mol
# GULP energy per Si atom -5589.826322 kJ/mol
# Density = 2.296771 g / cm^3
# Si number density = 23.020108 Si / 1000 Ang^3
#
#
#
# Elastic Constant Matrix: (Units=GPa)
#
#
# Indices 1 2 3 4 5 6 
#
# 1 163.7381 10.8327 156.2664 0.0000 0.0000 0.0000
# 2 10.8327 53.6284 28.6565 0.0000 0.0000 0.0000
# 3 156.2664 28.6565 296.8409 0.0000 0.0000 0.0000
# 4 0.0000 0.0000 0.0000 39.8356 0.0000 0.0000
# 5 0.0000 0.0000 0.0000 0.0000 17.8918 0.0000
# 6 0.0000 0.0000 0.0000 0.0000 0.0000 14.1795
#
#
#
# Elastic Compliance Matrix: (Units=1/GPa)
#
#
# Indices 1 2 3 4 5 6 
#
# 1 0.012328 0.001031 -0.006589 0.000000 0.000000 0.000000
# 2 0.001031 0.019747 -0.002449 0.000000 0.000000 0.000000
# 3 -0.006589 -0.002449 0.007074 0.000000 0.000000 0.000000
# 4 0.000000 0.000000 0.000000 0.025103 0.000000 0.000000
# 5 0.000000 0.000000 0.000000 0.000000 0.055892 0.000000
# 6 0.000000 0.000000 0.000000 0.000000 0.000000 0.070525
#
#
# Mechanical properties :
#
#
# Convention : Reuss Voigt Hill
#
# Bulk Modulus (GPa) = 43.22623 100.63539 71.93081
# Shear Modulus (GPa) = 23.32152 35.61149 29.46650
#
# Velocity S-wave (km/s) = 3.18637 3.93742 3.58164
# Velocity P-wave (km/s) = 5.68820 8.03009 6.95837
#
# Compressibility (1/GPa) = 0.02313410
#
# Stress axis : x y z
#
# Youngs Moduli (GPa) = 81.11893 50.63997 141.36348
#
# Poissons Ratio (x) = -0.05220 0.93146
# Poissons Ratio (y) = -0.08362 0.34620
# Poissons Ratio (z) = 0.53450 0.12402
#
# Static dielectric constant tensor:
#      x y z
#    x 1.775250 0.000000 0.000000 
#    y 0.000000 1.923120 0.000000 
#    z 0.000000 0.000000 1.878930 
# 
# From -- ./inp_files/10891.got.cif
#   From: 2010.05.17/outbox.cif.g08.bks.cpg/sg36_6_cif.got.tgz:10891.got - 2010.06.03 17:41:39.
