data_PCOD9350867
_publ_section_title
;
Structure prediction by ZEFSAII (Michael W. Deem and Ramdas Pophale) SiO2 
 PCOD9350867
Probable space group: C M C 21
;
_chemical_formula_sum "Si O2"
_cell_formula_units_Z 48
_cell_length_a 9.093622
_cell_length_b 18.907174
_cell_length_c 16.848741
_cell_angle_alpha 90.000000
_cell_angle_beta 90.000000
_cell_angle_gamma 90.000000
_cell_volume 2896.883119
_symmetry_space_group_name_H-M "C M C 21"
_symmetry_group_IT_number 36
_symmetry_cell_setting 'orthorhombic'
loop_
_space_group_symop_operation_xyz
x,y,z
-x,-y,1/2+z
x,-y,1/2+z
-x,y,z
1/2+x,1/2+y,z
1/2-x,1/2-y,1/2+z
1/2+x,1/2-y,1/2+z
1/2-x,1/2+y,z
loop_
_atom_site_type_symbol
_atom_site_label
_atom_site_fract_x
_atom_site_fract_y
_atom_site_fract_z
Si Si1 0.322235 0.828030 0.894760
Si Si2 0.176058 0.080743 0.074031
Si Si3 0.331184 0.958959 0.329285
Si Si4 0.176956 0.163784 0.915840
Si Si5 0.676554 0.587399 0.252184
Si Si6 0.332327 0.955010 0.996252
O O1 0.500000 0.835522 0.887304
O O2 0.286940 0.746157 0.907428
O O3 0.247254 0.859977 0.816447
O O4 0.278395 0.877660 0.969477
O O5 0.218903 0.105389 0.161811
O O6 0.000000 0.076631 0.072261
O O7 0.238985 0.003096 0.054940
O O8 0.220753 0.132863 0.002328
O O9 0.500000 0.951095 0.303096
O O10 0.255676 0.884799 0.350300
O O11 0.238367 0.009214 0.271705
O O12 0.332934 0.001891 0.412887
O O13 0.000000 0.155842 0.908555
O O14 0.500000 0.588037 0.260000
O O15 0.500000 0.949984 0.025042
#
# Coordination Sequence:
#
# PCOD9350867 Si02
#       6
#     8   8   8   8   8   8
#     4   9  18  32  50  72  98 128 160 193 236 288
#     4   9  18  31  48  70  94 123 159 199 241 283
#     4   9  17  30  48  70  93 119 157 196 231 278
#     4   9  17  32  52  71  96 128 158 193 239 287
#     4  10  19  31  48  70  97 127 161 200 240 282
#     4   8  15  28  46  67  90 119 155 191 227 274
#
# _framework density 16.569533
#
# number of rings (size 3 to 8) (size 9 to 14) (size 15 to 20)
#    0.000    3.000    0.000    2.000    0.000    6.000 
#    0.000    1.667    0.000    2.000    0.000    0.000 
#    0.000    0.000    0.000    0.000    0.000    0.000 
#
# Total GULP energy -133633.814436 kJ/mol
# GULP energy per Si atom -5568.075602 kJ/mol
# Density = 1.653182 g / cm^3
# Si number density = 16.569533 Si / 1000 Ang^3
#
#
#
# Elastic Constant Matrix: (Units=GPa)
#
#
# Indices 1 2 3 4 5 6 
#
# 1 32.2858 37.8956 29.9383 0.0000 0.0000 0.0000
# 2 37.8956 140.6072 42.3368 0.0000 0.0000 0.0000
# 3 29.9383 42.3368 76.5332 0.0000 0.0000 0.0000
# 4 0.0000 0.0000 0.0000 15.1497 0.0000 0.0000
# 5 0.0000 0.0000 0.0000 0.0000 19.2329 0.0000
# 6 0.0000 0.0000 0.0000 0.0000 0.0000 25.0929
#
#
#
# Elastic Compliance Matrix: (Units=1/GPa)
#
#
# Indices 1 2 3 4 5 6 
#
# 1 0.059914 -0.010908 -0.017403 0.000000 0.000000 0.000000
# 2 -0.010908 0.010519 -0.001552 0.000000 0.000000 0.000000
# 3 -0.017403 -0.001552 0.020733 0.000000 0.000000 0.000000
# 4 0.000000 0.000000 0.000000 0.066008 0.000000 0.000000
# 5 0.000000 0.000000 0.000000 0.000000 0.051994 0.000000
# 6 0.000000 0.000000 0.000000 0.000000 0.000000 0.039852
#
#
# Mechanical properties :
#
#
# Convention : Reuss Voigt Hill
#
# Bulk Modulus (GPa) = 31.80680 52.19641 42.00161
# Shear Modulus (GPa) = 15.66286 21.17879 18.42082
#
# Velocity S-wave (km/s) = 3.07788 3.57904 3.33788
# Velocity P-wave (km/s) = 5.64524 6.97490 6.34499
#
# Compressibility (1/GPa) = 0.03143981
#
# Stress axis : x y z
#
# Youngs Moduli (GPa) = 16.69050 95.06501 48.23288
#
# Poissons Ratio (x) = 1.03693 0.83942
# Poissons Ratio (y) = 0.18205 0.07486
# Poissons Ratio (z) = 0.29047 0.14756
#
# Static dielectric constant tensor:
#      x y z
#    x 1.560430 0.000000 0.000000 
#    y 0.000000 1.556390 0.000000 
#    z 0.000000 0.000000 1.561920 
# 
# From -- ./inp_files/10389.got.cif
#   From: 2010.05.17/outbox.cif.g08.bks.cpg/sg36_6_cif.got.tgz:10389.got - 2010.06.03 17:41:39.
