data_PCOD9350258
_publ_section_title
;
Structure prediction by ZEFSAII (Michael W. Deem and Ramdas Pophale) SiO2 
 PCOD9350258
Probable space group: C M M 2
;
_chemical_formula_sum "Si O2"
_cell_formula_units_Z 48
_cell_length_a 32.426894
_cell_length_b 8.579998
_cell_length_c 9.876949
_cell_angle_alpha 90.000000
_cell_angle_beta 90.000000
_cell_angle_gamma 90.000000
_cell_volume 2747.991277
_symmetry_space_group_name_H-M "C M M 2"
_symmetry_group_IT_number 35
_symmetry_cell_setting 'orthorhombic'
loop_
_space_group_symop_operation_xyz
x,y,z
-x,-y,z
-x,y,z
x,-y,z
1/2+x,1/2+y,z
1/2-x,1/2-y,z
1/2-x,1/2+y,z
1/2+x,1/2-y,z
loop_
_atom_site_type_symbol
_atom_site_label
_atom_site_fract_x
_atom_site_fract_y
_atom_site_fract_z
Si Si1 0.620559 0.313315 0.699450
Si Si2 0.382222 0.689448 0.385532
Si Si3 0.547122 0.186527 0.881118
Si Si4 0.707956 0.313622 0.387605
Si Si5 0.292545 0.814351 0.695891
Si Si6 0.953095 0.811637 0.183328
O O1 0.624551 0.500000 0.699942
O O2 0.614513 0.261547 0.542577
O O3 0.581522 0.261867 0.786437
O O4 0.663655 0.242396 0.753506
O O5 0.383494 0.500000 0.386703
O O6 0.336742 0.733807 0.330952
O O7 0.419342 0.743385 0.291239
O O8 0.500000 0.233212 0.844636
O O9 0.549830 0.000000 0.872461
O O10 0.553885 0.239771 0.035707
O O11 0.710201 0.500000 0.390885
O O12 0.750000 0.250000 0.323269
O O13 0.707100 0.252592 0.542360
O O14 0.250000 0.750000 0.759271
O O15 0.290891 0.000000 0.692138
O O16 0.000000 0.773926 0.225644
O O17 0.950267 0.000000 0.171938
#
# Coordination Sequence:
#
# PCOD9350258 Si02
#       6
#     8   8   8   8   8   8
#     4  10  19  32  51  76 102 129 164 205 248 291
#     4   8  16  29  47  73 100 122 153 201 246 284
#     4  10  21  36  51  70  98 130 164 203 247 297
#     4   9  15  25  41  64  95 128 161 197 237 283
#     4  10  17  27  44  68  99 132 164 199 241 288
#     4   9  17  32  53  72  91 122 162 199 240 294
#
# _framework density 17.467303999999999
#
# number of rings (size 3 to 8) (size 9 to 14) (size 15 to 20)
#    0.000    2.667    0.000    5.000    0.000    1.667 
#    0.000    6.667    0.000    3.000    0.000    4.667 
#    0.000    0.000    0.000    0.000    0.000    0.000 
#
# Total GULP energy -133692.309681 kJ/mol
# GULP energy per Si atom -5570.512903 kJ/mol
# Density = 1.742755 g / cm^3
# Si number density = 17.467304 Si / 1000 Ang^3
#
#
#
# Elastic Constant Matrix: (Units=GPa)
#
#
# Indices 1 2 3 4 5 6 
#
# 1 194.1975 47.8167 71.7941 0.0000 0.0000 0.0000
# 2 47.8167 59.8052 17.0952 0.0000 0.0000 0.0000
# 3 71.7941 17.0952 41.9969 0.0000 0.0000 0.0000
# 4 0.0000 0.0000 0.0000 10.7948 0.0000 0.0000
# 5 0.0000 0.0000 0.0000 0.0000 -8.7811 0.0000
# 6 0.0000 0.0000 0.0000 0.0000 0.0000 4.9126
#
#
#
# Elastic Compliance Matrix: (Units=1/GPa)
#
#
# Indices 1 2 3 4 5 6 
#
# 1 0.015403 -0.005419 -0.024125 0.000000 0.000000 0.000000
# 2 -0.005419 0.020829 0.000785 0.000000 0.000000 0.000000
# 3 -0.024125 0.000785 0.064734 0.000000 0.000000 0.000000
# 4 0.000000 0.000000 0.000000 0.092637 0.000000 0.000000
# 5 0.000000 0.000000 0.000000 0.000000 -0.113881 0.000000
# 6 0.000000 0.000000 0.000000 0.000000 0.000000 0.203557
#
#
# Mechanical properties :
#
#
# Convention : Reuss Voigt Hill
#
# Bulk Modulus (GPa) = 23.01629 63.26796 43.14213
# Shear Modulus (GPa) = 14.07343 12.00484 13.03913
#
# Velocity S-wave (km/s) = 2.84157 2.62444 2.73516
# Velocity P-wave (km/s) = 4.89606 6.74411 5.89298
#
# Compressibility (1/GPa) = 0.04344749
#
# Stress axis : x y z
#
# Youngs Moduli (GPa) = 64.92396 48.00946 15.44789
#
# Poissons Ratio (x) = 0.26016 0.37268
# Poissons Ratio (y) = 0.35182 -0.01213
# Poissons Ratio (z) = 1.56630 -0.03768
#
# Static dielectric constant tensor:
#      x y z
#    x 1.662180 0.000000 0.000000 
#    y 0.000000 1.589200 0.000000 
#    z 0.000000 0.000000 1.561130 
# 
# From -- ./inp_files/14228.got.cif
#   From: 2010.05.17/outbox.cif.g08.bks.cpg/sg35_8_cif.got.tgz:14228.got - 2010.06.03 17:29:28.
