data_PCOD9350731
_publ_section_title
;
Structure prediction by ZEFSAII (Michael W. Deem and Ramdas Pophale) SiO2 
 PCOD9350731
Probable space group: C M C 21
;
_chemical_formula_sum "Si O2"
_cell_formula_units_Z 64
_cell_length_a 7.853518
_cell_length_b 15.200341
_cell_length_c 22.636405
_cell_angle_alpha 90.000000
_cell_angle_beta 90.000000
_cell_angle_gamma 90.000000
_cell_volume 2702.246916
_symmetry_space_group_name_H-M "C M C 21"
_symmetry_group_IT_number 36
_symmetry_cell_setting 'orthorhombic'
loop_
_space_group_symop_operation_xyz
x,y,z
-x,-y,1/2+z
x,-y,1/2+z
-x,y,z
1/2+x,1/2+y,z
1/2-x,1/2-y,1/2+z
1/2+x,1/2-y,1/2+z
1/2-x,1/2+y,z
loop_
_atom_site_type_symbol
_atom_site_label
_atom_site_fract_x
_atom_site_fract_y
_atom_site_fract_z
Si Si1 0.304280 0.311191 0.871350
Si Si2 0.701898 0.085472 0.707750
Si Si3 0.290165 0.733104 0.246961
Si Si4 0.304147 0.865930 0.997783
Si Si5 0.800742 0.305177 0.554896
Si Si6 0.293121 0.943095 0.459174
Si Si7 0.207630 0.503155 0.832121
Si Si8 0.804730 0.913842 0.665279
O O1 0.500000 0.286356 0.884814
O O2 0.241446 0.254800 0.815480
O O3 0.208902 0.319866 0.933154
O O4 0.293313 0.409497 0.844408
O O5 0.500000 0.094200 0.711866
O O6 0.767374 0.184905 0.706900
O O7 0.760849 0.044275 0.770189
O O8 0.733363 0.011757 0.658574
O O9 0.500000 0.728768 0.247065
O O10 0.223429 0.643030 0.218354
O O11 0.500000 0.875462 0.014839
O O12 0.231690 0.964171 0.987607
O O13 0.223202 0.797958 0.043462
O O14 0.740538 0.360028 0.497513
O O15 0.708720 0.350050 0.609655
O O16 0.000000 0.322867 0.563369
O O17 0.500000 0.946966 0.460432
O O18 0.247634 0.940204 0.390280
O O19 0.000000 0.492285 0.831716
O O20 0.000000 0.928420 0.679908
#
# Coordination Sequence:
#
# PCOD9350731 Si02
#       8
#     8   8   8   8   8   8   8   8
#     4  10  18  33  58  86 119 155 191 233 283 348
#     4  10  20  36  60  86 111 148 197 237 278 344
#     4   9  20  36  58  84 114 156 196 229 284 351
#     4  10  21  39  59  86 118 153 189 237 296 344
#     4  11  23  40  63  87 111 153 204 243 283 347
#     4   8  18  36  58  83 115 152 189 229 285 351
#     4   9  17  32  57  85 116 148 183 235 290 338
#     4  11  23  42  59  81 120 157 193 243 295 341
#
# _framework density 23.683993999999998
#
# number of rings (size 3 to 8) (size 9 to 14) (size 15 to 20)
#    0.000    2.250    1.250    2.250    1.750    1.000 
#    0.000   13.750    0.000    0.000    0.000    0.000 
#    0.000    0.000    0.000    0.000    0.000    0.000 
#
# Total GULP energy -178677.723279 kJ/mol
# GULP energy per Si atom -5583.678852 kJ/mol
# Density = 2.363009 g / cm^3
# Si number density = 23.683994 Si / 1000 Ang^3
#
#
#
# Elastic Constant Matrix: (Units=GPa)
#
#
# Indices 1 2 3 4 5 6 
#
# 1 32.0692 1.5559 -5.3201 0.0000 0.0000 0.0000
# 2 1.5559 85.8437 -10.8236 0.0000 0.0000 0.0000
# 3 -5.3201 -10.8236 9.7275 0.0000 0.0000 0.0000
# 4 0.0000 0.0000 0.0000 28.0653 0.0000 0.0000
# 5 0.0000 0.0000 0.0000 0.0000 22.0829 0.0000
# 6 0.0000 0.0000 0.0000 0.0000 0.0000 13.0316
#
#
#
# Elastic Compliance Matrix: (Units=1/GPa)
#
#
# Indices 1 2 3 4 5 6 
#
# 1 0.034600 0.002046 0.021200 0.000000 0.000000 0.000000
# 2 0.002046 0.013671 0.016331 0.000000 0.000000 0.000000
# 3 0.021200 0.016331 0.132567 0.000000 0.000000 0.000000
# 4 0.000000 0.000000 0.000000 0.035631 0.000000 0.000000
# 5 0.000000 0.000000 0.000000 0.000000 0.045284 0.000000
# 6 0.000000 0.000000 0.000000 0.000000 0.000000 0.076736
#
#
# Mechanical properties :
#
#
# Convention : Reuss Voigt Hill
#
# Bulk Modulus (GPa) = 3.84629 10.94052 7.39341
# Shear Modulus (GPa) = 14.45084 22.11786 18.28435
#
# Velocity S-wave (km/s) = 2.47281 3.05925 2.78153
# Velocity P-wave (km/s) = 3.12739 4.13619 3.66665
#
# Compressibility (1/GPa) = 0.25999094
#
# Stress axis : x y z
#
# Youngs Moduli (GPa) = 28.90152 73.14739 7.54336
#
# Poissons Ratio (x) = -0.14965 -0.15992
# Poissons Ratio (y) = -0.05913 -0.12319
# Poissons Ratio (z) = -0.61271 -1.19453
#
# Static dielectric constant tensor:
#      x y z
#    x 1.856120 0.000000 0.000000 
#    y 0.000000 1.927460 0.000000 
#    z 0.000000 0.000000 1.930990 
# 
# From -- ./inp_files/16561.got.cif
#   From: 2010.05.17/outbox.cif.g08.bks.cpg/sg36_9_cif.got.tgz:16561.got - 2010.06.03 17:41:39.
