data_PCOD9350605
_publ_section_title
;
Structure prediction by ZEFSAII (Michael W. Deem and Ramdas Pophale) SiO2 
 PCOD9350605
Probable space group: C M C 21
;
_chemical_formula_sum "Si O2"
_cell_formula_units_Z 64
_cell_length_a 7.675038
_cell_length_b 14.478960
_cell_length_c 25.589672
_cell_angle_alpha 90.000000
_cell_angle_beta 90.000000
_cell_angle_gamma 90.000000
_cell_volume 2843.692431
_symmetry_space_group_name_H-M "C M C 21"
_symmetry_group_IT_number 36
_symmetry_cell_setting 'orthorhombic'
loop_
_space_group_symop_operation_xyz
x,y,z
-x,-y,1/2+z
x,-y,1/2+z
-x,y,z
1/2+x,1/2+y,z
1/2-x,1/2-y,1/2+z
1/2+x,1/2-y,1/2+z
1/2-x,1/2+y,z
loop_
_atom_site_type_symbol
_atom_site_label
_atom_site_fract_x
_atom_site_fract_y
_atom_site_fract_z
Si Si1 0.301526 0.613913 0.694730
Si Si2 0.785665 0.867123 0.081768
Si Si3 0.292509 0.578597 0.062588
Si Si4 0.789997 0.061142 0.803098
Si Si5 0.201495 0.593589 0.175953
Si Si6 0.290092 0.648442 0.284389
Si Si7 0.791394 0.717260 0.874781
Si Si8 0.796866 0.735420 0.990500
O O1 0.500000 0.648541 0.698049
O O2 0.222747 0.651894 0.640989
O O3 0.219960 0.617655 0.752391
O O4 0.306357 0.501887 0.684961
O O5 0.000000 0.863083 0.084211
O O6 0.737263 0.972170 0.067407
O O7 0.722037 0.800410 0.036028
O O8 0.500000 0.580636 0.058116
O O9 0.240194 0.626172 0.117481
O O10 0.215181 0.632954 0.014009
O O11 0.742478 0.113414 0.855709
O O12 0.000000 0.060215 0.798651
O O13 0.730888 0.955562 0.798964
O O14 0.238983 0.661957 0.223864
O O15 0.000000 0.567922 0.178594
O O16 0.500000 0.650215 0.285874
O O17 0.222120 0.717939 0.328208
O O18 0.721229 0.739191 0.932346
O O19 0.000000 0.729674 0.876721
O O20 0.000000 0.761606 0.986224
#
# Coordination Sequence:
#
# PCOD9350605 Si02
#       8
#     8   8   8   8   8   8   8   8
#     4   8  15  31  53  78 106 137 172 214 262 319
#     4   8  16  33  57  78 102 136 173 211 261 320
#     4  10  20  36  57  81 108 140 174 215 265 321
#     4   9  18  33  55  79 106 138 176 218 264 320
#     4  10  18  30  53  84 111 136 169 215 266 320
#     4   9  19  37  56  76 106 145 180 216 264 320
#     4  10  22  37  53  75 107 142 181 226 269 309
#     4  10  21  37  54  77 106 140 183 227 265 309
#
# _framework density 22.505949999999999
#
# number of rings (size 3 to 8) (size 9 to 14) (size 15 to 20)
#    0.000    2.750    0.000    3.000    0.000    5.000 
#    0.000    6.875    0.000    0.000    0.000    0.000 
#    0.000    0.000    0.000    0.000    0.000    0.000 
#
# Total GULP energy -178635.856605 kJ/mol
# GULP energy per Si atom -5582.370519 kJ/mol
# Density = 2.245473 g / cm^3
# Si number density = 22.505950 Si / 1000 Ang^3
#
#
#
# Elastic Constant Matrix: (Units=GPa)
#
#
# Indices 1 2 3 4 5 6 
#
# 1 49.8499 -3.4404 -2.5364 0.0000 0.0000 0.0000
# 2 -3.4404 53.2650 32.0635 0.0000 0.0000 0.0000
# 3 -2.5364 32.0635 147.9652 0.0000 0.0000 0.0000
# 4 0.0000 0.0000 0.0000 27.6762 0.0000 0.0000
# 5 0.0000 0.0000 0.0000 0.0000 18.1698 0.0000
# 6 0.0000 0.0000 0.0000 0.0000 0.0000 77.8261
#
#
#
# Elastic Compliance Matrix: (Units=1/GPa)
#
#
# Indices 1 2 3 4 5 6 
#
# 1 0.020151 0.001258 0.000073 0.000000 0.000000 0.000000
# 2 0.001258 0.021669 -0.004674 0.000000 0.000000 0.000000
# 3 0.000073 -0.004674 0.007772 0.000000 0.000000 0.000000
# 4 0.000000 0.000000 0.000000 0.036132 0.000000 0.000000
# 5 0.000000 0.000000 0.000000 0.000000 0.055036 0.000000
# 6 0.000000 0.000000 0.000000 0.000000 0.000000 0.012849
#
#
# Mechanical properties :
#
#
# Convention : Reuss Voigt Hill
#
# Bulk Modulus (GPa) = 23.30724 33.69483 28.50104
# Shear Modulus (GPa) = 28.63716 39.73398 34.18557
#
# Velocity S-wave (km/s) = 3.57098 4.20633 3.90161
# Velocity P-wave (km/s) = 5.23269 6.21248 5.74352
#
# Compressibility (1/GPa) = 0.04290513
#
# Stress axis : x y z
#
# Youngs Moduli (GPa) = 49.62597 46.14923 128.65986
#
# Poissons Ratio (x) = -0.05804 -0.00938
# Poissons Ratio (y) = -0.06241 0.60136
# Poissons Ratio (z) = -0.00362 0.21570
#
# Static dielectric constant tensor:
#      x y z
#    x 1.840260 0.000000 0.000000 
#    y 0.000000 1.850020 0.000000 
#    z 0.000000 0.000000 1.847920 
# 
# From -- ./inp_files/16578.got.cif
#   From: 2010.05.17/outbox.cif.g08.bks.cpg/sg36_9_cif.got.tgz:16578.got - 2010.06.03 17:41:39.
