data_PCOD9350221
_publ_section_title
;
Structure prediction by ZEFSAII (Michael W. Deem and Ramdas Pophale) SiO2 
 PCOD9350221
Probable space group: C M M 2
;
_chemical_formula_sum "Si O2"
_cell_formula_units_Z 64
_cell_length_a 31.541757
_cell_length_b 18.773687
_cell_length_c 5.408982
_cell_angle_alpha 90.000000
_cell_angle_beta 90.000000
_cell_angle_gamma 90.000000
_cell_volume 3202.956133
_symmetry_space_group_name_H-M "C M M 2"
_symmetry_group_IT_number 35
_symmetry_cell_setting 'orthorhombic'
loop_
_space_group_symop_operation_xyz
x,y,z
-x,-y,z
-x,y,z
x,-y,z
1/2+x,1/2+y,z
1/2-x,1/2-y,z
1/2-x,1/2+y,z
1/2+x,1/2-y,z
loop_
_atom_site_type_symbol
_atom_site_label
_atom_site_fract_x
_atom_site_fract_y
_atom_site_fract_z
Si Si1 0.451494 0.084563 0.135880
Si Si2 0.920756 0.420036 0.632583
Si Si3 0.948982 0.080988 0.510793
Si Si4 0.751321 0.163327 0.558782
Si Si5 0.631215 0.232516 0.971220
Si Si6 0.448704 0.668863 0.011608
Si Si7 0.283621 0.682901 0.058840
Si Si8 0.654296 0.849361 0.470682
O O1 0.500000 0.090990 0.062586
O O2 0.445076 0.117177 0.406921
O O3 0.441389 0.000000 0.168777
O O4 0.425168 0.112040 0.903889
O O5 0.937858 0.500000 0.662372
O O6 0.873078 0.418485 0.536128
O O7 0.939322 0.122453 0.765054
O O8 0.000000 0.075709 0.507915
O O9 0.932051 0.000000 0.508185
O O10 0.938733 0.124642 0.261759
O O11 0.750000 0.250000 0.581146
O O12 0.780521 0.146511 0.325186
O O13 0.703935 0.140058 0.497154
O O14 0.767383 0.138445 0.824610
O O15 0.584684 0.266393 0.002846
O O16 0.639425 0.203285 0.693001
O O17 0.669239 0.290020 0.006903
O O18 0.642209 0.179232 0.199831
O O19 0.500000 0.686304 0.012106
O O20 0.250000 0.750000 0.078848
#
# Coordination Sequence:
#
# PCOD9350221 Si02
#       8
#     8   8   8   8   8   8   8   8
#     4   9  17  33  54  70  90 123 167 223 271 304
#     4  10  21  35  51  76 101 128 177 231 271 312
#     4   9  17  33  57  79 100 137 189 227 247 281
#     4  10  16  30  49  74 101 119 155 221 261 301
#     4  12  21  33  53  77 111 138 175 210 269 319
#     4  10  21  35  50  77 116 148 172 212 260 308
#     4  10  16  30  49  75 101 118 164 222 256 298
#     4  12  21  33  52  76 104 138 171 218 272 327
#
# _framework density 19.981541
#
# number of rings (size 3 to 8) (size 9 to 14) (size 15 to 20)
#    0.000    1.750    5.000    2.250    0.000    3.000 
#    0.000    3.750    0.000    0.000    0.000    5.250 
#    0.000    0.000    0.000    0.000    0.000    0.000 
#
# Total GULP energy -178231.979279 kJ/mol
# GULP energy per Si atom -5569.749352 kJ/mol
# Density = 1.993606 g / cm^3
# Si number density = 19.981541 Si / 1000 Ang^3
#
#
#
# Elastic Constant Matrix: (Units=GPa)
#
#
# Indices 1 2 3 4 5 6 
#
# 1 60.5491 8.2382 -0.9050 0.0000 0.0000 0.0000
# 2 8.2382 29.8735 13.3512 0.0000 0.0000 0.0000
# 3 -0.9050 13.3512 147.4866 0.0000 0.0000 0.0000
# 4 0.0000 0.0000 0.0000 6.0133 0.0000 0.0000
# 5 0.0000 0.0000 0.0000 0.0000 28.1076 0.0000
# 6 0.0000 0.0000 0.0000 0.0000 0.0000 17.4548
#
#
#
# Elastic Compliance Matrix: (Units=1/GPa)
#
#
# Indices 1 2 3 4 5 6 
#
# 1 0.017203 -0.004993 0.000558 0.000000 0.000000 0.000000
# 2 -0.004993 0.036335 -0.003320 0.000000 0.000000 0.000000
# 3 0.000558 -0.003320 0.007084 0.000000 0.000000 0.000000
# 4 0.000000 0.000000 0.000000 0.166297 0.000000 0.000000
# 5 0.000000 0.000000 0.000000 0.000000 0.035578 0.000000
# 6 0.000000 0.000000 0.000000 0.000000 0.000000 0.057291
#
#
# Mechanical properties :
#
#
# Convention : Reuss Voigt Hill
#
# Bulk Modulus (GPa) = 22.16732 31.03089 26.59911
# Shear Modulus (GPa) = 14.27201 24.79680 19.53441
#
# Velocity S-wave (km/s) = 2.67546 3.52658 3.13009
# Velocity P-wave (km/s) = 4.54556 5.66973 5.13848
#
# Compressibility (1/GPa) = 0.04511144
#
# Stress axis : x y z
#
# Youngs Moduli (GPa) = 58.12862 27.52153 141.15862
#
# Poissons Ratio (x) = 0.13742 -0.07871
# Poissons Ratio (y) = 0.29025 0.46863
# Poissons Ratio (z) = -0.03241 0.09137
#
# Static dielectric constant tensor:
#      x y z
#    x 1.680840 0.000000 0.000000 
#    y 0.000000 1.743440 0.000000 
#    z 0.000000 0.000000 1.799950 
# 
# From -- ./inp_files/3782.got.cif
#   From: 2010.05.17/outbox.cif.g08.bks.cpg/sg35_2_cif.got.tgz:3782.got - 2010.06.03 17:29:28.
