data_PCOD9350623
_publ_section_title
;
Structure prediction by ZEFSAII (Michael W. Deem and Ramdas Pophale) SiO2 
 PCOD9350623
Probable space group: C M C 21
;
_chemical_formula_sum "Si O2"
_cell_formula_units_Z 64
_cell_length_a 15.952302
_cell_length_b 21.114642
_cell_length_c 7.866828
_cell_angle_alpha 90.000000
_cell_angle_beta 90.000000
_cell_angle_gamma 90.000000
_cell_volume 2649.761222
_symmetry_space_group_name_H-M "C M C 21"
_symmetry_group_IT_number 36
_symmetry_cell_setting 'orthorhombic'
loop_
_space_group_symop_operation_xyz
x,y,z
-x,-y,1/2+z
x,-y,1/2+z
-x,y,z
1/2+x,1/2+y,z
1/2-x,1/2-y,1/2+z
1/2+x,1/2-y,1/2+z
1/2-x,1/2+y,z
loop_
_atom_site_type_symbol
_atom_site_label
_atom_site_fract_x
_atom_site_fract_y
_atom_site_fract_z
Si Si1 0.899947 0.864978 0.304320
Si Si2 0.684134 0.706870 0.501775
Si Si3 0.226929 0.903762 0.784825
Si Si4 0.587378 0.189661 0.870947
Si Si5 0.218575 0.028953 0.655437
Si Si6 0.907224 0.558456 0.691144
Si Si7 0.410180 0.872716 0.823093
Si Si8 0.368894 0.245961 0.525483
O O1 0.840669 0.926400 0.271710
O O2 0.872239 0.817340 0.456348
O O3 0.000000 0.878285 0.316576
O O4 0.878045 0.824444 0.134876
O O5 0.686119 0.663681 0.331776
O O6 0.661286 0.779107 0.471313
O O7 0.779255 0.712171 0.562590
O O8 0.188562 0.956152 0.660741
O O9 0.221200 0.939283 0.969484
O O10 0.323154 0.889717 0.734615
O O11 0.500000 0.200620 0.962837
O O12 0.595677 0.117540 0.819304
O O13 0.584019 0.230138 0.697539
O O14 0.316815 0.026161 0.713087
O O15 0.908305 0.588026 0.501340
O O16 0.000000 0.527755 0.715634
O O17 0.500000 0.886357 0.741422
O O18 0.405615 0.799397 0.878125
#
# Coordination Sequence:
#
# PCOD9350623 Si02
#       8
#     8   8   8   8   8   8   8   8
#     4  11  22  36  54  79 110 144 177 216 267 317
#     4  10  20  35  53  76 105 139 171 213 267 313
#     4   9  20  34  52  70  95 133 175 214 258 304
#     4  10  18  31  52  79 104 130 166 206 248 309
#     4  10  20  37  52  71 100 135 176 221 260 305
#     4   8  15  29  52  77 103 133 164 203 261 322
#     4   8  14  28  49  75 103 130 159 200 256 318
#     4  10  18  32  55  81 106 134 170 211 257 316
#
# _framework density 24.153120999999999
#
# number of rings (size 3 to 8) (size 9 to 14) (size 15 to 20)
#    0.000    2.500    0.000    6.000    0.000    1.500 
#    0.000    5.625    0.000    1.500    0.000    0.000 
#    0.000    0.000    0.000    0.000    0.000    0.000 
#
# Total GULP energy -178595.262742 kJ/mol
# GULP energy per Si atom -5581.101961 kJ/mol
# Density = 2.409815 g / cm^3
# Si number density = 24.153121 Si / 1000 Ang^3
#
#
#
# Elastic Constant Matrix: (Units=GPa)
#
#
# Indices 1 2 3 4 5 6 
#
# 1 82.7730 22.1001 26.6431 0.0000 0.0000 0.0000
# 2 22.1001 93.2466 27.0458 0.0000 0.0000 0.0000
# 3 26.6431 27.0458 64.5199 0.0000 0.0000 0.0000
# 4 0.0000 0.0000 0.0000 31.8908 0.0000 0.0000
# 5 0.0000 0.0000 0.0000 0.0000 1.7100 0.0000
# 6 0.0000 0.0000 0.0000 0.0000 0.0000 -3.0197
#
#
#
# Elastic Compliance Matrix: (Units=1/GPa)
#
#
# Indices 1 2 3 4 5 6 
#
# 1 0.014222 -0.001898 -0.005077 0.000000 0.000000 0.000000
# 2 -0.001898 0.012462 -0.004440 0.000000 0.000000 0.000000
# 3 -0.005077 -0.004440 0.019457 0.000000 0.000000 0.000000
# 4 0.000000 0.000000 0.000000 0.031357 0.000000 0.000000
# 5 0.000000 0.000000 0.000000 0.000000 0.584783 0.000000
# 6 0.000000 0.000000 0.000000 0.000000 0.000000 -0.331163
#
#
# Mechanical properties :
#
#
# Convention : Reuss Voigt Hill
#
# Bulk Modulus (GPa) = 42.89973 43.56862 43.23418
# Shear Modulus (GPa) = 13.82287 17.09961 15.46124
#
# Velocity S-wave (km/s) = 2.39488 2.66365 2.53283
# Velocity P-wave (km/s) = 5.04454 5.24764 5.14709
#
# Compressibility (1/GPa) = 0.02331017
#
# Stress axis : x y z
#
# Youngs Moduli (GPa) = 70.31197 80.24438 51.39549
#
# Poissons Ratio (x) = 0.15231 0.26095
# Poissons Ratio (y) = 0.13346 0.22820
# Poissons Ratio (z) = 0.35700 0.35629
#
# Static dielectric constant tensor:
#      x y z
#    x 1.906440 0.000000 0.000000 
#    y 0.000000 1.903410 0.000000 
#    z 0.000000 0.000000 1.966240 
# 
# From -- ./inp_files/4354.got.cif
#   From: 2010.05.17/outbox.cif.g08.bks.cpg/sg36_3_cif.got.tgz:4354.got - 2010.06.03 17:41:39.
