data_PCOD9350674
_publ_section_title
;
Structure prediction by ZEFSAII (Michael W. Deem and Ramdas Pophale) SiO2 
 PCOD9350674
Probable space group: C M C 21
;
_chemical_formula_sum "Si O2"
_cell_formula_units_Z 64
_cell_length_a 8.396359
_cell_length_b 21.266923
_cell_length_c 18.123686
_cell_angle_alpha 90.000000
_cell_angle_beta 90.000000
_cell_angle_gamma 90.000000
_cell_volume 3236.250922
_symmetry_space_group_name_H-M "C M C 21"
_symmetry_group_IT_number 36
_symmetry_cell_setting 'orthorhombic'
loop_
_space_group_symop_operation_xyz
x,y,z
-x,-y,1/2+z
x,-y,1/2+z
-x,y,z
1/2+x,1/2+y,z
1/2-x,1/2-y,1/2+z
1/2+x,1/2-y,1/2+z
1/2-x,1/2+y,z
loop_
_atom_site_type_symbol
_atom_site_label
_atom_site_fract_x
_atom_site_fract_y
_atom_site_fract_z
Si Si1 0.311986 0.628488 0.272970
Si Si2 0.805323 0.998732 0.207408
Si Si3 0.309253 0.393071 0.320113
Si Si4 0.313639 0.264053 0.969283
Si Si5 0.686543 0.745014 0.806983
Si Si6 0.311063 0.497440 0.043009
Si Si7 0.814788 0.393048 0.935847
Si Si8 0.309941 0.874164 0.485973
O O1 0.500000 0.636047 0.262070
O O2 0.253117 0.569416 0.225877
O O3 0.228591 0.695108 0.257785
O O4 0.280330 0.610671 0.358831
O O5 0.751742 0.950260 0.270065
O O6 0.758067 0.979305 0.125335
O O7 0.000000 0.998835 0.209168
O O8 0.500000 0.400231 0.331858
O O9 0.284542 0.325719 0.280023
O O10 0.230160 0.388595 0.400191
O O11 0.500000 0.271617 0.985625
O O12 0.288886 0.253156 0.881418
O O13 0.227040 0.330088 0.982508
O O14 0.256277 0.197621 0.002905
O O15 0.500000 0.748859 0.827648
O O16 0.500000 0.487716 0.036240
O O17 0.228094 0.454670 0.981767
O O18 0.272627 0.570724 0.031296
O O19 0.000000 0.392000 0.917060
O O20 0.500000 0.876642 0.495843
#
# Coordination Sequence:
#
# PCOD9350674 Si02
#       8
#     8   8   8   8   8   8   8   8
#     4  10  18  32  55  79 103 133 169 209 255 307
#     4   9  20  36  53  73  98 134 178 215 248 300
#     4   9  17  33  56  78 101 133 173 212 254 305
#     4   9  17  31  52  77 105 135 167 208 257 306
#     4   9  16  27  48  78 106 130 161 207 257 303
#     4  11  22  37  54  72 102 143 180 213 256 306
#     4  11  21  34  54  81 108 133 170 216 258 305
#     4  10  20  34  54  82 109 133 170 216 259 306
#
# _framework density 19.775970000000001
#
# number of rings (size 3 to 8) (size 9 to 14) (size 15 to 20)
#    0.000    2.250    0.000    5.250    0.000    3.000 
#    0.000    5.625    0.000    4.500    0.000    0.000 
#    0.000    0.000    0.000    0.000    0.000    0.000 
#
# Total GULP energy -178485.031695 kJ/mol
# GULP energy per Si atom -5577.657240 kJ/mol
# Density = 1.973096 g / cm^3
# Si number density = 19.775970 Si / 1000 Ang^3
#
#
#
# Elastic Constant Matrix: (Units=GPa)
#
#
# Indices 1 2 3 4 5 6 
#
# 1 20.1080 -2.4130 -7.6407 0.0000 0.0000 0.0000
# 2 -2.4130 63.7924 -7.5048 0.0000 0.0000 0.0000
# 3 -7.6407 -7.5048 17.8794 0.0000 0.0000 0.0000
# 4 0.0000 0.0000 0.0000 3.8134 0.0000 0.0000
# 5 0.0000 0.0000 0.0000 0.0000 5.8908 0.0000
# 6 0.0000 0.0000 0.0000 0.0000 0.0000 31.9931
#
#
#
# Elastic Compliance Matrix: (Units=1/GPa)
#
#
# Indices 1 2 3 4 5 6 
#
# 1 0.061267 0.005678 0.028566 0.000000 0.000000 0.000000
# 2 0.005678 0.017016 0.009569 0.000000 0.000000 0.000000
# 3 0.028566 0.009569 0.072154 0.000000 0.000000 0.000000
# 4 0.000000 0.000000 0.000000 0.262232 0.000000 0.000000
# 5 0.000000 0.000000 0.000000 0.000000 0.169756 0.000000
# 6 0.000000 0.000000 0.000000 0.000000 0.000000 0.031257
#
#
# Mechanical properties :
#
#
# Convention : Reuss Voigt Hill
#
# Bulk Modulus (GPa) = 4.20055 7.40696 5.80376
# Shear Modulus (GPa) = 8.25885 16.29536 12.27710
#
# Velocity S-wave (km/s) = 2.04579 2.87365 2.49431
# Velocity P-wave (km/s) = 2.77652 3.84240 3.35210
#
# Compressibility (1/GPa) = 0.23806414
#
# Stress axis : x y z
#
# Youngs Moduli (GPa) = 16.32192 58.76687 13.85916
#
# Poissons Ratio (x) = -0.33369 -0.39590
# Poissons Ratio (y) = -0.09268 -0.13262
# Poissons Ratio (z) = -0.46625 -0.56235
#
# Static dielectric constant tensor:
#      x y z
#    x 1.680160 0.000000 0.000000 
#    y 0.000000 1.743740 0.000000 
#    z 0.000000 0.000000 1.675160 
# 
# From -- ./inp_files/13812.got.cif
#   From: 2010.05.17/outbox.cif.g08.bks.cpg/sg36_7_cif.got.tgz:13812.got - 2010.06.03 17:41:39.
