data_PCOD9350759
_publ_section_title
;
Structure prediction by ZEFSAII (Michael W. Deem and Ramdas Pophale) SiO2 
 PCOD9350759
Probable space group: C M C 21
;
_chemical_formula_sum "Si O2"
_cell_formula_units_Z 64
_cell_length_a 7.501450
_cell_length_b 32.052192
_cell_length_c 12.255298
_cell_angle_alpha 90.000000
_cell_angle_beta 90.000000
_cell_angle_gamma 90.000000
_cell_volume 2946.638307
_symmetry_space_group_name_H-M "C M C 21"
_symmetry_group_IT_number 36
_symmetry_cell_setting 'orthorhombic'
loop_
_space_group_symop_operation_xyz
x,y,z
-x,-y,1/2+z
x,-y,1/2+z
-x,y,z
1/2+x,1/2+y,z
1/2-x,1/2-y,1/2+z
1/2+x,1/2-y,1/2+z
1/2-x,1/2+y,z
loop_
_atom_site_type_symbol
_atom_site_label
_atom_site_fract_x
_atom_site_fract_y
_atom_site_fract_z
Si Si1 0.285469 0.327210 0.661050
Si Si2 0.215209 0.947981 0.424974
Si Si3 0.718203 0.291428 0.885825
Si Si4 0.718195 0.458373 0.883304
Si Si5 0.283402 0.579597 0.161662
Si Si6 0.207888 0.124838 0.505654
Si Si7 0.289237 0.126021 0.759601
Si Si8 0.707837 0.801194 0.418096
O O1 0.500000 0.326063 0.654923
O O2 0.231256 0.297573 0.759423
O O3 0.231446 0.373789 0.693462
O O4 0.218516 0.317780 0.540928
O O5 0.279909 0.930058 0.540446
O O6 0.261256 0.916732 0.326863
O O7 0.000000 0.948873 0.427991
O O8 0.278146 0.995580 0.416067
O O9 0.500000 0.291573 0.893577
O O10 0.783040 0.245658 0.919365
O O11 0.780462 0.331679 0.955466
O O12 0.500000 0.458858 0.888762
O O13 0.771607 0.450728 0.758104
O O14 0.779636 0.418634 0.955121
O O15 0.500000 0.578388 0.158604
O O16 0.217884 0.124720 0.636629
O O17 0.000000 0.124751 0.473188
O O18 0.500000 0.131766 0.748552
O O19 0.216782 0.164451 0.833755
O O20 0.500000 0.797066 0.388321
#
# Coordination Sequence:
#
# PCOD9350759 Si02
#       8
#     8   8   8   8   8   8   8   8
#     4  10  18  34  60  82 104 137 183 229 271 318
#     4  10  20  34  58  86 109 139 182 226 270 324
#     4   9  19  36  58  83 110 142 178 225 280 325
#     4   9  18  32  56  88 112 134 174 230 281 318
#     4   9  16  30  53  83 110 132 170 227 275 315
#     4  10  20  37  60  83 109 142 182 229 277 325
#     4  11  24  39  53  76 116 155 183 219 269 326
#     4  10  22  38  54  77 112 149 182 219 271 327
#
# _framework density 21.719664000000002
#
# number of rings (size 3 to 8) (size 9 to 14) (size 15 to 20)
#    0.000    2.250    2.500    0.375    3.500    0.500 
#    0.000    1.875    0.000    1.500    0.000    0.000 
#    0.000    0.000    0.000    0.000    0.000    0.000 
#
# Total GULP energy -178619.980927 kJ/mol
# GULP energy per Si atom -5581.874404 kJ/mol
# Density = 2.167023 g / cm^3
# Si number density = 21.719664 Si / 1000 Ang^3
#
#
#
# Elastic Constant Matrix: (Units=GPa)
#
#
# Indices 1 2 3 4 5 6 
#
# 1 55.1556 1.8593 -15.0994 0.0000 0.0000 0.0000
# 2 1.8593 131.7833 34.3911 0.0000 0.0000 0.0000
# 3 -15.0994 34.3911 96.8637 0.0000 0.0000 0.0000
# 4 0.0000 0.0000 0.0000 32.2334 0.0000 0.0000
# 5 0.0000 0.0000 0.0000 0.0000 -54.0037 0.0000
# 6 0.0000 0.0000 0.0000 0.0000 0.0000 111.6764
#
#
#
# Elastic Compliance Matrix: (Units=1/GPa)
#
#
# Indices 1 2 3 4 5 6 
#
# 1 0.019096 -0.001153 0.003386 0.000000 0.000000 0.000000
# 2 -0.001153 0.008433 -0.003174 0.000000 0.000000 0.000000
# 3 0.003386 -0.003174 0.011978 0.000000 0.000000 0.000000
# 4 0.000000 0.000000 0.000000 0.031024 0.000000 0.000000
# 5 0.000000 0.000000 0.000000 0.000000 -0.018517 0.000000
# 6 0.000000 0.000000 0.000000 0.000000 0.000000 0.008954
#
#
# Mechanical properties :
#
#
# Convention : Reuss Voigt Hill
#
# Bulk Modulus (GPa) = 26.57716 36.23385 31.40550
# Shear Modulus (GPa) = 66.32010 35.49134 50.90572
#
# Velocity S-wave (km/s) = 5.53181 4.04674 4.84649
# Velocity P-wave (km/s) = 7.28452 6.20915 6.76822
#
# Compressibility (1/GPa) = 0.03762629
#
# Stress axis : x y z
#
# Youngs Moduli (GPa) = 52.36587 118.58549 83.48304
#
# Poissons Ratio (x) = 0.13674 -0.28269
# Poissons Ratio (y) = 0.06038 0.26496
# Poissons Ratio (z) = -0.17732 0.37636
#
# Static dielectric constant tensor:
#      x y z
#    x 1.896540 0.000000 0.000000 
#    y 0.000000 1.779500 0.000000 
#    z 0.000000 0.000000 1.733020 
# 
# From -- ./inp_files/7190.got.cif
#   From: 2010.05.17/outbox.cif.g08.bks.cpg/sg36_4_cif.got.tgz:7190.got - 2010.06.03 17:41:39.
