data_PCOD9350318
_publ_section_title
;
Structure prediction by ZEFSAII (Michael W. Deem and Ramdas Pophale) SiO2 
 PCOD9350318
Probable space group: C M M 2
;
_chemical_formula_sum "Si O2"
_cell_formula_units_Z 64
_cell_length_a 7.475689
_cell_length_b 28.801965
_cell_length_c 14.548317
_cell_angle_alpha 90.000000
_cell_angle_beta 90.000000
_cell_angle_gamma 90.000000
_cell_volume 3132.464080
_symmetry_space_group_name_H-M "C M M 2"
_symmetry_group_IT_number 35
_symmetry_cell_setting 'orthorhombic'
loop_
_space_group_symop_operation_xyz
x,y,z
-x,-y,z
-x,y,z
x,-y,z
1/2+x,1/2+y,z
1/2-x,1/2-y,z
1/2-x,1/2+y,z
1/2+x,1/2-y,z
loop_
_atom_site_type_symbol
_atom_site_label
_atom_site_fract_x
_atom_site_fract_y
_atom_site_fract_z
Si Si1 0.299842 0.875443 0.733840
Si Si2 0.782042 0.445645 0.088592
Si Si3 0.212187 0.803717 0.089818
Si Si4 0.787813 0.803717 0.881853
Si Si5 0.785162 0.302373 0.380480
Si Si6 0.782042 0.445645 0.883079
Si Si7 0.299842 0.124557 0.237831
Si Si8 0.785162 0.697627 0.591192
O O1 0.500000 0.890666 0.705300
O O2 0.310633 0.835504 0.810426
O O3 0.216417 0.916959 0.794465
O O4 0.215576 0.846223 0.649859
O O5 0.737425 0.500000 0.095918
O O6 0.716417 0.416959 0.177206
O O7 0.000000 0.441917 0.089088
O O8 0.723584 0.429563 0.985836
O O9 0.250000 0.750000 0.106945
O O10 0.310633 0.835504 0.161246
O O11 0.000000 0.811834 0.097685
O O12 0.268862 0.813881 0.985836
O O13 0.750000 0.750000 0.864727
O O14 0.000000 0.811834 0.873986
O O15 0.750000 0.250000 0.343807
O O16 0.715576 0.346223 0.321812
O O17 0.720275 0.303441 0.485836
O O18 0.000000 0.306852 0.380794
O O19 0.737425 0.500000 0.875753
O O20 0.000000 0.441917 0.882583
O O21 0.500000 0.109334 0.266371
O O22 0.750000 0.750000 0.627865
O O23 0.000000 0.693148 0.590877
#
# Coordination Sequence:
#
# PCOD9350318 Si02
#       8
#     8   8   8   8   8   8   8   8
#     4  10  18  28  46  67  86 113 149 187 222 258
#     4   8  14  25  42  65  90 114 144 182 220 261
#     4  10  20  31  42  60  89 120 146 175 214 262
#     4  10  20  31  42  60  89 120 146 175 214 262
#     4   9  18  31  45  63  88 116 146 182 224 267
#     4   8  14  25  42  65  90 114 144 182 220 261
#     4  10  18  28  46  67  86 113 149 187 222 258
#     4   9  18  31  45  63  88 116 146 182 224 267
#
# _framework density 20.4312
#
# number of rings (size 3 to 8) (size 9 to 14) (size 15 to 20)
#    0.000    2.750    0.000    3.000    0.000    5.500 
#    0.000    0.000    0.000    1.500    0.000    8.750 
#    0.000    0.000    0.000    8.500    0.000    9.250 
#
# Total GULP energy -178368.169906 kJ/mol
# GULP energy per Si atom -5574.005310 kJ/mol
# Density = 2.038470 g / cm^3
# Si number density = 20.431200 Si / 1000 Ang^3
#
#
#
# Elastic Constant Matrix: (Units=GPa)
#
#
# Indices 1 2 3 4 5 6 
#
# 1 63.5998 -4.9968 4.0489 0.0000 0.0000 0.0000
# 2 -4.9968 96.6318 65.6480 0.0000 0.0000 0.0000
# 3 4.0489 65.6480 92.6511 0.0000 0.0000 0.0000
# 4 0.0000 0.0000 0.0000 43.8125 0.0000 0.0000
# 5 0.0000 0.0000 0.0000 0.0000 2.9855 0.0000
# 6 0.0000 0.0000 0.0000 0.0000 0.0000 12.7257
#
#
#
# Elastic Compliance Matrix: (Units=1/GPa)
#
#
# Indices 1 2 3 4 5 6 
#
# 1 0.016080 0.002524 -0.002491 0.000000 0.000000 0.000000
# 2 0.002524 0.020349 -0.014529 0.000000 0.000000 0.000000
# 3 -0.002491 -0.014529 0.021197 0.000000 0.000000 0.000000
# 4 0.000000 0.000000 0.000000 0.022825 0.000000 0.000000
# 5 0.000000 0.000000 0.000000 0.000000 0.334956 0.000000
# 6 0.000000 0.000000 0.000000 0.000000 0.000000 0.078581
#
#
# Mechanical properties :
#
#
# Convention : Reuss Voigt Hill
#
# Bulk Modulus (GPa) = 34.92358 42.47589 38.69974
# Shear Modulus (GPa) = 9.38925 24.45024 16.91974
#
# Velocity S-wave (km/s) = 2.14605 3.46310 2.88085
# Velocity P-wave (km/s) = 4.82401 6.06841 5.48164
#
# Compressibility (1/GPa) = 0.02863395
#
# Stress axis : x y z
#
# Youngs Moduli (GPa) = 62.18841 49.14136 47.17757
#
# Poissons Ratio (x) = -0.12402 0.11751
# Poissons Ratio (y) = -0.15695 0.68544
# Poissons Ratio (z) = 0.15491 0.71397
#
# Static dielectric constant tensor:
#      x y z
#    x 1.892780 0.000000 0.000000 
#    y 0.000000 1.735370 0.000000 
#    z 0.000000 0.000000 1.763250 
# 
# From -- ./inp_files/16139.got.cif
#   From: 2010.05.17/outbox.cif.g08.bks.cpg/sg35_9_cif.got.tgz:16139.got - 2010.06.03 17:29:28.
