data_PCOD9350576
_publ_section_title
;
Structure prediction by ZEFSAII (Michael W. Deem and Ramdas Pophale) SiO2 
 PCOD9350576
Probable space group: C M C 21
;
_chemical_formula_sum "Si O2"
_cell_formula_units_Z 64
_cell_length_a 7.293905
_cell_length_b 30.879639
_cell_length_c 10.473219
_cell_angle_alpha 90.000000
_cell_angle_beta 90.000000
_cell_angle_gamma 90.000000
_cell_volume 2358.916141
_symmetry_space_group_name_H-M "C M C 21"
_symmetry_group_IT_number 36
_symmetry_cell_setting 'orthorhombic'
loop_
_space_group_symop_operation_xyz
x,y,z
-x,-y,1/2+z
x,-y,1/2+z
-x,y,z
1/2+x,1/2+y,z
1/2-x,1/2-y,1/2+z
1/2+x,1/2-y,1/2+z
1/2-x,1/2+y,z
loop_
_atom_site_type_symbol
_atom_site_label
_atom_site_fract_x
_atom_site_fract_y
_atom_site_fract_z
Si Si1 0.725033 0.379830 0.856820
Si Si2 0.277051 0.527998 0.271127
Si Si3 0.279528 0.217459 0.637373
Si Si4 0.797297 0.118712 0.637373
Si Si5 0.280640 0.716392 0.303182
Si Si6 0.222949 0.972002 0.503618
Si Si7 0.725033 0.620170 0.917925
Si Si8 0.780640 0.216392 0.971564
O O1 0.500000 0.377160 0.859155
O O2 0.776142 0.421806 0.777931
O O3 0.791403 0.332817 0.811494
O O4 0.787329 0.390083 0.000898
O O5 0.500000 0.528031 0.276647
O O6 0.209704 0.500000 0.387373
O O7 0.221554 0.508158 0.137373
O O8 0.500000 0.210480 0.637373
O O9 0.186289 0.171010 0.637372
O O10 0.233790 0.272371 0.637373
O O11 0.243067 0.228437 0.470721
O O12 0.712671 0.109917 0.773847
O O13 0.000000 0.098147 0.637373
O O14 0.500000 0.713704 0.295266
O O15 0.243067 0.771564 0.304025
O O16 0.276142 0.921806 0.496814
O O17 0.000000 0.971970 0.498099
O O18 0.500000 0.622839 0.915591
O O19 0.791402 0.667183 0.963252
O O20 0.000000 0.213703 0.979480
#
# Coordination Sequence:
#
# PCOD9350576 Si02
#       8
#     8   8   8   8   8   8   8   8
#     4   9  18  29  44  64  91 128 166 202 246 300
#     4   9  18  30  45  66  95 131 168 206 252 306
#     4  10  20  30  44  67  99 131 169 214 250 289
#     4  10  18  30  48  69  95 131 171 206 248 301
#     4  10  19  31  46  67  96 132 169 205 245 292
#     4   9  18  30  45  66  95 131 168 206 252 306
#     4   9  18  29  44  64  91 128 166 202 246 300
#     4  10  19  31  46  67  96 132 169 205 245 292
#
# _framework density 27.131103
#
# number of rings (size 3 to 8) (size 9 to 14) (size 15 to 20)
#    0.000    2.500    2.500    0.000    3.500    0.000 
#    0.000    0.000    0.000    0.000    0.000    0.000 
#    0.000    4.000    0.000    0.000    0.000    1.000 
#
# Total GULP energy -178587.143075 kJ/mol
# GULP energy per Si atom -5580.848221 kJ/mol
# Density = 2.706935 g / cm^3
# Si number density = 27.131103 Si / 1000 Ang^3
#
#
#
# Elastic Constant Matrix: (Units=GPa)
#
#
# Indices 1 2 3 4 5 6 
#
# 1 121.3699 -5.0714 8.9592 0.0000 0.0000 0.0000
# 2 -5.0714 134.9547 91.8660 0.0000 0.0000 0.0000
# 3 8.9592 91.8660 238.6105 0.0000 0.0000 0.0000
# 4 0.0000 0.0000 0.0000 48.8080 0.0000 0.0000
# 5 0.0000 0.0000 0.0000 0.0000 12.9148 0.0000
# 6 0.0000 0.0000 0.0000 0.0000 0.0000 1.8741
#
#
#
# Elastic Compliance Matrix: (Units=1/GPa)
#
#
# Indices 1 2 3 4 5 6 
#
# 1 0.008312 0.000711 -0.000586 0.000000 0.000000 0.000000
# 2 0.000711 0.010102 -0.003916 0.000000 0.000000 0.000000
# 3 -0.000586 -0.003916 0.005721 0.000000 0.000000 0.000000
# 4 0.000000 0.000000 0.000000 0.020488 0.000000 0.000000
# 5 0.000000 0.000000 0.000000 0.000000 0.077430 0.000000
# 6 0.000000 0.000000 0.000000 0.000000 0.000000 0.533576
#
#
# Mechanical properties :
#
#
# Convention : Reuss Voigt Hill
#
# Bulk Modulus (GPa) = 60.40995 76.27142 68.34069
# Shear Modulus (GPa) = 7.47686 39.33148 23.40417
#
# Velocity S-wave (km/s) = 1.66187 3.81160 2.94025
# Velocity P-wave (km/s) = 5.09869 6.89523 6.06387
#
# Compressibility (1/GPa) = 0.01655356
#
# Stress axis : x y z
#
# Youngs Moduli (GPa) = 120.30445 98.98604 174.80446
#
# Poissons Ratio (x) = -0.07040 0.10242
# Poissons Ratio (y) = -0.08556 0.68457
# Poissons Ratio (z) = 0.07049 0.38765
#
# Static dielectric constant tensor:
#      x y z
#    x 1.981780 0.000000 0.000000 
#    y 0.000000 1.986970 0.000000 
#    z 0.000000 0.000000 2.671480 
# 
# From -- ./inp_files/8091.got.cif
#   From: 2010.05.17/outbox.cif.g08.bks.cpg/sg36_5_cif.got.tgz:8091.got - 2010.06.03 17:41:39.
