data_PCOD9350338
_publ_section_title
;
Structure prediction by ZEFSAII (Michael W. Deem and Ramdas Pophale) SiO2 
 PCOD9350338
Probable space group: C M M 2
;
_chemical_formula_sum "Si O2"
_cell_formula_units_Z 64
_cell_length_a 7.401726
_cell_length_b 28.887874
_cell_length_c 14.650397
_cell_angle_alpha 90.000000
_cell_angle_beta 90.000000
_cell_angle_gamma 90.000000
_cell_volume 3132.549763
_symmetry_space_group_name_H-M "C M M 2"
_symmetry_group_IT_number 35
_symmetry_cell_setting 'orthorhombic'
loop_
_space_group_symop_operation_xyz
x,y,z
-x,-y,z
-x,y,z
x,-y,z
1/2+x,1/2+y,z
1/2-x,1/2-y,z
1/2-x,1/2+y,z
1/2+x,1/2-y,z
loop_
_atom_site_type_symbol
_atom_site_label
_atom_site_fract_x
_atom_site_fract_y
_atom_site_fract_z
Si Si1 0.720052 0.051816 0.531190
Si Si2 0.299983 0.873179 0.180632
Si Si3 0.283533 0.804707 0.028851
Si Si4 0.717296 0.052197 0.843341
Si Si5 0.292599 0.552621 0.043253
Si Si6 0.780978 0.620870 0.682943
Si Si7 0.284146 0.195614 0.823318
Si Si8 0.220331 0.448033 0.318327
O O1 0.500000 0.051657 0.535621
O O2 0.781755 0.096190 0.589718
O O3 0.769308 0.055004 0.424826
O O4 0.775446 0.000000 0.564557
O O5 0.500000 0.856777 0.210027
O O6 0.213565 0.833274 0.116867
O O7 0.315404 0.914574 0.108017
O O8 0.215459 0.902358 0.264217
O O9 0.500000 0.812708 0.028359
O O10 0.250000 0.750000 0.039731
O O11 0.216789 0.817326 0.926020
O O12 0.500000 0.051710 0.847881
O O13 0.766380 0.083004 0.758938
O O14 0.782468 0.000000 0.832281
O O15 0.784106 0.070016 0.939987
O O16 0.500000 0.552742 0.073583
O O17 0.225236 0.500000 0.042567
O O18 0.717735 0.667565 0.734274
O O19 0.000000 0.624762 0.674454
O O20 0.500000 0.187684 0.827000
O O21 0.250000 0.250000 0.812705
O O22 0.275965 0.500000 0.284831
O O23 0.000000 0.447514 0.312159
#
# Coordination Sequence:
#
# PCOD9350338 Si02
#       8
#     8   8   8   8   8   8   8   8
#     4   8  13  22  38  64  95 118 138 172 218 262
#     4  10  18  29  47  67  86 113 150 187 221 260
#     4   9  18  31  46  64  86 112 145 185 225 267
#     4   9  16  26  41  61  85 113 143 174 211 258
#     4  10  20  30  39  58  90 122 148 176 214 261
#     4   9  15  24  41  63  86 112 142 177 216 257
#     4   9  17  29  43  60  83 110 142 179 217 257
#     4   8  14  24  40  65  94 118 141 175 218 259
#
# _framework density 20.430643
#
# number of rings (size 3 to 8) (size 9 to 14) (size 15 to 20)
#    0.000    3.000    0.000    2.625    0.000    5.250 
#    0.000    3.125    0.000    0.750    0.000    1.750 
#    0.000    4.000    0.000    0.000    0.000    0.000 
#
# Total GULP energy -178255.923666 kJ/mol
# GULP energy per Si atom -5570.497615 kJ/mol
# Density = 2.038414 g / cm^3
# Si number density = 20.430643 Si / 1000 Ang^3
#
#
#
# Elastic Constant Matrix: (Units=GPa)
#
#
# Indices 1 2 3 4 5 6 
#
# 1 63.9794 -0.3836 2.8787 0.0000 0.0000 0.0000
# 2 -0.3836 118.1906 66.2213 0.0000 0.0000 0.0000
# 3 2.8787 66.2213 101.3410 0.0000 0.0000 0.0000
# 4 0.0000 0.0000 0.0000 37.2219 0.0000 0.0000
# 5 0.0000 0.0000 0.0000 0.0000 11.0228 0.0000
# 6 0.0000 0.0000 0.0000 0.0000 0.0000 11.9495
#
#
#
# Elastic Compliance Matrix: (Units=1/GPa)
#
#
# Indices 1 2 3 4 5 6 
#
# 1 0.015667 0.000474 -0.000755 0.000000 0.000000 0.000000
# 2 0.000474 0.013362 -0.008745 0.000000 0.000000 0.000000
# 3 -0.000755 -0.008745 0.015604 0.000000 0.000000 0.000000
# 4 0.000000 0.000000 0.000000 0.026866 0.000000 0.000000
# 5 0.000000 0.000000 0.000000 0.000000 0.090721 0.000000
# 6 0.000000 0.000000 0.000000 0.000000 0.000000 0.083685
#
#
# Mechanical properties :
#
#
# Convention : Reuss Voigt Hill
#
# Bulk Modulus (GPa) = 37.62123 46.77154 42.19638
# Shear Modulus (GPa) = 18.32728 26.35848 22.34288
#
# Velocity S-wave (km/s) = 2.99833 3.59575 3.31054
# Velocity P-wave (km/s) = 5.51731 6.33891 5.94233
#
# Compressibility (1/GPa) = 0.02658074
#
# Stress axis : x y z
#
# Youngs Moduli (GPa) = 63.82919 74.83795 64.08804
#
# Poissons Ratio (x) = -0.03544 0.04835
# Poissons Ratio (y) = -0.03023 0.56045
# Poissons Ratio (z) = 0.04816 0.65446
#
# Static dielectric constant tensor:
#      x y z
#    x 1.799780 0.000000 0.000000 
#    y 0.000000 1.740390 0.000000 
#    z 0.000000 0.000000 1.741680 
# 
# From -- ./inp_files/16231.got.cif
#   From: 2010.05.17/outbox.cif.g08.bks.cpg/sg35_9_cif.got.tgz:16231.got - 2010.06.03 17:29:28.
