data_PCOD9350602
_publ_section_title
;
Structure prediction by ZEFSAII (Michael W. Deem and Ramdas Pophale) SiO2 
 PCOD9350602
Probable space group: C M C 21
;
_chemical_formula_sum "Si O2"
_cell_formula_units_Z 64
_cell_length_a 8.342671
_cell_length_b 21.375592
_cell_length_c 18.137425
_cell_angle_alpha 90.000000
_cell_angle_beta 90.000000
_cell_angle_gamma 90.000000
_cell_volume 3234.438503
_symmetry_space_group_name_H-M "C M C 21"
_symmetry_group_IT_number 36
_symmetry_cell_setting 'orthorhombic'
loop_
_space_group_symop_operation_xyz
x,y,z
-x,-y,1/2+z
x,-y,1/2+z
-x,y,z
1/2+x,1/2+y,z
1/2-x,1/2-y,1/2+z
1/2+x,1/2-y,1/2+z
1/2-x,1/2+y,z
loop_
_atom_site_type_symbol
_atom_site_label
_atom_site_fract_x
_atom_site_fract_y
_atom_site_fract_z
Si Si1 0.309104 0.615226 0.237440
Si Si2 0.691016 0.002902 0.139017
Si Si3 0.189244 0.372358 0.200772
Si Si4 0.312581 0.236125 0.894900
Si Si5 0.686346 0.755232 0.732399
Si Si6 0.305950 0.499679 0.978119
Si Si7 0.695313 0.371885 0.908074
Si Si8 0.189301 0.893600 0.364893
O O1 0.500000 0.623020 0.235986
O O2 0.263410 0.552216 0.195988
O O3 0.229389 0.676800 0.201428
O O4 0.256878 0.613921 0.323338
O O5 0.500000 0.003338 0.147961
O O6 0.748597 0.932191 0.155372
O O7 0.738036 0.020065 0.056258
O O8 0.274250 0.306247 0.185354
O O9 0.222006 0.388957 0.286704
O O10 0.000000 0.364367 0.189539
O O11 0.500000 0.227705 0.911598
O O12 0.291427 0.248244 0.806885
O O13 0.252412 0.301592 0.929110
O O14 0.221849 0.171375 0.908006
O O15 0.500000 0.753368 0.753363
O O16 0.500000 0.500265 0.981460
O O17 0.251890 0.429396 0.958197
O O18 0.259010 0.547569 0.913531
O O19 0.500000 0.370673 0.908717
O O20 0.000000 0.898769 0.349601
#
# Coordination Sequence:
#
# PCOD9350602 Si02
#       8
#     8   8   8   8   8   8   8   8
#     4  10  19  35  59  82 107 139 174 217 269 320
#     4  11  24  38  52  76 108 141 181 223 262 311
#     4  10  20  35  55  79 108 141 177 220 268 315
#     4   9  16  29  51  78 107 137 169 213 267 315
#     4  10  18  30  52  82 111 136 171 219 264 314
#     4  10  21  37  54  73 102 140 179 217 261 313
#     4   8  16  32  55  80 101 129 173 214 253 309
#     4  10  19  32  54  82 106 133 174 219 262 315
#
# _framework density 19.787050000000001
#
# number of rings (size 3 to 8) (size 9 to 14) (size 15 to 20)
#    0.000    2.250    0.000    6.000    0.000    4.000 
#    0.000    5.000    0.000    6.000    0.000    0.000 
#    0.000    0.000    0.000    0.000    0.000    0.000 
#
# Total GULP energy -178531.576473 kJ/mol
# GULP energy per Si atom -5579.111765 kJ/mol
# Density = 1.974201 g / cm^3
# Si number density = 19.787050 Si / 1000 Ang^3
#
#
#
# Elastic Constant Matrix: (Units=GPa)
#
#
# Indices 1 2 3 4 5 6 
#
# 1 26.0716 0.6673 -2.4798 0.0000 0.0000 0.0000
# 2 0.6673 73.8882 -8.1569 0.0000 0.0000 0.0000
# 3 -2.4798 -8.1569 16.3903 0.0000 0.0000 0.0000
# 4 0.0000 0.0000 0.0000 2.7172 0.0000 0.0000
# 5 0.0000 0.0000 0.0000 0.0000 5.4418 0.0000
# 6 0.0000 0.0000 0.0000 0.0000 0.0000 29.6215
#
#
#
# Elastic Compliance Matrix: (Units=1/GPa)
#
#
# Indices 1 2 3 4 5 6 
#
# 1 0.038923 0.000316 0.006046 0.000000 0.000000 0.000000
# 2 0.000316 0.014323 0.007176 0.000000 0.000000 0.000000
# 3 0.006046 0.007176 0.065498 0.000000 0.000000 0.000000
# 4 0.000000 0.000000 0.000000 0.368022 0.000000 0.000000
# 5 0.000000 0.000000 0.000000 0.000000 0.183763 0.000000
# 6 0.000000 0.000000 0.000000 0.000000 0.000000 0.033759
#
#
# Mechanical properties :
#
#
# Convention : Reuss Voigt Hill
#
# Bulk Modulus (GPa) = 6.85777 10.71236 8.78506
# Shear Modulus (GPa) = 6.88878 15.97741 11.43310
#
# Velocity S-wave (km/s) = 1.86789 2.84468 2.40637
# Velocity P-wave (km/s) = 2.85050 4.02681 3.48859
#
# Compressibility (1/GPa) = 0.14582008
#
# Stress axis : x y z
#
# Youngs Moduli (GPa) = 25.69186 69.81622 15.26772
#
# Poissons Ratio (x) = -0.02206 -0.09231
# Poissons Ratio (y) = -0.00812 -0.10956
# Poissons Ratio (z) = -0.15534 -0.50100
#
# Static dielectric constant tensor:
#      x y z
#    x 1.676950 0.000000 0.000000 
#    y 0.000000 1.752290 0.000000 
#    z 0.000000 0.000000 1.672410 
# 
# From -- ./inp_files/13811.got.cif
#   From: 2010.05.17/outbox.cif.g08.bks.cpg/sg36_7_cif.got.tgz:13811.got - 2010.06.03 17:41:39.
