data_PCOD9350905
_publ_section_title
;
Structure prediction by ZEFSAII (Michael W. Deem and Ramdas Pophale) SiO2 
 PCOD9350905
Probable space group: C M C 21
;
_chemical_formula_sum "Si O2"
_cell_formula_units_Z 52
_cell_length_a 7.598948
_cell_length_b 36.661857
_cell_length_c 6.877096
_cell_angle_alpha 90.000000
_cell_angle_beta 90.000000
_cell_angle_gamma 90.000000
_cell_volume 1915.900799
_symmetry_space_group_name_H-M "C M C 21"
_symmetry_group_IT_number 36
_symmetry_cell_setting 'orthorhombic'
loop_
_space_group_symop_operation_xyz
x,y,z
-x,-y,1/2+z
x,-y,1/2+z
-x,y,z
1/2+x,1/2+y,z
1/2-x,1/2-y,1/2+z
1/2+x,1/2-y,1/2+z
1/2-x,1/2+y,z
loop_
_atom_site_type_symbol
_atom_site_label
_atom_site_fract_x
_atom_site_fract_y
_atom_site_fract_z
Si Si1 0.289363 0.719028 0.158930
Si Si2 0.710031 0.854735 0.520073
Si Si3 0.694980 0.567004 0.915875
Si Si4 0.500000 0.986077 0.350449
Si Si5 0.197005 0.046031 0.375044
Si Si6 0.785742 0.374477 0.964227
Si Si7 0.699592 0.799569 0.083612
O O1 0.500000 0.720694 0.187533
O O2 0.259508 0.688064 0.993986
O O3 0.193274 0.704920 0.349492
O O4 0.220698 0.760254 0.134194
O O5 0.500000 0.857245 0.508686
O O6 0.782023 0.889471 0.404892
O O7 0.766527 0.864123 0.742304
O O8 0.500000 0.556549 0.855682
O O9 0.847104 0.544395 0.817173
O O10 0.716888 0.556496 0.145810
O O11 0.347233 0.016408 0.408750
O O12 0.218507 0.084511 0.486680
O O13 0.000000 0.031835 0.406902
O O14 0.723823 0.340355 0.096647
O O15 0.000000 0.375158 0.975437
O O16 0.500000 0.800609 0.159426
#
# Coordination Sequence:
#
# PCOD9350905 Si02
#       7
#     8   8   8   4   8   8   8
#     4  10  19  31  51  80 110 143 186 230 278 335
#     4   9  16  30  51  75 103 136 174 218 276 329
#     4  10  20  34  53  78 106 139 181 225 273 331
#     4  12  20  32  52  78 108 136 168 226 288 324
#     4  10  20  33  52  78 105 137 180 225 273 330
#     4   8  14  29  50  71  99 134 172 221 273 325
#     4   9  19  33  51  77 111 145 181 229 282 331
#
# _framework density 27.141278
#
# number of rings (size 3 to 8) (size 9 to 14) (size 15 to 20)
#    0.000    2.462    1.538    2.769    0.000    4.923 
#    0.000    0.000    0.000    3.692    0.000    2.154 
#    0.000    0.000    0.000    0.000    0.000    0.000 
#
# Total GULP energy -144995.587366 kJ/mol
# GULP energy per Si atom -5576.753360 kJ/mol
# Density = 2.707950 g / cm^3
# Si number density = 27.141278 Si / 1000 Ang^3
#
#
#
# Elastic Constant Matrix: (Units=GPa)
#
#
# Indices 1 2 3 4 5 6 
#
# 1 171.2629 86.7024 7.8218 0.0000 0.0000 0.0000
# 2 86.7024 272.5152 51.0561 0.0000 0.0000 0.0000
# 3 7.8218 51.0561 75.2128 0.0000 0.0000 0.0000
# 4 0.0000 0.0000 0.0000 -199.9096 0.0000 0.0000
# 5 0.0000 0.0000 0.0000 0.0000 -28.4922 0.0000
# 6 0.0000 0.0000 0.0000 0.0000 0.0000 29.4856
#
#
#
# Elastic Compliance Matrix: (Units=1/GPa)
#
#
# Indices 1 2 3 4 5 6 
#
# 1 0.007013 -0.002400 0.000900 0.000000 0.000000 0.000000
# 2 -0.002400 0.005025 -0.003162 0.000000 0.000000 0.000000
# 3 0.000900 -0.003162 0.015348 0.000000 0.000000 0.000000
# 4 0.000000 0.000000 0.000000 -0.005002 0.000000 0.000000
# 5 0.000000 0.000000 0.000000 0.000000 -0.035097 0.000000
# 6 0.000000 0.000000 0.000000 0.000000 0.000000 0.033915
#
#
# Mechanical properties :
#
#
# Convention : Reuss Voigt Hill
#
# Bulk Modulus (GPa) = 55.36231 90.01684 72.68957
# Shear Modulus (GPa) = 136.81297 -14.88920 60.96188
#
# Velocity S-wave (km/s) = 7.10754 -2.34472 4.74444
# Velocity P-wave (km/s) = 9.37007 5.08996 7.54009
#
# Compressibility (1/GPa) = 0.01806283
#
# Stress axis : x y z
#
# Youngs Moduli (GPa) = 142.59752 198.99065 65.15375
#
# Poissons Ratio (x) = 0.47752 -0.05862
# Poissons Ratio (y) = 0.34219 0.20600
# Poissons Ratio (z) = -0.12829 0.62916
#
# Static dielectric constant tensor:
#      x y z
#    x 1.954560 0.000000 0.000000 
#    y 0.000000 2.122720 0.000000 
#    z 0.000000 0.000000 2.303700 
# 
# From -- ./inp_files/6994.got.cif
#   From: 2010.05.17/outbox.cif.g08.bks.cpg/sg36_4_cif.got.tgz:6994.got - 2010.06.03 17:41:39.
