data_PCOD9350315
_publ_section_title
;
Structure prediction by ZEFSAII (Michael W. Deem and Ramdas Pophale) SiO2 
 PCOD9350315
Probable space group: C M M 2
;
_chemical_formula_sum "Si O2"
_cell_formula_units_Z 64
_cell_length_a 29.617340
_cell_length_b 8.009827
_cell_length_c 16.243135
_cell_angle_alpha 90.000000
_cell_angle_beta 90.000000
_cell_angle_gamma 90.000000
_cell_volume 3853.355174
_symmetry_space_group_name_H-M "C M M 2"
_symmetry_group_IT_number 35
_symmetry_cell_setting 'orthorhombic'
loop_
_space_group_symop_operation_xyz
x,y,z
-x,-y,z
-x,y,z
x,-y,z
1/2+x,1/2+y,z
1/2-x,1/2-y,z
1/2-x,1/2+y,z
1/2+x,1/2-y,z
loop_
_atom_site_type_symbol
_atom_site_label
_atom_site_fract_x
_atom_site_fract_y
_atom_site_fract_z
Si Si1 0.447510 0.704888 0.078550
Si Si2 0.700187 0.798775 0.490581
Si Si3 0.051944 0.202064 0.399381
Si Si4 0.799742 0.301011 0.301280
Si Si5 0.448462 0.299021 0.720214
Si Si6 0.393004 0.198979 0.561530
Si Si7 0.105743 0.800071 0.238326
Si Si8 0.054889 0.193192 0.898883
O O1 0.500000 0.750668 0.092018
O O2 0.446620 0.500000 0.075953
O O3 0.416983 0.762213 0.154311
O O4 0.432442 0.765811 0.987850
O O5 0.750000 0.750000 0.520091
O O6 0.695341 0.737338 0.395868
O O7 0.657696 0.737235 0.543269
O O8 0.698282 0.000000 0.488189
O O9 0.076536 0.254125 0.482982
O O10 0.079529 0.263427 0.319591
O O11 0.000000 0.258743 0.397332
O O12 0.051661 0.000000 0.397182
O O13 0.801978 0.500000 0.303966
O O14 0.750000 0.250000 0.272076
O O15 0.841629 0.238037 0.248495
O O16 0.500000 0.239911 0.703891
O O17 0.450925 0.500000 0.727785
O O18 0.416000 0.260000 0.644944
O O19 0.432760 0.232888 0.809919
O O20 0.390919 0.000000 0.565982
O O21 0.100147 0.000000 0.238030
O O22 0.000000 0.191023 0.898905
O O23 0.070281 0.000000 0.899274
#
# Coordination Sequence:
#
# PCOD9350315 Si02
#       8
#     8   8   8   8   8   8   8   8
#     4   8  13  23  42  68  95 121 151 187 222 259
#     4   9  19  33  48  64  83 109 145 186 226 267
#     4  10  20  31  42  60  90 126 158 183 208 249
#     4  10  19  33  49  65  87 115 150 190 230 271
#     4   9  17  29  45  66  91 120 155 189 220 260
#     4  11  21  32  44  64  90 118 150 185 226 269
#     4  10  18  28  45  69  93 119 151 186 224 263
#     4   7  11  22  41  64  89 116 148 188 226 256
#
# _framework density 16.608902
#
# number of rings (size 3 to 8) (size 9 to 14) (size 15 to 20)
#    0.000    2.750    1.250    3.000    0.000    5.000 
#    0.000    0.000    0.000    1.875    0.000    2.625 
#    0.000    2.000    0.000    0.000    0.000    0.000 
#
# Total GULP energy -178301.204128 kJ/mol
# GULP energy per Si atom -5571.912629 kJ/mol
# Density = 1.657110 g / cm^3
# Si number density = 16.608902 Si / 1000 Ang^3
#
#
#
# Elastic Constant Matrix: (Units=GPa)
#
#
# Indices 1 2 3 4 5 6 
#
# 1 122.6617 3.2048 85.8386 0.0000 0.0000 0.0000
# 2 3.2048 11.6877 9.1977 0.0000 0.0000 0.0000
# 3 85.8386 9.1977 160.7700 0.0000 0.0000 0.0000
# 4 0.0000 0.0000 0.0000 -1.8850 0.0000 0.0000
# 5 0.0000 0.0000 0.0000 0.0000 7.2993 0.0000
# 6 0.0000 0.0000 0.0000 0.0000 0.0000 18.1896
#
#
#
# Elastic Compliance Matrix: (Units=1/GPa)
#
#
# Indices 1 2 3 4 5 6 
#
# 1 0.013060 0.001996 -0.007087 0.000000 0.000000 0.000000
# 2 0.001996 0.089899 -0.006209 0.000000 0.000000 0.000000
# 3 -0.007087 -0.006209 0.010359 0.000000 0.000000 0.000000
# 4 0.000000 0.000000 0.000000 -0.530511 0.000000 0.000000
# 5 0.000000 0.000000 0.000000 0.000000 0.137000 0.000000
# 6 0.000000 0.000000 0.000000 0.000000 0.000000 0.054976
#
#
# Mechanical properties :
#
#
# Convention : Reuss Voigt Hill
#
# Bulk Modulus (GPa) = 11.02314 54.62238 32.82276
# Shear Modulus (GPa) = -29.00605 17.84601 -5.58002
#
# Velocity S-wave (km/s) = -4.18355 3.28149 -1.83492
# Velocity P-wave (km/s) = 4.08470 6.87869 3.91354
#
# Compressibility (1/GPa) = 0.09071827
#
# Stress axis : x y z
#
# Youngs Moduli (GPa) = 76.56983 11.12361 96.53164
#
# Poissons Ratio (x) = -0.02221 0.68414
# Poissons Ratio (y) = -0.15285 0.59936
# Poissons Ratio (z) = 0.54267 0.06907
#
# Static dielectric constant tensor:
#      x y z
#    x 1.550510 0.000000 0.000000 
#    y 0.000000 1.599160 0.000000 
#    z 0.000000 0.000000 1.584360 
# 
# From -- ./inp_files/16236.got.cif
#   From: 2010.05.17/outbox.cif.g08.bks.cpg/sg35_9_cif.got.tgz:16236.got - 2010.06.03 17:29:28.
