data_PCOD9350347
_publ_section_title
;
Structure prediction by ZEFSAII (Michael W. Deem and Ramdas Pophale) SiO2 
 PCOD9350347
Probable space group: C M M 2
;
_chemical_formula_sum "Si O2"
_cell_formula_units_Z 64
_cell_length_a 30.244429
_cell_length_b 7.574352
_cell_length_c 12.945441
_cell_angle_alpha 90.000000
_cell_angle_beta 90.000000
_cell_angle_gamma 90.000000
_cell_volume 2965.566885
_symmetry_space_group_name_H-M "C M M 2"
_symmetry_group_IT_number 35
_symmetry_cell_setting 'orthorhombic'
loop_
_space_group_symop_operation_xyz
x,y,z
-x,-y,z
-x,y,z
x,-y,z
1/2+x,1/2+y,z
1/2-x,1/2-y,z
1/2-x,1/2+y,z
1/2+x,1/2-y,z
loop_
_atom_site_type_symbol
_atom_site_label
_atom_site_fract_x
_atom_site_fract_y
_atom_site_fract_z
Si Si1 0.420615 0.789032 0.313620
Si Si2 0.952060 0.288030 0.537959
Si Si3 0.360682 0.283532 0.997099
Si Si4 0.951468 0.788305 0.082011
Si Si5 0.197606 0.212250 0.802802
Si Si6 0.675309 0.299251 0.380578
Si Si7 0.146859 0.211420 0.599447
Si Si8 0.203225 0.788738 0.173133
O O1 0.447405 0.736791 0.416781
O O2 0.441265 0.746687 0.202977
O O3 0.373414 0.698086 0.329397
O O4 0.414191 0.000000 0.318587
O O5 0.953143 0.500000 0.540832
O O6 0.906188 0.239105 0.594416
O O7 0.000000 0.223158 0.577152
O O8 0.360542 0.500000 0.995722
O O9 0.331404 0.224460 0.900260
O O10 0.411215 0.224642 0.010338
O O11 0.335784 0.224309 0.100867
O O12 0.000000 0.717662 0.056751
O O13 0.952475 0.000000 0.070894
O O14 0.250000 0.250000 0.807661
O O15 0.173307 0.278006 0.698797
O O16 0.194013 0.000000 0.802733
O O17 0.691338 0.500000 0.396621
O O18 0.668086 0.216782 0.492832
O O19 0.702661 0.211635 0.288679
O O20 0.152288 0.000000 0.596674
O O21 0.250000 0.750000 0.121796
O O22 0.198513 0.000000 0.181782
#
# Coordination Sequence:
#
# PCOD9350347 Si02
#       8
#     8   8   8   8   8   8   8   8
#     4  10  18  29  48  75 108 141 173 214 255 299
#     4   9  18  32  50  75 109 146 178 209 253 310
#     4   9  18  35  54  74 103 135 170 215 259 303
#     4  10  19  32  52  75 101 139 180 211 253 313
#     4  10  21  38  59  80 103 133 175 223 268 313
#     4   9  17  32  50  70 104 142 171 206 255 310
#     4   9  19  34  53  78 105 134 172 220 264 304
#     4  10  19  31  49  71 100 133 166 207 254 308
#
# _framework density 21.581033999999999
#
# number of rings (size 3 to 8) (size 9 to 14) (size 15 to 20)
#    0.000    2.500    1.250    1.125    0.000    3.000 
#    0.000    1.250    0.000    2.250    0.000    0.000 
#    0.000    0.000    0.000    0.000    0.000    0.000 
#
# Total GULP energy -178452.762994 kJ/mol
# GULP energy per Si atom -5576.648844 kJ/mol
# Density = 2.153191 g / cm^3
# Si number density = 21.581034 Si / 1000 Ang^3
#
#
#
# Elastic Constant Matrix: (Units=GPa)
#
#
# Indices 1 2 3 4 5 6 
#
# 1 168.3066 1.0974 90.5585 0.0000 0.0000 0.0000
# 2 1.0974 54.0815 6.2731 0.0000 0.0000 0.0000
# 3 90.5585 6.2731 142.5426 0.0000 0.0000 0.0000
# 4 0.0000 0.0000 0.0000 0.7477 0.0000 0.0000
# 5 0.0000 0.0000 0.0000 0.0000 22.4933 0.0000
# 6 0.0000 0.0000 0.0000 0.0000 0.0000 16.5396
#
#
#
# Elastic Compliance Matrix: (Units=1/GPa)
#
#
# Indices 1 2 3 4 5 6 
#
# 1 0.009040 0.000485 -0.005765 0.000000 0.000000 0.000000
# 2 0.000485 0.018612 -0.001127 0.000000 0.000000 0.000000
# 3 -0.005765 -0.001127 0.010727 0.000000 0.000000 0.000000
# 4 0.000000 0.000000 0.000000 1.337438 0.000000 0.000000
# 5 0.000000 0.000000 0.000000 0.000000 0.044458 0.000000
# 6 0.000000 0.000000 0.000000 0.000000 0.000000 0.060461
#
#
# Mechanical properties :
#
#
# Convention : Reuss Voigt Hill
#
# Bulk Modulus (GPa) = 39.11515 62.30986 50.71251
# Shear Modulus (GPa) = 3.32874 25.75623 14.54249
#
# Velocity S-wave (km/s) = 1.24330 3.45841 2.59869
# Velocity P-wave (km/s) = 4.49724 6.69945 5.70560
#
# Compressibility (1/GPa) = 0.02556554
#
# Stress axis : x y z
#
# Youngs Moduli (GPa) = 110.61895 53.73016 93.21978
#
# Poissons Ratio (x) = -0.02607 0.53737
# Poissons Ratio (y) = -0.05367 0.10509
# Poissons Ratio (z) = 0.63767 0.06057
#
# Static dielectric constant tensor:
#      x y z
#    x 1.824090 0.000000 0.000000 
#    y 0.000000 1.805470 0.000000 
#    z 0.000000 0.000000 1.793660 
# 
# From -- ./inp_files/14542.got.cif
#   From: 2010.05.17/outbox.cif.g08.bks.cpg/sg35_8_cif.got.tgz:14542.got - 2010.06.03 17:29:28.
