data_PCOD9350464
_publ_section_title
;
Structure prediction by ZEFSAII (Michael W. Deem and Ramdas Pophale) SiO2 
 PCOD9350464
Probable space group: C M C 21
;
_chemical_formula_sum "Si O2"
_cell_formula_units_Z 48
_cell_length_a 29.488565
_cell_length_b 5.009635
_cell_length_c 13.731452
_cell_angle_alpha 90.000000
_cell_angle_beta 90.000000
_cell_angle_gamma 90.000000
_cell_volume 2028.505486
_symmetry_space_group_name_H-M "C M C 21"
_symmetry_group_IT_number 36
_symmetry_cell_setting 'orthorhombic'
loop_
_space_group_symop_operation_xyz
x,y,z
-x,-y,1/2+z
x,-y,1/2+z
-x,y,z
1/2+x,1/2+y,z
1/2-x,1/2-y,1/2+z
1/2+x,1/2-y,1/2+z
1/2-x,1/2+y,z
loop_
_atom_site_type_symbol
_atom_site_label
_atom_site_fract_x
_atom_site_fract_y
_atom_site_fract_z
Si Si1 0.404883 0.634130 0.204630
Si Si2 0.000000 0.199864 0.519965
Si Si3 0.351153 0.128208 0.197192
Si Si4 0.909648 0.068496 0.970755
Si Si5 0.000000 0.714722 0.662982
Si Si6 0.779408 0.719230 0.348887
Si Si7 0.358860 0.930901 0.463740
O O1 0.389283 0.339336 0.233583
O O2 0.453396 0.774088 0.223602
O O3 0.366080 0.839184 0.233418
O O4 0.404606 0.603563 0.087242
O O5 0.000000 0.491713 0.574457
O O6 0.043760 0.096238 0.460479
O O7 0.000000 0.005232 0.613357
O O8 0.303066 0.199186 0.243058
O O9 0.351711 0.106346 0.080265
O O10 0.901413 0.372325 0.940310
O O11 0.871386 0.867834 0.931828
O O12 0.736748 0.521297 0.361366
O O13 0.816713 0.592219 0.420829
#
# Coordination Sequence:
#
# PCOD9350464 Si02
#       7
#     8   4   8   8   4   8   8
#     4   9  17  31  54  84 117 154 188 226 275 331
#     4  10  16  26  50  87 122 151 193 230 259 321
#     4  10  21  38  59  83 114 150 188 233 291 350
#     4   9  17  31  54  84 117 154 188 226 275 331
#     4  10  16  26  50  87 122 151 193 230 259 321
#     4  12  26  42  62  85 108 143 192 248 306 358
#     4  10  21  38  59  83 114 150 188 233 291 350
#
# _framework density 23.662742000000001
#
# number of rings (size 3 to 8) (size 9 to 14) (size 15 to 20)
#    0.000    2.000    0.000    7.000    0.000    1.333 
#    0.000    0.000    0.000    6.000    0.000    0.000 
#    0.000    0.000    0.000    0.000    0.000    0.000 
#
# Total GULP energy -133790.675094 kJ/mol
# GULP energy per Si atom -5574.611462 kJ/mol
# Density = 2.360888 g / cm^3
# Si number density = 23.662742 Si / 1000 Ang^3
#
#
#
# Elastic Constant Matrix: (Units=GPa)
#
#
# Indices 1 2 3 4 5 6 
#
# 1 81.5441 17.6118 -2.5199 0.0000 0.0000 0.0000
# 2 17.6118 121.2439 7.4961 0.0000 0.0000 0.0000
# 3 -2.5199 7.4961 49.2954 0.0000 0.0000 0.0000
# 4 0.0000 0.0000 0.0000 12.6064 0.0000 0.0000
# 5 0.0000 0.0000 0.0000 0.0000 123.8567 0.0000
# 6 0.0000 0.0000 0.0000 0.0000 0.0000 43.4911
#
#
#
# Elastic Compliance Matrix: (Units=1/GPa)
#
#
# Indices 1 2 3 4 5 6 
#
# 1 0.012703 -0.001903 0.000939 0.000000 0.000000 0.000000
# 2 -0.001903 0.008611 -0.001407 0.000000 0.000000 0.000000
# 3 0.000939 -0.001407 0.020548 0.000000 0.000000 0.000000
# 4 0.000000 0.000000 0.000000 0.079325 0.000000 0.000000
# 5 0.000000 0.000000 0.000000 0.000000 0.008074 0.000000
# 6 0.000000 0.000000 0.000000 0.000000 0.000000 0.022993
#
#
# Mechanical properties :
#
#
# Convention : Reuss Voigt Hill
#
# Bulk Modulus (GPa) = 26.93975 33.02883 29.98429
# Shear Modulus (GPa) = 29.52117 51.29053 40.40585
#
# Velocity S-wave (km/s) = 3.53594 4.66076 4.13676
# Velocity P-wave (km/s) = 5.29907 6.55378 5.95954
#
# Compressibility (1/GPa) = 0.03711988
#
# Stress axis : x y z
#
# Youngs Moduli (GPa) = 78.71914 116.12661 48.66704
#
# Poissons Ratio (x) = 0.22103 -0.04569
# Poissons Ratio (y) = 0.14983 0.06846
# Poissons Ratio (z) = -0.07390 0.16336
#
# Static dielectric constant tensor:
#      x y z
#    x 1.918540 0.000000 0.000000 
#    y 0.000000 1.832140 0.000000 
#    z 0.000000 0.000000 1.971430 
# 
# From -- ./inp_files/13063.got.cif
#   From: 2010.05.17/outbox.cif.g08.bks.cpg/sg36_7_cif.got.tgz:13063.got - 2010.06.03 17:41:39.
