data_PCOD9350912
_publ_section_title
;
Structure prediction by ZEFSAII (Michael W. Deem and Ramdas Pophale) SiO2 
 PCOD9350912
Probable space group: C M C 21
;
_chemical_formula_sum "Si O2"
_cell_formula_units_Z 64
_cell_length_a 7.571064
_cell_length_b 21.856267
_cell_length_c 14.572518
_cell_angle_alpha 90.000000
_cell_angle_beta 90.000000
_cell_angle_gamma 90.000000
_cell_volume 2411.390276
_symmetry_space_group_name_H-M "C M C 21"
_symmetry_group_IT_number 36
_symmetry_cell_setting 'orthorhombic'
loop_
_space_group_symop_operation_xyz
x,y,z
-x,-y,1/2+z
x,-y,1/2+z
-x,y,z
1/2+x,1/2+y,z
1/2-x,1/2-y,1/2+z
1/2+x,1/2-y,1/2+z
1/2-x,1/2+y,z
loop_
_atom_site_type_symbol
_atom_site_label
_atom_site_fract_x
_atom_site_fract_y
_atom_site_fract_z
Si Si1 0.787640 0.402211 0.669920
Si Si2 0.294232 0.033635 0.345002
Si Si3 0.711995 0.399316 0.329712
Si Si4 0.705696 0.224960 0.723192
Si Si5 0.294037 0.148624 0.568898
Si Si6 0.791195 0.173309 0.002193
Si Si7 0.298180 0.293301 0.891513
Si Si8 0.717386 0.017929 0.551364
O O1 0.721253 0.416667 0.772807
O O2 0.742802 0.343455 0.607968
O O3 0.723494 0.459641 0.608443
O O4 0.000000 0.404434 0.674243
O O5 0.500000 0.048170 0.357552
O O6 0.217840 0.022899 0.446242
O O7 0.282401 0.965473 0.301552
O O8 0.500000 0.399383 0.322371
O O9 0.783995 0.341070 0.274482
O O10 0.760022 0.383672 0.436131
O O11 0.500000 0.242756 0.713522
O O12 0.784826 0.205251 0.625688
O O13 0.785819 0.273819 0.794362
O O14 0.500000 0.148889 0.592630
O O15 0.285510 0.158188 0.459880
O O16 0.222534 0.082457 0.594133
O O17 0.705689 0.231203 0.952630
O O18 0.000000 0.183954 0.993054
O O19 0.500000 0.310873 0.878272
O O20 0.500000 0.016561 0.550800
#
# Coordination Sequence:
#
# PCOD9350912 Si02
#       8
#     8   8   8   8   8   8   8   8
#     4  10  19  33  55  81 109 145 187 224 269 333
#     4  10  19  32  52  78 111 149 186 221 271 336
#     4  10  19  31  52  81 111 142 183 230 274 320
#     4   9  19  36  59  82 108 146 192 232 278 336
#     4  10  20  38  60  82 112 151 190 231 282 337
#     4  10  20  35  55  79 108 142 181 228 279 327
#     4  10  21  38  59  83 109 143 187 236 282 331
#     4   9  18  33  54  80 110 146 184 224 271 328
#
# _framework density 26.540706
#
# number of rings (size 3 to 8) (size 9 to 14) (size 15 to 20)
#    0.000    2.250    1.250    1.875    0.000    4.500 
#    2.250    1.250    0.000    0.000    0.000    0.000 
#    0.000    0.000    0.000    0.000    0.000    0.000 
#
# Total GULP energy -178930.394482 kJ/mol
# GULP energy per Si atom -5591.574828 kJ/mol
# Density = 2.648030 g / cm^3
# Si number density = 26.540706 Si / 1000 Ang^3
#
#
#
# Elastic Constant Matrix: (Units=GPa)
#
#
# Indices 1 2 3 4 5 6 
#
# 1 79.6010 -0.6804 10.4896 0.0000 0.0000 0.0000
# 2 -0.6804 96.1030 8.2516 0.0000 0.0000 0.0000
# 3 10.4896 8.2516 140.8448 0.0000 0.0000 0.0000
# 4 0.0000 0.0000 0.0000 48.2864 0.0000 0.0000
# 5 0.0000 0.0000 0.0000 0.0000 14.9717 0.0000
# 6 0.0000 0.0000 0.0000 0.0000 0.0000 4.7307
#
#
#
# Elastic Compliance Matrix: (Units=1/GPa)
#
#
# Indices 1 2 3 4 5 6 
#
# 1 0.012690 0.000172 -0.000955 0.000000 0.000000 0.000000
# 2 0.000172 0.010460 -0.000626 0.000000 0.000000 0.000000
# 3 -0.000955 -0.000626 0.007208 0.000000 0.000000 0.000000
# 4 0.000000 0.000000 0.000000 0.020710 0.000000 0.000000
# 5 0.000000 0.000000 0.000000 0.000000 0.066793 0.000000
# 6 0.000000 0.000000 0.000000 0.000000 0.000000 0.211384
#
#
# Mechanical properties :
#
#
# Convention : Reuss Voigt Hill
#
# Bulk Modulus (GPa) = 36.31040 39.18561 37.74801
# Shear Modulus (GPa) = 14.65233 33.49696 24.07465
#
# Velocity S-wave (km/s) = 2.35217 3.55646 3.01505
# Velocity P-wave (km/s) = 4.59213 5.62680 5.13559
#
# Compressibility (1/GPa) = 0.02754032
#
# Stress axis : x y z
#
# Youngs Moduli (GPa) = 78.80221 95.59833 138.73844
#
# Poissons Ratio (x) = -0.01643 0.13252
# Poissons Ratio (y) = -0.01354 0.08680
# Poissons Ratio (z) = 0.07527 0.05981
#
# Static dielectric constant tensor:
#      x y z
#    x 1.951670 0.000000 0.000000 
#    y 0.000000 2.106470 0.000000 
#    z 0.000000 0.000000 2.166920 
# 
# From -- ./inp_files/10866.got.cif
#   From: 2010.05.17/outbox.cif.g08.bks.cpg/sg36_6_cif.got.tgz:10866.got - 2010.06.03 17:41:39.
