data_PCOD9350737
_publ_section_title
;
Structure prediction by ZEFSAII (Michael W. Deem and Ramdas Pophale) SiO2 
 PCOD9350737
Probable space group: C M C 21
;
_chemical_formula_sum "Si O2"
_cell_formula_units_Z 48
_cell_length_a 10.421438
_cell_length_b 26.427662
_cell_length_c 7.486267
_cell_angle_alpha 90.000000
_cell_angle_beta 90.000000
_cell_angle_gamma 90.000000
_cell_volume 2061.824544
_symmetry_space_group_name_H-M "C M C 21"
_symmetry_group_IT_number 36
_symmetry_cell_setting 'orthorhombic'
loop_
_space_group_symop_operation_xyz
x,y,z
-x,-y,1/2+z
x,-y,1/2+z
-x,y,z
1/2+x,1/2+y,z
1/2-x,1/2-y,1/2+z
1/2+x,1/2-y,1/2+z
1/2-x,1/2+y,z
loop_
_atom_site_type_symbol
_atom_site_label
_atom_site_fract_x
_atom_site_fract_y
_atom_site_fract_z
Si Si1 0.240765 0.366568 0.236530
Si Si2 0.148972 0.722112 0.512341
Si Si3 0.500000 0.413583 0.335913
Si Si4 0.231242 0.920962 0.847798
Si Si5 0.147699 0.182313 0.227461
Si Si6 0.500000 0.960773 0.899264
Si Si7 0.500000 0.074215 0.813431
Si Si8 0.500000 0.516679 0.478355
O O1 0.194374 0.310551 0.184468
O O2 0.376544 0.377996 0.325025
O O3 0.254345 0.393953 0.041955
O O4 0.127531 0.393672 0.344300
O O5 0.154393 0.781371 0.556903
O O6 0.246987 0.705865 0.360156
O O7 0.000000 0.708496 0.473079
O O8 0.500000 0.456094 0.489529
O O9 0.500000 0.450508 0.160305
O O10 0.127963 0.965080 0.875245
O O11 0.181770 0.876695 0.719542
O O12 0.370642 0.942439 0.803533
O O13 0.000000 0.185914 0.295560
O O14 0.500000 0.020969 0.910368
O O15 0.500000 0.938976 0.100460
#
# Coordination Sequence:
#
# PCOD9350737 Si02
#       8
#     8   8   4   8   8   4   4   4
#     4   9  18  33  54  76 102 140 178 214 260 323
#     4  10  21  38  59  84 111 143 184 229 274 328
#     4  10  20  32  53  76 104 136 179 218 263 318
#     4   9  18  33  54  76 102 140 178 214 260 323
#     4  10  21  38  59  84 111 143 184 229 274 328
#     4  10  20  32  53  76 104 136 179 218 263 318
#     4  10  18  34  51  76 102 138 175 216 261 314
#     4  10  18  34  51  76 102 138 175 216 261 314
#
# _framework density 23.280353000000002
#
# number of rings (size 3 to 8) (size 9 to 14) (size 15 to 20)
#    0.000    2.333    1.667    1.000    7.000    0.667 
#    0.000    3.333    0.000    0.000    0.000    0.000 
#    0.000    0.000    0.000    0.000    0.000    0.000 
#
# Total GULP energy -134178.026649 kJ/mol
# GULP energy per Si atom -5590.751110 kJ/mol
# Density = 2.322737 g / cm^3
# Si number density = 23.280353 Si / 1000 Ang^3
#
#
#
# Elastic Constant Matrix: (Units=GPa)
#
#
# Indices 1 2 3 4 5 6 
#
# 1 197.1796 45.2166 43.0997 0.0000 0.0000 0.0000
# 2 45.2166 101.8595 14.8556 0.0000 0.0000 0.0000
# 3 43.0997 14.8556 53.9732 0.0000 0.0000 0.0000
# 4 0.0000 0.0000 0.0000 25.1079 0.0000 0.0000
# 5 0.0000 0.0000 0.0000 0.0000 9.6746 0.0000
# 6 0.0000 0.0000 0.0000 0.0000 0.0000 37.2626
#
#
#
# Elastic Compliance Matrix: (Units=1/GPa)
#
#
# Indices 1 2 3 4 5 6 
#
# 1 0.006606 -0.002253 -0.004655 0.000000 0.000000 0.000000
# 2 -0.002253 0.010997 -0.001227 0.000000 0.000000 0.000000
# 3 -0.004655 -0.001227 0.022582 0.000000 0.000000 0.000000
# 4 0.000000 0.000000 0.000000 0.039828 0.000000 0.000000
# 5 0.000000 0.000000 0.000000 0.000000 0.103364 0.000000
# 6 0.000000 0.000000 0.000000 0.000000 0.000000 0.026837
#
#
# Mechanical properties :
#
#
# Convention : Reuss Voigt Hill
#
# Bulk Modulus (GPa) = 41.81638 62.15069 51.98353
# Shear Modulus (GPa) = 21.32601 31.06504 26.19553
#
# Velocity S-wave (km/s) = 3.02992 3.65689 3.35807
# Velocity P-wave (km/s) = 5.49924 6.67720 6.11664
#
# Compressibility (1/GPa) = 0.02391408
#
# Stress axis : x y z
#
# Youngs Moduli (GPa) = 151.38440 90.93568 44.28225
#
# Poissons Ratio (x) = 0.20492 0.20612
# Poissons Ratio (y) = 0.34114 0.05435
# Poissons Ratio (z) = 0.70464 0.11160
#
# Static dielectric constant tensor:
#      x y z
#    x 1.829560 0.000000 0.000000 
#    y 0.000000 1.853890 0.000000 
#    z 0.000000 0.000000 1.929740 
# 
# From -- ./inp_files/6789.got.cif
#   From: 2010.05.17/outbox.cif.g08.bks.cpg/sg36_4_cif.got.tgz:6789.got - 2010.06.03 17:41:39.
