data_PCOD9350295
_publ_section_title
;
Structure prediction by ZEFSAII (Michael W. Deem and Ramdas Pophale) SiO2 
 PCOD9350295
Probable space group: C M M 2
;
_chemical_formula_sum "Si O2"
_cell_formula_units_Z 64
_cell_length_a 18.001729
_cell_length_b 17.916290
_cell_length_c 11.435857
_cell_angle_alpha 90.000000
_cell_angle_beta 90.000000
_cell_angle_gamma 90.000000
_cell_volume 3688.340599
_symmetry_space_group_name_H-M "C M M 2"
_symmetry_group_IT_number 35
_symmetry_cell_setting 'orthorhombic'
loop_
_space_group_symop_operation_xyz
x,y,z
-x,-y,z
-x,y,z
x,-y,z
1/2+x,1/2+y,z
1/2-x,1/2-y,z
1/2-x,1/2+y,z
1/2+x,1/2-y,z
loop_
_atom_site_type_symbol
_atom_site_label
_atom_site_fract_x
_atom_site_fract_y
_atom_site_fract_z
Si Si1 0.088860 0.239861 0.030220
Si Si2 0.844943 0.313648 0.248950
Si Si3 0.670946 0.088338 0.664097
Si Si4 0.819841 0.848542 0.336452
Si Si5 0.196460 0.179045 0.599724
Si Si6 0.412048 0.773184 0.759746
Si Si7 0.417913 0.087851 0.430659
Si Si8 0.588467 0.418155 0.142881
O O1 0.135237 0.294687 0.115273
O O2 0.107294 0.154332 0.065321
O O3 0.000000 0.250902 0.051318
O O4 0.103509 0.252413 0.894195
O O5 0.852396 0.233887 0.312834
O O6 0.762657 0.343950 0.279459
O O7 0.900838 0.368970 0.312552
O O8 0.754234 0.120131 0.672071
O O9 0.619309 0.143552 0.738320
O O10 0.642850 0.102316 0.530581
O O11 0.664379 0.000000 0.687846
O O12 0.821212 0.858132 0.475250
O O13 0.868109 0.906601 0.263840
O O14 0.250000 0.250000 0.572960
O O15 0.129819 0.215645 0.673033
O O16 0.500000 0.770801 0.739969
O O17 0.500000 0.108028 0.476072
O O18 0.416564 0.000000 0.408118
O O19 0.500000 0.415282 0.162712
O O20 0.606197 0.500000 0.092602
#
# Coordination Sequence:
#
# PCOD9350295 Si02
#       8
#     8   8   8   8   8   8   8   8
#     4   9  19  36  57  78 103 143 184 223 267 311
#     4  10  17  32  50  76 111 135 172 222 264 319
#     4  10  20  35  54  79 112 146 180 227 283 332
#     4  10  18  30  52  79 105 135 176 214 273 324
#     4  10  18  35  54  78 110 148 183 226 268 322
#     4  10  21  37  58  82 107 145 195 233 268 317
#     4  10  19  30  50  79 107 141 179 217 273 336
#     4   9  19  35  54  78 106 136 175 223 275 330
#
# _framework density 17.351976000000001
#
# number of rings (size 3 to 8) (size 9 to 14) (size 15 to 20)
#    0.000    2.250    2.500    1.500    0.000    2.750 
#   13.500    1.250    0.000    1.875    0.000    0.000 
#    0.000    0.000    0.000    0.000    0.000    0.000 
#
# Total GULP energy -178304.840138 kJ/mol
# GULP energy per Si atom -5572.026254 kJ/mol
# Density = 1.731248 g / cm^3
# Si number density = 17.351976 Si / 1000 Ang^3
#
#
#
# Elastic Constant Matrix: (Units=GPa)
#
#
# Indices 1 2 3 4 5 6 
#
# 1 58.2127 45.9604 47.6903 0.0000 0.0000 0.0000
# 2 45.9604 84.6874 46.3684 0.0000 0.0000 0.0000
# 3 47.6903 46.3684 99.5213 0.0000 0.0000 0.0000
# 4 0.0000 0.0000 0.0000 18.5458 0.0000 0.0000
# 5 0.0000 0.0000 0.0000 0.0000 23.7494 0.0000
# 6 0.0000 0.0000 0.0000 0.0000 0.0000 19.2828
#
#
#
# Elastic Compliance Matrix: (Units=1/GPa)
#
#
# Indices 1 2 3 4 5 6 
#
# 1 0.037843 -0.014242 -0.011499 0.000000 0.000000 0.000000
# 2 -0.014242 0.021212 -0.003058 0.000000 0.000000 0.000000
# 3 -0.011499 -0.003058 0.016983 0.000000 0.000000 0.000000
# 4 0.000000 0.000000 0.000000 0.053921 0.000000 0.000000
# 5 0.000000 0.000000 0.000000 0.000000 0.042106 0.000000
# 6 0.000000 0.000000 0.000000 0.000000 0.000000 0.051860
#
#
# Mechanical properties :
#
#
# Convention : Reuss Voigt Hill
#
# Bulk Modulus (GPa) = 54.22923 58.05108 56.14015
# Shear Modulus (GPa) = 17.38113 19.14242 18.26177
#
# Velocity S-wave (km/s) = 3.16837 3.32502 3.24764
# Velocity P-wave (km/s) = 6.68618 6.94757 6.81813
#
# Compressibility (1/GPa) = 0.01844024
#
# Stress axis : x y z
#
# Youngs Moduli (GPa) = 26.42508 47.14385 58.88188
#
# Poissons Ratio (x) = 0.67141 0.67707
# Poissons Ratio (y) = 0.37634 0.18008
# Poissons Ratio (z) = 0.30386 0.14418
#
# Static dielectric constant tensor:
#      x y z
#    x 1.626010 0.000000 0.000000 
#    y 0.000000 1.586630 0.000000 
#    z 0.000000 0.000000 1.582620 
# 
# From -- ./inp_files/13659.got.cif
#   From: 2010.05.17/outbox.cif.g08.bks.cpg/sg35_7_cif.got.tgz:13659.got - 2010.06.03 17:29:28.
