data_PCOD9350982
_publ_section_title
;
Structure prediction by ZEFSAII (Michael W. Deem and Ramdas Pophale) SiO2 
 PCOD9350982
Probable space group: C M C 21
;
_chemical_formula_sum "Si O2"
_cell_formula_units_Z 64
_cell_length_a 7.612754
_cell_length_b 21.874439
_cell_length_c 14.365519
_cell_angle_alpha 90.000000
_cell_angle_beta 90.000000
_cell_angle_gamma 90.000000
_cell_volume 2392.214072
_symmetry_space_group_name_H-M "C M C 21"
_symmetry_group_IT_number 36
_symmetry_cell_setting 'orthorhombic'
loop_
_space_group_symop_operation_xyz
x,y,z
-x,-y,1/2+z
x,-y,1/2+z
-x,y,z
1/2+x,1/2+y,z
1/2-x,1/2-y,1/2+z
1/2+x,1/2-y,1/2+z
1/2-x,1/2+y,z
loop_
_atom_site_type_symbol
_atom_site_label
_atom_site_fract_x
_atom_site_fract_y
_atom_site_fract_z
Si Si1 0.799156 0.952744 0.253600
Si Si2 0.287067 0.354182 0.698690
Si Si3 0.706459 0.474563 0.591939
Si Si4 0.286045 0.779274 0.207383
Si Si5 0.705974 0.147916 0.537723
Si Si6 0.785637 0.730098 0.923958
Si Si7 0.800637 0.399993 0.435008
Si Si8 0.293334 0.071027 0.371181
O O1 0.718911 0.969989 0.153127
O O2 0.793424 0.017654 0.309790
O O3 0.000000 0.021342 0.110922
O O4 0.704020 0.907489 0.323723
O O5 0.500000 0.354431 0.700613
O O6 0.226630 0.410790 0.635902
O O7 0.230480 0.287068 0.667648
O O8 0.222997 0.370604 0.802294
O O9 0.500000 0.432709 0.248594
O O10 0.726127 0.460453 0.483755
O O11 0.500000 0.782429 0.205043
O O12 0.234839 0.773928 0.315106
O O13 0.221426 0.833247 0.139350
O O14 0.500000 0.134342 0.546648
O O15 0.721191 0.211138 0.478990
O O16 0.780880 0.094694 0.470445
O O17 0.717937 0.664612 0.962130
O O18 0.000000 0.731205 0.926782
O O19 0.000000 0.398717 0.463799
O O20 0.500000 0.054822 0.381620
#
# Coordination Sequence:
#
# PCOD9350982 Si02
#       8
#     8   8   8   8   8   8   8   8
#     4  10  22  41  63  82 109 150 196 241 284 343
#     4   9  16  30  55  79 105 147 192 228 269 330
#     4   9  19  36  60  87 109 146 197 239 285 340
#     4   9  17  32  53  77 111 153 188 218 271 343
#     4  10  20  34  55  83 114 149 188 230 279 338
#     4  10  21  37  57  82 117 155 189 229 281 341
#     4  11  23  38  58  88 119 151 189 239 298 344
#     4  10  19  32  53  82 112 137 179 238 289 331
#
# _framework density 26.75346
#
# number of rings (size 3 to 8) (size 9 to 14) (size 15 to 20)
#    0.000    2.250    1.250    2.625    0.000    5.000 
#    2.250    1.250    0.000    0.000    0.000    0.000 
#    0.000    0.000    0.000    0.000    0.000    0.000 
#
# Total GULP energy -178932.378966 kJ/mol
# GULP energy per Si atom -5591.636843 kJ/mol
# Density = 2.669257 g / cm^3
# Si number density = 26.753460 Si / 1000 Ang^3
#
#
#
# Elastic Constant Matrix: (Units=GPa)
#
#
# Indices 1 2 3 4 5 6 
#
# 1 87.0625 6.8388 4.6838 0.0000 0.0000 0.0000
# 2 6.8388 111.6681 9.7505 0.0000 0.0000 0.0000
# 3 4.6838 9.7505 142.0904 0.0000 0.0000 0.0000
# 4 0.0000 0.0000 0.0000 53.6486 0.0000 0.0000
# 5 0.0000 0.0000 0.0000 0.0000 25.0701 0.0000
# 6 0.0000 0.0000 0.0000 0.0000 0.0000 20.3708
#
#
#
# Elastic Compliance Matrix: (Units=1/GPa)
#
#
# Indices 1 2 3 4 5 6 
#
# 1 0.011557 -0.000679 -0.000334 0.000000 0.000000 0.000000
# 2 -0.000679 0.009049 -0.000599 0.000000 0.000000 0.000000
# 3 -0.000334 -0.000599 0.007090 0.000000 0.000000 0.000000
# 4 0.000000 0.000000 0.000000 0.018640 0.000000 0.000000
# 5 0.000000 0.000000 0.000000 0.000000 0.039888 0.000000
# 6 0.000000 0.000000 0.000000 0.000000 0.000000 0.049090
#
#
# Mechanical properties :
#
#
# Convention : Reuss Voigt Hill
#
# Bulk Modulus (GPa) = 40.86146 42.59635 41.72890
# Shear Modulus (GPa) = 34.08442 41.12112 37.60277
#
# Velocity S-wave (km/s) = 3.57321 3.92476 3.75311
# Velocity P-wave (km/s) = 5.68597 6.04109 5.86622
#
# Compressibility (1/GPa) = 0.02447294
#
# Stress axis : x y z
#
# Youngs Moduli (GPa) = 86.52545 110.51029 141.04623
#
# Poissons Ratio (x) = 0.07499 0.04717
# Poissons Ratio (y) = 0.05872 0.08443
# Poissons Ratio (z) = 0.02893 0.06615
#
# Static dielectric constant tensor:
#      x y z
#    x 1.946000 0.000000 0.000000 
#    y 0.000000 2.142080 0.000000 
#    z 0.000000 0.000000 2.193180 
# 
# From -- ./inp_files/11048.got.cif
#   From: 2010.05.17/outbox.cif.g08.bks.cpg/sg36_6_cif.got.tgz:11048.got - 2010.06.03 17:41:39.
