data_PCOD9350560
_publ_section_title
;
Structure prediction by ZEFSAII (Michael W. Deem and Ramdas Pophale) SiO2 
 PCOD9350560
Probable space group: C M C 21
;
_chemical_formula_sum "Si O2"
_cell_formula_units_Z 64
_cell_length_a 7.791163
_cell_length_b 21.586204
_cell_length_c 18.970096
_cell_angle_alpha 90.000000
_cell_angle_beta 90.000000
_cell_angle_gamma 90.000000
_cell_volume 3190.421741
_symmetry_space_group_name_H-M "C M C 21"
_symmetry_group_IT_number 36
_symmetry_cell_setting 'orthorhombic'
loop_
_space_group_symop_operation_xyz
x,y,z
-x,-y,1/2+z
x,-y,1/2+z
-x,y,z
1/2+x,1/2+y,z
1/2-x,1/2-y,1/2+z
1/2+x,1/2-y,1/2+z
1/2-x,1/2+y,z
loop_
_atom_site_type_symbol
_atom_site_label
_atom_site_fract_x
_atom_site_fract_y
_atom_site_fract_z
Si Si1 0.789098 0.859361 0.838560
Si Si2 0.706202 0.249413 0.938630
Si Si3 0.294578 0.747303 0.596939
Si Si4 0.207409 0.873883 0.358523
Si Si5 0.801097 0.496637 0.200750
Si Si6 0.795002 0.128797 0.176533
Si Si7 0.695588 0.507368 0.359209
Si Si8 0.293152 0.637800 0.697106
O O1 0.730481 0.800955 0.883572
O O2 0.734541 0.857038 0.756816
O O3 0.000000 0.860625 0.838167
O O4 0.728515 0.924750 0.871624
O O5 0.500000 0.255626 0.940773
O O6 0.746186 0.181515 0.909659
O O7 0.773140 0.258922 0.017605
O O8 0.500000 0.738983 0.593949
O O9 0.261639 0.815689 0.626735
O O10 0.227518 0.694584 0.650198
O O11 0.273922 0.941761 0.381652
O O12 0.267988 0.859598 0.278531
O O13 0.000000 0.878546 0.355400
O O14 0.766846 0.559493 0.158119
O O15 0.694767 0.502253 0.273536
O O16 0.755450 0.430227 0.168234
O O17 0.000000 0.495633 0.220870
O O18 0.000000 0.127447 0.177240
O O19 0.500000 0.509221 0.385650
O O20 0.500000 0.641161 0.699021
#
# Coordination Sequence:
#
# PCOD9350560 Si02
#       8
#     8   8   8   8   8   8   8   8
#     4   8  15  30  52  74  94 122 161 202 243 290
#     4  10  20  33  49  71 101 132 162 202 250 298
#     4  10  21  35  50  71 102 137 170 208 252 297
#     4   9  17  30  50  73  97 127 163 206 248 291
#     4  10  18  29  50  79 105 127 161 209 258 303
#     4  10  19  33  54  76 100 132 170 209 250 300
#     4   8  15  30  50  72  99 129 165 207 248 292
#     4   9  18  34  53  74 102 134 170 209 251 299
#
# _framework density 20.060044000000001
#
# number of rings (size 3 to 8) (size 9 to 14) (size 15 to 20)
#    0.000    2.750    0.000    3.750    0.000    3.000 
#    0.000    3.750    0.000    3.000    0.000    0.000 
#    0.000    0.000    0.000    0.000    0.000    0.000 
#
# Total GULP energy -178398.330273 kJ/mol
# GULP energy per Si atom -5574.947821 kJ/mol
# Density = 2.001439 g / cm^3
# Si number density = 20.060044 Si / 1000 Ang^3
#
#
#
# Elastic Constant Matrix: (Units=GPa)
#
#
# Indices 1 2 3 4 5 6 
#
# 1 31.8699 -16.6558 -0.9448 0.0000 0.0000 0.0000
# 2 -16.6558 67.5006 -3.1132 0.0000 0.0000 0.0000
# 3 -0.9448 -3.1132 31.9758 0.0000 0.0000 0.0000
# 4 0.0000 0.0000 0.0000 -3.7678 0.0000 0.0000
# 5 0.0000 0.0000 0.0000 0.0000 10.8710 0.0000
# 6 0.0000 0.0000 0.0000 0.0000 0.0000 25.5248
#
#
#
# Elastic Compliance Matrix: (Units=1/GPa)
#
#
# Indices 1 2 3 4 5 6 
#
# 1 0.036143 0.009008 0.001945 0.000000 0.000000 0.000000
# 2 0.009008 0.017127 0.001934 0.000000 0.000000 0.000000
# 3 0.001945 0.001934 0.031519 0.000000 0.000000 0.000000
# 4 0.000000 0.000000 0.000000 -0.265409 0.000000 0.000000
# 5 0.000000 0.000000 0.000000 0.000000 0.091988 0.000000
# 6 0.000000 0.000000 0.000000 0.000000 0.000000 0.039178
#
#
# Mechanical properties :
#
#
# Convention : Reuss Voigt Hill
#
# Bulk Modulus (GPa) = 9.04468 9.99095 9.51782
# Shear Modulus (GPa) = -130.29642 16.66295 -56.81674
#
# Velocity S-wave (km/s) = -8.06810 2.88523 -5.32774
# Velocity P-wave (km/s) = 9.07048 4.01133 5.75252
#
# Compressibility (1/GPa) = 0.11056223
#
# Stress axis : x y z
#
# Youngs Moduli (GPa) = 27.66790 58.38869 31.72648
#
# Poissons Ratio (x) = -0.52597 -0.06171
# Poissons Ratio (y) = -0.24923 -0.06135
# Poissons Ratio (z) = -0.05381 -0.11290
#
# Static dielectric constant tensor:
#      x y z
#    x 1.747500 0.000000 0.000000 
#    y 0.000000 1.741430 0.000000 
#    z 0.000000 0.000000 1.680960 
# 
# From -- ./inp_files/15824.got.cif
#   From: 2010.05.17/outbox.cif.g08.bks.cpg/sg36_8_cif.got.tgz:15824.got - 2010.06.03 17:41:39.
