data_PCOD9350340
_publ_section_title
;
Structure prediction by ZEFSAII (Michael W. Deem and Ramdas Pophale) SiO2 
 PCOD9350340
Probable space group: C M M 2
;
_chemical_formula_sum "Si O2"
_cell_formula_units_Z 64
_cell_length_a 8.874843
_cell_length_b 29.302674
_cell_length_c 16.007872
_cell_angle_alpha 90.000000
_cell_angle_beta 90.000000
_cell_angle_gamma 90.000000
_cell_volume 4162.953265
_symmetry_space_group_name_H-M "C M M 2"
_symmetry_group_IT_number 35
_symmetry_cell_setting 'orthorhombic'
loop_
_space_group_symop_operation_xyz
x,y,z
-x,-y,z
-x,y,z
x,-y,z
1/2+x,1/2+y,z
1/2-x,1/2-y,z
1/2-x,1/2+y,z
1/2+x,1/2-y,z
loop_
_atom_site_type_symbol
_atom_site_label
_atom_site_fract_x
_atom_site_fract_y
_atom_site_fract_z
Si Si1 0.816636 0.447718 0.265470
Si Si2 0.326386 0.555388 0.765470
Si Si3 0.680119 0.298818 0.167170
Si Si4 0.181483 0.553094 0.591126
Si Si5 0.817578 0.390108 0.428305
Si Si6 0.680119 0.701182 0.363770
Si Si7 0.318517 0.053094 0.939814
Si Si8 0.682422 0.109892 0.102635
O O1 0.764301 0.500000 0.265470
O O2 0.770954 0.420775 0.348642
O O3 0.770954 0.420775 0.182298
O O4 0.000000 0.448762 0.265470
O O5 0.500000 0.569354 0.765470
O O6 0.319835 0.500000 0.765470
O O7 0.246780 0.569405 0.679557
O O8 0.246781 0.569405 0.851384
O O9 0.500000 0.297288 0.159958
O O10 0.750000 0.250000 0.143828
O O11 0.718396 0.306709 0.265470
O O12 0.747645 0.340385 0.114802
O O13 0.226889 0.500000 0.577403
O O14 0.227426 0.584277 0.513240
O O15 0.000000 0.553567 0.595767
O O16 0.747645 0.340385 0.416138
O O17 0.000000 0.386735 0.427126
O O18 0.500000 0.702712 0.370982
O O19 0.750000 0.750000 0.387112
O O20 0.500000 0.053567 0.935173
O O21 0.273111 0.000000 0.953537
O O22 0.272574 0.084277 0.017700
O O23 0.500000 0.113265 0.103814
#
# Coordination Sequence:
#
# PCOD9350340 Si02
#       8
#     8   8   8   8   8   8   8   8
#     4   9  16  26  42  65  94 127 160 189 218 263
#     4   9  17  29  45  65  90 123 160 199 241 277
#     4  10  20  33  49  67  90 120 157 199 241 280
#     4   9  17  29  46  69  96 126 160 196 232 274
#     4  10  18  29  47  70  95 124 158 194 233 275
#     4  10  20  33  49  67  90 120 157 199 241 280
#     4   9  17  29  46  69  96 126 160 196 232 274
#     4  10  18  29  47  70  95 124 158 194 233 275
#
# _framework density 15.373701000000001
#
# number of rings (size 3 to 8) (size 9 to 14) (size 15 to 20)
#    0.000    2.500    1.250    1.875    0.000    6.500 
#    0.000    0.000    0.000    3.000    0.000    0.875 
#    0.000    0.000    0.000    0.000    0.000    0.000 
#
# Total GULP energy -178413.746114 kJ/mol
# GULP energy per Si atom -5575.429566 kJ/mol
# Density = 1.533871 g / cm^3
# Si number density = 15.373701 Si / 1000 Ang^3
#
#
#
# Elastic Constant Matrix: (Units=GPa)
#
#
# Indices 1 2 3 4 5 6 
#
# 1 22.7966 33.8799 39.7088 0.0000 0.0000 0.0000
# 2 33.8799 121.5362 80.3076 0.0000 0.0000 0.0000
# 3 39.7088 80.3076 148.1999 0.0000 0.0000 0.0000
# 4 0.0000 0.0000 0.0000 9.9520 0.0000 0.0000
# 5 0.0000 0.0000 0.0000 0.0000 12.9395 0.0000
# 6 0.0000 0.0000 0.0000 0.0000 0.0000 21.9006
#
#
#
# Elastic Compliance Matrix: (Units=1/GPa)
#
#
# Indices 1 2 3 4 5 6 
#
# 1 0.098056 -0.015537 -0.017854 0.000000 0.000000 0.000000
# 2 -0.015537 0.015279 -0.004117 0.000000 0.000000 0.000000
# 3 -0.017854 -0.004117 0.013762 0.000000 0.000000 0.000000
# 4 0.000000 0.000000 0.000000 0.100483 0.000000 0.000000
# 5 0.000000 0.000000 0.000000 0.000000 0.077283 0.000000
# 6 0.000000 0.000000 0.000000 0.000000 0.000000 0.045661
#
#
# Mechanical properties :
#
#
# Convention : Reuss Voigt Hill
#
# Bulk Modulus (GPa) = 19.20036 66.70280 42.95158
# Shear Modulus (GPa) = 11.28923 18.20085 14.74504
#
# Velocity S-wave (km/s) = 2.71278 3.44451 3.10031
# Velocity P-wave (km/s) = 4.72529 7.70074 6.38865
#
# Compressibility (1/GPa) = 0.05208235
#
# Stress axis : x y z
#
# Youngs Moduli (GPa) = 10.19824 65.44766 72.66302
#
# Poissons Ratio (x) = 1.01688 1.29731
# Poissons Ratio (y) = 0.15845 0.29913
# Poissons Ratio (z) = 0.18208 0.26942
#
# Static dielectric constant tensor:
#      x y z
#    x 1.516600 0.000000 0.000000 
#    y 0.000000 1.490470 0.000000 
#    z 0.000000 0.000000 1.500720 
# 
# From -- ./inp_files/16144.got.cif
#   From: 2010.05.17/outbox.cif.g08.bks.cpg/sg35_9_cif.got.tgz:16144.got - 2010.06.03 17:29:28.
