data_PCOD9350394
_publ_section_title
;
Structure prediction by ZEFSAII (Michael W. Deem and Ramdas Pophale) SiO2 
 PCOD9350394
Probable space group: C M M 2
;
_chemical_formula_sum "Si O2"
_cell_formula_units_Z 48
_cell_length_a 14.958701
_cell_length_b 10.549644
_cell_length_c 14.544308
_cell_angle_alpha 90.000000
_cell_angle_beta 90.000000
_cell_angle_gamma 90.000000
_cell_volume 2295.222269
_symmetry_space_group_name_H-M "C M M 2"
_symmetry_group_IT_number 35
_symmetry_cell_setting 'orthorhombic'
loop_
_space_group_symop_operation_xyz
x,y,z
-x,-y,z
-x,y,z
x,-y,z
1/2+x,1/2+y,z
1/2-x,1/2-y,z
1/2-x,1/2+y,z
1/2+x,1/2-y,z
loop_
_atom_site_type_symbol
_atom_site_label
_atom_site_fract_x
_atom_site_fract_y
_atom_site_fract_z
Si Si1 0.140283 0.238987 0.848130
Si Si2 0.892190 0.000000 0.169086
Si Si3 0.607287 0.000000 0.153717
Si Si4 0.138543 0.500000 0.934961
Si Si5 0.391212 0.239569 0.268883
Si Si6 0.331306 0.650793 0.654516
Si Si7 0.393492 0.358522 0.448371
Si Si8 0.848451 0.000000 0.959067
O O1 0.250000 0.250000 0.849071
O O2 0.106209 0.373299 0.884429
O O3 0.115801 0.195403 0.745300
O O4 0.111978 0.128078 0.917285
O O5 0.867568 0.872459 0.221908
O O6 0.852718 0.000000 0.067838
O O7 0.000000 0.000000 0.160778
O O8 0.642502 0.876431 0.207435
O O9 0.500000 0.000000 0.163747
O O10 0.622175 0.000000 0.044391
O O11 0.245799 0.500000 0.927212
O O12 0.500000 0.229691 0.268342
O O13 0.361503 0.253905 0.375093
O O14 0.308030 0.500000 0.666490
O O15 0.250000 0.750000 0.650410
O O16 0.377251 0.664381 0.555630
O O17 0.500000 0.365209 0.435056
O O18 0.357132 0.500000 0.427158
#
# Coordination Sequence:
#
# PCOD9350394 Si02
#       8
#     8   4   4   4   8   8   8   4
#     4   9  18  32  52  73  97 134 171 202 248 308
#     4  10  18  30  51  74  96 128 171 212 247 296
#     4  10  20  34  51  74 104 136 169 208 255 308
#     4  10  20  34  51  72 100 136 169 206 253 300
#     4   9  17  32  53  74  98 135 173 202 249 311
#     4  10  20  35  56  81 106 137 174 216 263 312
#     4   9  17  34  58  80 103 136 177 218 259 308
#     4  10  18  32  49  72  98 126 169 212 245 296
#
# _framework density 20.913007
#
# number of rings (size 3 to 8) (size 9 to 14) (size 15 to 20)
#    0.000    2.500    1.667    1.000    3.500    0.000 
#    1.500    3.333    0.000    0.000    0.000    0.000 
#    0.000    0.000    0.000    0.000    0.000    0.000 
#
# Total GULP energy -133843.313682 kJ/mol
# GULP energy per Si atom -5576.804737 kJ/mol
# Density = 2.086541 g / cm^3
# Si number density = 20.913007 Si / 1000 Ang^3
#
#
#
# Elastic Constant Matrix: (Units=GPa)
#
#
# Indices 1 2 3 4 5 6 
#
# 1 38.5159 8.2770 -10.7526 0.0000 0.0000 0.0000
# 2 8.2770 181.2436 88.0194 0.0000 0.0000 0.0000
# 3 -10.7526 88.0194 156.4435 0.0000 0.0000 0.0000
# 4 0.0000 0.0000 0.0000 32.0167 0.0000 0.0000
# 5 0.0000 0.0000 0.0000 0.0000 25.1605 0.0000
# 6 0.0000 0.0000 0.0000 0.0000 0.0000 -0.0573
#
#
#
# Elastic Compliance Matrix: (Units=1/GPa)
#
#
# Indices 1 2 3 4 5 6 
#
# 1 0.027610 -0.003003 0.003587 0.000000 0.000000 0.000000
# 2 -0.003003 0.007918 -0.004662 0.000000 0.000000 0.000000
# 3 0.003587 -0.004662 0.009261 0.000000 0.000000 0.000000
# 4 0.000000 0.000000 0.000000 0.031234 0.000000 0.000000
# 5 0.000000 0.000000 0.000000 0.000000 0.039745 0.000000
# 6 0.000000 0.000000 0.000000 0.000000 0.000000-17.456436
#
#
# Mechanical properties :
#
#
# Convention : Reuss Voigt Hill
#
# Bulk Modulus (GPa) = 27.29608 60.81008 44.05308
# Shear Modulus (GPa) = -0.28868 30.80125 15.25629
#
# Velocity S-wave (km/s) = -0.37194 3.84191 2.70388
# Velocity P-wave (km/s) = 3.59111 6.98721 5.55505
#
# Compressibility (1/GPa) = 0.03663530
#
# Stress axis : x y z
#
# Youngs Moduli (GPa) = 36.21864 126.28805 107.97575
#
# Poissons Ratio (x) = 0.37925 -0.38734
# Poissons Ratio (y) = 0.10877 0.50333
# Poissons Ratio (z) = -0.12993 0.58869
#
# Static dielectric constant tensor:
#      x y z
#    x 1.785360 0.000000 0.000000 
#    y 0.000000 1.774280 0.000000 
#    z 0.000000 0.000000 1.747700 
# 
# From -- ./inp_files/15293.got.cif
#   From: 2010.05.17/outbox.cif.g08.bks.cpg/sg35_8_cif.got.tgz:15293.got - 2010.06.03 17:29:28.
