data_PCOD9350683
_publ_section_title
;
Structure prediction by ZEFSAII (Michael W. Deem and Ramdas Pophale) SiO2 
 PCOD9350683
Probable space group: C M C 21
;
_chemical_formula_sum "Si O2"
_cell_formula_units_Z 64
_cell_length_a 7.730639
_cell_length_b 21.993766
_cell_length_c 14.586355
_cell_angle_alpha 90.000000
_cell_angle_beta 90.000000
_cell_angle_gamma 90.000000
_cell_volume 2480.057629
_symmetry_space_group_name_H-M "C M C 21"
_symmetry_group_IT_number 36
_symmetry_cell_setting 'orthorhombic'
loop_
_space_group_symop_operation_xyz
x,y,z
-x,-y,1/2+z
x,-y,1/2+z
-x,y,z
1/2+x,1/2+y,z
1/2-x,1/2-y,1/2+z
1/2+x,1/2-y,1/2+z
1/2-x,1/2+y,z
loop_
_atom_site_type_symbol
_atom_site_label
_atom_site_fract_x
_atom_site_fract_y
_atom_site_fract_z
Si Si1 0.704141 0.403649 0.872590
Si Si2 0.290744 0.654282 0.757950
Si Si3 0.200661 0.727635 0.365430
Si Si4 0.698551 0.712369 0.574598
Si Si5 0.794584 0.842830 0.590622
Si Si6 0.800972 0.038661 0.540841
Si Si7 0.212154 0.964452 0.701418
Si Si8 0.202697 0.422757 0.424265
O O1 0.500000 0.415491 0.880770
O O2 0.721060 0.336304 0.834388
O O3 0.778475 0.410895 0.974577
O O4 0.777954 0.453473 0.803269
O O5 0.500000 0.655037 0.754496
O O6 0.225496 0.712781 0.816448
O O7 0.233820 0.666164 0.652759
O O8 0.245405 0.595798 0.819844
O O9 0.216386 0.724402 0.475929
O O10 0.000000 0.726575 0.342418
O O11 0.500000 0.695946 0.553995
O O12 0.705130 0.780184 0.617846
O O13 0.745274 0.901405 0.650121
O O14 0.751595 0.864445 0.487244
O O15 0.000000 0.833961 0.598120
O O16 0.721217 0.017787 0.636415
O O17 0.798417 0.978764 0.474545
O O18 0.000000 0.054445 0.561960
O O19 0.000000 0.968541 0.703684
O O20 0.000000 0.434400 0.433192
#
# Coordination Sequence:
#
# PCOD9350683 Si02
#       8
#     8   8   8   8   8   8   8   8
#     4  10  20  37  60  84 113 152 199 242 286 348
#     4  10  22  39  58  83 118 157 194 235 292 351
#     4  11  23  39  59  84 121 159 188 236 299 349
#     4  11  22  36  56  85 116 152 197 236 283 353
#     4  10  18  32  55  81 114 149 186 237 292 338
#     4   9  19  37  59  82 113 150 190 242 298 342
#     4   8  16  32  56  84 109 144 194 239 284 341
#     4  11  21  34  57  83 110 145 192 241 286 342
#
# _framework density 25.805852000000002
#
# number of rings (size 3 to 8) (size 9 to 14) (size 15 to 20)
#    0.000    2.000    1.250    3.750    0.000    2.000 
#    2.250    2.500    0.000    0.000    0.000    0.000 
#    0.000    0.000    0.000    0.000    0.000    0.000 
#
# Total GULP energy -178914.360564 kJ/mol
# GULP energy per Si atom -5591.073768 kJ/mol
# Density = 2.574712 g / cm^3
# Si number density = 25.805852 Si / 1000 Ang^3
#
#
#
# Elastic Constant Matrix: (Units=GPa)
#
#
# Indices 1 2 3 4 5 6 
#
# 1 61.0875 3.0629 -2.3206 0.0000 0.0000 0.0000
# 2 3.0629 92.5323 14.6320 0.0000 0.0000 0.0000
# 3 -2.3206 14.6320 141.5491 0.0000 0.0000 0.0000
# 4 0.0000 0.0000 0.0000 44.4109 0.0000 0.0000
# 5 0.0000 0.0000 0.0000 0.0000 8.0788 0.0000
# 6 0.0000 0.0000 0.0000 0.0000 0.0000 7.0309
#
#
#
# Elastic Compliance Matrix: (Units=1/GPa)
#
#
# Indices 1 2 3 4 5 6 
#
# 1 0.016412 -0.000596 0.000331 0.000000 0.000000 0.000000
# 2 -0.000596 0.011008 -0.001148 0.000000 0.000000 0.000000
# 3 0.000331 -0.001148 0.007189 0.000000 0.000000 0.000000
# 4 0.000000 0.000000 0.000000 0.022517 0.000000 0.000000
# 5 0.000000 0.000000 0.000000 0.000000 0.123781 0.000000
# 6 0.000000 0.000000 0.000000 0.000000 0.000000 0.142229
#
#
# Mechanical properties :
#
#
# Convention : Reuss Voigt Hill
#
# Bulk Modulus (GPa) = 31.46223 36.21305 33.83764
# Shear Modulus (GPa) = 14.85636 30.55709 22.70672
#
# Velocity S-wave (km/s) = 2.40197 3.44483 2.96954
# Velocity P-wave (km/s) = 4.46217 5.46679 4.98983
#
# Compressibility (1/GPa) = 0.03178414
#
# Stress axis : x y z
#
# Youngs Moduli (GPa) = 60.92962 90.84110 139.10638
#
# Poissons Ratio (x) = 0.05410 -0.04599
# Poissons Ratio (y) = 0.03629 0.15965
# Poissons Ratio (z) = -0.02015 0.10426
#
# Static dielectric constant tensor:
#      x y z
#    x 1.929380 0.000000 0.000000 
#    y 0.000000 2.079780 0.000000 
#    z 0.000000 0.000000 2.130310 
# 
# From -- ./inp_files/11045.got.cif
#   From: 2010.05.17/outbox.cif.g08.bks.cpg/sg36_6_cif.got.tgz:11045.got - 2010.06.03 17:41:39.
