data_PCOD9350226
_publ_section_title
;
Structure prediction by ZEFSAII (Michael W. Deem and Ramdas Pophale) SiO2 
 PCOD9350226
Probable space group: C M M 2
;
_chemical_formula_sum "Si O2"
_cell_formula_units_Z 56
_cell_length_a 22.566526
_cell_length_b 8.482004
_cell_length_c 14.895443
_cell_angle_alpha 90.000000
_cell_angle_beta 90.000000
_cell_angle_gamma 90.000000
_cell_volume 2851.127268
_symmetry_space_group_name_H-M "C M M 2"
_symmetry_group_IT_number 35
_symmetry_cell_setting 'orthorhombic'
loop_
_space_group_symop_operation_xyz
x,y,z
-x,-y,z
-x,y,z
x,-y,z
1/2+x,1/2+y,z
1/2-x,1/2-y,z
1/2-x,1/2+y,z
1/2+x,1/2-y,z
loop_
_atom_site_type_symbol
_atom_site_label
_atom_site_fract_x
_atom_site_fract_y
_atom_site_fract_z
Si Si1 0.314365 0.688285 0.819120
Si Si2 0.814176 0.809786 0.463670
Si Si3 0.386136 0.691625 0.301409
Si Si4 0.500000 0.690140 0.420976
Si Si5 0.069064 0.185430 0.115317
Si Si6 0.932525 0.686632 0.916685
Si Si7 0.500000 0.814341 0.624281
Si Si8 0.125046 0.810365 0.642688
O O1 0.311764 0.500000 0.822037
O O2 0.250000 0.750000 0.850012
O O3 0.374270 0.740122 0.870708
O O4 0.327206 0.741118 0.716379
O O5 0.750000 0.750000 0.487772
O O6 0.832389 0.755207 0.364203
O O7 0.858294 0.756325 0.542526
O O8 0.815678 0.000000 0.463206
O O9 0.385417 0.500000 0.295522
O O10 0.443248 0.732316 0.361453
O O11 0.392858 0.746553 0.199416
O O12 0.500000 0.500000 0.433938
O O13 0.500000 0.764003 0.519407
O O14 0.000000 0.191339 0.144359
O O15 0.082585 0.000000 0.098029
O O16 0.074297 0.278553 0.022964
O O17 0.931825 0.500000 0.899633
O O18 0.000000 0.744811 0.892549
O O19 0.440107 0.748088 0.666947
O O20 0.500000 0.000000 0.631989
O O21 0.123944 0.000000 0.641866
#
# Coordination Sequence:
#
# PCOD9350226 Si02
#       8
#     8   8   8   4   8   8   4   8
#     4  11  24  42  66  92 117 153 199 247 299 360
#     4  10  20  35  54  76 108 150 193 234 279 333
#     4   9  16  29  55  82 107 145 189 233 279 332
#     4  10  16  32  56  77 108 147 188 227 274 338
#     4   9  16  30  56  87 112 143 192 242 288 346
#     4  10  22  40  61  88 124 160 193 243 305 358
#     4  12  24  34  52  87 122 151 188 241 294 336
#     4  10  22  40  61  82 112 154 194 233 285 351
#
# _framework density 19.641354
#
# number of rings (size 3 to 8) (size 9 to 14) (size 15 to 20)
#    0.000    2.000    2.143    1.929    1.000    2.571 
#    0.000    2.143    0.000    1.714    0.000    0.000 
#    0.000    0.000    0.000    0.000    0.000    0.000 
#
# Total GULP energy -156182.322498 kJ/mol
# GULP energy per Si atom -5577.940089 kJ/mol
# Density = 1.959665 g / cm^3
# Si number density = 19.641354 Si / 1000 Ang^3
#
#
#
# Elastic Constant Matrix: (Units=GPa)
#
#
# Indices 1 2 3 4 5 6 
#
# 1 125.9991 19.6956 41.5626 0.0000 0.0000 0.0000
# 2 19.6956 12.0450 14.8334 0.0000 0.0000 0.0000
# 3 41.5626 14.8334 76.7739 0.0000 0.0000 0.0000
# 4 0.0000 0.0000 0.0000 7.6341 0.0000 0.0000
# 5 0.0000 0.0000 0.0000 0.0000 23.4474 0.0000
# 6 0.0000 0.0000 0.0000 0.0000 0.0000 25.6347
#
#
#
# Elastic Compliance Matrix: (Units=1/GPa)
#
#
# Indices 1 2 3 4 5 6 
#
# 1 0.011277 -0.014332 -0.003336 0.000000 0.000000 0.000000
# 2 -0.014332 0.127157 -0.016809 0.000000 0.000000 0.000000
# 3 -0.003336 -0.016809 0.018079 0.000000 0.000000 0.000000
# 4 0.000000 0.000000 0.000000 0.130992 0.000000 0.000000
# 5 0.000000 0.000000 0.000000 0.000000 0.042649 0.000000
# 6 0.000000 0.000000 0.000000 0.000000 0.000000 0.039010
#
#
# Mechanical properties :
#
#
# Convention : Reuss Voigt Hill
#
# Bulk Modulus (GPa) = 11.42082 40.77791 26.09936
# Shear Modulus (GPa) = 10.69966 20.59166 15.64566
#
# Velocity S-wave (km/s) = 2.33652 3.24139 2.82541
# Velocity P-wave (km/s) = 3.62028 5.90043 4.89497
#
# Compressibility (1/GPa) = 0.08755942
#
# Stress axis : x y z
#
# Youngs Moduli (GPa) = 88.67363 7.86428 55.31294
#
# Poissons Ratio (x) = 0.11271 0.18453
# Poissons Ratio (y) = 1.27086 0.92976
# Poissons Ratio (z) = 0.29582 0.13219
#
# Static dielectric constant tensor:
#      x y z
#    x 1.681120 0.000000 0.000000 
#    y 0.000000 1.678820 0.000000 
#    z 0.000000 0.000000 1.703640 
# 
# From -- ./inp_files/17500.got.cif
#   From: 2010.05.17/outbox.cif.g08.bks.cpg/sg35_9_cif.got.tgz:17500.got - 2010.06.03 17:29:28.
