data_PCOD9350673
_publ_section_title
;
Structure prediction by ZEFSAII (Michael W. Deem and Ramdas Pophale) SiO2 
 PCOD9350673
Probable space group: C M C 21
;
_chemical_formula_sum "Si O2"
_cell_formula_units_Z 64
_cell_length_a 7.438366
_cell_length_b 30.563421
_cell_length_c 12.591852
_cell_angle_alpha 90.000000
_cell_angle_beta 90.000000
_cell_angle_gamma 90.000000
_cell_volume 2862.655704
_symmetry_space_group_name_H-M "C M C 21"
_symmetry_group_IT_number 36
_symmetry_cell_setting 'orthorhombic'
loop_
_space_group_symop_operation_xyz
x,y,z
-x,-y,1/2+z
x,-y,1/2+z
-x,y,z
1/2+x,1/2+y,z
1/2-x,1/2-y,1/2+z
1/2+x,1/2-y,1/2+z
1/2-x,1/2+y,z
loop_
_atom_site_type_symbol
_atom_site_label
_atom_site_fract_x
_atom_site_fract_y
_atom_site_fract_z
Si Si1 0.285891 0.067460 0.613250
Si Si2 0.207952 0.522136 0.190760
Si Si3 0.279110 0.086307 0.376553
Si Si4 0.215568 0.174636 0.113156
Si Si5 0.701820 0.815463 0.847862
Si Si6 0.718835 0.720779 0.896099
Si Si7 0.783660 0.916098 0.505978
Si Si8 0.715378 0.368733 0.295038
O O1 0.500000 0.061304 0.605729
O O2 0.222006 0.069228 0.492085
O O3 0.255948 0.111338 0.680728
O O4 0.211148 0.026147 0.679099
O O5 0.283385 0.555557 0.279097
O O6 0.215161 0.542853 0.072457
O O7 0.000000 0.516922 0.221761
O O8 0.500000 0.087648 0.371619
O O9 0.216967 0.136726 0.368222
O O10 0.306155 0.187657 0.221105
O O11 0.264258 0.125638 0.078641
O O12 0.000000 0.175831 0.127625
O O13 0.260496 0.204980 0.014316
O O14 0.500000 0.816646 0.894630
O O15 0.788491 0.769723 0.881161
O O16 0.500000 0.722710 0.884759
O O17 0.779848 0.680632 0.820334
O O18 0.720445 0.902265 0.388151
O O19 0.000000 0.919883 0.502294
O O20 0.500000 0.367127 0.307095
#
# Coordination Sequence:
#
# PCOD9350673 Si02
#       8
#     8   8   8   8   8   8   8   8
#     4  10  22  36  54  79 110 144 178 218 268 321
#     4  10  20  34  55  79 105 138 176 220 264 314
#     4   9  19  35  51  77 110 137 172 218 267 316
#     4   9  17  32  51  74 103 134 173 218 265 309
#     4  10  18  32  55  77 103 139 178 216 262 317
#     4   8  17  33  53  75 102 143 178 211 264 319
#     4   9  18  33  54  76 102 135 174 223 266 311
#     4   9  19  37  55  75 107 140 177 220 266 315
#
# _framework density 22.356862
#
# number of rings (size 3 to 8) (size 9 to 14) (size 15 to 20)
#    0.000    2.750    1.250    1.500    1.750    2.000 
#    0.000    5.625    0.000    0.000    0.000    0.000 
#    0.000    0.000    0.000    0.000    0.000    0.000 
#
# Total GULP energy -178514.979163 kJ/mol
# GULP energy per Si atom -5578.593099 kJ/mol
# Density = 2.230598 g / cm^3
# Si number density = 22.356862 Si / 1000 Ang^3
#
#
#
# Elastic Constant Matrix: (Units=GPa)
#
#
# Indices 1 2 3 4 5 6 
#
# 1 64.3061 8.9128 0.6033 0.0000 0.0000 0.0000
# 2 8.9128 151.8736 55.2853 0.0000 0.0000 0.0000
# 3 0.6033 55.2853 75.4009 0.0000 0.0000 0.0000
# 4 0.0000 0.0000 0.0000 15.8378 0.0000 0.0000
# 5 0.0000 0.0000 0.0000 0.0000 9.1519 0.0000
# 6 0.0000 0.0000 0.0000 0.0000 0.0000 -0.4645
#
#
#
# Elastic Compliance Matrix: (Units=1/GPa)
#
#
# Indices 1 2 3 4 5 6 
#
# 1 0.015709 -0.001195 0.000751 0.000000 0.000000 0.000000
# 2 -0.001195 0.009073 -0.006643 0.000000 0.000000 0.000000
# 3 0.000751 -0.006643 0.018127 0.000000 0.000000 0.000000
# 4 0.000000 0.000000 0.000000 0.063140 0.000000 0.000000
# 5 0.000000 0.000000 0.000000 0.000000 0.109267 0.000000
# 6 0.000000 0.000000 0.000000 0.000000 0.000000 -2.153050
#
#
# Mechanical properties :
#
#
# Convention : Reuss Voigt Hill
#
# Bulk Modulus (GPa) = 34.80148 46.79817 40.79983
# Shear Modulus (GPa) = -2.61236 20.02365 8.70565
#
# Velocity S-wave (km/s) = -1.08214 2.99597 1.97545
# Velocity P-wave (km/s) = 3.74684 5.73982 4.84687
#
# Compressibility (1/GPa) = 0.02873441
#
# Stress axis : x y z
#
# Youngs Moduli (GPa) = 63.65687 110.22152 55.16645
#
# Poissons Ratio (x) = 0.13173 -0.04141
# Poissons Ratio (y) = 0.07608 0.36645
# Poissons Ratio (z) = -0.04778 0.73216
#
# Static dielectric constant tensor:
#      x y z
#    x 1.858240 0.000000 0.000000 
#    y 0.000000 1.849140 0.000000 
#    z 0.000000 0.000000 1.785970 
# 
# From -- ./inp_files/7187.got.cif
#   From: 2010.05.17/outbox.cif.g08.bks.cpg/sg36_4_cif.got.tgz:7187.got - 2010.06.03 17:41:39.
