data_PCOD9350693
_publ_section_title
;
Structure prediction by ZEFSAII (Michael W. Deem and Ramdas Pophale) SiO2 
 PCOD9350693
Probable space group: C M C 21
;
_chemical_formula_sum "Si O2"
_cell_formula_units_Z 64
_cell_length_a 7.377464
_cell_length_b 14.775350
_cell_length_c 22.080806
_cell_angle_alpha 90.000000
_cell_angle_beta 90.000000
_cell_angle_gamma 90.000000
_cell_volume 2406.909706
_symmetry_space_group_name_H-M "C M C 21"
_symmetry_group_IT_number 36
_symmetry_cell_setting 'orthorhombic'
loop_
_space_group_symop_operation_xyz
x,y,z
-x,-y,1/2+z
x,-y,1/2+z
-x,y,z
1/2+x,1/2+y,z
1/2-x,1/2-y,1/2+z
1/2+x,1/2-y,1/2+z
1/2-x,1/2+y,z
loop_
_atom_site_type_symbol
_atom_site_label
_atom_site_fract_x
_atom_site_fract_y
_atom_site_fract_z
Si Si1 0.222609 0.610784 0.625000
Si Si2 0.207139 0.067553 0.272699
Si Si3 0.705934 0.724547 0.191940
Si Si4 0.220748 0.105636 0.829495
Si Si5 0.279720 0.204974 0.368523
Si Si6 0.714183 0.469477 0.459844
Si Si7 0.284309 0.908817 0.591524
Si Si8 0.203224 0.669421 0.496261
O O1 0.284819 0.676175 0.679207
O O2 0.275405 0.505496 0.620936
O O3 0.287335 0.657220 0.562168
O O4 0.000000 0.611771 0.624405
O O5 0.295687 0.146106 0.232520
O O6 0.207588 0.113579 0.338978
O O7 0.000000 0.056934 0.251438
O O8 0.288641 0.968467 0.281622
O O9 0.500000 0.737075 0.213341
O O10 0.700384 0.674072 0.127169
O O11 0.273091 0.210160 0.826695
O O12 0.000000 0.102557 0.827049
O O13 0.274437 0.074137 0.897061
O O14 0.500000 0.200592 0.370234
O O15 0.215794 0.217949 0.437559
O O16 0.500000 0.486337 0.454956
O O17 0.743118 0.410649 0.520305
O O18 0.806258 0.565151 0.473526
O O19 0.500000 0.903617 0.598361
O O20 0.000000 0.705808 0.504359
#
# Coordination Sequence:
#
# PCOD9350693 Si02
#       8
#     8   8   8   8   8   8   8   8
#     4   8  17  34  54  77 107 143 179 220 274 332
#     4  10  21  39  56  79 114 146 185 234 273 318
#     4  10  21  37  60  81 105 149 194 226 269 332
#     4   9  19  34  54  80 111 147 179 219 275 332
#     4  10  20  34  55  80 105 144 185 218 271 334
#     4  10  18  32  57  81 111 147 181 218 274 337
#     4  10  21  37  55  80 114 143 179 232 279 324
#     4   9  17  31  53  78 109 139 176 225 271 323
#
# _framework density 26.590112000000001
#
# number of rings (size 3 to 8) (size 9 to 14) (size 15 to 20)
#    0.000    2.500    1.250    1.500    1.750    1.500 
#    0.000    5.000    0.000    0.000    0.000    0.000 
#    0.000    0.000    0.000    0.000    0.000    0.000 
#
# Total GULP energy -178953.419916 kJ/mol
# GULP energy per Si atom -5592.294372 kJ/mol
# Density = 2.652959 g / cm^3
# Si number density = 26.590112 Si / 1000 Ang^3
#
#
#
# Elastic Constant Matrix: (Units=GPa)
#
#
# Indices 1 2 3 4 5 6 
#
# 1 121.6115 2.3358 7.6149 0.0000 0.0000 0.0000
# 2 2.3358 128.1722 42.1073 0.0000 0.0000 0.0000
# 3 7.6149 42.1073 64.2289 0.0000 0.0000 0.0000
# 4 0.0000 0.0000 0.0000 62.7568 0.0000 0.0000
# 5 0.0000 0.0000 0.0000 0.0000 13.0367 0.0000
# 6 0.0000 0.0000 0.0000 0.0000 0.0000 0.9925
#
#
#
# Elastic Compliance Matrix: (Units=1/GPa)
#
#
# Indices 1 2 3 4 5 6 
#
# 1 0.008289 0.000219 -0.001126 0.000000 0.000000 0.000000
# 2 0.000219 0.009949 -0.006549 0.000000 0.000000 0.000000
# 3 -0.001126 -0.006549 0.019996 0.000000 0.000000 0.000000
# 4 0.000000 0.000000 0.000000 0.015935 0.000000 0.000000
# 5 0.000000 0.000000 0.000000 0.000000 0.076706 0.000000
# 6 0.000000 0.000000 0.000000 0.000000 0.000000 1.007552
#
#
# Mechanical properties :
#
#
# Convention : Reuss Voigt Hill
#
# Bulk Modulus (GPa) = 42.87666 46.45873 44.66770
# Shear Modulus (GPa) = 4.30621 32.82085 18.56353
#
# Velocity S-wave (km/s) = 1.27397 3.51711 2.64509
# Velocity P-wave (km/s) = 4.28066 5.83125 5.11505
#
# Compressibility (1/GPa) = 0.02332271
#
# Stress axis : x y z
#
# Youngs Moduli (GPa) = 120.63857 100.50902 50.01007
#
# Poissons Ratio (x) = -0.02201 0.05633
# Poissons Ratio (y) = -0.02641 0.32749
# Poissons Ratio (z) = 0.13587 0.65819
#
# Static dielectric constant tensor:
#      x y z
#    x 1.997260 0.000000 0.000000 
#    y 0.000000 2.047540 0.000000 
#    z 0.000000 0.000000 2.140570 
# 
# From -- ./inp_files/16615.got.cif
#   From: 2010.05.17/outbox.cif.g08.bks.cpg/sg36_9_cif.got.tgz:16615.got - 2010.06.03 17:41:39.
