data_PCOD9350554
_publ_section_title
;
Structure prediction by ZEFSAII (Michael W. Deem and Ramdas Pophale) SiO2 
 PCOD9350554
Probable space group: C M C 21
;
_chemical_formula_sum "Si O2"
_cell_formula_units_Z 64
_cell_length_a 7.502122
_cell_length_b 20.902870
_cell_length_c 20.430722
_cell_angle_alpha 90.000000
_cell_angle_beta 90.000000
_cell_angle_gamma 90.000000
_cell_volume 3203.861668
_symmetry_space_group_name_H-M "C M C 21"
_symmetry_group_IT_number 36
_symmetry_cell_setting 'orthorhombic'
loop_
_space_group_symop_operation_xyz
x,y,z
-x,-y,1/2+z
x,-y,1/2+z
-x,y,z
1/2+x,1/2+y,z
1/2-x,1/2-y,1/2+z
1/2+x,1/2-y,1/2+z
1/2-x,1/2+y,z
loop_
_atom_site_type_symbol
_atom_site_label
_atom_site_fract_x
_atom_site_fract_y
_atom_site_fract_z
Si Si1 0.217795 0.175421 0.100610
Si Si2 0.296284 0.810447 0.140507
Si Si3 0.714409 0.708677 0.953061
Si Si4 0.282921 0.486639 0.973240
Si Si5 0.781079 0.908324 0.367646
Si Si6 0.718170 0.467366 0.617825
Si Si7 0.704682 0.431269 0.222298
Si Si8 0.790456 0.845569 0.993525
O O1 0.278571 0.238373 0.139481
O O2 0.271971 0.106294 0.126472
O O3 0.000000 0.177367 0.100625
O O4 0.273655 0.183735 0.024784
O O5 0.500000 0.807973 0.163172
O O6 0.204962 0.864328 0.183538
O O7 0.294408 0.831590 0.064278
O O8 0.500000 0.706455 0.953782
O O9 0.776337 0.659830 0.897599
O O10 0.765237 0.782981 0.949213
O O11 0.500000 0.488671 0.972199
O O12 0.224948 0.536006 0.917731
O O13 0.227281 0.509093 0.045663
O O14 0.227485 0.412930 0.964573
O O15 0.717542 0.921664 0.294293
O O16 0.000000 0.907140 0.366896
O O17 0.500000 0.469301 0.617535
O O18 0.783454 0.515427 0.673799
O O19 0.500000 0.451246 0.232848
O O20 0.000000 0.852445 0.007253
#
# Coordination Sequence:
#
# PCOD9350554 Si02
#       8
#     8   8   8   8   8   8   8   8
#     4   8  14  25  45  69  89 117 159 199 235 281
#     4  10  19  31  48  71  99 132 163 195 244 301
#     4   9  16  29  48  69  94 126 161 196 238 299
#     4   9  15  26  47  73  98 124 157 205 250 283
#     4   9  17  30  49  72  98 130 168 202 242 298
#     4   9  14  25  46  71  95 119 157 207 248 279
#     4  10  19  31  50  75  98 126 165 210 250 287
#     4  10  18  29  49  76 101 122 156 208 253 284
#
# _framework density 19.975892000000002
#
# number of rings (size 3 to 8) (size 9 to 14) (size 15 to 20)
#    0.000    2.750    2.500    1.500    0.000    0.000 
#    0.000    1.875    0.000   12.750    0.000    0.000 
#    0.000    0.000    0.000    0.000    0.000    0.000 
#
# Total GULP energy -178488.995174 kJ/mol
# GULP energy per Si atom -5577.781099 kJ/mol
# Density = 1.993043 g / cm^3
# Si number density = 19.975892 Si / 1000 Ang^3
#
#
#
# Elastic Constant Matrix: (Units=GPa)
#
#
# Indices 1 2 3 4 5 6 
#
# 1 52.2527 -3.2559 -2.1450 0.0000 0.0000 0.0000
# 2 -3.2559 180.9974 68.1685 0.0000 0.0000 0.0000
# 3 -2.1450 68.1685 94.5436 0.0000 0.0000 0.0000
# 4 0.0000 0.0000 0.0000 23.3066 0.0000 0.0000
# 5 0.0000 0.0000 0.0000 0.0000 3.3560 0.0000
# 6 0.0000 0.0000 0.0000 0.0000 0.0000 15.7862
#
#
#
# Elastic Compliance Matrix: (Units=1/GPa)
#
#
# Indices 1 2 3 4 5 6 
#
# 1 0.019164 0.000248 0.000256 0.000000 0.000000 0.000000
# 2 0.000248 0.007588 -0.005465 0.000000 0.000000 0.000000
# 3 0.000256 -0.005465 0.014524 0.000000 0.000000 0.000000
# 4 0.000000 0.000000 0.000000 0.042906 0.000000 0.000000
# 5 0.000000 0.000000 0.000000 0.000000 0.297974 0.000000
# 6 0.000000 0.000000 0.000000 0.000000 0.000000 0.063347
#
#
# Mechanical properties :
#
#
# Convention : Reuss Voigt Hill
#
# Bulk Modulus (GPa) = 31.89529 50.36989 41.13259
# Shear Modulus (GPa) = 10.73247 26.15814 18.44530
#
# Velocity S-wave (km/s) = 2.32043 3.62261 3.04201
# Velocity P-wave (km/s) = 4.81464 6.53971 5.74232
#
# Compressibility (1/GPa) = 0.03135260
#
# Stress axis : x y z
#
# Youngs Moduli (GPa) = 52.18189 131.78999 68.85327
#
# Poissons Ratio (x) = -0.03274 -0.01760
# Poissons Ratio (y) = -0.01296 0.37631
# Poissons Ratio (z) = -0.01334 0.72028
#
# Static dielectric constant tensor:
#      x y z
#    x 1.775600 0.000000 0.000000 
#    y 0.000000 1.716690 0.000000 
#    z 0.000000 0.000000 1.661320 
# 
# From -- ./inp_files/15787.got.cif
#   From: 2010.05.17/outbox.cif.g08.bks.cpg/sg36_8_cif.got.tgz:15787.got - 2010.06.03 17:41:39.
