data_PCOD9350266
_publ_section_title
;
Structure prediction by ZEFSAII (Michael W. Deem and Ramdas Pophale) SiO2 
 PCOD9350266
Probable space group: C M M 2
;
_chemical_formula_sum "Si O2"
_cell_formula_units_Z 64
_cell_length_a 14.352601
_cell_length_b 17.327967
_cell_length_c 10.528787
_cell_angle_alpha 90.000000
_cell_angle_beta 90.000000
_cell_angle_gamma 90.000000
_cell_volume 2618.524030
_symmetry_space_group_name_H-M "C M M 2"
_symmetry_group_IT_number 35
_symmetry_cell_setting 'orthorhombic'
loop_
_space_group_symop_operation_xyz
x,y,z
-x,-y,z
-x,y,z
x,-y,z
1/2+x,1/2+y,z
1/2-x,1/2-y,z
1/2-x,1/2+y,z
1/2+x,1/2-y,z
loop_
_atom_site_type_symbol
_atom_site_label
_atom_site_fract_x
_atom_site_fract_y
_atom_site_fract_z
Si Si1 0.607235 0.416065 0.409380
Si Si2 0.612453 0.086139 0.327087
Si Si3 0.841468 0.586938 0.800318
Si Si4 0.642041 0.724024 0.099725
Si Si5 0.102247 0.747856 0.376509
Si Si6 0.245002 0.586227 0.080630
Si Si7 0.365036 0.583577 0.706466
Si Si8 0.635585 0.749547 0.817589
O O1 0.500000 0.412362 0.361285
O O2 0.646869 0.500000 0.365656
O O3 0.651870 0.330964 0.389029
O O4 0.605723 0.419770 0.561166
O O5 0.500000 0.090097 0.304774
O O6 0.637299 0.162188 0.409869
O O7 0.672227 0.091589 0.197041
O O8 0.630009 0.000000 0.381663
O O9 0.883690 0.500000 0.796056
O O10 0.746893 0.583829 0.719272
O O11 0.892547 0.666669 0.763062
O O12 0.806835 0.602337 0.946577
O O13 0.750000 0.750000 0.106096
O O14 0.594792 0.755741 0.223600
O O15 0.660638 0.633419 0.101931
O O16 0.604960 0.746914 0.964062
O O17 0.000000 0.756006 0.436404
O O18 0.275514 0.500000 0.068072
O O19 0.393791 0.500000 0.765630
O O20 0.394077 0.667422 0.759488
O O21 0.750000 0.750000 0.812433
#
# Coordination Sequence:
#
# PCOD9350266 Si02
#       8
#     8   8   8   8   8   8   8   8
#     4   9  19  36  53  67  88 125 170 209 247 295
#     4   9  17  29  47  73 103 135 170 203 237 291
#     4   9  15  25  44  71  95 123 157 187 232 290
#     4  11  17  29  46  72 105 132 162 198 244 299
#     4  10  20  33  51  71  98 136 170 202 248 299
#     4  10  17  27  47  72 102 139 167 197 245 296
#     4   9  16  28  48  69  87 112 156 202 238 283
#     4   9  15  26  45  68  97 127 147 189 242 289
#
# _framework density 24.441248999999999
#
# number of rings (size 3 to 8) (size 9 to 14) (size 15 to 20)
#    0.000    2.500    5.000    0.000    0.000    0.500 
#    0.000    2.500    0.000    1.500    0.000    0.000 
#    0.000    0.000    0.000    0.000    0.000    0.000 
#
# Total GULP energy -178166.590570 kJ/mol
# GULP energy per Si atom -5567.705955 kJ/mol
# Density = 2.438562 g / cm^3
# Si number density = 24.441249 Si / 1000 Ang^3
#
#
#
# Elastic Constant Matrix: (Units=GPa)
#
#
# Indices 1 2 3 4 5 6 
#
# 1 93.2851 12.7945 -5.2636 0.0000 0.0000 0.0000
# 2 12.7945 302.9374 15.8868 0.0000 0.0000 0.0000
# 3 -5.2636 15.8868 28.8268 0.0000 0.0000 0.0000
# 4 0.0000 0.0000 0.0000 24.5767 0.0000 0.0000
# 5 0.0000 0.0000 0.0000 0.0000 14.5816 0.0000
# 6 0.0000 0.0000 0.0000 0.0000 0.0000 -23.8220
#
#
#
# Elastic Compliance Matrix: (Units=1/GPa)
#
#
# Indices 1 2 3 4 5 6 
#
# 1 0.010931 -0.000583 0.002317 0.000000 0.000000 0.000000
# 2 -0.000583 0.003430 -0.001997 0.000000 0.000000 0.000000
# 3 0.002317 -0.001997 0.036214 0.000000 0.000000 0.000000
# 4 0.000000 0.000000 0.000000 0.040689 0.000000 0.000000
# 5 0.000000 0.000000 0.000000 0.000000 0.068580 0.000000
# 6 0.000000 0.000000 0.000000 0.000000 0.000000 -0.041978
#
#
# Mechanical properties :
#
#
# Convention : Reuss Voigt Hill
#
# Bulk Modulus (GPa) = 19.98053 52.43164 36.20608
# Shear Modulus (GPa) = 37.01675 29.84269 33.42972
#
# Velocity S-wave (km/s) = 3.89591 3.49807 3.70233
# Velocity P-wave (km/s) = 5.33199 6.14931 5.75518
#
# Compressibility (1/GPa) = 0.05004872
#
# Stress axis : x y z
#
# Youngs Moduli (GPa) = 91.48660 291.51365 27.61391
#
# Poissons Ratio (x) = 0.17000 -0.06399
# Poissons Ratio (y) = 0.05335 0.05515
# Poissons Ratio (z) = -0.21200 0.58216
#
# Static dielectric constant tensor:
#      x y z
#    x 1.951870 0.000000 0.000000 
#    y 0.000000 2.313490 0.000000 
#    z 0.000000 0.000000 1.925740 
# 
# From -- ./inp_files/13683.got.cif
#   From: 2010.05.17/outbox.cif.g08.bks.cpg/sg35_7_cif.got.tgz:13683.got - 2010.06.03 17:29:28.
