data_PCOD9350636
_publ_section_title
;
Structure prediction by ZEFSAII (Michael W. Deem and Ramdas Pophale) SiO2 
 PCOD9350636
Probable space group: C M C 21
;
_chemical_formula_sum "Si O2"
_cell_formula_units_Z 64
_cell_length_a 9.416948
_cell_length_b 22.972548
_cell_length_c 16.683669
_cell_angle_alpha 90.000000
_cell_angle_beta 90.000000
_cell_angle_gamma 90.000000
_cell_volume 3609.199636
_symmetry_space_group_name_H-M "C M C 21"
_symmetry_group_IT_number 36
_symmetry_cell_setting 'orthorhombic'
loop_
_space_group_symop_operation_xyz
x,y,z
-x,-y,1/2+z
x,-y,1/2+z
-x,y,z
1/2+x,1/2+y,z
1/2-x,1/2-y,1/2+z
1/2+x,1/2-y,1/2+z
1/2-x,1/2+y,z
loop_
_atom_site_type_symbol
_atom_site_label
_atom_site_fract_x
_atom_site_fract_y
_atom_site_fract_z
Si Si1 0.833343 0.895162 0.471550
Si Si2 0.335697 0.781978 0.858996
Si Si3 0.829589 0.913416 0.139940
Si Si4 0.827873 0.153369 0.802176
Si Si5 0.832574 0.814348 0.017327
Si Si6 0.840834 0.355772 0.704804
Si Si7 0.161727 0.786194 0.586002
Si Si8 0.166178 0.531551 0.105059
O O1 0.786774 0.885655 0.379601
O O2 0.826600 0.830816 0.511380
O O3 0.741192 0.937282 0.528357
O O4 0.000000 0.912960 0.473643
O O5 0.500000 0.772468 0.884300
O O6 0.285973 0.720873 0.818449
O O7 0.244338 0.801368 0.934236
O O8 0.334570 0.834429 0.795349
O O9 0.783643 0.876021 0.218402
O O10 0.000000 0.923088 0.146833
O O11 0.747286 0.973520 0.130300
O O12 0.804332 0.875652 0.059865
O O13 0.000000 0.154394 0.800612
O O14 0.000000 0.807528 0.008411
O O15 0.769593 0.766076 0.076409
O O16 0.713820 0.323285 0.660708
O O17 0.827069 0.422545 0.678873
O O18 0.000000 0.337636 0.674930
O O19 0.000000 0.766441 0.592477
O O20 0.000000 0.521005 0.087683
#
# Coordination Sequence:
#
# PCOD9350636 Si02
#       8
#     8   8   8   8   8   8   8   8
#     4   9  17  33  58  84 109 143 188 229 269 335
#     4  10  19  36  59  84 115 149 184 225 287 352
#     4  10  22  40  59  79 109 154 196 234 279 332
#     4   9  17  34  60  85 108 143 190 231 274 336
#     4  11  22  35  53  81 117 149 187 234 282 335
#     4   9  19  35  57  82 111 146 182 228 282 337
#     4  10  18  31  55  84 113 145 182 222 276 339
#     4  10  21  38  57  81 112 147 189 233 283 334
#
# _framework density 17.732464
#
# number of rings (size 3 to 8) (size 9 to 14) (size 15 to 20)
#    0.000    2.250    1.250    1.875    0.000    4.500 
#    2.250    1.250    0.000    0.000    0.000    0.000 
#    0.000    0.000    0.000    0.000    0.000    0.000 
#
# Total GULP energy -178351.169240 kJ/mol
# GULP energy per Si atom -5573.474039 kJ/mol
# Density = 1.769210 g / cm^3
# Si number density = 17.732464 Si / 1000 Ang^3
#
#
#
# Elastic Constant Matrix: (Units=GPa)
#
#
# Indices 1 2 3 4 5 6 
#
# 1 53.0520 62.6504 44.5600 0.0000 0.0000 0.0000
# 2 62.6504 113.4667 64.5207 0.0000 0.0000 0.0000
# 3 44.5600 64.5207 73.1751 0.0000 0.0000 0.0000
# 4 0.0000 0.0000 0.0000 19.8323 0.0000 0.0000
# 5 0.0000 0.0000 0.0000 0.0000 24.8792 0.0000
# 6 0.0000 0.0000 0.0000 0.0000 0.0000 29.3578
#
#
#
# Elastic Compliance Matrix: (Units=1/GPa)
#
#
# Indices 1 2 3 4 5 6 
#
# 1 0.061457 -0.025375 -0.015050 0.000000 0.000000 0.000000
# 2 -0.025375 0.028153 -0.009371 0.000000 0.000000 0.000000
# 3 -0.015050 -0.009371 0.031093 0.000000 0.000000 0.000000
# 4 0.000000 0.000000 0.000000 0.050423 0.000000 0.000000
# 5 0.000000 0.000000 0.000000 0.000000 0.040194 0.000000
# 6 0.000000 0.000000 0.000000 0.000000 0.000000 0.034062
#
#
# Mechanical properties :
#
#
# Convention : Reuss Voigt Hill
#
# Bulk Modulus (GPa) = 47.37001 64.79511 56.08256
# Shear Modulus (GPa) = 14.20415 19.34470 16.77443
#
# Velocity S-wave (km/s) = 2.83331 3.30649 3.07900
# Velocity P-wave (km/s) = 6.12170 7.15520 6.65853
#
# Compressibility (1/GPa) = 0.02111040
#
# Stress axis : x y z
#
# Youngs Moduli (GPa) = 16.27165 35.52073 32.16184
#
# Poissons Ratio (x) = 0.90135 0.48403
# Poissons Ratio (y) = 0.41290 0.30138
# Poissons Ratio (z) = 0.24488 0.33285
#
# Static dielectric constant tensor:
#      x y z
#    x 1.593790 0.000000 0.000000 
#    y 0.000000 1.604350 0.000000 
#    z 0.000000 0.000000 1.627590 
# 
# From -- ./inp_files/13868.got.cif
#   From: 2010.05.17/outbox.cif.g08.bks.cpg/sg36_7_cif.got.tgz:13868.got - 2010.06.03 17:41:39.
