data_PCOD9350251
_publ_section_title
;
Structure prediction by ZEFSAII (Michael W. Deem and Ramdas Pophale) SiO2 
 PCOD9350251
Probable space group: C M M 2
;
_chemical_formula_sum "Si O2"
_cell_formula_units_Z 40
_cell_length_a 27.111188
_cell_length_b 8.815423
_cell_length_c 9.247094
_cell_angle_alpha 90.000000
_cell_angle_beta 90.000000
_cell_angle_gamma 90.000000
_cell_volume 2210.023936
_symmetry_space_group_name_H-M "C M M 2"
_symmetry_group_IT_number 35
_symmetry_cell_setting 'orthorhombic'
loop_
_space_group_symop_operation_xyz
x,y,z
-x,-y,z
-x,y,z
x,-y,z
1/2+x,1/2+y,z
1/2-x,1/2-y,z
1/2-x,1/2+y,z
1/2+x,1/2-y,z
loop_
_atom_site_type_symbol
_atom_site_label
_atom_site_fract_x
_atom_site_fract_y
_atom_site_fract_z
Si Si1 0.000000 0.179366 0.362010
Si Si2 0.901952 0.317646 0.851866
Si Si3 0.800014 0.180927 0.859493
Si Si4 0.500000 0.183016 0.679852
Si Si5 0.299217 0.181923 0.184516
Si Si6 0.908697 0.681052 0.193885
O O1 0.000000 0.253036 0.519736
O O2 0.951582 0.234018 0.276593
O O3 0.000000 0.000000 0.374116
O O4 0.895467 0.500000 0.841336
O O5 0.851997 0.238356 0.797356
O O6 0.950528 0.271367 0.764889
O O7 0.909797 0.283589 0.022258
O O8 0.750000 0.250000 0.792455
O O9 0.797270 0.000000 0.861281
O O10 0.800942 0.245608 0.023970
O O11 0.500000 0.000000 0.675011
O O12 0.250000 0.250000 0.256016
O O13 0.353148 0.215514 0.249100
O O14 0.294753 0.000000 0.171014
O O15 0.916403 0.500000 0.208151
#
# Coordination Sequence:
#
# PCOD9350251 Si02
#       6
#     4   8   8   4   8   8
#     4  12  25  36  50  74 104 136 173 214 254 298
#     4   9  18  34  56  80 101 129 171 214 254 302
#     4  10  17  26  44  72 106 138 165 202 249 297
#     4  10  21  38  58  74  98 136 171 208 260 312
#     4   9  16  27  46  73 103 133 165 205 250 299
#     4   9  18  34  55  77 103 134 170 208 251 303
#
# _framework density 18.099350999999999
#
# number of rings (size 3 to 8) (size 9 to 14) (size 15 to 20)
#    0.000    2.400    0.000    6.300    0.000    6.400 
#    0.000    1.000    0.000    1.200    0.000    5.600 
#    0.000    0.000    0.000    0.000    0.000    0.000 
#
# Total GULP energy -111503.917929 kJ/mol
# GULP energy per Si atom -5575.195896 kJ/mol
# Density = 1.805816 g / cm^3
# Si number density = 18.099351 Si / 1000 Ang^3
#
#
#
# Elastic Constant Matrix: (Units=GPa)
#
#
# Indices 1 2 3 4 5 6 
#
# 1 209.1042 70.7846 48.4972 0.0000 0.0000 0.0000
# 2 70.7846 62.3006 17.7854 0.0000 0.0000 0.0000
# 3 48.4972 17.7854 33.7020 0.0000 0.0000 0.0000
# 4 0.0000 0.0000 0.0000 13.1462 0.0000 0.0000
# 5 0.0000 0.0000 0.0000 0.0000 -5.6003 0.0000
# 6 0.0000 0.0000 0.0000 0.0000 0.0000 36.7122
#
#
#
# Elastic Compliance Matrix: (Units=1/GPa)
#
#
# Indices 1 2 3 4 5 6 
#
# 1 0.009928 -0.008479 -0.009812 0.000000 0.000000 0.000000
# 2 -0.008479 0.026140 -0.001593 0.000000 0.000000 0.000000
# 3 -0.009812 -0.001593 0.044632 0.000000 0.000000 0.000000
# 4 0.000000 0.000000 0.000000 0.076068 0.000000 0.000000
# 5 0.000000 0.000000 0.000000 0.000000 -0.178563 0.000000
# 6 0.000000 0.000000 0.000000 0.000000 0.000000 0.027239
#
#
# Mechanical properties :
#
#
# Convention : Reuss Voigt Hill
#
# Bulk Modulus (GPa) = 24.43098 64.36012 44.39555
# Shear Modulus (GPa) = 84.95185 20.05427 52.50306
#
# Velocity S-wave (km/s) = 6.85845 3.33229 5.39177
# Velocity P-wave (km/s) = 8.73186 7.10226 7.95888
#
# Compressibility (1/GPa) = 0.04093163
#
# Stress axis : x y z
#
# Youngs Moduli (GPa) = 100.72131 38.25562 22.40526
#
# Poissons Ratio (x) = 0.32438 0.21985
# Poissons Ratio (y) = 0.85404 0.03569
# Poissons Ratio (z) = 0.98830 0.06094
#
# Static dielectric constant tensor:
#      x y z
#    x 1.680350 0.000000 0.000000 
#    y 0.000000 1.601290 0.000000 
#    z 0.000000 0.000000 1.583010 
# 
# From -- ./inp_files/10080.got.cif
#   From: 2010.05.17/outbox.cif.g08.bks.cpg/sg35_6_cif.got.tgz:10080.got - 2010.06.03 17:29:28.
