data_PCOD9350612
_publ_section_title
;
Structure prediction by ZEFSAII (Michael W. Deem and Ramdas Pophale) SiO2 
 PCOD9350612
Probable space group: C M C 21
;
_chemical_formula_sum "Si O2"
_cell_formula_units_Z 48
_cell_length_a 22.419415
_cell_length_b 11.739981
_cell_length_c 8.382301
_cell_angle_alpha 90.000000
_cell_angle_beta 90.000000
_cell_angle_gamma 90.000000
_cell_volume 2206.251013
_symmetry_space_group_name_H-M "C M C 21"
_symmetry_group_IT_number 36
_symmetry_cell_setting 'orthorhombic'
loop_
_space_group_symop_operation_xyz
x,y,z
-x,-y,1/2+z
x,-y,1/2+z
-x,y,z
1/2+x,1/2+y,z
1/2-x,1/2-y,1/2+z
1/2+x,1/2-y,1/2+z
1/2-x,1/2+y,z
loop_
_atom_site_type_symbol
_atom_site_label
_atom_site_fract_x
_atom_site_fract_y
_atom_site_fract_z
Si Si1 0.432441 0.570000 0.098120
Si Si2 0.935301 0.813757 0.000135
Si Si3 0.715914 0.131932 0.231802
Si Si4 0.812618 0.956062 0.201134
Si Si5 0.116666 0.770740 0.352098
Si Si6 0.813824 0.764480 0.929162
O O1 0.500000 0.574415 0.171633
O O2 0.435769 0.451646 0.995997
O O3 0.368738 0.543205 0.184056
O O4 0.423476 0.685005 0.995816
O O5 0.919108 0.783078 0.184774
O O6 0.883729 0.761518 0.891789
O O7 0.000000 0.768849 0.962501
O O8 0.749941 0.013438 0.236415
O O9 0.657299 0.157607 0.339112
O O10 0.767806 0.219377 0.288652
O O11 0.700090 0.163306 0.050890
O O12 0.833889 0.871096 0.338883
O O13 0.808251 0.878431 0.041871
#
# Coordination Sequence:
#
# PCOD9350612 Si02
#       6
#     8   8   8   8   8   8
#     4   9  15  24  40  61  88 118 144 176 218 267
#     4   8  15  26  39  60  89 119 146 172 215 273
#     4  10  18  31  45  63  95 124 153 189 227 266
#     4   9  17  28  41  62  91 121 153 184 222 270
#     4   9  17  26  41  62  88 121 151 182 217 268
#     4   9  19  29  46  68  90 123 153 189 227 272
#
# _framework density 21.756364000000001
#
# number of rings (size 3 to 8) (size 9 to 14) (size 15 to 20)
#    0.000    3.667    0.000    3.500    0.000    2.000 
#    0.000    0.833    0.000    0.000    0.000    0.000 
#    0.000  188.000    0.000    0.000    0.000    0.000 
#
# Total GULP energy -133619.537167 kJ/mol
# GULP energy per Si atom -5567.480715 kJ/mol
# Density = 2.170685 g / cm^3
# Si number density = 21.756364 Si / 1000 Ang^3
#
#
#
# Elastic Constant Matrix: (Units=GPa)
#
#
# Indices 1 2 3 4 5 6 
#
# 1 129.3117 22.5739 21.9898 0.0000 0.0000 0.0000
# 2 22.5739 24.8265 8.6323 0.0000 0.0000 0.0000
# 3 21.9898 8.6323 27.4952 0.0000 0.0000 0.0000
# 4 0.0000 0.0000 0.0000 20.1585 0.0000 0.0000
# 5 0.0000 0.0000 0.0000 0.0000 16.9404 0.0000
# 6 0.0000 0.0000 0.0000 0.0000 0.0000 25.7879
#
#
#
# Elastic Compliance Matrix: (Units=1/GPa)
#
#
# Indices 1 2 3 4 5 6 
#
# 1 0.009938 -0.007042 -0.005737 0.000000 0.000000 0.000000
# 2 -0.007042 0.050205 -0.010130 0.000000 0.000000 0.000000
# 3 -0.005737 -0.010130 0.044139 0.000000 0.000000 0.000000
# 4 0.000000 0.000000 0.000000 0.049607 0.000000 0.000000
# 5 0.000000 0.000000 0.000000 0.000000 0.059030 0.000000
# 6 0.000000 0.000000 0.000000 0.000000 0.000000 0.038778
#
#
# Mechanical properties :
#
#
# Convention : Reuss Voigt Hill
#
# Bulk Modulus (GPa) = 17.10483 32.00281 24.55382
# Shear Modulus (GPa) = 15.77268 21.13986 18.45627
#
# Velocity S-wave (km/s) = 2.69545 3.12053 2.91575
# Velocity P-wave (km/s) = 4.19122 5.26547 4.75875
#
# Compressibility (1/GPa) = 0.05846302
#
# Stress axis : x y z
#
# Youngs Moduli (GPa) = 100.62227 19.91848 22.65562
#
# Poissons Ratio (x) = 0.14026 0.12999
# Poissons Ratio (y) = 0.70853 0.22951
# Poissons Ratio (z) = 0.57732 0.20178
#
# Static dielectric constant tensor:
#      x y z
#    x 1.862860 0.000000 0.000000 
#    y 0.000000 1.840290 0.000000 
#    z 0.000000 0.000000 1.899050 
# 
# From -- ./inp_files/9300.got.cif
#   From: 2010.05.17/outbox.cif.g08.bks.cpg/sg36_5_cif.got.tgz:9300.got - 2010.06.03 17:41:39.
