data_PCOD9350298
_publ_section_title
;
Structure prediction by ZEFSAII (Michael W. Deem and Ramdas Pophale) SiO2 
 PCOD9350298
Probable space group: C M M 2
;
_chemical_formula_sum "Si O2"
_cell_formula_units_Z 44
_cell_length_a 14.240944
_cell_length_b 24.431881
_cell_length_c 6.583894
_cell_angle_alpha 90.000000
_cell_angle_beta 90.000000
_cell_angle_gamma 90.000000
_cell_volume 2290.754315
_symmetry_space_group_name_H-M "C M M 2"
_symmetry_group_IT_number 35
_symmetry_cell_setting 'orthorhombic'
loop_
_space_group_symop_operation_xyz
x,y,z
-x,-y,z
-x,y,z
x,-y,z
1/2+x,1/2+y,z
1/2-x,1/2-y,z
1/2-x,1/2+y,z
1/2+x,1/2-y,z
loop_
_atom_site_type_symbol
_atom_site_label
_atom_site_fract_x
_atom_site_fract_y
_atom_site_fract_z
Si Si1 0.387644 0.108092 0.205110
Si Si2 0.264476 0.500000 0.779860
Si Si3 0.610270 0.000000 0.470068
Si Si4 0.107922 0.122754 0.226177
Si Si5 0.893172 0.000000 0.163473
Si Si6 0.262309 0.185410 0.467497
Si Si7 0.739289 0.383221 0.849956
O O1 0.500000 0.111280 0.174055
O O2 0.346393 0.159527 0.332160
O O3 0.366209 0.054022 0.339624
O O4 0.327980 0.103663 0.997381
O O5 0.160481 0.500000 0.687038
O O6 0.292016 0.562464 0.725029
O O7 0.306797 0.500000 0.006957
O O8 0.500000 0.000000 0.501964
O O9 0.168833 0.157587 0.378959
O O10 0.000000 0.138571 0.223987
O O11 0.113595 0.057704 0.275657
O O12 0.155342 0.130317 0.004753
O O13 0.000000 0.000000 0.068864
O O14 0.250000 0.250000 0.453115
O O15 0.269097 0.164142 0.697524
#
# Coordination Sequence:
#
# PCOD9350298 Si02
#       7
#     8   4   4   8   4   8   8
#     4  10  22  40  61  87 121 155 190 238 293 353
#     4  10  17  32  59  89 122 157 180 232 293 352
#     4  10  19  34  60  91 123 151 184 230 291 362
#     4   9  20  39  62  89 120 151 187 240 299 352
#     4   8  16  34  61  94 123 146 186 234 290 362
#     4  11  24  40  58  84 116 156 206 249 284 334
#     4  10  21  36  60  88 119 154 194 236 292 351
#
# _framework density 19.207644999999999
#
# number of rings (size 3 to 8) (size 9 to 14) (size 15 to 20)
#    0.000    2.182    1.818    0.545    0.000    8.727 
#    0.000    0.000    0.000    3.273    0.000    0.000 
#    0.000    0.000    0.000    0.000    0.000    0.000 
#
# Total GULP energy -122525.254641 kJ/mol
# GULP energy per Si atom -5569.329756 kJ/mol
# Density = 1.916393 g / cm^3
# Si number density = 19.207645 Si / 1000 Ang^3
#
#
#
# Elastic Constant Matrix: (Units=GPa)
#
#
# Indices 1 2 3 4 5 6 
#
# 1 135.7669 35.7652 56.3562 0.0000 0.0000 0.0000
# 2 35.7652 137.9401 40.1063 0.0000 0.0000 0.0000
# 3 56.3562 40.1063 82.5360 0.0000 0.0000 0.0000
# 4 0.0000 0.0000 0.0000 16.5259 0.0000 0.0000
# 5 0.0000 0.0000 0.0000 0.0000 13.9959 0.0000
# 6 0.0000 0.0000 0.0000 0.0000 0.0000 21.1061
#
#
#
# Elastic Compliance Matrix: (Units=1/GPa)
#
#
# Indices 1 2 3 4 5 6 
#
# 1 0.010342 -0.000732 -0.006706 0.000000 0.000000 0.000000
# 2 -0.000732 0.008494 -0.003628 0.000000 0.000000 0.000000
# 3 -0.006706 -0.003628 0.018458 0.000000 0.000000 0.000000
# 4 0.000000 0.000000 0.000000 0.060511 0.000000 0.000000
# 5 0.000000 0.000000 0.000000 0.000000 0.071449 0.000000
# 6 0.000000 0.000000 0.000000 0.000000 0.000000 0.047380
#
#
# Mechanical properties :
#
#
# Convention : Reuss Voigt Hill
#
# Bulk Modulus (GPa) = 65.95187 68.96649 67.45918
# Shear Modulus (GPa) = 20.50702 25.25995 22.88348
#
# Velocity S-wave (km/s) = 3.27103 3.63036 3.45537
# Velocity P-wave (km/s) = 6.97689 7.31822 7.14960
#
# Compressibility (1/GPa) = 0.01516257
#
# Stress axis : x y z
#
# Youngs Moduli (GPa) = 96.69361 117.72955 54.17788
#
# Poissons Ratio (x) = 0.08614 0.36332
# Poissons Ratio (y) = 0.07075 0.19655
# Poissons Ratio (z) = 0.64843 0.42711
#
# Static dielectric constant tensor:
#      x y z
#    x 1.663560 0.000000 0.000000 
#    y 0.000000 1.860900 0.000000 
#    z 0.000000 0.000000 1.693040 
# 
# From -- ./inp_files/1890.got.cif
#   From: 2010.05.17/outbox.cif.g08.bks.cpg/sg35_1_cif.got.tgz:1890.got - 2010.06.03 17:29:28.
