data_PCOD9350501
_publ_section_title
;
Structure prediction by ZEFSAII (Michael W. Deem and Ramdas Pophale) SiO2 
 PCOD9350501
Probable space group: C M C 21
;
_chemical_formula_sum "Si O2"
_cell_formula_units_Z 64
_cell_length_a 7.836875
_cell_length_b 23.843535
_cell_length_c 16.530988
_cell_angle_alpha 90.000000
_cell_angle_beta 90.000000
_cell_angle_gamma 90.000000
_cell_volume 3088.960636
_symmetry_space_group_name_H-M "C M C 21"
_symmetry_group_IT_number 36
_symmetry_cell_setting 'orthorhombic'
loop_
_space_group_symop_operation_xyz
x,y,z
-x,-y,1/2+z
x,-y,1/2+z
-x,y,z
1/2+x,1/2+y,z
1/2-x,1/2-y,1/2+z
1/2+x,1/2-y,1/2+z
1/2-x,1/2+y,z
loop_
_atom_site_type_symbol
_atom_site_label
_atom_site_fract_x
_atom_site_fract_y
_atom_site_fract_z
Si Si1 0.808811 0.883545 0.296390
Si Si2 0.292333 0.933013 0.580421
Si Si3 0.197401 0.455059 0.155558
Si Si4 0.701066 0.601567 0.356115
Si Si5 0.709021 0.288853 0.181498
Si Si6 0.706988 0.633211 0.531606
Si Si7 0.697148 0.978720 0.412143
Si Si8 0.797326 0.661974 0.190936
O O1 0.814925 0.922541 0.217015
O O2 0.733919 0.826747 0.257998
O O3 0.709480 0.922724 0.358065
O O4 0.000000 0.873321 0.327645
O O5 0.500000 0.929329 0.571604
O O6 0.223847 0.958248 0.496996
O O7 0.227933 0.874887 0.616292
O O8 0.259710 0.980356 0.647334
O O9 0.220409 0.423868 0.070297
O O10 0.000000 0.449577 0.181047
O O11 0.500000 0.610709 0.350241
O O12 0.762495 0.633468 0.438104
O O13 0.728058 0.534719 0.370979
O O14 0.775934 0.628077 0.274607
O O15 0.500000 0.290688 0.183775
O O16 0.758138 0.318324 0.096015
O O17 0.769544 0.225343 0.190901
O O18 0.500000 0.630731 0.532196
O O19 0.500000 0.993106 0.425385
O O20 0.000000 0.667099 0.177656
#
# Coordination Sequence:
#
# PCOD9350501 Si02
#       8
#     8   8   8   8   8   8   8   8
#     4  10  20  35  54  81 111 146 184 226 276 335
#     4   9  19  33  52  79 109 138 179 229 277 328
#     4  10  17  30  53  81 109 140 178 227 277 328
#     4  11  22  36  56  86 118 148 184 234 292 342
#     4   8  17  36  59  78 105 148 194 226 268 335
#     4   9  18  34  55  80 109 146 187 228 277 338
#     4  11  21  36  55  83 114 144 185 234 284 340
#     4  10  20  38  60  80 109 154 195 232 279 334
#
# _framework density 20.718942999999999
#
# number of rings (size 3 to 8) (size 9 to 14) (size 15 to 20)
#    0.000    2.250    1.250    3.000    0.000    1.500 
#    2.250    5.000    0.000    0.000    0.000    0.000 
#    0.000    0.000    0.000    0.000    0.000    0.000 
#
# Total GULP energy -178379.873831 kJ/mol
# GULP energy per Si atom -5574.371057 kJ/mol
# Density = 2.067179 g / cm^3
# Si number density = 20.718943 Si / 1000 Ang^3
#
#
#
# Elastic Constant Matrix: (Units=GPa)
#
#
# Indices 1 2 3 4 5 6 
#
# 1 25.6454 4.3171 -8.4543 0.0000 0.0000 0.0000
# 2 4.3171 160.0259 52.5881 0.0000 0.0000 0.0000
# 3 -8.4543 52.5881 66.2594 0.0000 0.0000 0.0000
# 4 0.0000 0.0000 0.0000 26.2898 0.0000 0.0000
# 5 0.0000 0.0000 0.0000 0.0000 9.2758 0.0000
# 6 0.0000 0.0000 0.0000 0.0000 0.0000 12.2858
#
#
#
# Elastic Compliance Matrix: (Units=1/GPa)
#
#
# Indices 1 2 3 4 5 6 
#
# 1 0.042483 -0.003960 0.008564 0.000000 0.000000 0.000000
# 2 -0.003960 0.008823 -0.007508 0.000000 0.000000 0.000000
# 3 0.008564 -0.007508 0.022144 0.000000 0.000000 0.000000
# 4 0.000000 0.000000 0.000000 0.038038 0.000000 0.000000
# 5 0.000000 0.000000 0.000000 0.000000 0.107808 0.000000
# 6 0.000000 0.000000 0.000000 0.000000 0.000000 0.081395
#
#
# Mechanical properties :
#
#
# Convention : Reuss Voigt Hill
#
# Bulk Modulus (GPa) = 14.78393 38.75916 26.77155
# Shear Modulus (GPa) = 15.19542 23.13559 19.16551
#
# Velocity S-wave (km/s) = 2.71109 3.34524 3.04472
# Velocity P-wave (km/s) = 4.11715 5.80246 5.03088
#
# Compressibility (1/GPa) = 0.06764101
#
# Stress axis : x y z
#
# Youngs Moduli (GPa) = 23.53874 113.33873 45.15950
#
# Poissons Ratio (x) = 0.44886 -0.38674
# Poissons Ratio (y) = 0.09322 0.33906
# Poissons Ratio (z) = -0.20158 0.85094
#
# Static dielectric constant tensor:
#      x y z
#    x 1.726770 0.000000 0.000000 
#    y 0.000000 1.744950 0.000000 
#    z 0.000000 0.000000 1.819230 
# 
# From -- ./inp_files/14075.got.cif
#   From: 2010.05.17/outbox.cif.g08.bks.cpg/sg36_8_cif.got.tgz:14075.got - 2010.06.03 17:41:39.
