data_PCOD9350437
_publ_section_title
;
Structure prediction by ZEFSAII (Michael W. Deem and Ramdas Pophale) SiO2 
 PCOD9350437
Probable space group: C M M 2
;
_chemical_formula_sum "Si O2"
_cell_formula_units_Z 56
_cell_length_a 8.717285
_cell_length_b 26.259699
_cell_length_c 14.739543
_cell_angle_alpha 90.000000
_cell_angle_beta 90.000000
_cell_angle_gamma 90.000000
_cell_volume 3374.077137
_symmetry_space_group_name_H-M "C M M 2"
_symmetry_group_IT_number 35
_symmetry_cell_setting 'orthorhombic'
loop_
_space_group_symop_operation_xyz
x,y,z
-x,-y,z
-x,y,z
x,-y,z
1/2+x,1/2+y,z
1/2-x,1/2-y,z
1/2-x,1/2+y,z
1/2+x,1/2-y,z
loop_
_atom_site_type_symbol
_atom_site_label
_atom_site_fract_x
_atom_site_fract_y
_atom_site_fract_z
Si Si1 0.316846 0.559644 0.945490
Si Si2 0.183795 0.805626 0.652954
Si Si3 0.684024 0.899558 0.763399
Si Si4 0.186705 0.500000 0.652723
Si Si5 0.315941 0.059958 0.139715
Si Si6 0.316470 0.694494 0.442544
Si Si7 0.686925 0.000000 0.444125
Si Si8 0.814332 0.600381 0.333139
O O1 0.500000 0.562543 0.939035
O O2 0.270678 0.500000 0.933962
O O3 0.241057 0.591738 0.865513
O O4 0.262758 0.575200 0.045799
O O5 0.250000 0.750000 0.675541
O O6 0.249456 0.849301 0.717081
O O7 0.227194 0.816531 0.547713
O O8 0.000000 0.804414 0.658643
O O9 0.500000 0.897678 0.761543
O O10 0.735348 0.949202 0.705585
O O11 0.238443 0.500000 0.548428
O O12 0.000000 0.500000 0.652186
O O13 0.500000 0.064104 0.129525
O O14 0.268885 0.091079 0.228728
O O15 0.281973 0.000000 0.156169
O O16 0.500000 0.696029 0.437519
O O17 0.250000 0.750000 0.419795
O O18 0.252049 0.650792 0.378069
O O19 0.734612 0.949126 0.391266
O O20 0.500000 0.000000 0.444103
O O21 0.000000 0.602361 0.335972
#
# Coordination Sequence:
#
# PCOD9350437 Si02
#       8
#     8   8   8   4   8   8   4   8
#     4  10  20  33  50  74 105 141 176 217 264 312
#     4  10  21  37  55  77 104 138 180 222 263 310
#     4  11  20  33  53  78 106 139 176 218 262 312
#     4   9  18  28  44  73 106 138 171 205 250 307
#     4   9  17  31  51  76 104 137 176 215 256 311
#     4  10  21  36  54  76 104 139 180 221 261 306
#     4   9  16  28  46  73 106 138 169 203 250 309
#     4  10  18  31  53  78 106 138 174 216 261 308
#
# _framework density 16.597131000000001
#
# number of rings (size 3 to 8) (size 9 to 14) (size 15 to 20)
#    0.000    2.143    1.429    2.571    0.000    4.000 
#    0.000    0.357    0.000    3.429    0.000    2.000 
#    0.000    0.000    0.000    0.000    0.000    0.000 
#
# Total GULP energy -156286.855419 kJ/mol
# GULP energy per Si atom -5581.673408 kJ/mol
# Density = 1.655936 g / cm^3
# Si number density = 16.597131 Si / 1000 Ang^3
#
#
#
# Elastic Constant Matrix: (Units=GPa)
#
#
# Indices 1 2 3 4 5 6 
#
# 1 37.8129 42.7943 46.3944 0.0000 0.0000 0.0000
# 2 42.7943 130.8516 99.6025 0.0000 0.0000 0.0000
# 3 46.3944 99.6025 152.6270 0.0000 0.0000 0.0000
# 4 0.0000 0.0000 0.0000 23.0844 0.0000 0.0000
# 5 0.0000 0.0000 0.0000 0.0000 23.6740 0.0000
# 6 0.0000 0.0000 0.0000 0.0000 0.0000 25.2403
#
#
#
# Elastic Compliance Matrix: (Units=1/GPa)
#
#
# Indices 1 2 3 4 5 6 
#
# 1 0.046881 -0.008912 -0.008435 0.000000 0.000000 0.000000
# 2 -0.008912 0.016880 -0.008306 0.000000 0.000000 0.000000
# 3 -0.008435 -0.008306 0.014537 0.000000 0.000000 0.000000
# 4 0.000000 0.000000 0.000000 0.043319 0.000000 0.000000
# 5 0.000000 0.000000 0.000000 0.000000 0.042240 0.000000
# 6 0.000000 0.000000 0.000000 0.000000 0.000000 0.039619
#
#
# Mechanical properties :
#
#
# Convention : Reuss Voigt Hill
#
# Bulk Modulus (GPa) = 37.04947 77.65268 57.35107
# Shear Modulus (GPa) = 18.95529 23.23308 21.09418
#
# Velocity S-wave (km/s) = 3.38314 3.74548 3.56891
# Velocity P-wave (km/s) = 6.13450 8.09896 7.18420
#
# Compressibility (1/GPa) = 0.02699094
#
# Stress axis : x y z
#
# Youngs Moduli (GPa) = 21.33075 59.24337 68.79184
#
# Poissons Ratio (x) = 0.52795 0.58025
# Poissons Ratio (y) = 0.19009 0.57142
# Poissons Ratio (z) = 0.17992 0.49210
#
# Static dielectric constant tensor:
#      x y z
#    x 1.557240 0.000000 0.000000 
#    y 0.000000 1.527580 0.000000 
#    z 0.000000 0.000000 1.549900 
# 
# From -- ./inp_files/15679.got.cif
#   From: 2010.05.17/outbox.cif.g08.bks.cpg/sg35_8_cif.got.tgz:15679.got - 2010.06.03 17:29:28.
