data_PCOD9350452
_publ_section_title
;
Structure prediction by ZEFSAII (Michael W. Deem and Ramdas Pophale) SiO2 
 PCOD9350452
Probable space group: C M M 2
;
_chemical_formula_sum "Si O2"
_cell_formula_units_Z 58
_cell_length_a 18.599362
_cell_length_b 14.883917
_cell_length_c 10.160913
_cell_angle_alpha 90.000000
_cell_angle_beta 90.000000
_cell_angle_gamma 90.000000
_cell_volume 2812.859367
_symmetry_space_group_name_H-M "C M M 2"
_symmetry_group_IT_number 35
_symmetry_cell_setting 'orthorhombic'
loop_
_space_group_symop_operation_xyz
x,y,z
-x,-y,z
-x,y,z
x,-y,z
1/2+x,1/2+y,z
1/2-x,1/2-y,z
1/2-x,1/2+y,z
1/2+x,1/2-y,z
loop_
_atom_site_type_symbol
_atom_site_label
_atom_site_fract_x
_atom_site_fract_y
_atom_site_fract_z
Si Si1 0.689722 0.106348 0.635380
Si Si2 0.085298 0.283523 0.815713
Si Si3 0.587074 0.796460 0.108472
Si Si4 0.000000 0.500000 0.432123
Si Si5 0.653649 0.602785 0.729559
Si Si6 0.416201 0.358863 0.452829
Si Si7 0.620712 0.846579 0.389547
Si Si8 0.412788 0.405264 0.161265
O O1 0.625985 0.160664 0.704641
O O2 0.762517 0.126520 0.713960
O O3 0.689677 0.134181 0.481486
O O4 0.678118 0.000000 0.643595
O O5 0.112459 0.180579 0.807741
O O6 0.000000 0.283841 0.794310
O O7 0.099759 0.326672 0.959286
O O8 0.500000 0.802168 0.133900
O O9 0.625767 0.844772 0.230481
O O10 0.609442 0.691587 0.108741
O O11 0.937350 0.578509 0.426759
O O12 0.644649 0.500000 0.776412
O O13 0.625010 0.608486 0.580122
O O14 0.500000 0.377913 0.473570
O O15 0.406327 0.252555 0.429088
O O16 0.393956 0.402820 0.315549
O O17 0.500000 0.404803 0.151738
O O18 0.386931 0.500000 0.103123
#
# Coordination Sequence:
#
# PCOD9350452 Si02
#       8
#     8   8   8   2   8   8   8   8
#     4  11  25  42  63  90 123 170 213 256 315 381
#     4  11  24  40  64  92 127 163 209 265 316 375
#     4   9  19  36  54  89 125 155 199 256 325 376
#     4  12  20  32  64 102 130 152 206 270 336 376
#     4  11  24  40  61  88 126 169 210 256 313 371
#     4  10  18  31  56  90 124 153 197 252 309 360
#     4  11  20  35  62  93 124 159 200 259 323 375
#     4   8  14  26  49  79 116 153 185 235 297 359
#
# _framework density 20.619586999999999
#
# number of rings (size 3 to 8) (size 9 to 14) (size 15 to 20)
#    0.000    1.793    3.448    2.069    0.966    2.483 
#    1.241    1.379   12.138    0.000    0.000    0.000 
#    0.000    0.000    0.000    0.000    0.000    0.000 
#
# Total GULP energy -161557.411146 kJ/mol
# GULP energy per Si atom -5570.945212 kJ/mol
# Density = 2.057266 g / cm^3
# Si number density = 20.619587 Si / 1000 Ang^3
#
#
#
# Elastic Constant Matrix: (Units=GPa)
#
#
# Indices 1 2 3 4 5 6 
#
# 1 48.5224 13.2897 27.3630 0.0000 0.0000 0.0000
# 2 13.2897 79.5052 6.9915 0.0000 0.0000 0.0000
# 3 27.3630 6.9915 91.4536 0.0000 0.0000 0.0000
# 4 0.0000 0.0000 0.0000 4.3069 0.0000 0.0000
# 5 0.0000 0.0000 0.0000 0.0000 5.9077 0.0000
# 6 0.0000 0.0000 0.0000 0.0000 0.0000 17.1834
#
#
#
# Elastic Compliance Matrix: (Units=1/GPa)
#
#
# Indices 1 2 3 4 5 6 
#
# 1 0.025808 -0.003660 -0.007442 0.000000 0.000000 0.000000
# 2 -0.003660 0.013182 0.000087 0.000000 0.000000 0.000000
# 3 -0.007442 0.000087 0.013155 0.000000 0.000000 0.000000
# 4 0.000000 0.000000 0.000000 0.232188 0.000000 0.000000
# 5 0.000000 0.000000 0.000000 0.000000 0.169270 0.000000
# 6 0.000000 0.000000 0.000000 0.000000 0.000000 0.058196
#
#
# Mechanical properties :
#
#
# Convention : Reuss Voigt Hill
#
# Bulk Modulus (GPa) = 33.20528 34.97441 34.08985
# Shear Modulus (GPa) = 9.19346 16.93540 13.06443
#
# Velocity S-wave (km/s) = 2.11383 2.86899 2.51986
# Velocity P-wave (km/s) = 4.70068 5.28898 5.00349
#
# Compressibility (1/GPa) = 0.03011570
#
# Stress axis : x y z
#
# Youngs Moduli (GPa) = 38.74749 75.86197 76.01955
#
# Poissons Ratio (x) = 0.27762 0.56574
# Poissons Ratio (y) = 0.14180 -0.00663
# Poissons Ratio (z) = 0.28836 -0.00662
#
# Static dielectric constant tensor:
#      x y z
#    x 1.723910 0.000000 0.000000 
#    y 0.000000 1.736890 0.000000 
#    z 0.000000 0.000000 1.762480 
# 
# From -- ./inp_files/13548.got.cif
#   From: 2010.05.17/outbox.cif.g08.bks.cpg/sg35_7_cif.got.tgz:13548.got - 2010.06.03 17:29:28.
