data_PCOD9350764
_publ_section_title
;
Structure prediction by ZEFSAII (Michael W. Deem and Ramdas Pophale) SiO2 
 PCOD9350764
Probable space group: C M C 21
;
_chemical_formula_sum "Si O2"
_cell_formula_units_Z 64
_cell_length_a 18.014896
_cell_length_b 20.464563
_cell_length_c 9.586158
_cell_angle_alpha 90.000000
_cell_angle_beta 90.000000
_cell_angle_gamma 90.000000
_cell_volume 3534.099863
_symmetry_space_group_name_H-M "C M C 21"
_symmetry_group_IT_number 36
_symmetry_cell_setting 'orthorhombic'
loop_
_space_group_symop_operation_xyz
x,y,z
-x,-y,1/2+z
x,-y,1/2+z
-x,y,z
1/2+x,1/2+y,z
1/2-x,1/2-y,1/2+z
1/2+x,1/2-y,1/2+z
1/2-x,1/2+y,z
loop_
_atom_site_type_symbol
_atom_site_label
_atom_site_fract_x
_atom_site_fract_y
_atom_site_fract_z
Si Si1 0.667764 0.500768 0.752360
Si Si2 0.163476 0.408536 0.074768
Si Si3 0.185577 0.441766 0.630033
Si Si4 0.587569 0.427358 0.995119
Si Si5 0.202927 0.177243 0.466844
Si Si6 0.086382 0.644881 0.324031
Si Si7 0.734349 0.881353 0.358254
Si Si8 0.208861 0.748483 0.249201
O O1 0.733874 0.454051 0.698565
O O2 0.625876 0.534523 0.623624
O O3 0.711234 0.557222 0.836149
O O4 0.612174 0.463912 0.854113
O O5 0.161818 0.486978 0.072245
O O6 0.173289 0.386737 0.234830
O O7 0.238928 0.380955 0.003254
O O8 0.099591 0.374463 0.985722
O O9 0.126337 0.413341 0.738012
O O10 0.196154 0.390175 0.506247
O O11 0.500000 0.426030 0.012270
O O12 0.623173 0.355265 0.984027
O O13 0.214100 0.231727 0.587243
O O14 0.225112 0.204919 0.316116
O O15 0.134178 0.709273 0.286212
O O16 0.000000 0.651255 0.291954
O O17 0.781955 0.816835 0.330830
#
# Coordination Sequence:
#
# PCOD9350764 Si02
#       8
#     8   8   8   8   8   8   8   8
#     4  11  20  39  60  90 117 156 193 239 296 356
#     4   9  18  36  60  80 109 140 186 240 289 331
#     4  11  19  35  64  84 109 143 194 246 279 345
#     4  12  23  37  58  90 129 156 186 243 312 363
#     4  10  19  38  58  87 107 152 200 244 281 341
#     4  11  24  37  52  83 118 150 183 233 298 350
#     4  10  18  34  62  88 100 143 207 237 272 329
#     4  10  20  36  59  78 111 152 201 242 274 341
#
# _framework density 18.109279000000001
#
# number of rings (size 3 to 8) (size 9 to 14) (size 15 to 20)
#    0.000    1.500    5.000    4.125    0.000    1.000 
#    0.000    0.625    0.000    9.750    0.000    0.000 
#    0.000    0.000    0.000    0.000    0.000    0.000 
#
# Total GULP energy -178574.747319 kJ/mol
# GULP energy per Si atom -5580.460854 kJ/mol
# Density = 1.806806 g / cm^3
# Si number density = 18.109279 Si / 1000 Ang^3
#
#
#
# Elastic Constant Matrix: (Units=GPa)
#
#
# Indices 1 2 3 4 5 6 
#
# 1 102.1890 26.4582 47.3128 0.0000 0.0000 0.0000
# 2 26.4582 91.5329 35.0909 0.0000 0.0000 0.0000
# 3 47.3128 35.0909 66.2598 0.0000 0.0000 0.0000
# 4 0.0000 0.0000 0.0000 26.6910 0.0000 0.0000
# 5 0.0000 0.0000 0.0000 0.0000 18.9126 0.0000
# 6 0.0000 0.0000 0.0000 0.0000 0.0000 13.8552
#
#
#
# Elastic Compliance Matrix: (Units=1/GPa)
#
#
# Indices 1 2 3 4 5 6 
#
# 1 0.014624 -0.000281 -0.010294 0.000000 0.000000 0.000000
# 2 -0.000281 0.013714 -0.007062 0.000000 0.000000 0.000000
# 3 -0.010294 -0.007062 0.026182 0.000000 0.000000 0.000000
# 4 0.000000 0.000000 0.000000 0.037466 0.000000 0.000000
# 5 0.000000 0.000000 0.000000 0.000000 0.052875 0.000000
# 6 0.000000 0.000000 0.000000 0.000000 0.000000 0.072175
#
#
# Mechanical properties :
#
#
# Convention : Reuss Voigt Hill
#
# Bulk Modulus (GPa) = 51.95645 53.07838 52.51742
# Shear Modulus (GPa) = 19.32551 21.96644 20.64598
#
# Velocity S-wave (km/s) = 3.27029 3.48658 3.38017
# Velocity P-wave (km/s) = 6.55839 6.75145 6.65562
#
# Compressibility (1/GPa) = 0.01924689
#
# Stress axis : x y z
#
# Youngs Moduli (GPa) = 68.37848 72.92028 38.19360
#
# Poissons Ratio (x) = 0.02049 0.39316
# Poissons Ratio (y) = 0.01921 0.26972
# Poissons Ratio (z) = 0.70387 0.51496
#
# Static dielectric constant tensor:
#      x y z
#    x 1.587970 0.000000 0.000000 
#    y 0.000000 1.648390 0.000000 
#    z 0.000000 0.000000 1.657810 
# 
# From -- ./inp_files/4944.got.cif
#   From: 2010.05.17/outbox.cif.g08.bks.cpg/sg36_3_cif.got.tgz:4944.got - 2010.06.03 17:41:39.
