data_PCOD9350628
_publ_section_title
;
Structure prediction by ZEFSAII (Michael W. Deem and Ramdas Pophale) SiO2 
 PCOD9350628
Probable space group: C M C 21
;
_chemical_formula_sum "Si O2"
_cell_formula_units_Z 64
_cell_length_a 8.374461
_cell_length_b 20.749809
_cell_length_c 20.397498
_cell_angle_alpha 90.000000
_cell_angle_beta 90.000000
_cell_angle_gamma 90.000000
_cell_volume 3544.441942
_symmetry_space_group_name_H-M "C M C 21"
_symmetry_group_IT_number 36
_symmetry_cell_setting 'orthorhombic'
loop_
_space_group_symop_operation_xyz
x,y,z
-x,-y,1/2+z
x,-y,1/2+z
-x,y,z
1/2+x,1/2+y,z
1/2-x,1/2-y,1/2+z
1/2+x,1/2-y,1/2+z
1/2-x,1/2+y,z
loop_
_atom_site_type_symbol
_atom_site_label
_atom_site_fract_x
_atom_site_fract_y
_atom_site_fract_z
Si Si1 0.310400 0.309082 0.740740
Si Si2 0.193551 0.088118 0.485386
Si Si3 0.305459 0.578093 0.336164
Si Si4 0.810650 0.172642 0.716744
Si Si5 0.307090 0.478404 0.588280
Si Si6 0.812464 0.662920 0.095798
Si Si7 0.687444 0.799044 0.072406
Si Si8 0.804915 0.972031 0.232015
O O1 0.500000 0.317042 0.730698
O O2 0.260212 0.355715 0.799551
O O3 0.271689 0.234010 0.750032
O O4 0.227294 0.330747 0.673276
O O5 0.247898 0.075864 0.411147
O O6 0.257371 0.155081 0.514073
O O7 0.000000 0.090421 0.486174
O O8 0.243435 0.031172 0.534864
O O9 0.500000 0.576157 0.337126
O O10 0.252294 0.518982 0.290249
O O11 0.777654 0.179161 0.638845
O O12 0.000000 0.177444 0.727327
O O13 0.754232 0.102141 0.738780
O O14 0.500000 0.476531 0.588897
O O15 0.245236 0.407073 0.573708
O O16 0.254599 0.500516 0.661085
O O17 0.726680 0.723867 0.062565
O O18 0.000000 0.669816 0.086115
O O19 0.500000 0.806391 0.084347
O O20 0.000000 0.972013 0.231411
#
# Coordination Sequence:
#
# PCOD9350628 Si02
#       8
#     8   8   8   8   8   8   8   8
#     4  10  18  32  53  78 108 141 176 219 268 319
#     4  10  20  36  57  79 106 145 183 219 266 328
#     4   9  18  33  55  78 104 142 183 215 263 327
#     4  10  18  31  53  80 108 138 177 224 267 312
#     4  10  18  33  55  79 108 140 179 222 269 319
#     4  11  21  33  53  81 109 137 178 225 270 317
#     4  11  21  34  53  78 108 140 177 224 273 320
#     4   9  16  30  53  79 105 137 175 218 262 314
#
# _framework density 18.056439999999998
#
# number of rings (size 3 to 8) (size 9 to 14) (size 15 to 20)
#    0.000    2.000    2.500    4.500    0.000    0.500 
#    0.000    2.500    0.000    1.500    0.000    0.000 
#    0.000    0.000    0.000    0.000    0.000    0.000 
#
# Total GULP energy -178595.969671 kJ/mol
# GULP energy per Si atom -5581.124052 kJ/mol
# Density = 1.801534 g / cm^3
# Si number density = 18.056440 Si / 1000 Ang^3
#
#
#
# Elastic Constant Matrix: (Units=GPa)
#
#
# Indices 1 2 3 4 5 6 
#
# 1 11.8157 -0.0496 4.0793 0.0000 0.0000 0.0000
# 2 -0.0496 138.5610 57.8825 0.0000 0.0000 0.0000
# 3 4.0793 57.8825 96.9535 0.0000 0.0000 0.0000
# 4 0.0000 0.0000 0.0000 25.0129 0.0000 0.0000
# 5 0.0000 0.0000 0.0000 0.0000 11.8954 0.0000
# 6 0.0000 0.0000 0.0000 0.0000 0.0000 28.8614
#
#
#
# Elastic Compliance Matrix: (Units=1/GPa)
#
#
# Indices 1 2 3 4 5 6 
#
# 1 0.086321 0.002062 -0.004863 0.000000 0.000000 0.000000
# 2 0.002062 0.009664 -0.005856 0.000000 0.000000 0.000000
# 3 -0.004863 -0.005856 0.014015 0.000000 0.000000 0.000000
# 4 0.000000 0.000000 0.000000 0.039979 0.000000 0.000000
# 5 0.000000 0.000000 0.000000 0.000000 0.084066 0.000000
# 6 0.000000 0.000000 0.000000 0.000000 0.000000 0.034648
#
#
# Mechanical properties :
#
#
# Convention : Reuss Voigt Hill
#
# Bulk Modulus (GPa) = 10.78916 41.23941 26.01429
# Shear Modulus (GPa) = 15.77766 25.51513 20.64639
#
# Velocity S-wave (km/s) = 2.95921 3.76317 3.38514
# Velocity P-wave (km/s) = 4.20287 6.46302 5.45137
#
# Compressibility (1/GPa) = 0.09268562
#
# Stress axis : x y z
#
# Youngs Moduli (GPa) = 11.58471 103.47398 71.35088
#
# Poissons Ratio (x) = -0.21341 0.34700
# Poissons Ratio (y) = -0.02389 0.41786
# Poissons Ratio (z) = 0.05634 0.60599
#
# Static dielectric constant tensor:
#      x y z
#    x 1.623900 0.000000 0.000000 
#    y 0.000000 1.628440 0.000000 
#    z 0.000000 0.000000 1.596470 
# 
# From -- ./inp_files/15831.got.cif
#   From: 2010.05.17/outbox.cif.g08.bks.cpg/sg36_8_cif.got.tgz:15831.got - 2010.06.03 17:41:39.
