data_PCOD9350939
_publ_section_title
;
Structure prediction by ZEFSAII (Michael W. Deem and Ramdas Pophale) SiO2 
 PCOD9350939
Probable space group: C M C 21
;
_chemical_formula_sum "Si O2"
_cell_formula_units_Z 64
_cell_length_a 7.307535
_cell_length_b 27.121378
_cell_length_c 13.556468
_cell_angle_alpha 90.000000
_cell_angle_beta 90.000000
_cell_angle_gamma 90.000000
_cell_volume 2686.762073
_symmetry_space_group_name_H-M "C M C 21"
_symmetry_group_IT_number 36
_symmetry_cell_setting 'orthorhombic'
loop_
_space_group_symop_operation_xyz
x,y,z
-x,-y,1/2+z
x,-y,1/2+z
-x,y,z
1/2+x,1/2+y,z
1/2-x,1/2-y,1/2+z
1/2+x,1/2-y,1/2+z
1/2-x,1/2+y,z
loop_
_atom_site_type_symbol
_atom_site_label
_atom_site_fract_x
_atom_site_fract_y
_atom_site_fract_z
Si Si1 0.294397 0.077369 0.109570
Si Si2 0.777162 0.370044 0.233912
Si Si3 0.781504 0.813331 0.556584
Si Si4 0.209808 0.271984 0.941825
Si Si5 0.723800 0.876588 0.013334
Si Si6 0.219140 0.743068 0.736169
Si Si7 0.222551 0.443340 0.828666
Si Si8 0.723087 0.051949 0.896918
O O1 0.500000 0.056140 0.117172
O O2 0.303883 0.134997 0.082531
O O3 0.213647 0.071947 0.219073
O O4 0.210946 0.054516 0.010058
O O5 0.724480 0.390478 0.125233
O O6 0.715077 0.313185 0.239184
O O7 0.716730 0.403392 0.325892
O O8 0.000000 0.369802 0.235648
O O9 0.717547 0.783374 0.460431
O O10 0.736141 0.771972 0.637330
O O11 0.000000 0.823094 0.554077
O O12 0.213013 0.276749 0.825254
O O13 0.000000 0.269865 0.977310
O O14 0.287456 0.320555 0.991908
O O15 0.500000 0.876364 0.011322
O O16 0.783628 0.910447 0.921944
O O17 0.000000 0.741499 0.742193
O O18 0.270960 0.499893 0.848979
O O19 0.000000 0.439213 0.828585
O O20 0.500000 0.054760 0.901169
#
# Coordination Sequence:
#
# PCOD9350939 Si02
#       8
#     8   8   8   8   8   8   8   8
#     4  10  20  34  51  77 107 131 168 216 261 306
#     4   9  16  28  46  67  95 132 168 199 241 300
#     4  10  20  34  51  73 103 139 176 206 249 310
#     4  10  19  32  50  74 102 136 173 207 248 300
#     4   9  16  28  46  67  95 132 168 199 241 300
#     4  10  19  32  50  74 102 136 173 207 248 300
#     4   9  18  29  46  73 103 132 161 206 261 305
#     4   9  18  29  46  73 103 132 161 206 261 305
#
# _framework density 23.820495999999999
#
# number of rings (size 3 to 8) (size 9 to 14) (size 15 to 20)
#    0.000    2.500    1.250    1.500    1.750    3.000 
#    0.000    0.000    0.000    0.750    0.000    0.000 
#    0.000    0.000    0.000    0.000    0.000    0.000 
#
# Total GULP energy -178680.290560 kJ/mol
# GULP energy per Si atom -5583.759080 kJ/mol
# Density = 2.376628 g / cm^3
# Si number density = 23.820496 Si / 1000 Ang^3
#
#
#
# Elastic Constant Matrix: (Units=GPa)
#
#
# Indices 1 2 3 4 5 6 
#
# 1 89.6026 -3.3623 1.2836 0.0000 0.0000 0.0000
# 2 -3.3623 64.2377 9.4092 0.0000 0.0000 0.0000
# 3 1.2836 9.4092 131.1884 0.0000 0.0000 0.0000
# 4 0.0000 0.0000 0.0000 37.9624 0.0000 0.0000
# 5 0.0000 0.0000 0.0000 0.0000 -5.0495 0.0000
# 6 0.0000 0.0000 0.0000 0.0000 0.0000 -7.0585
#
#
#
# Elastic Compliance Matrix: (Units=1/GPa)
#
#
# Indices 1 2 3 4 5 6 
#
# 1 0.011185 0.000608 -0.000153 0.000000 0.000000 0.000000
# 2 0.000608 0.015766 -0.001137 0.000000 0.000000 0.000000
# 3 -0.000153 -0.001137 0.007706 0.000000 0.000000 0.000000
# 4 0.000000 0.000000 0.000000 0.026342 0.000000 0.000000
# 5 0.000000 0.000000 0.000000 0.000000 -0.198038 0.000000
# 6 0.000000 0.000000 0.000000 0.000000 0.000000 -0.141673
#
#
# Mechanical properties :
#
#
# Convention : Reuss Voigt Hill
#
# Bulk Modulus (GPa) = 30.03650 33.29885 31.66768
# Shear Modulus (GPa) = -18.77928 23.68408 2.45240
#
# Velocity S-wave (km/s) = -2.81083 3.15663 1.01576
# Velocity P-wave (km/s) = 1.45001 5.22448 3.83391
#
# Compressibility (1/GPa) = 0.03329283
#
# Stress axis : x y z
#
# Youngs Moduli (GPa) = 89.40230 63.42963 129.77495
#
# Poissons Ratio (x) = -0.03856 0.01986
# Poissons Ratio (y) = -0.05435 0.14751
# Poissons Ratio (z) = 0.01368 0.07210
#
# Static dielectric constant tensor:
#      x y z
#    x 1.968980 0.000000 0.000000 
#    y 0.000000 1.854710 0.000000 
#    z 0.000000 0.000000 1.880280 
# 
# From -- ./inp_files/7998.got.cif
#   From: 2010.05.17/outbox.cif.g08.bks.cpg/sg36_4_cif.got.tgz:7998.got - 2010.06.03 17:41:39.
