data_PCOD9350064
_publ_section_title
;
Structure prediction by ZEFSAII (Michael W. Deem and Ramdas Pophale) SiO2 
 PCOD9350064
Probable space group: C M M 2
;
_chemical_formula_sum "Si O2"
_cell_formula_units_Z 48
_cell_length_a 13.991729
_cell_length_b 20.539528
_cell_length_c 9.097353
_cell_angle_alpha 90.000000
_cell_angle_beta 90.000000
_cell_angle_gamma 90.000000
_cell_volume 2614.429233
_symmetry_space_group_name_H-M "C M M 2"
_symmetry_group_IT_number 35
_symmetry_cell_setting 'orthorhombic'
loop_
_space_group_symop_operation_xyz
x,y,z
-x,-y,z
-x,y,z
x,-y,z
1/2+x,1/2+y,z
1/2-x,1/2-y,z
1/2-x,1/2+y,z
1/2+x,1/2-y,z
loop_
_atom_site_type_symbol
_atom_site_label
_atom_site_fract_x
_atom_site_fract_y
_atom_site_fract_z
Si Si1 0.000000 0.204684 0.284900
Si Si2 0.000000 0.147107 0.614043
Si Si3 0.705688 0.317488 0.154575
Si Si4 0.191286 0.425154 0.342341
Si Si5 0.500000 0.847564 0.425350
Si Si6 0.698447 0.426019 0.648276
Si Si7 0.500000 0.211223 0.754872
Si Si8 0.290197 0.184941 0.830532
O O1 0.000000 0.168089 0.442472
O O2 0.094346 0.185916 0.193931
O O3 0.000000 0.281303 0.328417
O O4 0.094127 0.105730 0.647102
O O5 0.000000 0.212765 0.710937
O O6 0.750000 0.250000 0.217149
O O7 0.756093 0.379855 0.224773
O O8 0.732880 0.318026 0.983118
O O9 0.175348 0.500000 0.295302
O O10 0.093063 0.390008 0.388029
O O11 0.259628 0.426280 0.484308
O O12 0.500000 0.826346 0.597295
O O13 0.696280 0.500000 0.703075
O O14 0.766429 0.379442 0.741787
O O15 0.403752 0.194101 0.842653
O O16 0.250000 0.250000 0.749963
#
# Coordination Sequence:
#
# PCOD9350064 Si02
#       8
#     4   4   8   8   4   8   4   8
#     4  11  22  38  66  98 121 163 213 262 316 366
#     4  11  21  37  67  93 127 162 213 264 305 372
#     4  11  24  41  64  93 129 165 205 263 316 376
#     4  11  23  40  63  93 128 166 211 258 312 372
#     4  11  21  37  67  93 127 162 213 264 305 372
#     4  11  23  40  63  93 128 166 211 258 312 372
#     4  11  22  38  66  98 121 163 213 262 316 366
#     4  11  24  41  64  93 129 165 205 263 316 376
#
# _framework density 18.359646999999999
#
# number of rings (size 3 to 8) (size 9 to 14) (size 15 to 20)
#    0.000    1.000    6.667    0.500    0.000    5.333 
#    0.000    0.833    0.000    0.000    0.000    0.000 
#    0.000    0.000    0.000    0.000    0.000    0.000 
#
# Total GULP energy -134062.377279 kJ/mol
# GULP energy per Si atom -5585.932387 kJ/mol
# Density = 1.831786 g / cm^3
# Si number density = 18.359647 Si / 1000 Ang^3
#
#
#
# Elastic Constant Matrix: (Units=GPa)
#
#
# Indices 1 2 3 4 5 6 
#
# 1 102.0479 17.6938 -9.0211 0.0000 0.0000 0.0000
# 2 17.6938 141.0932 17.0612 0.0000 0.0000 0.0000
# 3 -9.0211 17.0612 39.4493 0.0000 0.0000 0.0000
# 4 0.0000 0.0000 0.0000 17.5966 0.0000 0.0000
# 5 0.0000 0.0000 0.0000 0.0000 13.0073 0.0000
# 6 0.0000 0.0000 0.0000 0.0000 0.0000 -11.2158
#
#
#
# Elastic Compliance Matrix: (Units=1/GPa)
#
#
# Indices 1 2 3 4 5 6 
#
# 1 0.010363 -0.001674 0.003094 0.000000 0.000000 0.000000
# 2 -0.001674 0.007749 -0.003734 0.000000 0.000000 0.000000
# 3 0.003094 -0.003734 0.027671 0.000000 0.000000 0.000000
# 4 0.000000 0.000000 0.000000 0.056829 0.000000 0.000000
# 5 0.000000 0.000000 0.000000 0.000000 0.076880 0.000000
# 6 0.000000 0.000000 0.000000 0.000000 0.000000 -0.089160
#
#
# Mechanical properties :
#
#
# Convention : Reuss Voigt Hill
#
# Bulk Modulus (GPa) = 24.29832 37.11759 30.70795
# Shear Modulus (GPa) = 46.00696 21.00139 33.50417
#
# Velocity S-wave (km/s) = 5.01130 3.38581 4.27650
# Velocity P-wave (km/s) = 6.83722 5.96203 6.41457
#
# Compressibility (1/GPa) = 0.04115510
#
# Stress axis : x y z
#
# Youngs Moduli (GPa) = 96.49730 129.05021 36.13848
#
# Poissons Ratio (x) = 0.21599 -0.11180
# Poissons Ratio (y) = 0.16150 0.13494
# Poissons Ratio (z) = -0.29852 0.48188
#
# Static dielectric constant tensor:
#      x y z
#    x 1.612030 0.000000 0.000000 
#    y 0.000000 1.634830 0.000000 
#    z 0.000000 0.000000 1.622520 
# 
# From -- ./inp_files/7374.got.cif
#   From: 2010.05.17/outbox.cif.g08.bks.cpg/sg35_4_cif.got.tgz:7374.got - 2010.06.03 17:29:28.
