data_PCOD9350922
_publ_section_title
;
Structure prediction by ZEFSAII (Michael W. Deem and Ramdas Pophale) SiO2 
 PCOD9350922
Probable space group: C M C 21
;
_chemical_formula_sum "Si O2"
_cell_formula_units_Z 64
_cell_length_a 7.463702
_cell_length_b 25.440841
_cell_length_c 14.457104
_cell_angle_alpha 90.000000
_cell_angle_beta 90.000000
_cell_angle_gamma 90.000000
_cell_volume 2745.156195
_symmetry_space_group_name_H-M "C M C 21"
_symmetry_group_IT_number 36
_symmetry_cell_setting 'orthorhombic'
loop_
_space_group_symop_operation_xyz
x,y,z
-x,-y,1/2+z
x,-y,1/2+z
-x,y,z
1/2+x,1/2+y,z
1/2-x,1/2-y,1/2+z
1/2+x,1/2-y,1/2+z
1/2-x,1/2+y,z
loop_
_atom_site_type_symbol
_atom_site_label
_atom_site_fract_x
_atom_site_fract_y
_atom_site_fract_z
Si Si1 0.203998 0.033188 0.324380
Si Si2 0.287919 0.836915 0.357820
Si Si3 0.220816 0.908727 0.640033
Si Si4 0.205127 0.943996 0.447525
Si Si5 0.719541 0.824823 0.146683
Si Si6 0.716149 0.880302 0.970259
Si Si7 0.297678 0.709809 0.142797
Si Si8 0.212229 0.721629 0.354054
O O1 0.280630 0.064431 0.236020
O O2 0.205723 0.072665 0.411208
O O3 0.000000 0.020449 0.295907
O O4 0.288167 0.980450 0.367587
O O5 0.500000 0.845601 0.357597
O O6 0.204367 0.884139 0.413764
O O7 0.223514 0.835691 0.251356
O O8 0.251895 0.778712 0.395631
O O9 0.280073 0.942351 0.551199
O O10 0.282865 0.848066 0.628035
O O11 0.000000 0.906027 0.641451
O O12 0.000000 0.962392 0.457065
O O13 0.500000 0.822136 0.146459
O O14 0.782135 0.766485 0.115428
O O15 0.772082 0.870171 0.075524
O O16 0.500000 0.886108 0.968092
O O17 0.764130 0.826525 0.917894
O O18 0.500000 0.708332 0.104744
O O19 0.304027 0.715853 0.254582
O O20 0.000000 0.718266 0.337735
#
# Coordination Sequence:
#
# PCOD9350922 Si02
#       8
#     8   8   8   8   8   8   8   8
#     4  10  21  38  58  82 113 148 191 235 281 337
#     4  10  21  38  57  79 113 151 188 230 281 339
#     4   9  18  34  57  81 110 151 187 226 286 347
#     4  10  22  38  59  84 110 147 193 237 284 336
#     4   8  17  32  52  79 109 148 186 219 273 343
#     4  10  20  34  55  82 111 146 188 228 274 333
#     4   9  16  31  55  76 107 151 192 223 271 341
#     4  10  19  31  53  83 115 144 181 232 280 326
#
# _framework density 23.313790999999998
#
# number of rings (size 3 to 8) (size 9 to 14) (size 15 to 20)
#    0.000    2.500    1.250    1.500    1.750    2.000 
#    0.000    5.625    0.000    0.000    0.000    0.000 
#    0.000    0.000    0.000    0.000    0.000    0.000 
#
# Total GULP energy -178662.620653 kJ/mol
# GULP energy per Si atom -5583.206895 kJ/mol
# Density = 2.326073 g / cm^3
# Si number density = 23.313791 Si / 1000 Ang^3
#
#
#
# Elastic Constant Matrix: (Units=GPa)
#
#
# Indices 1 2 3 4 5 6 
#
# 1 70.2237 -0.1592 2.5126 0.0000 0.0000 0.0000
# 2 -0.1592 89.9404 23.6431 0.0000 0.0000 0.0000
# 3 2.5126 23.6431 69.8667 0.0000 0.0000 0.0000
# 4 0.0000 0.0000 0.0000 27.2429 0.0000 0.0000
# 5 0.0000 0.0000 0.0000 0.0000 5.6728 0.0000
# 6 0.0000 0.0000 0.0000 0.0000 0.0000 -32.6221
#
#
#
# Elastic Compliance Matrix: (Units=1/GPa)
#
#
# Indices 1 2 3 4 5 6 
#
# 1 0.014261 0.000176 -0.000572 0.000000 0.000000 0.000000
# 2 0.000176 0.012206 -0.004137 0.000000 0.000000 0.000000
# 3 -0.000572 -0.004137 0.015734 0.000000 0.000000 0.000000
# 4 0.000000 0.000000 0.000000 0.036707 0.000000 0.000000
# 5 0.000000 0.000000 0.000000 0.000000 0.176279 0.000000
# 6 0.000000 0.000000 0.000000 0.000000 0.000000 -0.030654
#
#
# Mechanical properties :
#
#
# Convention : Reuss Voigt Hill
#
# Bulk Modulus (GPa) = 30.18073 31.33596 30.75834
# Shear Modulus (GPa) = 20.43785 13.66101 17.04943
#
# Velocity S-wave (km/s) = 2.96403 2.42329 2.70719
# Velocity P-wave (km/s) = 4.96865 4.61518 4.79518
#
# Compressibility (1/GPa) = 0.03313372
#
# Stress axis : x y z
#
# Youngs Moduli (GPa) = 70.12086 81.92495 63.55856
#
# Poissons Ratio (x) = -0.01439 0.03638
# Poissons Ratio (y) = -0.01232 0.26294
# Poissons Ratio (z) = 0.04013 0.33892
#
# Static dielectric constant tensor:
#      x y z
#    x 1.922400 0.000000 0.000000 
#    y 0.000000 1.858960 0.000000 
#    z 0.000000 0.000000 1.874510 
# 
# From -- ./inp_files/11011.got.cif
#   From: 2010.05.17/outbox.cif.g08.bks.cpg/sg36_6_cif.got.tgz:11011.got - 2010.06.03 17:41:39.
