data_PCOD9350830
_publ_section_title
;
Structure prediction by ZEFSAII (Michael W. Deem and Ramdas Pophale) SiO2 
 PCOD9350830
Probable space group: C M C 21
;
_chemical_formula_sum "Si O2"
_cell_formula_units_Z 64
_cell_length_a 24.294546
_cell_length_b 29.747205
_cell_length_c 5.357583
_cell_angle_alpha 90.000000
_cell_angle_beta 90.000000
_cell_angle_gamma 90.000000
_cell_volume 3871.897590
_symmetry_space_group_name_H-M "C M C 21"
_symmetry_group_IT_number 36
_symmetry_cell_setting 'orthorhombic'
loop_
_space_group_symop_operation_xyz
x,y,z
-x,-y,1/2+z
x,-y,1/2+z
-x,y,z
1/2+x,1/2+y,z
1/2-x,1/2-y,1/2+z
1/2+x,1/2-y,1/2+z
1/2-x,1/2+y,z
loop_
_atom_site_type_symbol
_atom_site_label
_atom_site_fract_x
_atom_site_fract_y
_atom_site_fract_z
Si Si1 0.559936 0.469861 0.108250
Si Si2 0.215580 0.115101 0.624972
Si Si3 0.351763 0.564829 0.281162
Si Si4 0.892416 0.172445 0.645904
Si Si5 0.732999 0.514780 0.757113
Si Si6 0.563096 0.630545 0.127122
Si Si7 0.176414 0.741367 0.102363
Si Si8 0.288391 0.801832 0.102751
O O1 0.561449 0.496883 0.366283
O O2 0.500000 0.446597 0.104233
O O3 0.611756 0.439753 0.035854
O O4 0.197088 0.099073 0.347257
O O5 0.164452 0.145781 0.707168
O O6 0.221997 0.067826 0.769032
O O7 0.268376 0.146794 0.622369
O O8 0.321826 0.517674 0.224482
O O9 0.396223 0.587473 0.102005
O O10 0.917401 0.155129 0.382654
O O11 0.874106 0.224041 0.619875
O O12 0.929870 0.161314 0.883663
O O13 0.762434 0.504250 0.498194
O O14 0.500000 0.616047 0.147778
O O15 0.232023 0.772076 0.098898
O O16 0.181166 0.710259 0.346042
O O17 0.178246 0.713780 0.845658
#
# Coordination Sequence:
#
# PCOD9350830 Si02
#       8
#     8   8   8   8   8   8   8   8
#     4  10  20  32  44  56  71  97 139 190 235 270
#     4   9  19  31  47  65  85 111 142 183 229 273
#     4  10  20  33  45  60  83 115 149 184 226 267
#     4  10  20  34  50  65  85 111 138 173 229 286
#     4  10  19  30  43  58  79 110 148 183 219 258
#     4  11  22  34  48  66  87 113 150 193 231 268
#     4   9  17  30  47  66  86 106 127 162 218 285
#     4   9  17  28  45  68  88 103 129 168 218 275
#
# _framework density 16.529361999999999
#
# number of rings (size 3 to 8) (size 9 to 14) (size 15 to 20)
#    0.000    2.250    0.000    3.750    0.000   10.000 
#    0.000    3.750    0.000    1.500    0.000    0.000 
#    0.000    0.000    0.000    0.000    0.000    0.000 
#
# Total GULP energy -178393.591137 kJ/mol
# GULP energy per Si atom -5574.799723 kJ/mol
# Density = 1.649174 g / cm^3
# Si number density = 16.529362 Si / 1000 Ang^3
#
#
#
# Elastic Constant Matrix: (Units=GPa)
#
#
# Indices 1 2 3 4 5 6 
#
# 1 18.0456 30.2874 17.8103 0.0000 0.0000 0.0000
# 2 30.2874 93.7183 30.1588 0.0000 0.0000 0.0000
# 3 17.8103 30.1588 113.6064 0.0000 0.0000 0.0000
# 4 0.0000 0.0000 0.0000 24.2996 0.0000 0.0000
# 5 0.0000 0.0000 0.0000 0.0000 12.1688 0.0000
# 6 0.0000 0.0000 0.0000 0.0000 0.0000 20.0612
#
#
#
# Elastic Compliance Matrix: (Units=1/GPa)
#
#
# Indices 1 2 3 4 5 6 
#
# 1 0.131034 -0.039074 -0.010170 0.000000 0.000000 0.000000
# 2 -0.039074 0.023319 -0.000065 0.000000 0.000000 0.000000
# 3 -0.010170 -0.000065 0.010414 0.000000 0.000000 0.000000
# 4 0.000000 0.000000 0.000000 0.041153 0.000000 0.000000
# 5 0.000000 0.000000 0.000000 0.000000 0.082177 0.000000
# 6 0.000000 0.000000 0.000000 0.000000 0.000000 0.049848
#
#
# Mechanical properties :
#
#
# Convention : Reuss Voigt Hill
#
# Bulk Modulus (GPa) = 15.11723 42.43147 28.77435
# Shear Modulus (GPa) = 10.90249 21.11351 16.00800
#
# Velocity S-wave (km/s) = 2.57102 3.57786 3.11538
# Velocity P-wave (km/s) = 4.24017 6.54173 5.51241
#
# Compressibility (1/GPa) = 0.06614967
#
# Stress axis : x y z
#
# Youngs Moduli (GPa) = 7.63161 42.88367 96.02657
#
# Poissons Ratio (x) = 1.67565 0.97655
# Poissons Ratio (y) = 0.29820 0.00621
# Poissons Ratio (z) = 0.07761 0.00277
#
# Static dielectric constant tensor:
#      x y z
#    x 1.549610 0.000000 0.000000 
#    y 0.000000 1.598270 0.000000 
#    z 0.000000 0.000000 1.657550 
# 
# From -- ./inp_files/1685.got.cif
#   From: 2010.05.17/outbox.cif.g08.bks.cpg/sg36_1_cif.got.tgz:1685.got - 2010.06.03 17:41:39.
