data_PCOD9350370
_publ_section_title
;
Structure prediction by ZEFSAII (Michael W. Deem and Ramdas Pophale) SiO2 
 PCOD9350370
Probable space group: C M M 2
;
_chemical_formula_sum "Si O2"
_cell_formula_units_Z 64
_cell_length_a 29.368843
_cell_length_b 8.693238
_cell_length_c 16.060047
_cell_angle_alpha 90.000000
_cell_angle_beta 90.000000
_cell_angle_gamma 90.000000
_cell_volume 4100.296092
_symmetry_space_group_name_H-M "C M M 2"
_symmetry_group_IT_number 35
_symmetry_cell_setting 'orthorhombic'
loop_
_space_group_symop_operation_xyz
x,y,z
-x,-y,z
-x,y,z
x,-y,z
1/2+x,1/2+y,z
1/2-x,1/2-y,z
1/2-x,1/2+y,z
1/2+x,1/2-y,z
loop_
_atom_site_type_symbol
_atom_site_label
_atom_site_fract_x
_atom_site_fract_y
_atom_site_fract_z
Si Si1 0.947555 0.684820 0.475140
Si Si2 0.609010 0.813643 0.635212
Si Si3 0.944754 0.177532 0.300471
Si Si4 0.700773 0.684298 0.896150
Si Si5 0.946840 0.813499 0.116213
Si Si6 0.947727 0.312732 0.798118
Si Si7 0.108622 0.684757 0.961562
Si Si8 0.200913 0.816048 0.701360
O O1 0.948771 0.500000 0.478138
O O2 0.915706 0.737730 0.550569
O O3 0.931055 0.734649 0.383793
O O4 0.000000 0.739327 0.486406
O O5 0.578759 0.764950 0.714891
O O6 0.659396 0.749554 0.648261
O O7 0.610792 0.000000 0.635345
O O8 0.931352 0.236758 0.209002
O O9 0.000000 0.180087 0.298581
O O10 0.930534 0.000000 0.307872
O O11 0.701224 0.500000 0.901125
O O12 0.750000 0.750000 0.920687
O O13 0.659311 0.751611 0.948843
O O14 0.693441 0.728669 0.798710
O O15 0.000000 0.768939 0.103997
O O16 0.945376 0.000000 0.115244
O O17 0.915926 0.746550 0.043745
O O18 0.948391 0.500000 0.797900
O O19 0.920810 0.264607 0.880780
O O20 0.000000 0.260116 0.798690
O O21 0.109566 0.500000 0.962744
O O22 0.250000 0.750000 0.676576
O O23 0.201773 0.000000 0.697067
#
# Coordination Sequence:
#
# PCOD9350370 Si02
#       8
#     8   8   8   8   8   8   8   8
#     4   9  17  28  45  70  97 126 160 197 235 276
#     4  10  18  30  47  67  95 128 160 193 234 279
#     4   8  15  29  47  65  89 124 161 198 241 282
#     4  10  20  34  51  69  92 121 158 201 245 285
#     4   9  18  32  48  67  95 130 164 199 241 285
#     4   9  17  28  42  62  92 129 163 190 220 266
#     4  11  20  30  47  71  97 126 162 198 236 281
#     4  10  20  33  50  69  91 119 157 200 242 281
#
# _framework density 15.608629000000001
#
# number of rings (size 3 to 8) (size 9 to 14) (size 15 to 20)
#    0.000    2.500    1.250    2.625    0.000    4.250 
#    0.000    1.250    0.000    1.875    0.000    0.875 
#    0.000    2.000    0.000    0.000    0.000    0.000 
#
# Total GULP energy -178404.572418 kJ/mol
# GULP energy per Si atom -5575.142888 kJ/mol
# Density = 1.557310 g / cm^3
# Si number density = 15.608629 Si / 1000 Ang^3
#
#
#
# Elastic Constant Matrix: (Units=GPa)
#
#
# Indices 1 2 3 4 5 6 
#
# 1 123.9738 29.2435 79.9793 0.0000 0.0000 0.0000
# 2 29.2435 21.8453 31.6064 0.0000 0.0000 0.0000
# 3 79.9793 31.6064 143.6858 0.0000 0.0000 0.0000
# 4 0.0000 0.0000 0.0000 22.2226 0.0000 0.0000
# 5 0.0000 0.0000 0.0000 0.0000 8.8762 0.0000
# 6 0.0000 0.0000 0.0000 0.0000 0.0000 20.5637
#
#
#
# Elastic Compliance Matrix: (Units=1/GPa)
#
#
# Indices 1 2 3 4 5 6 
#
# 1 0.014216 -0.011121 -0.005467 0.000000 0.000000 0.000000
# 2 -0.011121 0.075847 -0.010493 0.000000 0.000000 0.000000
# 3 -0.005467 -0.010493 0.012311 0.000000 0.000000 0.000000
# 4 0.000000 0.000000 0.000000 0.044999 0.000000 0.000000
# 5 0.000000 0.000000 0.000000 0.000000 0.112660 0.000000
# 6 0.000000 0.000000 0.000000 0.000000 0.000000 0.048629
#
#
# Mechanical properties :
#
#
# Convention : Reuss Voigt Hill
#
# Bulk Modulus (GPa) = 20.74240 63.46259 42.10250
# Shear Modulus (GPa) = 13.19623 20.24422 16.72022
#
# Velocity S-wave (km/s) = 2.91081 3.60528 3.27650
# Velocity P-wave (km/s) = 4.96135 7.62087 6.43011
#
# Compressibility (1/GPa) = 0.04821042
#
# Stress axis : x y z
#
# Youngs Moduli (GPa) = 70.34113 13.18452 81.22908
#
# Poissons Ratio (x) = 0.14663 0.44407
# Poissons Ratio (y) = 0.78229 0.85237
# Poissons Ratio (z) = 0.38455 0.13835
#
# Static dielectric constant tensor:
#      x y z
#    x 1.498390 0.000000 0.000000 
#    y 0.000000 1.527860 0.000000 
#    z 0.000000 0.000000 1.519600 
# 
# From -- ./inp_files/16145.got.cif
#   From: 2010.05.17/outbox.cif.g08.bks.cpg/sg35_9_cif.got.tgz:16145.got - 2010.06.03 17:29:28.
