data_PCOD9350532
_publ_section_title
;
Structure prediction by ZEFSAII (Michael W. Deem and Ramdas Pophale) SiO2 
 PCOD9350532
Probable space group: C M C 21
;
_chemical_formula_sum "Si O2"
_cell_formula_units_Z 56
_cell_length_a 22.485764
_cell_length_b 18.236835
_cell_length_c 8.549316
_cell_angle_alpha 90.000000
_cell_angle_beta 90.000000
_cell_angle_gamma 90.000000
_cell_volume 3505.810898
_symmetry_space_group_name_H-M "C M C 21"
_symmetry_group_IT_number 36
_symmetry_cell_setting 'orthorhombic'
loop_
_space_group_symop_operation_xyz
x,y,z
-x,-y,1/2+z
x,-y,1/2+z
-x,y,z
1/2+x,1/2+y,z
1/2-x,1/2-y,1/2+z
1/2+x,1/2-y,1/2+z
1/2-x,1/2+y,z
loop_
_atom_site_type_symbol
_atom_site_label
_atom_site_fract_x
_atom_site_fract_y
_atom_site_fract_z
Si Si1 0.930884 0.528743 0.265690
Si Si2 0.181363 0.297842 0.120805
Si Si3 0.759379 0.000455 0.351833
Si Si4 0.816599 0.583536 0.095323
Si Si5 0.209387 0.257319 0.472504
Si Si6 0.068286 0.387230 0.093322
Si Si7 0.710750 0.394088 0.109441
O O1 0.882277 0.566801 0.156116
O O2 0.924007 0.561911 0.438958
O O3 0.921168 0.441602 0.240569
O O4 0.000000 0.541408 0.218351
O O5 0.191578 0.262205 0.291198
O O6 0.114391 0.320707 0.090036
O O7 0.314929 0.315057 0.062244
O O8 0.218469 0.374379 0.118582
O O9 0.729328 0.055281 0.227812
O O10 0.797311 0.048839 0.470572
O O11 0.705608 0.961805 0.445041
O O12 0.798652 0.937620 0.269042
O O13 0.809595 0.668636 0.056755
O O14 0.218800 0.251412 0.993788
O O15 0.000000 0.362608 0.096777
#
# Coordination Sequence:
#
# PCOD9350532 Si02
#       7
#     8   8   8   8   8   8   8
#     4  10  21  32  47  71  98 139 184 218 245 291
#     4  10  20  33  46  70  94 132 176 209 261 307
#     4  10  18  28  46  65  90 124 169 197 245 301
#     4  11  18  30  46  65  95 134 165 215 249 298
#     4  10  21  32  47  69  98 132 176 212 267 312
#     4  10  21  35  50  70 102 137 183 222 248 295
#     4   9  19  30  44  68  90 126 166 199 249 310
#
# _framework density 15.97348
#
# number of rings (size 3 to 8) (size 9 to 14) (size 15 to 20)
#    0.857    1.143    1.429    4.286    4.000    0.000 
#    0.000    0.000    0.000    0.000    0.000    0.000 
#    0.000    0.000    0.000   34.714    0.000    2.000 
#
# Total GULP energy -155873.706109 kJ/mol
# GULP energy per Si atom -5566.918075 kJ/mol
# Density = 1.593712 g / cm^3
# Si number density = 15.973480 Si / 1000 Ang^3
#
#
#
# Elastic Constant Matrix: (Units=GPa)
#
#
# Indices 1 2 3 4 5 6 
#
# 1 48.0460 6.0696 2.4595 0.0000 0.0000 0.0000
# 2 6.0696 65.2645 7.6887 0.0000 0.0000 0.0000
# 3 2.4595 7.6887 53.4165 0.0000 0.0000 0.0000
# 4 0.0000 0.0000 0.0000 25.5147 0.0000 0.0000
# 5 0.0000 0.0000 0.0000 0.0000 15.0433 0.0000
# 6 0.0000 0.0000 0.0000 0.0000 0.0000 24.8464
#
#
#
# Elastic Compliance Matrix: (Units=1/GPa)
#
#
# Indices 1 2 3 4 5 6 
#
# 1 0.021087 -0.001879 -0.000701 0.000000 0.000000 0.000000
# 2 -0.001879 0.015754 -0.002181 0.000000 0.000000 0.000000
# 3 -0.000701 -0.002181 0.019067 0.000000 0.000000 0.000000
# 4 0.000000 0.000000 0.000000 0.039193 0.000000 0.000000
# 5 0.000000 0.000000 0.000000 0.000000 0.066475 0.000000
# 6 0.000000 0.000000 0.000000 0.000000 0.000000 0.040247
#
#
# Mechanical properties :
#
#
# Convention : Reuss Voigt Hill
#
# Bulk Modulus (GPa) = 21.55765 22.12916 21.84340
# Shear Modulus (GPa) = 22.04533 23.11482 22.58007
#
# Velocity S-wave (km/s) = 3.71903 3.80817 3.76386
# Velocity P-wave (km/s) = 5.65392 5.76368 5.70906
#
# Compressibility (1/GPa) = 0.04638725
#
# Stress axis : x y z
#
# Youngs Moduli (GPa) = 47.42355 63.47623 52.44659
#
# Poissons Ratio (x) = 0.11924 0.03674
# Poissons Ratio (y) = 0.08909 0.11439
# Poissons Ratio (z) = 0.03322 0.13845
#
# Static dielectric constant tensor:
#      x y z
#    x 1.520130 0.000000 0.000000 
#    y 0.000000 1.547960 0.000000 
#    z 0.000000 0.000000 1.609010 
# 
# From -- ./inp_files/5359.got.cif
#   From: 2010.05.17/outbox.cif.g08.bks.cpg/sg36_3_cif.got.tgz:5359.got - 2010.06.03 17:41:39.
