data_PCOD9350115
_publ_section_title
;
Structure prediction by ZEFSAII (Michael W. Deem and Ramdas Pophale) SiO2 
 PCOD9350115
Probable space group: C M M 2
;
_chemical_formula_sum "Si O2"
_cell_formula_units_Z 48
_cell_length_a 7.755993
_cell_length_b 16.827528
_cell_length_c 18.372773
_cell_angle_alpha 90.000000
_cell_angle_beta 90.000000
_cell_angle_gamma 90.000000
_cell_volume 2397.907575
_symmetry_space_group_name_H-M "C M M 2"
_symmetry_group_IT_number 35
_symmetry_cell_setting 'orthorhombic'
loop_
_space_group_symop_operation_xyz
x,y,z
-x,-y,z
-x,y,z
x,-y,z
1/2+x,1/2+y,z
1/2-x,1/2-y,z
1/2-x,1/2+y,z
1/2+x,1/2-y,z
loop_
_atom_site_type_symbol
_atom_site_label
_atom_site_fract_x
_atom_site_fract_y
_atom_site_fract_z
Si Si1 0.294019 0.090735 0.161380
Si Si2 0.293954 0.090307 0.850631
Si Si3 0.000000 0.093635 0.591807
Si Si4 0.796006 0.090799 0.006489
Si Si5 0.293661 0.841953 0.694818
Si Si6 0.500000 0.402725 0.427204
Si Si7 0.300920 0.097337 0.319349
O O1 0.500000 0.085479 0.167648
O O2 0.237928 0.125084 0.239084
O O3 0.223203 0.000000 0.156783
O O4 0.256411 0.129112 0.083235
O O5 0.500000 0.085975 0.847270
O O6 0.251320 0.128060 0.928846
O O7 0.239650 0.132345 0.776545
O O8 0.223247 0.000000 0.850455
O O9 0.828762 0.115923 0.636592
O O10 0.000000 0.127426 0.509839
O O11 0.000000 0.000000 0.584054
O O12 0.000000 0.084731 0.007882
O O13 0.719995 0.000000 0.005369
O O14 0.500000 0.856498 0.685648
O O15 0.250000 0.750000 0.687498
O O16 0.500000 0.500000 0.427784
O O17 0.330566 0.378354 0.382002
O O18 0.500000 0.121173 0.331751
O O19 0.300384 0.000000 0.315876
#
# Coordination Sequence:
#
# PCOD9350115 Si02
#       7
#     8   8   4   8   8   4   8
#     4   8  13  21  33  52  85 133 178 214 260 319
#     4   9  18  32  50  73 104 143 186 230 279 335
#     4  11  24  40  62  91 120 152 192 243 301 358
#     4   9  16  22  34  61  95 133 176 222 268 319
#     4  11  23  41  63  86 115 154 193 243 295 354
#     4   9  18  30  46  71 103 138 176 225 282 338
#     4   8  14  24  39  60  92 136 179 216 264 330
#
# _framework density 20.017451999999999
#
# number of rings (size 3 to 8) (size 9 to 14) (size 15 to 20)
#    0.000    2.833    0.833    2.000    2.333    3.667 
#    0.000    1.667    0.000    0.000    0.000    0.000 
#    0.000    1.333    1.667    0.000    0.000    0.000 
#
# Total GULP energy -133677.557496 kJ/mol
# GULP energy per Si atom -5569.898229 kJ/mol
# Density = 1.997189 g / cm^3
# Si number density = 20.017452 Si / 1000 Ang^3
#
#
#
# Elastic Constant Matrix: (Units=GPa)
#
#
# Indices 1 2 3 4 5 6 
#
# 1 93.6056 6.5432 78.4738 0.0000 0.0000 0.0000
# 2 6.5432 12.4192 16.6111 0.0000 0.0000 0.0000
# 3 78.4738 16.6111 221.6263 0.0000 0.0000 0.0000
# 4 0.0000 0.0000 0.0000 -13.6895 0.0000 0.0000
# 5 0.0000 0.0000 0.0000 0.0000 38.6127 0.0000
# 6 0.0000 0.0000 0.0000 0.0000 0.0000 7.6591
#
#
#
# Elastic Compliance Matrix: (Units=1/GPa)
#
#
# Indices 1 2 3 4 5 6 
#
# 1 0.015202 -0.000900 -0.005315 0.000000 0.000000 0.000000
# 2 -0.000900 0.089546 -0.006393 0.000000 0.000000 0.000000
# 3 -0.005315 -0.006393 0.006873 0.000000 0.000000 0.000000
# 4 0.000000 0.000000 0.000000 -0.073049 0.000000 0.000000
# 5 0.000000 0.000000 0.000000 0.000000 0.025898 0.000000
# 6 0.000000 0.000000 0.000000 0.000000 0.000000 0.130564
#
#
# Mechanical properties :
#
#
# Convention : Reuss Voigt Hill
#
# Bulk Modulus (GPa) = 11.57344 58.98967 35.28155
# Shear Modulus (GPa) = 20.07610 21.58465 20.83038
#
# Velocity S-wave (km/s) = 3.17034 3.28730 3.22935
# Velocity P-wave (km/s) = 4.38129 6.62884 5.61859
#
# Compressibility (1/GPa) = 0.08640472
#
# Stress axis : x y z
#
# Youngs Moduli (GPa) = 65.78030 11.16750 145.49020
#
# Poissons Ratio (x) = 0.01005 0.77333
# Poissons Ratio (y) = 0.05920 0.93010
# Poissons Ratio (z) = 0.34964 0.07139
#
# Static dielectric constant tensor:
#      x y z
#    x 1.703880 0.000000 0.000000 
#    y 0.000000 1.707940 0.000000 
#    z 0.000000 0.000000 1.766200 
# 
# From -- ./inp_files/15232.got.cif
#   From: 2010.05.17/outbox.cif.g08.bks.cpg/sg35_8_cif.got.tgz:15232.got - 2010.06.03 17:29:28.
