data_PCOD9350594
_publ_section_title
;
Structure prediction by ZEFSAII (Michael W. Deem and Ramdas Pophale) SiO2 
 PCOD9350594
Probable space group: C M C 21
;
_chemical_formula_sum "Si O2"
_cell_formula_units_Z 48
_cell_length_a 8.774572
_cell_length_b 18.860553
_cell_length_c 16.705981
_cell_angle_alpha 90.000000
_cell_angle_beta 90.000000
_cell_angle_gamma 90.000000
_cell_volume 2764.727596
_symmetry_space_group_name_H-M "C M C 21"
_symmetry_group_IT_number 36
_symmetry_cell_setting 'orthorhombic'
loop_
_space_group_symop_operation_xyz
x,y,z
-x,-y,1/2+z
x,-y,1/2+z
-x,y,z
1/2+x,1/2+y,z
1/2-x,1/2-y,1/2+z
1/2+x,1/2-y,1/2+z
1/2-x,1/2+y,z
loop_
_atom_site_type_symbol
_atom_site_label
_atom_site_fract_x
_atom_site_fract_y
_atom_site_fract_z
Si Si1 0.819525 0.836589 0.541700
Si Si2 0.817399 0.416584 0.388502
Si Si3 0.818279 0.209379 0.809418
Si Si4 0.318522 0.158938 0.209291
Si Si5 0.819471 0.208525 0.461256
Si Si6 0.317167 0.918072 0.875718
O O1 0.743890 0.884076 0.471912
O O2 0.769626 0.861012 0.629483
O O3 0.759222 0.756077 0.529088
O O4 0.000000 0.838220 0.531673
O O5 0.742813 0.370113 0.317297
O O6 0.779464 0.499341 0.381896
O O7 0.000000 0.408512 0.385852
O O8 0.790511 0.258478 0.732569
O O9 0.731631 0.250010 0.880839
O O10 0.000000 0.210962 0.824810
O O11 0.500000 0.150441 0.196446
O O12 0.276357 0.113303 0.288036
O O13 0.760594 0.129505 0.444222
O O14 0.000000 0.210134 0.471208
O O15 0.500000 0.909337 0.883291
#
# Coordination Sequence:
#
# PCOD9350594 Si02
#       6
#     8   8   8   8   8   8
#     4  11  21  33  51  75 103 134 170 212 255 298
#     4  10  19  33  54  77 103 136 171 205 249 305
#     4   9  17  31  51  73  99 129 163 204 246 292
#     4   9  18  34  53  73  99 132 170 212 257 300
#     4  10  18  30  51  74  97 128 166 205 244 293
#     4   9  19  35  54  76 103 135 168 206 253 304
#
# _framework density 17.361567000000001
#
# number of rings (size 3 to 8) (size 9 to 14) (size 15 to 20)
#    0.000    2.333    0.000    7.000    0.000    4.667 
#    0.000    1.667    0.000    6.000    0.000    0.000 
#    0.000    0.000    0.000    0.000    0.000    0.000 
#
# Total GULP energy -133751.717604 kJ/mol
# GULP energy per Si atom -5572.988233 kJ/mol
# Density = 1.732205 g / cm^3
# Si number density = 17.361567 Si / 1000 Ang^3
#
#
#
# Elastic Constant Matrix: (Units=GPa)
#
#
# Indices 1 2 3 4 5 6 
#
# 1 63.9687 44.3862 23.0300 0.0000 0.0000 0.0000
# 2 44.3862 128.5689 31.5236 0.0000 0.0000 0.0000
# 3 23.0300 31.5236 65.5596 0.0000 0.0000 0.0000
# 4 0.0000 0.0000 0.0000 14.5338 0.0000 0.0000
# 5 0.0000 0.0000 0.0000 0.0000 23.8759 0.0000
# 6 0.0000 0.0000 0.0000 0.0000 0.0000 28.5316
#
#
#
# Elastic Compliance Matrix: (Units=1/GPa)
#
#
# Indices 1 2 3 4 5 6 
#
# 1 0.021695 -0.006373 -0.004557 0.000000 0.000000 0.000000
# 2 -0.006373 0.010689 -0.002901 0.000000 0.000000 0.000000
# 3 -0.004557 -0.002901 0.018249 0.000000 0.000000 0.000000
# 4 0.000000 0.000000 0.000000 0.068805 0.000000 0.000000
# 5 0.000000 0.000000 0.000000 0.000000 0.041883 0.000000
# 6 0.000000 0.000000 0.000000 0.000000 0.000000 0.035049
#
#
# Mechanical properties :
#
#
# Convention : Reuss Voigt Hill
#
# Bulk Modulus (GPa) = 43.53138 50.66411 47.09774
# Shear Modulus (GPa) = 21.58061 23.99874 22.78968
#
# Velocity S-wave (km/s) = 3.52946 3.72195 3.62698
# Velocity P-wave (km/s) = 6.46044 6.90765 6.68779
#
# Compressibility (1/GPa) = 0.02297194
#
# Stress axis : x y z
#
# Youngs Moduli (GPa) = 46.09364 93.55164 54.79713
#
# Poissons Ratio (x) = 0.59616 0.24971
# Poissons Ratio (y) = 0.29373 0.15898
# Poissons Ratio (z) = 0.21005 0.27142
#
# Static dielectric constant tensor:
#      x y z
#    x 1.580010 0.000000 0.000000 
#    y 0.000000 1.626680 0.000000 
#    z 0.000000 0.000000 1.600560 
# 
# From -- ./inp_files/10395.got.cif
#   From: 2010.05.17/outbox.cif.g08.bks.cpg/sg36_6_cif.got.tgz:10395.got - 2010.06.03 17:41:39.
