data_PCOD9350806
_publ_section_title
;
Structure prediction by ZEFSAII (Michael W. Deem and Ramdas Pophale) SiO2 
 PCOD9350806
Probable space group: C M C 21
;
_chemical_formula_sum "Si O2"
_cell_formula_units_Z 52
_cell_length_a 18.978140
_cell_length_b 8.480830
_cell_length_c 14.165936
_cell_angle_alpha 90.000000
_cell_angle_beta 90.000000
_cell_angle_gamma 90.000000
_cell_volume 2280.012769
_symmetry_space_group_name_H-M "C M C 21"
_symmetry_group_IT_number 36
_symmetry_cell_setting 'orthorhombic'
loop_
_space_group_symop_operation_xyz
x,y,z
-x,-y,1/2+z
x,-y,1/2+z
-x,y,z
1/2+x,1/2+y,z
1/2-x,1/2-y,1/2+z
1/2+x,1/2-y,1/2+z
1/2-x,1/2+y,z
loop_
_atom_site_type_symbol
_atom_site_label
_atom_site_fract_x
_atom_site_fract_y
_atom_site_fract_z
Si Si1 0.372996 0.512240 0.599060
Si Si2 0.000000 0.165334 0.687303
Si Si3 0.079395 0.543210 0.990161
Si Si4 0.355884 0.565776 0.309318
Si Si5 0.372659 0.287478 0.441752
Si Si6 0.500000 0.988734 0.172515
Si Si7 0.787462 0.227111 0.470389
Si Si8 0.500000 0.675019 0.297286
O O1 0.430610 0.644204 0.624296
O O2 0.351384 0.430173 0.697015
O O3 0.407676 0.394180 0.523411
O O4 0.309010 0.599387 0.548468
O O5 0.000000 0.342732 0.726597
O O6 0.000000 0.000100 0.745525
O O7 0.091722 0.380574 0.933985
O O8 0.151645 0.640462 0.978097
O O9 0.000000 0.607312 0.964250
O O10 0.066224 0.493773 0.099890
O O11 0.368314 0.388244 0.346138
O O12 0.293251 0.642113 0.368091
O O13 0.424247 0.663340 0.344440
O O14 0.292860 0.274099 0.479746
O O15 0.500000 0.829215 0.231815
#
# Coordination Sequence:
#
# PCOD9350806 Si02
#       8
#     8   4   8   8   8   4   8   4
#     4  10  21  42  68  91 126 178 220 275 351 408
#     4  10  18  39  66 102 134 160 225 285 332 412
#     4  10  21  37  64  97 130 176 221 288 346 396
#     4  10  24  41  65  95 131 174 226 277 342 422
#     4  11  24  41  67  92 136 176 230 279 340 432
#     4  10  20  38  67 103 134 165 234 284 336 411
#     4  11  23  43  63  96 136 174 229 284 348 422
#     4  10  22  39  65 101 134 171 225 283 346 409
#
# _framework density 22.806888000000001
#
# number of rings (size 3 to 8) (size 9 to 14) (size 15 to 20)
#    0.462    1.231    1.538    3.692    3.231    2.462 
#    5.538    1.538    0.000    0.000    0.000    0.000 
#    0.000    0.000    0.000    0.000    0.000    0.000 
#
# Total GULP energy -145031.555686 kJ/mol
# GULP energy per Si atom -5578.136757 kJ/mol
# Density = 2.275498 g / cm^3
# Si number density = 22.806888 Si / 1000 Ang^3
#
#
#
# Elastic Constant Matrix: (Units=GPa)
#
#
# Indices 1 2 3 4 5 6 
#
# 1 89.7913 13.2274 -1.7577 0.0000 0.0000 0.0000
# 2 13.2274 85.7852 -4.0491 0.0000 0.0000 0.0000
# 3 -1.7577 -4.0491 50.7689 0.0000 0.0000 0.0000
# 4 0.0000 0.0000 0.0000 27.1181 0.0000 0.0000
# 5 0.0000 0.0000 0.0000 0.0000 14.9337 0.0000
# 6 0.0000 0.0000 0.0000 0.0000 0.0000 24.5711
#
#
#
# Elastic Compliance Matrix: (Units=1/GPa)
#
#
# Indices 1 2 3 4 5 6 
#
# 1 0.011399 -0.001746 0.000255 0.000000 0.000000 0.000000
# 2 -0.001746 0.011968 0.000894 0.000000 0.000000 0.000000
# 3 0.000255 0.000894 0.019777 0.000000 0.000000 0.000000
# 4 0.000000 0.000000 0.000000 0.036876 0.000000 0.000000
# 5 0.000000 0.000000 0.000000 0.000000 0.066963 0.000000
# 6 0.000000 0.000000 0.000000 0.000000 0.000000 0.040698
#
#
# Mechanical properties :
#
#
# Convention : Reuss Voigt Hill
#
# Bulk Modulus (GPa) = 23.83642 26.79851 25.31746
# Shear Modulus (GPa) = 24.64785 27.91958 26.28371
#
# Velocity S-wave (km/s) = 3.29100 3.50261 3.39845
# Velocity P-wave (km/s) = 4.99149 5.30410 5.15017
#
# Compressibility (1/GPa) = 0.04195261
#
# Stress axis : x y z
#
# Youngs Moduli (GPa) = 87.72633 83.55348 50.56317
#
# Poissons Ratio (x) = 0.14585 -0.01292
# Poissons Ratio (y) = 0.15313 -0.04521
# Poissons Ratio (z) = -0.02241 -0.07471
#
# Static dielectric constant tensor:
#      x y z
#    x 1.865820 0.000000 0.000000 
#    y 0.000000 1.914070 0.000000 
#    z 0.000000 0.000000 1.868460 
# 
# From -- ./inp_files/12815.got.cif
#   From: 2010.05.17/outbox.cif.g08.bks.cpg/sg36_7_cif.got.tgz:12815.got - 2010.06.03 17:41:39.
