data_PCOD9350466
_publ_section_title
;
Structure prediction by ZEFSAII (Michael W. Deem and Ramdas Pophale) SiO2 
 PCOD9350466
Probable space group: C M C 21
;
_chemical_formula_sum "Si O2"
_cell_formula_units_Z 60
_cell_length_a 31.806816
_cell_length_b 5.280436
_cell_length_c 14.794857
_cell_angle_alpha 90.000000
_cell_angle_beta 90.000000
_cell_angle_gamma 90.000000
_cell_volume 2484.853286
_symmetry_space_group_name_H-M "C M C 21"
_symmetry_group_IT_number 36
_symmetry_cell_setting 'orthorhombic'
loop_
_space_group_symop_operation_xyz
x,y,z
-x,-y,1/2+z
x,-y,1/2+z
-x,y,z
1/2+x,1/2+y,z
1/2-x,1/2-y,1/2+z
1/2+x,1/2-y,1/2+z
1/2-x,1/2+y,z
loop_
_atom_site_type_symbol
_atom_site_label
_atom_site_fract_x
_atom_site_fract_y
_atom_site_fract_z
Si Si1 0.428302 0.338817 0.503430
Si Si2 0.047408 0.680754 0.907826
Si Si3 0.545572 0.147839 0.244597
Si Si4 0.367637 0.379094 0.227450
Si Si5 0.239631 0.644234 0.560633
Si Si6 0.000000 0.322777 0.112070
Si Si7 0.225574 0.845267 0.263810
Si Si8 0.356290 0.876949 0.117774
O O1 0.424133 0.599763 0.448822
O O2 0.462202 0.374323 0.583387
O O3 0.384549 0.230138 0.537659
O O4 0.448594 0.099954 0.450667
O O5 0.051185 0.610069 0.803037
O O6 0.000000 0.769103 0.925336
O O7 0.500000 0.264739 0.272159
O O8 0.536333 0.031965 0.146101
O O9 0.585868 0.317484 0.263778
O O10 0.324310 0.329256 0.282290
O O11 0.364163 0.668834 0.196039
O O12 0.365801 0.163168 0.148505
O O13 0.251157 0.395912 0.507499
O O14 0.268361 0.648456 0.652528
O O15 0.192101 0.637260 0.591985
O O16 0.251714 0.601400 0.293642
#
# Coordination Sequence:
#
# PCOD9350466 Si02
#       8
#     8   8   8   8   8   4   8   8
#     4  12  24  39  63  88 120 156 206 248 305 357
#     4  11  23  45  61  79 119 177 203 236 301 383
#     4   9  23  42  60  90 125 162 206 251 304 362
#     4  12  20  34  56  86 123 150 191 253 306 340
#     4  10  16  29  48  75 120 146 178 228 311 360
#     4  10  20  40  62  94 116 146 200 270 290 342
#     4  10  16  29  49  78 119 148 183 231 309 362
#     4  12  21  32  53  89 120 144 190 254 302 343
#
# _framework density 24.146293
#
# number of rings (size 3 to 8) (size 9 to 14) (size 15 to 20)
#    0.400    0.800    8.000    0.800    0.000    1.067 
#    1.200    1.333    0.000    0.000    0.000    5.600 
#    0.000    0.000    0.000    0.000    0.000    0.000 
#
# Total GULP energy -167014.136212 kJ/mol
# GULP energy per Si atom -5567.137874 kJ/mol
# Density = 2.409133 g / cm^3
# Si number density = 24.146293 Si / 1000 Ang^3
#
#
#
# Elastic Constant Matrix: (Units=GPa)
#
#
# Indices 1 2 3 4 5 6 
#
# 1 154.5896 11.2706 9.2741 0.0000 0.0000 0.0000
# 2 11.2706 112.6822 9.3278 0.0000 0.0000 0.0000
# 3 9.2741 9.3278 17.1687 0.0000 0.0000 0.0000
# 4 0.0000 0.0000 0.0000 17.6751 0.0000 0.0000
# 5 0.0000 0.0000 0.0000 0.0000 -2.8289 0.0000
# 6 0.0000 0.0000 0.0000 0.0000 0.0000 22.7078
#
#
#
# Elastic Compliance Matrix: (Units=1/GPa)
#
#
# Indices 1 2 3 4 5 6 
#
# 1 0.006702 -0.000388 -0.003409 0.000000 0.000000 0.000000
# 2 -0.000388 0.009315 -0.004851 0.000000 0.000000 0.000000
# 3 -0.003409 -0.004851 0.062723 0.000000 0.000000 0.000000
# 4 0.000000 0.000000 0.000000 0.056577 0.000000 0.000000
# 5 0.000000 0.000000 0.000000 0.000000 -0.353489 0.000000
# 6 0.000000 0.000000 0.000000 0.000000 0.000000 0.044038
#
#
# Mechanical properties :
#
#
# Convention : Reuss Voigt Hill
#
# Bulk Modulus (GPa) = 16.27543 38.24286 27.25915
# Shear Modulus (GPa) = -36.66810 24.48201 -6.09305
#
# Velocity S-wave (km/s) = -3.90112 3.18764 -1.59024
# Velocity P-wave (km/s) = 3.67923 5.42406 2.81813
#
# Compressibility (1/GPa) = 0.06144229
#
# Stress axis : x y z
#
# Youngs Moduli (GPa) = 149.21911 107.35474 15.94319
#
# Poissons Ratio (x) = 0.04166 0.05435
# Poissons Ratio (y) = 0.05791 0.07734
# Poissons Ratio (z) = 0.50871 0.52080
#
# Static dielectric constant tensor:
#      x y z
#    x 1.896560 0.000000 0.000000 
#    y 0.000000 1.965860 0.000000 
#    z 0.000000 0.000000 2.109430 
# 
# From -- ./inp_files/15193.got.cif
#   From: 2010.05.17/outbox.cif.g08.bks.cpg/sg36_8_cif.got.tgz:15193.got - 2010.06.03 17:41:39.
