data_PCOD9350036
_publ_section_title
;
Structure prediction by ZEFSAII (Michael W. Deem and Ramdas Pophale) SiO2 
 PCOD9350036
Probable space group: C M M 2
;
_chemical_formula_sum "Si O2"
_cell_formula_units_Z 48
_cell_length_a 15.514364
_cell_length_b 16.850883
_cell_length_c 9.928814
_cell_angle_alpha 90.000000
_cell_angle_beta 90.000000
_cell_angle_gamma 90.000000
_cell_volume 2595.697118
_symmetry_space_group_name_H-M "C M M 2"
_symmetry_group_IT_number 35
_symmetry_cell_setting 'orthorhombic'
loop_
_space_group_symop_operation_xyz
x,y,z
-x,-y,z
-x,y,z
x,-y,z
1/2+x,1/2+y,z
1/2-x,1/2-y,z
1/2-x,1/2+y,z
1/2+x,1/2-y,z
loop_
_atom_site_type_symbol
_atom_site_label
_atom_site_fract_x
_atom_site_fract_y
_atom_site_fract_z
Si Si1 0.832115 0.835768 0.394900
Si Si2 0.000000 0.092254 0.275774
Si Si3 0.500000 0.600607 0.956103
Si Si4 0.647585 0.091171 0.404771
Si Si5 0.855400 0.236805 0.907334
Si Si6 0.901179 0.725964 0.610193
Si Si7 0.597220 0.790416 0.198975
O O1 0.916345 0.883766 0.358074
O O2 0.748850 0.889729 0.394085
O O3 0.842050 0.791201 0.536681
O O4 0.838742 0.767177 0.280824
O O5 0.000000 0.000000 0.267336
O O6 0.000000 0.114471 0.117152
O O7 0.500000 0.500000 0.931726
O O8 0.412366 0.651445 0.908384
O O9 0.612442 0.145550 0.526037
O O10 0.609884 0.123760 0.264228
O O11 0.629483 0.000000 0.426524
O O12 0.750000 0.250000 0.914289
O O13 0.881359 0.277313 0.767166
O O14 0.888599 0.280554 0.041584
O O15 0.000000 0.750617 0.591577
O O16 0.500000 0.766066 0.235981
#
# Coordination Sequence:
#
# PCOD9350036 Si02
#       7
#     8   4   4   8   8   8   8
#     4  11  18  38  57  90 118 160 203 254 308 385
#     4  11  20  33  59  93 128 160 193 254 325 371
#     4  11  24  43  69 103 138 168 213 276 335 379
#     4  11  24  38  59  91 123 160 209 269 319 367
#     4  12  22  42  66  98 128 173 218 261 321 405
#     4  11  22  40  66  85 120 165 217 253 315 391
#     4  11  20  38  64  88 121 162 214 256 311 388
#
# _framework density 18.492142000000001
#
# number of rings (size 3 to 8) (size 9 to 14) (size 15 to 20)
#    0.000    0.833    5.000    6.000    0.000    1.333 
#    0.000    5.833    0.000    2.000    0.000    0.000 
#    0.000    0.000    0.000    0.000    0.000    0.000 
#
# Total GULP energy -133612.128392 kJ/mol
# GULP energy per Si atom -5567.172016 kJ/mol
# Density = 1.845005 g / cm^3
# Si number density = 18.492142 Si / 1000 Ang^3
#
#
#
# Elastic Constant Matrix: (Units=GPa)
#
#
# Indices 1 2 3 4 5 6 
#
# 1 113.0862 13.9245 11.7256 0.0000 0.0000 0.0000
# 2 13.9245 91.4568 27.9103 0.0000 0.0000 0.0000
# 3 11.7256 27.9103 129.7407 0.0000 0.0000 0.0000
# 4 0.0000 0.0000 0.0000 14.7743 0.0000 0.0000
# 5 0.0000 0.0000 0.0000 0.0000 90.2451 0.0000
# 6 0.0000 0.0000 0.0000 0.0000 0.0000 29.1915
#
#
#
# Elastic Compliance Matrix: (Units=1/GPa)
#
#
# Indices 1 2 3 4 5 6 
#
# 1 0.009049 -0.001207 -0.000558 0.000000 0.000000 0.000000
# 2 -0.001207 0.011864 -0.002443 0.000000 0.000000 0.000000
# 3 -0.000558 -0.002443 0.008284 0.000000 0.000000 0.000000
# 4 0.000000 0.000000 0.000000 0.067685 0.000000 0.000000
# 5 0.000000 0.000000 0.000000 0.000000 0.011081 0.000000
# 6 0.000000 0.000000 0.000000 0.000000 0.000000 0.034257
#
#
# Mechanical properties :
#
#
# Convention : Reuss Voigt Hill
#
# Bulk Modulus (GPa) = 48.12459 49.04496 48.58478
# Shear Modulus (GPa) = 31.73338 45.55706 38.64522
#
# Velocity S-wave (km/s) = 4.14701 4.96884 4.57641
# Velocity P-wave (km/s) = 7.00080 7.71355 7.36580
#
# Compressibility (1/GPa) = 0.02077940
#
# Stress axis : x y z
#
# Youngs Moduli (GPa) = 110.50508 84.29212 120.71946
#
# Poissons Ratio (x) = 0.10178 0.06737
# Poissons Ratio (y) = 0.13343 0.29492
# Poissons Ratio (z) = 0.06167 0.20593
#
# Static dielectric constant tensor:
#      x y z
#    x 1.692420 0.000000 0.000000 
#    y 0.000000 1.704200 0.000000 
#    z 0.000000 0.000000 1.622430 
# 
# From -- ./inp_files/7356.got.cif
#   From: 2010.05.17/outbox.cif.g08.bks.cpg/sg35_4_cif.got.tgz:7356.got - 2010.06.03 17:29:28.
