data_PCOD9350521
_publ_section_title
;
Structure prediction by ZEFSAII (Michael W. Deem and Ramdas Pophale) SiO2 
 PCOD9350521
Probable space group: C M C 21
;
_chemical_formula_sum "Si O2"
_cell_formula_units_Z 64
_cell_length_a 17.943970
_cell_length_b 11.377272
_cell_length_c 16.162193
_cell_angle_alpha 90.000000
_cell_angle_beta 90.000000
_cell_angle_gamma 90.000000
_cell_volume 3299.567096
_symmetry_space_group_name_H-M "C M C 21"
_symmetry_group_IT_number 36
_symmetry_cell_setting 'orthorhombic'
loop_
_space_group_symop_operation_xyz
x,y,z
-x,-y,1/2+z
x,-y,1/2+z
-x,y,z
1/2+x,1/2+y,z
1/2-x,1/2-y,1/2+z
1/2+x,1/2-y,1/2+z
1/2-x,1/2+y,z
loop_
_atom_site_type_symbol
_atom_site_label
_atom_site_fract_x
_atom_site_fract_y
_atom_site_fract_z
Si Si1 0.334643 0.613470 0.304860
Si Si2 0.914957 0.283401 0.736813
Si Si3 0.408554 0.399723 0.625036
Si Si4 0.324383 0.060462 0.367407
Si Si5 0.080342 0.914659 0.369603
Si Si6 0.088394 0.833570 0.073542
Si Si7 0.661181 0.190338 0.932648
Si Si8 0.819536 0.226734 0.990351
O O1 0.364270 0.610607 0.211699
O O2 0.257632 0.545291 0.326144
O O3 0.400750 0.547540 0.352811
O O4 0.321813 0.738294 0.348177
O O5 0.871662 0.372350 0.796760
O O6 0.919369 0.158586 0.784780
O O7 0.880892 0.248202 0.648521
O O8 0.000000 0.326816 0.727198
O O9 0.500000 0.390762 0.632884
O O10 0.389845 0.528742 0.584662
O O11 0.371090 0.297432 0.569283
O O12 0.319541 0.145207 0.447969
O O13 0.358029 0.939314 0.401317
O O14 0.142940 0.857581 0.423668
O O15 0.000000 0.899506 0.410449
O O16 0.000000 0.835086 0.085863
O O17 0.106260 0.768432 0.988168
O O18 0.734179 0.186805 0.991563
#
# Coordination Sequence:
#
# PCOD9350521 Si02
#       8
#     8   8   8   8   8   8   8   8
#     4  11  22  38  62  94 129 156 204 264 319 372
#     4   9  19  38  63  89 117 164 213 252 308 378
#     4  11  23  41  67 100 127 156 211 273 326 368
#     4  10  23  42  60  88 130 171 214 245 311 388
#     4  10  17  35  65  88 117 156 202 260 311 359
#     4  10  22  40  65  95 123 158 210 268 321 366
#     4  11  24  41  60  91 130 170 210 253 307 383
#     4  10  22  39  60  91 123 163 208 251 307 382
#
# _framework density 19.396484000000001
#
# number of rings (size 3 to 8) (size 9 to 14) (size 15 to 20)
#    0.000    1.750    2.500    1.500    3.500    3.000 
#    2.250    0.000    0.000    0.000    0.000    0.000 
#    0.000    0.000    0.000    0.000    0.000    0.000 
#
# Total GULP energy -178204.651131 kJ/mol
# GULP energy per Si atom -5568.895348 kJ/mol
# Density = 1.935234 g / cm^3
# Si number density = 19.396484 Si / 1000 Ang^3
#
#
#
# Elastic Constant Matrix: (Units=GPa)
#
#
# Indices 1 2 3 4 5 6 
#
# 1 56.3938 21.6013 19.6770 0.0000 0.0000 0.0000
# 2 21.6013 84.1853 41.7376 0.0000 0.0000 0.0000
# 3 19.6770 41.7376 89.5451 0.0000 0.0000 0.0000
# 4 0.0000 0.0000 0.0000 23.3626 0.0000 0.0000
# 5 0.0000 0.0000 0.0000 0.0000 -4.7595 0.0000
# 6 0.0000 0.0000 0.0000 0.0000 0.0000 8.8701
#
#
#
# Elastic Compliance Matrix: (Units=1/GPa)
#
#
# Indices 1 2 3 4 5 6 
#
# 1 0.020128 -0.003865 -0.002621 0.000000 0.000000 0.000000
# 2 -0.003865 0.016191 -0.006697 0.000000 0.000000 0.000000
# 3 -0.002621 -0.006697 0.014865 0.000000 0.000000 0.000000
# 4 0.000000 0.000000 0.000000 0.042803 0.000000 0.000000
# 5 0.000000 0.000000 0.000000 0.000000 -0.210108 0.000000
# 6 0.000000 0.000000 0.000000 0.000000 0.000000 0.112738
#
#
# Mechanical properties :
#
#
# Convention : Reuss Voigt Hill
#
# Bulk Modulus (GPa) = 40.29630 44.01735 42.15682
# Shear Modulus (GPa) = 159.96498 15.30188 87.63343
#
# Velocity S-wave (km/s) = 9.09121 2.81178 6.72890
# Velocity P-wave (km/s) = 11.44641 5.76925 9.06379
#
# Compressibility (1/GPa) = 0.02481617
#
# Stress axis : x y z
#
# Youngs Moduli (GPa) = 49.68317 61.76401 67.27093
#
# Poissons Ratio (x) = 0.23871 0.17635
# Poissons Ratio (y) = 0.19202 0.45053
# Poissons Ratio (z) = 0.13024 0.41365
#
# Static dielectric constant tensor:
#      x y z
#    x 2.165550 0.000000 0.000000 
#    y 0.000000 1.679870 0.000000 
#    z 0.000000 0.000000 1.746290 
# 
# From -- ./inp_files/12643.got.cif
#   From: 2010.05.17/outbox.cif.g08.bks.cpg/sg36_7_cif.got.tgz:12643.got - 2010.06.03 17:41:39.
