data_PCOD9350408
_publ_section_title
;
Structure prediction by ZEFSAII (Michael W. Deem and Ramdas Pophale) SiO2 
 PCOD9350408
Probable space group: C M M 2
;
_chemical_formula_sum "Si O2"
_cell_formula_units_Z 64
_cell_length_a 29.971338
_cell_length_b 8.756202
_cell_length_c 12.590694
_cell_angle_alpha 90.000000
_cell_angle_beta 90.000000
_cell_angle_gamma 90.000000
_cell_volume 3304.239910
_symmetry_space_group_name_H-M "C M M 2"
_symmetry_group_IT_number 35
_symmetry_cell_setting 'orthorhombic'
loop_
_space_group_symop_operation_xyz
x,y,z
-x,-y,z
-x,y,z
x,-y,z
1/2+x,1/2+y,z
1/2-x,1/2-y,z
1/2-x,1/2+y,z
1/2+x,1/2-y,z
loop_
_atom_site_type_symbol
_atom_site_label
_atom_site_fract_x
_atom_site_fract_y
_atom_site_fract_z
Si Si1 0.204139 0.321628 0.320290
Si Si2 0.451213 0.315736 0.931739
Si Si3 0.569309 0.320595 0.171559
Si Si4 0.699998 0.816094 0.668175
Si Si5 0.143618 0.682616 0.872799
Si Si6 0.361002 0.318944 0.481736
Si Si7 0.160143 0.678755 0.109965
Si Si8 0.449755 0.181576 0.400018
O O1 0.201348 0.500000 0.348265
O O2 0.250000 0.250000 0.358977
O O3 0.163771 0.233045 0.374357
O O4 0.200005 0.308127 0.193102
O O5 0.500000 0.269564 0.888158
O O6 0.448400 0.500000 0.927984
O O7 0.406482 0.250542 0.878106
O O8 0.450342 0.272300 0.057158
O O9 0.560455 0.500000 0.186469
O O10 0.621269 0.286347 0.153315
O O11 0.554189 0.234017 0.277011
O O12 0.750000 0.750000 0.659975
O O13 0.674994 0.766138 0.776682
O O14 0.667907 0.759156 0.574009
O O15 0.702809 0.000000 0.665766
O O16 0.138932 0.500000 0.863733
O O17 0.166604 0.715618 0.986713
O O18 0.359769 0.500000 0.493825
O O19 0.411587 0.261885 0.469067
O O20 0.145089 0.500000 0.115578
O O21 0.500000 0.216892 0.436286
O O22 0.442704 0.000000 0.404221
#
# Coordination Sequence:
#
# PCOD9350408 Si02
#       8
#     8   8   8   8   8   8   8   8
#     4  11  22  36  57  85 121 158 195 239 294 358
#     4   9  18  32  52  83 123 163 202 244 289 342
#     4  10  18  30  52  82 119 161 203 244 286 341
#     4  11  24  44  68  91 117 150 198 252 304 360
#     4   9  20  38  60  87 117 153 198 247 295 351
#     4  12  25  42  64  88 118 152 198 250 301 356
#     4   9  18  34  55  81 119 160 196 239 293 351
#     4  11  23  38  58  86 121 160 199 241 295 355
#
# _framework density 19.369053000000001
#
# number of rings (size 3 to 8) (size 9 to 14) (size 15 to 20)
#    0.000    1.750    1.250    3.375    0.000    4.250 
#    0.000    0.625    0.000    0.750    0.000    0.000 
#    0.000    0.000    0.000    0.000    0.000    0.000 
#
# Total GULP energy -178590.480906 kJ/mol
# GULP energy per Si atom -5580.952528 kJ/mol
# Density = 1.932497 g / cm^3
# Si number density = 19.369053 Si / 1000 Ang^3
#
#
#
# Elastic Constant Matrix: (Units=GPa)
#
#
# Indices 1 2 3 4 5 6 
#
# 1 127.4062 53.4286 55.8508 0.0000 0.0000 0.0000
# 2 53.4286 61.3531 32.6960 0.0000 0.0000 0.0000
# 3 55.8508 32.6960 101.5747 0.0000 0.0000 0.0000
# 4 0.0000 0.0000 0.0000 17.9214 0.0000 0.0000
# 5 0.0000 0.0000 0.0000 0.0000 13.3382 0.0000
# 6 0.0000 0.0000 0.0000 0.0000 0.0000 30.2218
#
#
#
# Elastic Compliance Matrix: (Units=1/GPa)
#
#
# Indices 1 2 3 4 5 6 
#
# 1 0.013894 -0.009691 -0.004520 0.000000 0.000000 0.000000
# 2 -0.009691 0.026433 -0.003180 0.000000 0.000000 0.000000
# 3 -0.004520 -0.003180 0.013354 0.000000 0.000000 0.000000
# 4 0.000000 0.000000 0.000000 0.055799 0.000000 0.000000
# 5 0.000000 0.000000 0.000000 0.000000 0.074973 0.000000
# 6 0.000000 0.000000 0.000000 0.000000 0.000000 0.033089
#
#
# Mechanical properties :
#
#
# Convention : Reuss Voigt Hill
#
# Bulk Modulus (GPa) = 52.91314 63.80942 58.36128
# Shear Modulus (GPa) = 19.33306 22.18685 20.75996
#
# Velocity S-wave (km/s) = 3.16277 3.38816 3.27740
# Velocity P-wave (km/s) = 6.38084 6.95138 6.67221
#
# Compressibility (1/GPa) = 0.01889890
#
# Stress axis : x y z
#
# Youngs Moduli (GPa) = 71.97140 37.83174 74.88291
#
# Poissons Ratio (x) = 0.36662 0.33851
# Poissons Ratio (y) = 0.69746 0.23813
# Poissons Ratio (z) = 0.32534 0.12031
#
# Static dielectric constant tensor:
#      x y z
#    x 1.689220 0.000000 0.000000 
#    y 0.000000 1.657480 0.000000 
#    z 0.000000 0.000000 1.694460 
# 
# From -- ./inp_files/14537.got.cif
#   From: 2010.05.17/outbox.cif.g08.bks.cpg/sg35_8_cif.got.tgz:14537.got - 2010.06.03 17:29:28.
