data_PCOD9350301
_publ_section_title
;
Structure prediction by ZEFSAII (Michael W. Deem and Ramdas Pophale) SiO2 
 PCOD9350301
Probable space group: C M M 2
;
_chemical_formula_sum "Si O2"
_cell_formula_units_Z 28
_cell_length_a 19.207065
_cell_length_b 10.286453
_cell_length_c 7.092761
_cell_angle_alpha 90.000000
_cell_angle_beta 90.000000
_cell_angle_gamma 90.000000
_cell_volume 1401.335029
_symmetry_space_group_name_H-M "C M M 2"
_symmetry_group_IT_number 35
_symmetry_cell_setting 'orthorhombic'
loop_
_space_group_symop_operation_xyz
x,y,z
-x,-y,z
-x,y,z
x,-y,z
1/2+x,1/2+y,z
1/2-x,1/2-y,z
1/2-x,1/2+y,z
1/2+x,1/2-y,z
loop_
_atom_site_type_symbol
_atom_site_label
_atom_site_fract_x
_atom_site_fract_y
_atom_site_fract_z
Si Si1 0.500000 0.500000 0.995450
Si Si2 0.719606 0.000000 0.089638
Si Si3 0.349386 0.206774 0.811543
Si Si4 0.000000 0.500000 0.312961
Si Si5 0.650228 0.000000 0.492694
Si Si6 0.500000 0.780561 0.001081
Si Si7 0.654107 0.500000 0.861527
O O1 0.571138 0.500000 0.878595
O O2 0.500000 0.637734 0.095625
O O3 0.695232 0.000000 0.303461
O O4 0.688744 0.126492 0.979639
O O5 0.802593 0.000000 0.057389
O O6 0.337319 0.124490 0.624054
O O7 0.328145 0.357353 0.780419
O O8 0.430746 0.204094 0.874838
O O9 0.069540 0.500000 0.433855
O O10 0.000000 0.619911 0.170211
#
# Coordination Sequence:
#
# PCOD9350301 Si02
#       7
#     2   4   8   2   4   4   4
#     4   8  20  36  64  88 114 166 212 242 308 384
#     4  11  21  39  62  93 123 163 206 262 309 367
#     4  10  21  40  62  91 130 165 207 255 308 370
#     4  12  18  34  64  96 132 156 206 262 298 366
#     4  11  22  36  63  99 125 160 208 259 309 367
#     4  10  17  36  62  91 127 171 203 247 313 356
#     4  10  21  41  67  86 121 169 207 253 318 370
#
# _framework density 19.980948999999999
#
# number of rings (size 3 to 8) (size 9 to 14) (size 15 to 20)
#    0.000    1.714    2.857    2.571    0.000    0.000 
#    0.000   14.286    0.000    0.000    0.000    0.000 
#    0.000    0.000    0.000    0.000    0.000    0.000 
#
# Total GULP energy -78062.937464 kJ/mol
# GULP energy per Si atom -5575.924105 kJ/mol
# Density = 1.993547 g / cm^3
# Si number density = 19.980949 Si / 1000 Ang^3
#
#
#
# Elastic Constant Matrix: (Units=GPa)
#
#
# Indices 1 2 3 4 5 6 
#
# 1 110.5629 14.6789 35.7110 0.0000 0.0000 0.0000
# 2 14.6789 226.0043 77.2818 0.0000 0.0000 0.0000
# 3 35.7110 77.2818 135.7418 0.0000 0.0000 0.0000
# 4 0.0000 0.0000 0.0000 16.6811 0.0000 0.0000
# 5 0.0000 0.0000 0.0000 0.0000 18.2523 0.0000
# 6 0.0000 0.0000 0.0000 0.0000 0.0000 11.4410
#
#
#
# Elastic Compliance Matrix: (Units=1/GPa)
#
#
# Indices 1 2 3 4 5 6 
#
# 1 0.009902 0.000308 -0.002780 0.000000 0.000000 0.000000
# 2 0.000308 0.005504 -0.003214 0.000000 0.000000 0.000000
# 3 -0.002780 -0.003214 0.009928 0.000000 0.000000 0.000000
# 4 0.000000 0.000000 0.000000 0.059948 0.000000 0.000000
# 5 0.000000 0.000000 0.000000 0.000000 0.054788 0.000000
# 6 0.000000 0.000000 0.000000 0.000000 0.000000 0.087405
#
#
# Mechanical properties :
#
#
# Convention : Reuss Voigt Hill
#
# Bulk Modulus (GPa) = 71.63271 80.85026 76.24149
# Shear Modulus (GPa) = 20.53373 32.25070 26.39221
#
# Velocity S-wave (km/s) = 3.20920 4.02191 3.63832
# Velocity P-wave (km/s) = 7.04701 7.88157 7.47594
#
# Compressibility (1/GPa) = 0.01396010
#
# Stress axis : x y z
#
# Youngs Moduli (GPa) = 100.99244 181.68970 100.72147
#
# Poissons Ratio (x) = -0.05587 0.28001
# Poissons Ratio (y) = -0.03106 0.32376
# Poissons Ratio (z) = 0.28076 0.58403
#
# Static dielectric constant tensor:
#      x y z
#    x 1.771570 0.000000 0.000000 
#    y 0.000000 1.739530 0.000000 
#    z 0.000000 0.000000 1.628000 
# 
# From -- ./inp_files/999.got.cif
#   From: 2010.05.17/outbox.cif.g08.bks.cpg/sg35_1_cif.got.tgz:999.got - 2010.06.03 17:29:28.
