data_PCOD9350622
_publ_section_title
;
Structure prediction by ZEFSAII (Michael W. Deem and Ramdas Pophale) SiO2 
 PCOD9350622
Probable space group: C M C 21
;
_chemical_formula_sum "Si O2"
_cell_formula_units_Z 64
_cell_length_a 7.493631
_cell_length_b 23.791839
_cell_length_c 16.860791
_cell_angle_alpha 90.000000
_cell_angle_beta 90.000000
_cell_angle_gamma 90.000000
_cell_volume 3006.064267
_symmetry_space_group_name_H-M "C M C 21"
_symmetry_group_IT_number 36
_symmetry_cell_setting 'orthorhombic'
loop_
_space_group_symop_operation_xyz
x,y,z
-x,-y,1/2+z
x,-y,1/2+z
-x,y,z
1/2+x,1/2+y,z
1/2-x,1/2-y,1/2+z
1/2+x,1/2-y,1/2+z
1/2-x,1/2+y,z
loop_
_atom_site_type_symbol
_atom_site_label
_atom_site_fract_x
_atom_site_fract_y
_atom_site_fract_z
Si Si1 0.284315 0.427356 0.578560
Si Si2 0.286376 0.457455 0.146897
Si Si3 0.718467 0.400584 0.859646
Si Si4 0.296098 0.477126 0.416316
Si Si5 0.287102 0.363003 0.028454
Si Si6 0.280936 0.337770 0.698522
Si Si7 0.787011 0.289926 0.182912
Si Si8 0.800312 0.386575 0.293135
O O1 0.500000 0.421892 0.569225
O O2 0.250610 0.477319 0.640397
O O3 0.212226 0.451775 0.496198
O O4 0.221680 0.370636 0.619424
O O5 0.500000 0.450398 0.158071
O O6 0.237534 0.422912 0.067938
O O7 0.190211 0.428063 0.218411
O O8 0.500000 0.401006 0.856195
O O9 0.775592 0.465648 0.875761
O O10 0.775762 0.371231 0.777811
O O11 0.775842 0.364721 0.937569
O O12 0.500000 0.492857 0.437706
O O13 0.297356 0.424072 0.357647
O O14 0.500000 0.360999 0.023687
O O15 0.239863 0.316644 0.095146
O O16 0.500000 0.337847 0.698915
O O17 0.221949 0.273273 0.693755
O O18 0.717044 0.331415 0.252146
O O19 0.000000 0.289782 0.194112
O O20 0.000000 0.374030 0.323058
#
# Coordination Sequence:
#
# PCOD9350622 Si02
#       8
#     8   8   8   8   8   8   8   8
#     4   9  16  28  50  78 102 123 156 206 255 297
#     4   9  15  28  51  76  99 122 155 204 255 295
#     4   9  16  29  52  80 102 123 160 207 253 299
#     4  10  18  31  52  79 104 123 156 207 257 300
#     4   9  16  29  52  78  99 122 159 207 251 290
#     4   9  17  30  49  72  99 134 169 202 242 292
#     4   9  19  35  50  66  96 136 175 202 231 288
#     4  10  20  32  46  69  99 133 168 199 236 289
#
# _framework density 21.290296999999999
#
# number of rings (size 3 to 8) (size 9 to 14) (size 15 to 20)
#    0.000    2.750    1.250    1.125    0.000    2.500 
#    2.250    1.250    0.000    3.750    0.000    0.000 
#    0.000    0.000    0.000    0.000    0.000    0.000 
#
# Total GULP energy -178316.290542 kJ/mol
# GULP energy per Si atom -5572.384079 kJ/mol
# Density = 2.124184 g / cm^3
# Si number density = 21.290297 Si / 1000 Ang^3
#
#
#
# Elastic Constant Matrix: (Units=GPa)
#
#
# Indices 1 2 3 4 5 6 
#
# 1 48.1242 8.6728 2.2636 0.0000 0.0000 0.0000
# 2 8.6728 169.9606 78.2380 0.0000 0.0000 0.0000
# 3 2.2636 78.2380 96.5040 0.0000 0.0000 0.0000
# 4 0.0000 0.0000 0.0000 27.0128 0.0000 0.0000
# 5 0.0000 0.0000 0.0000 0.0000 20.5905 0.0000
# 6 0.0000 0.0000 0.0000 0.0000 0.0000 6.7868
#
#
#
# Elastic Compliance Matrix: (Units=1/GPa)
#
#
# Indices 1 2 3 4 5 6 
#
# 1 0.020994 -0.001347 0.000600 0.000000 0.000000 0.000000
# 2 -0.001347 0.009473 -0.007649 0.000000 0.000000 0.000000
# 3 0.000600 -0.007649 0.016549 0.000000 0.000000 0.000000
# 4 0.000000 0.000000 0.000000 0.037019 0.000000 0.000000
# 5 0.000000 0.000000 0.000000 0.000000 0.048566 0.000000
# 6 0.000000 0.000000 0.000000 0.000000 0.000000 0.147345
#
#
# Mechanical properties :
#
#
# Convention : Reuss Voigt Hill
#
# Bulk Modulus (GPa) = 33.08590 54.77085 43.92838
# Shear Modulus (GPa) = 16.29648 25.90565 21.10106
#
# Velocity S-wave (km/s) = 2.76966 3.49202 3.15161
# Velocity P-wave (km/s) = 5.07958 6.48387 5.82420
#
# Compressibility (1/GPa) = 0.03022435
#
# Stress axis : x y z
#
# Youngs Moduli (GPa) = 47.63228 105.55874 60.42608
#
# Poissons Ratio (x) = 0.14224 -0.03626
# Poissons Ratio (y) = 0.06418 0.46218
# Poissons Ratio (z) = -0.02858 0.80739
#
# Static dielectric constant tensor:
#      x y z
#    x 1.777920 0.000000 0.000000 
#    y 0.000000 1.755450 0.000000 
#    z 0.000000 0.000000 1.803190 
# 
# From -- ./inp_files/13958.got.cif
#   From: 2010.05.17/outbox.cif.g08.bks.cpg/sg36_7_cif.got.tgz:13958.got - 2010.06.03 17:41:39.
