data_PCOD9350003
_publ_section_title
;
Structure prediction by ZEFSAII (Michael W. Deem and Ramdas Pophale) SiO2 
 PCOD9350003
Probable space group: C M M 2
;
_chemical_formula_sum "Si O2"
_cell_formula_units_Z 44
_cell_length_a 9.712524
_cell_length_b 19.815053
_cell_length_c 10.565147
_cell_angle_alpha 90.000000
_cell_angle_beta 90.000000
_cell_angle_gamma 90.000000
_cell_volume 2033.306679
_symmetry_space_group_name_H-M "C M M 2"
_symmetry_group_IT_number 35
_symmetry_cell_setting 'orthorhombic'
loop_
_space_group_symop_operation_xyz
x,y,z
-x,-y,z
-x,y,z
x,-y,z
1/2+x,1/2+y,z
1/2-x,1/2-y,z
1/2-x,1/2+y,z
1/2+x,1/2-y,z
loop_
_atom_site_type_symbol
_atom_site_label
_atom_site_fract_x
_atom_site_fract_y
_atom_site_fract_z
Si Si1 0.000000 0.224488 0.462850
Si Si2 0.848016 0.192557 0.111628
Si Si3 0.151984 0.807443 0.814076
Si Si4 0.844342 0.420047 0.729191
Si Si5 0.787167 0.648341 0.462852
Si Si6 0.344342 0.079953 0.196513
O O1 0.118222 0.285367 0.462851
O O2 0.126050 0.167927 0.462851
O O3 0.750000 0.250000 0.169429
O O4 0.770976 0.122052 0.123196
O O5 0.000000 0.194298 0.171725
O O6 0.862792 0.207644 0.962852
O O7 0.250000 0.750000 0.756275
O O8 0.229025 0.877948 0.802509
O O9 0.000000 0.805702 0.753979
O O10 0.829161 0.500000 0.742102
O O11 0.824625 0.395671 0.585847
O O12 0.000000 0.401264 0.771313
O O13 0.824624 0.604329 0.339857
O O14 0.500000 0.098736 0.154391
O O15 0.329161 0.000000 0.183601
#
# Coordination Sequence:
#
# PCOD9350003 Si02
#       6
#     4   8   8   8   8   8
#     4  10  24  38  64  90 122 164 206 254 300 358
#     4  10  23  42  65  92 122 158 205 260 309 359
#     4  10  23  42  65  92 122 158 205 260 309 359
#     4  11  24  41  63  89 127 169 204 248 303 368
#     4  11  23  41  60  95 125 162 201 254 305 360
#     4  11  24  41  63  89 127 169 204 248 303 368
#
# _framework density 21.639628999999999
#
# number of rings (size 3 to 8) (size 9 to 14) (size 15 to 20)
#    0.000    1.455    1.818    1.636    7.636    5.091 
#    0.000    4.545    0.000    0.000    0.000    0.000 
#    0.000    0.000    0.000    0.000    0.000    0.000 
#
# Total GULP energy -122546.627959 kJ/mol
# GULP energy per Si atom -5570.301271 kJ/mol
# Density = 2.159038 g / cm^3
# Si number density = 21.639629 Si / 1000 Ang^3
#
#
#
# Elastic Constant Matrix: (Units=GPa)
#
#
# Indices 1 2 3 4 5 6 
#
# 1 262.7748 88.6889 7.6181 0.0000 0.0000 0.0000
# 2 88.6889 103.7787 -12.0465 0.0000 0.0000 0.0000
# 3 7.6181 -12.0465 24.9104 0.0000 0.0000 0.0000
# 4 0.0000 0.0000 0.0000 -4.0357 0.0000 0.0000
# 5 0.0000 0.0000 0.0000 0.0000 21.9732 0.0000
# 6 0.0000 0.0000 0.0000 0.0000 0.0000 35.4322
#
#
#
# Elastic Compliance Matrix: (Units=1/GPa)
#
#
# Indices 1 2 3 4 5 6 
#
# 1 0.005769 -0.005441 -0.004395 0.000000 0.000000 0.000000
# 2 -0.005441 0.015340 0.009082 0.000000 0.000000 0.000000
# 3 -0.004395 0.009082 0.045880 0.000000 0.000000 0.000000
# 4 0.000000 0.000000 0.000000 -0.247789 0.000000 0.000000
# 5 0.000000 0.000000 0.000000 0.000000 0.045510 0.000000
# 6 0.000000 0.000000 0.000000 0.000000 0.000000 0.028223
#
#
# Mechanical properties :
#
#
# Convention : Reuss Voigt Hill
#
# Bulk Modulus (GPa) = 15.27163 62.22055 38.74609
# Shear Modulus (GPa) = -59.71366 31.15418 -14.27974
#
# Velocity S-wave (km/s) = -5.25875 3.79843 -2.57162
# Velocity P-wave (km/s) = 5.45895 6.93202 3.02099
#
# Compressibility (1/GPa) = 0.06548091
#
# Stress axis : x y z
#
# Youngs Moduli (GPa) = 173.33429 65.19086 21.79597
#
# Poissons Ratio (x) = 0.35467 0.09580
# Poissons Ratio (y) = 0.94303 -0.19795
# Poissons Ratio (z) = 0.76186 -0.59206
#
# Static dielectric constant tensor:
#      x y z
#    x 1.826720 0.000000 0.000000 
#    y 0.000000 1.713730 0.000000 
#    z 0.000000 0.000000 2.072290 
# 
# From -- ./inp_files/14897.got.cif
#   From: 2010.05.17/outbox.cif.g08.bks.cpg/sg35_8_cif.got.tgz:14897.got - 2010.06.03 17:29:28.
