data_PCOD9350541
_publ_section_title
;
Structure prediction by ZEFSAII (Michael W. Deem and Ramdas Pophale) SiO2 
 PCOD9350541
Probable space group: C M C 21
;
_chemical_formula_sum "Si O2"
_cell_formula_units_Z 56
_cell_length_a 17.742669
_cell_length_b 34.372586
_cell_length_c 5.097491
_cell_angle_alpha 90.000000
_cell_angle_beta 90.000000
_cell_angle_gamma 90.000000
_cell_volume 3108.763080
_symmetry_space_group_name_H-M "C M C 21"
_symmetry_group_IT_number 36
_symmetry_cell_setting 'orthorhombic'
loop_
_space_group_symop_operation_xyz
x,y,z
-x,-y,1/2+z
x,-y,1/2+z
-x,y,z
1/2+x,1/2+y,z
1/2-x,1/2-y,1/2+z
1/2+x,1/2-y,1/2+z
1/2-x,1/2+y,z
loop_
_atom_site_type_symbol
_atom_site_label
_atom_site_fract_x
_atom_site_fract_y
_atom_site_fract_z
Si Si1 0.588251 0.473958 0.704650
Si Si2 0.741500 0.864213 0.099707
Si Si3 0.163078 0.792303 0.188194
Si Si4 0.415583 0.162836 0.564217
Si Si5 0.913778 0.284048 0.564866
Si Si6 0.084831 0.820655 0.685841
Si Si7 0.671908 0.394818 0.597462
O O1 0.600252 0.507849 0.490901
O O2 0.500000 0.462057 0.683213
O O3 0.642201 0.437875 0.645535
O O4 0.762994 0.818207 0.136725
O O5 0.652018 0.866536 0.118731
O O6 0.786603 0.887237 0.323345
O O7 0.772104 0.879472 0.823511
O O8 0.151230 0.747722 0.109485
O O9 0.139448 0.797122 0.490491
O O10 0.104580 0.813499 0.988823
O O11 0.500000 0.146328 0.581152
O O12 0.405087 0.182089 0.279261
O O13 0.411229 0.197280 0.778529
O O14 0.000000 0.267879 0.602710
O O15 0.101175 0.865333 0.616354
O O16 0.000000 0.808954 0.631990
#
# Coordination Sequence:
#
# PCOD9350541 Si02
#       7
#     8   8   8   8   8   8   8
#     4  10  20  34  54  81 113 145 172 193 219 269
#     4  10  21  35  50  71  98 128 165 210 253 295
#     4  10  20  30  45  68  93 125 164 208 252 297
#     4  10  21  35  51  69  92 124 163 212 263 310
#     4  10  19  31  47  67  92 124 164 209 257 304
#     4  10  18  29  45  65  94 130 166 201 237 281
#     4  10  20  34  51  73 102 132 164 201 238 276
#
# _framework density 18.013594000000001
#
# number of rings (size 3 to 8) (size 9 to 14) (size 15 to 20)
#    0.000    2.000    0.000    4.286    0.000    2.286 
#    0.000    4.286    0.000    0.000    0.000    0.000 
#    0.000   11.429    0.000    0.000    0.000    0.000 
#
# Total GULP energy -156264.294389 kJ/mol
# GULP energy per Si atom -5580.867657 kJ/mol
# Density = 1.797259 g / cm^3
# Si number density = 18.013594 Si / 1000 Ang^3
#
#
#
# Elastic Constant Matrix: (Units=GPa)
#
#
# Indices 1 2 3 4 5 6 
#
# 1 62.6543 6.8867 -2.6019 0.0000 0.0000 0.0000
# 2 6.8867 26.2270 -13.1374 0.0000 0.0000 0.0000
# 3 -2.6019 -13.1374 50.5532 0.0000 0.0000 0.0000
# 4 0.0000 0.0000 0.0000 11.7942 0.0000 0.0000
# 5 0.0000 0.0000 0.0000 0.0000 13.5826 0.0000
# 6 0.0000 0.0000 0.0000 0.0000 0.0000 6.4505
#
#
#
# Elastic Compliance Matrix: (Units=1/GPa)
#
#
# Indices 1 2 3 4 5 6 
#
# 1 0.016439 -0.004475 -0.000317 0.000000 0.000000 0.000000
# 2 -0.004475 0.045053 0.011478 0.000000 0.000000 0.000000
# 3 -0.000317 0.011478 0.022748 0.000000 0.000000 0.000000
# 4 0.000000 0.000000 0.000000 0.084787 0.000000 0.000000
# 5 0.000000 0.000000 0.000000 0.000000 0.073624 0.000000
# 6 0.000000 0.000000 0.000000 0.000000 0.000000 0.155026
#
#
# Mechanical properties :
#
#
# Convention : Reuss Voigt Hill
#
# Bulk Modulus (GPa) = 10.24476 13.52548 11.88512
# Shear Modulus (GPa) = 11.99491 16.25127 14.12309
#
# Velocity S-wave (km/s) = 2.58327 3.00687 2.80308
# Velocity P-wave (km/s) = 3.82064 4.42491 4.13383
#
# Compressibility (1/GPa) = 0.09761085
#
# Stress axis : x y z
#
# Youngs Moduli (GPa) = 60.82965 22.19600 43.96071
#
# Poissons Ratio (x) = 0.09934 0.01393
# Poissons Ratio (y) = 0.27224 -0.50457
# Poissons Ratio (z) = 0.01928 -0.25476
#
# Static dielectric constant tensor:
#      x y z
#    x 1.634330 0.000000 0.000000 
#    y 0.000000 1.604740 0.000000 
#    z 0.000000 0.000000 1.613050 
# 
# From -- ./inp_files/942.got.cif
#   From: 2010.05.17/outbox.cif.g08.bks.cpg/sg36_1_cif.got.tgz:942.got - 2010.06.03 17:41:39.
