data_PCOD9350152
_publ_section_title
;
Structure prediction by ZEFSAII (Michael W. Deem and Ramdas Pophale) SiO2 
 PCOD9350152
Probable space group: C M M 2
;
_chemical_formula_sum "Si O2"
_cell_formula_units_Z 28
_cell_length_a 9.000000
_cell_length_b 21.000000
_cell_length_c 15.000000
_cell_angle_alpha 90.000000
_cell_angle_beta 90.000000
_cell_angle_gamma 90.000000
_cell_volume 2835.000000
_symmetry_space_group_name_H-M "C M M 2"
_symmetry_group_IT_number 35
_symmetry_cell_setting 'orthorhombic'
loop_
_space_group_symop_operation_xyz
x,y,z
-x,-y,z
-x,y,z
x,-y,z
1/2+x,1/2+y,z
1/2-x,1/2-y,z
1/2-x,1/2+y,z
1/2+x,1/2-y,z
loop_
_atom_site_type_symbol
_atom_site_label
_atom_site_fract_x
_atom_site_fract_y
_atom_site_fract_z
Si Si1 0.677828 0.925396 0.170010
Si Si2 0.326641 0.424239 0.360277
Si Si3 0.824105 0.687483 0.704934
Si Si4 0.670466 0.000000 0.669449
Si Si5 0.177720 0.185075 0.052605
Si Si6 0.324452 0.120428 0.537388
Si Si7 0.176235 0.627477 0.889138
Si Si8 0.323478 0.500000 0.859426
O O1 0.500000 0.917551 0.162437
O O2 0.732016 0.912502 0.271275
O O3 0.761287 0.875685 0.106848
O O4 0.713025 0.000000 0.151125
O O5 0.500000 0.409297 0.344850
O O6 0.315342 0.500000 0.379439
O O7 0.263622 0.388660 0.446708
O O8 0.750000 0.750000 0.740975
O O9 0.765342 0.673095 0.606255
O O10 0.800515 0.637306 0.783414
O O11 0.000000 0.694413 0.695927
O O12 0.686441 0.059312 0.602712
O O13 0.777671 0.000000 0.754335
O O14 0.500000 0.000000 0.704932
O O15 0.250000 0.250000 0.089335
O O16 0.000000 0.187978 0.054428
O O17 0.239112 0.176418 0.952182
O O18 0.500000 0.129238 0.517631
O O19 0.249416 0.559993 0.906585
O O20 0.000000 0.629690 0.906644
O O21 0.500000 0.500000 0.867201
#
# Coordination Sequence:
#
# PCOD9350152 Si02
#       8
#     8   8   8   4   8   8   8   4
#     4  10  22  42  68  96 126 165 208 256 317 381
#     4  10  20  34  56  90 125 155 192 249 311 367
#     4  10  22  38  57  80 112 157 205 252 298 351
#     4  10  18  34  56  79 114 155 196 242 294 354
#     4  12  26  45  68  96 128 164 210 260 315 380
#     4  10  19  34  56  82 113 156 200 242 294 359
#     4  11  23  42  64  87 121 164 207 253 308 372
#     4  12  24  36  56  91 126 159 202 256 314 370
#
# _framework density 9.8765429999999999
#
# number of rings (size 3 to 8) (size 9 to 14) (size 15 to 20)
#    0.000    1.429    2.143    3.643    1.000    4.857 
#    0.000    0.714    0.000    1.714    0.000    0.000 
#    0.000    0.000    0.000    0.000    0.000    0.000 
#
# Total GULP energy -156277.123604 kJ/mol
# GULP energy per Si atom -5581.325843 kJ/mol
# Density = 0.985406 g / cm^3
# Si number density = 9.876543 Si / 1000 Ang^3
#
#
#
# Elastic Constant Matrix: (Units=GPa)
#
#
# Indices 1 2 3 4 5 6 
#
# 1 104.6886 55.3964 51.7590 0.0000 0.0000 0.0000
# 2 55.3964 94.5439 34.9249 0.0000 0.0000 0.0000
# 3 51.7590 34.9249 94.0400 0.0000 0.0000 0.0000
# 4 0.0000 0.0000 0.0000 24.9693 0.0000 0.0000
# 5 0.0000 0.0000 0.0000 0.0000 36.8726 0.0000
# 6 0.0000 0.0000 0.0000 0.0000 0.0000 20.9435
#
#
#
# Elastic Compliance Matrix: (Units=1/GPa)
#
#
# Indices 1 2 3 4 5 6 
#
# 1 0.016623 -0.007371 -0.006411 0.000000 0.000000 0.000000
# 2 -0.007371 0.015528 -0.001710 0.000000 0.000000 0.000000
# 3 -0.006411 -0.001710 0.014797 0.000000 0.000000 0.000000
# 4 0.000000 0.000000 0.000000 0.040049 0.000000 0.000000
# 5 0.000000 0.000000 0.000000 0.000000 0.027120 0.000000
# 6 0.000000 0.000000 0.000000 0.000000 0.000000 0.047747
#
#
# Mechanical properties :
#
#
# Convention : Reuss Voigt Hill
#
# Bulk Modulus (GPa) = 62.64424 64.15924 63.40174
# Shear Modulus (GPa) = 25.23083 26.63658 25.93370
#
# Velocity S-wave (km/s) = 3.57783 3.67614 3.62732
# Velocity P-wave (km/s) = 6.98930 7.11125 7.05054
#
# Compressibility (1/GPa) = 0.01596316
#
# Stress axis : x y z
#
# Youngs Moduli (GPa) = 60.15941 64.40099 67.57914
#
# Poissons Ratio (x) = 0.47472 0.43327
# Poissons Ratio (y) = 0.44345 0.11554
# Poissons Ratio (z) = 0.38570 0.11010
#
# Static dielectric constant tensor:
#      x y z
#    x 1.648070 0.000000 0.000000 
#    y 0.000000 1.661830 0.000000 
#    z 0.000000 0.000000 1.670870 
# 
# From -- ./inp_files/15677.got.cif
#   From: 2010.05.17/outbox.ucp.g08.bks.cvg/sg35_8_cif.got.tgz:15677.got - 2010.06.11 10:36:28.
