data_PCOD9350525
_publ_section_title
;
Structure prediction by ZEFSAII (Michael W. Deem and Ramdas Pophale) SiO2 
 PCOD9350525
Probable space group: C M C 21
;
_chemical_formula_sum "Si O2"
_cell_formula_units_Z 40
_cell_length_a 13.089922
_cell_length_b 21.898771
_cell_length_c 5.578343
_cell_angle_alpha 90.000000
_cell_angle_beta 90.000000
_cell_angle_gamma 90.000000
_cell_volume 1599.049896
_symmetry_space_group_name_H-M "C M C 21"
_symmetry_group_IT_number 36
_symmetry_cell_setting 'orthorhombic'
loop_
_space_group_symop_operation_xyz
x,y,z
-x,-y,1/2+z
x,-y,1/2+z
-x,y,z
1/2+x,1/2+y,z
1/2-x,1/2-y,1/2+z
1/2+x,1/2-y,1/2+z
1/2-x,1/2+y,z
loop_
_atom_site_type_symbol
_atom_site_label
_atom_site_fract_x
_atom_site_fract_y
_atom_site_fract_z
Si Si1 0.392439 0.841441 0.767590
Si Si2 0.843148 0.720176 0.767590
Si Si3 0.662855 0.633984 0.267590
Si Si4 0.613547 0.036918 0.767590
Si Si5 0.184847 0.880089 0.267590
O O1 0.500000 0.876402 0.767590
O O2 0.388810 0.803502 0.519214
O O3 0.285927 0.877350 0.767590
O O4 0.388810 0.803502 0.015966
O O5 0.848064 0.792843 0.767590
O O6 0.729342 0.689832 0.767590
O O7 0.626116 0.609421 0.521075
O O8 0.626116 0.609421 0.014105
O O9 0.500000 0.066522 0.767590
O O10 0.710226 0.081522 0.767590
O O11 0.619376 1.000000 0.517590
#
# Coordination Sequence:
#
# PCOD9350525 Si02
#       5
#     8   8   8   8   8
#     4  10  18  27  41  62  88 118 153 189 219 258
#     4  10  19  32  45  65  94 121 154 194 241 289
#     4  10  19  31  47  67  92 119 156 195 240 292
#     4  10  21  35  47  63  92 126 162 209 251 271
#     4  10  18  29  48  65  80 116 161 193 232 280
#
# _framework density 25.014855000000001
#
# number of rings (size 3 to 8) (size 9 to 14) (size 15 to 20)
#    0.000    2.000    0.000    7.800    0.000    6.400 
#    0.000    2.000    0.000    0.000    0.000    0.000 
#    0.000    0.000    0.000    0.000    0.000  678.000 
#
# Total GULP energy -111732.763412 kJ/mol
# GULP energy per Si atom -5586.638171 kJ/mol
# Density = 2.495792 g / cm^3
# Si number density = 25.014855 Si / 1000 Ang^3
#
#
#
# Elastic Constant Matrix: (Units=GPa)
#
#
# Indices 1 2 3 4 5 6 
#
# 1 63.0822 7.0661 25.8744 0.0000 0.0000 0.0000
# 2 7.0661 50.0295 50.2970 0.0000 0.0000 0.0000
# 3 25.8744 50.2970 339.8328 0.0000 0.0000 0.0000
# 4 0.0000 0.0000 0.0000 50.3143 0.0000 0.0000
# 5 0.0000 0.0000 0.0000 0.0000 -0.3128 0.0000
# 6 0.0000 0.0000 0.0000 0.0000 0.0000 -3.2421
#
#
#
# Elastic Compliance Matrix: (Units=1/GPa)
#
#
# Indices 1 2 3 4 5 6 
#
# 1 0.016429 -0.001249 -0.001066 0.000000 0.000000 0.000000
# 2 -0.001249 0.023577 -0.003394 0.000000 0.000000 0.000000
# 3 -0.001066 -0.003394 0.003526 0.000000 0.000000 0.000000
# 4 0.000000 0.000000 0.000000 0.019875 0.000000 0.000000
# 5 0.000000 0.000000 0.000000 0.000000 -3.197272 0.000000
# 6 0.000000 0.000000 0.000000 0.000000 0.000000 -0.308444
#
#
# Mechanical properties :
#
#
# Convention : Reuss Voigt Hill
#
# Bulk Modulus (GPa) = 31.13874 68.82439 49.98156
# Shear Modulus (GPa) = -1.46191 33.99902 16.26855
#
# Velocity S-wave (km/s) = -0.76530 3.69067 2.55297
# Velocity P-wave (km/s) = 3.41968 6.76273 5.35858
#
# Compressibility (1/GPa) = 0.03211434
#
# Stress axis : x y z
#
# Youngs Moduli (GPa) = 60.86619 42.41389 283.59183
#
# Poissons Ratio (x) = 0.05296 0.30234
# Poissons Ratio (y) = 0.07600 0.96264
# Poissons Ratio (z) = 0.06489 0.14397
#
# Static dielectric constant tensor:
#      x y z
#    x 1.992650 0.000000 0.000000 
#    y 0.000000 2.034370 0.000000 
#    z 0.000000 0.000000 2.074280 
# 
# From -- ./inp_files/738.got.cif
#   From: 2010.05.17/outbox.cif.g08.bks.cpg/sg36_1_cif.got.tgz:738.got - 2010.06.03 17:41:39.
