data_PCOD9350052
_publ_section_title
;
Structure prediction by ZEFSAII (Michael W. Deem and Ramdas Pophale) SiO2 
 PCOD9350052
Probable space group: C M M 2
;
_chemical_formula_sum "Si O2"
_cell_formula_units_Z 56
_cell_length_a 8.642627
_cell_length_b 22.352981
_cell_length_c 14.721340
_cell_angle_alpha 90.000000
_cell_angle_beta 90.000000
_cell_angle_gamma 90.000000
_cell_volume 2843.993256
_symmetry_space_group_name_H-M "C M M 2"
_symmetry_group_IT_number 35
_symmetry_cell_setting 'orthorhombic'
loop_
_space_group_symop_operation_xyz
x,y,z
-x,-y,z
-x,y,z
x,-y,z
1/2+x,1/2+y,z
1/2-x,1/2-y,z
1/2-x,1/2+y,z
1/2+x,1/2-y,z
loop_
_atom_site_type_symbol
_atom_site_label
_atom_site_fract_x
_atom_site_fract_y
_atom_site_fract_z
Si Si1 0.316024 0.000000 0.839591
Si Si2 0.685730 0.616643 0.521988
Si Si3 0.683929 0.626132 0.852612
Si Si4 0.685412 0.000000 0.622718
Si Si5 0.814330 0.314077 0.023474
Si Si6 0.183852 0.314157 0.679856
Si Si7 0.314668 0.932286 0.132087
Si Si8 0.316580 0.430461 0.331500
O O1 0.243446 0.939742 0.878785
O O2 0.285805 0.000000 0.730865
O O3 0.500000 0.000000 0.854626
O O4 0.500000 0.620267 0.526073
O O5 0.741971 0.557519 0.574669
O O6 0.760943 0.669864 0.578747
O O7 0.731764 0.609868 0.416710
O O8 0.500000 0.629114 0.855238
O O9 0.744673 0.639710 0.751739
O O10 0.757301 0.673781 0.921211
O O11 0.500000 0.000000 0.610371
O O12 0.750000 0.250000 0.055795
O O13 0.759093 0.373527 0.077942
O O14 0.000000 0.312130 0.026453
O O15 0.250000 0.250000 0.705512
O O16 0.000000 0.316324 0.685885
O O17 0.500000 0.933965 0.120912
O O18 0.272801 0.922458 0.237708
O O19 0.256777 0.000000 0.107748
O O20 0.500000 0.421552 0.315032
O O21 0.296771 0.500000 0.359740
#
# Coordination Sequence:
#
# PCOD9350052 Si02
#       8
#     4   8   8   4   8   8   8   8
#     4  11  23  39  59  90 126 161 202 248 303 359
#     4  11  21  36  58  86 121 158 197 244 295 351
#     4  12  25  41  63  91 122 159 202 249 305 364
#     4  11  21  33  55  86 118 157 196 238 291 345
#     4  11  24  43  66  91 123 161 206 256 310 372
#     4  12  25  42  60  83 115 159 207 252 301 354
#     4   9  20  39  63  92 121 157 200 251 312 370
#     4   9  18  34  57  88 122 156 191 240 302 361
#
# _framework density 19.690625000000001
#
# number of rings (size 3 to 8) (size 9 to 14) (size 15 to 20)
#    0.000    1.286    2.143    4.286    1.000    2.857 
#    0.000    0.714    0.000    1.714    0.000    0.000 
#    0.000    0.000    0.000    0.000    0.000    0.000 
#
# Total GULP energy -156457.509968 kJ/mol
# GULP energy per Si atom -5587.768213 kJ/mol
# Density = 1.964581 g / cm^3
# Si number density = 19.690625 Si / 1000 Ang^3
#
#
#
# Elastic Constant Matrix: (Units=GPa)
#
#
# Indices 1 2 3 4 5 6 
#
# 1 66.4007 31.5369 15.5147 0.0000 0.0000 0.0000
# 2 31.5369 121.2996 39.1042 0.0000 0.0000 0.0000
# 3 15.5147 39.1042 71.2872 0.0000 0.0000 0.0000
# 4 0.0000 0.0000 0.0000 28.5595 0.0000 0.0000
# 5 0.0000 0.0000 0.0000 0.0000 25.8181 0.0000
# 6 0.0000 0.0000 0.0000 0.0000 0.0000 30.7036
#
#
#
# Elastic Compliance Matrix: (Units=1/GPa)
#
#
# Indices 1 2 3 4 5 6 
#
# 1 0.017327 -0.003996 -0.001579 0.000000 0.000000 0.000000
# 2 -0.003996 0.010937 -0.005130 0.000000 0.000000 0.000000
# 3 -0.001579 -0.005130 0.017185 0.000000 0.000000 0.000000
# 4 0.000000 0.000000 0.000000 0.035015 0.000000 0.000000
# 5 0.000000 0.000000 0.000000 0.000000 0.038732 0.000000
# 6 0.000000 0.000000 0.000000 0.000000 0.000000 0.032569
#
#
# Mechanical properties :
#
#
# Convention : Reuss Voigt Hill
#
# Bulk Modulus (GPa) = 41.59773 47.92211 44.75992
# Shear Modulus (GPa) = 27.59576 28.53837 28.06707
#
# Velocity S-wave (km/s) = 3.74768 3.81115 3.77955
# Velocity P-wave (km/s) = 6.31651 6.61489 6.46742
#
# Compressibility (1/GPa) = 0.02403977
#
# Stress axis : x y z
#
# Youngs Moduli (GPa) = 57.71398 91.43632 58.18954
#
# Poissons Ratio (x) = 0.36536 0.09189
# Poissons Ratio (y) = 0.23061 0.29849
# Poissons Ratio (z) = 0.09113 0.46903
#
# Static dielectric constant tensor:
#      x y z
#    x 1.656120 0.000000 0.000000 
#    y 0.000000 1.700240 0.000000 
#    z 0.000000 0.000000 1.683660 
# 
# From -- ./inp_files/15737.got.cif
#   From: 2010.05.17/outbox.cif.g08.bks.cpg/sg35_8_cif.got.tgz:15737.got - 2010.06.03 17:29:28.
