data_PCOD9350206
_publ_section_title
;
Structure prediction by ZEFSAII (Michael W. Deem and Ramdas Pophale) SiO2 
 PCOD9350206
Probable space group: C M M 2
;
_chemical_formula_sum "Si O2"
_cell_formula_units_Z 32
_cell_length_a 9.000000
_cell_length_b 30.000000
_cell_length_c 12.000000
_cell_angle_alpha 90.000000
_cell_angle_beta 90.000000
_cell_angle_gamma 90.000000
_cell_volume 3240.000000
_symmetry_space_group_name_H-M "C M M 2"
_symmetry_group_IT_number 35
_symmetry_cell_setting 'orthorhombic'
loop_
_space_group_symop_operation_xyz
x,y,z
-x,-y,z
-x,y,z
x,-y,z
1/2+x,1/2+y,z
1/2-x,1/2-y,z
1/2-x,1/2+y,z
1/2+x,1/2-y,z
loop_
_atom_site_type_symbol
_atom_site_label
_atom_site_fract_x
_atom_site_fract_y
_atom_site_fract_z
Si Si1 0.672628 0.208226 0.630130
Si Si2 0.672731 0.119425 0.484566
Si Si3 0.170012 0.050495 0.638797
Si Si4 0.676051 0.922878 0.862712
Si Si5 0.168746 0.051352 0.088850
Si Si6 0.176531 0.375485 0.227723
Si Si7 0.673356 0.704716 0.097568
Si Si8 0.325492 0.326971 0.848375
O O1 0.500000 0.217062 0.654543
O O2 0.750000 0.250000 0.572230
O O3 0.682058 0.164697 0.554473
O O4 0.761985 0.199291 0.743455
O O5 0.500000 0.104483 0.487758
O O6 0.774482 0.083706 0.544989
O O7 0.715263 0.127284 0.357356
O O8 0.271743 0.055695 0.747383
O O9 0.000000 0.060513 0.671479
O O10 0.177087 0.000000 0.598229
O O11 0.500000 0.925692 0.875938
O O12 0.730289 0.871917 0.857451
O O13 0.758487 0.944250 0.967513
O O14 0.264050 0.079119 0.175324
O O15 0.000000 0.069204 0.083765
O O16 0.164264 0.000000 0.120632
O O17 0.250710 0.336504 0.157499
O O18 0.000000 0.372662 0.216328
O O19 0.500000 0.705493 0.123386
O O20 0.750000 0.750000 0.133671
O O21 0.689978 0.698644 0.964615
O O22 0.500000 0.337282 0.832386
#
# Coordination Sequence:
#
# PCOD9350206 Si02
#       8
#     8   8   8   8   8   8   8   8
#     4  11  23  40  63  92 126 163 207 255 309 369
#     4  10  24  44  64  90 123 164 212 261 310 366
#     4  11  24  41  64  94 127 165 208 254 308 371
#     4  12  23  37  63  95 128 165 203 251 311 374
#     4  11  24  42  64  92 127 165 208 258 311 373
#     4  11  24  43  66  91 124 164 212 264 314 370
#     4  11  24  41  64  93 128 165 207 257 311 372
#     4  11  22  38  63  94 128 163 202 251 308 371
#
# _framework density 9.8765429999999999
#
# number of rings (size 3 to 8) (size 9 to 14) (size 15 to 20)
#    0.000    1.000    2.500    4.125    0.000    8.500 
#    0.000    3.750    0.000    0.000    0.000    0.000 
#    0.000    0.000    0.000    0.000    0.000    0.000 
#
# Total GULP energy -178927.513833 kJ/mol
# GULP energy per Si atom -5591.484807 kJ/mol
# Density = 0.985406 g / cm^3
# Si number density = 9.876543 Si / 1000 Ang^3
#
#
#
# Elastic Constant Matrix: (Units=GPa)
#
#
# Indices 1 2 3 4 5 6 
#
# 1 64.1267 29.6426 58.8504 0.0000 0.0000 0.0000
# 2 29.6426 72.7734 16.3815 0.0000 0.0000 0.0000
# 3 58.8504 16.3815 88.5208 0.0000 0.0000 0.0000
# 4 0.0000 0.0000 0.0000 -185.9484 0.0000 0.0000
# 5 0.0000 0.0000 0.0000 0.0000 45.8502 0.0000
# 6 0.0000 0.0000 0.0000 0.0000 0.0000 42.1968
#
#
#
# Elastic Compliance Matrix: (Units=1/GPa)
#
#
# Indices 1 2 3 4 5 6 
#
# 1 0.050101 -0.013471 -0.030815 0.000000 0.000000 0.000000
# 2 -0.013471 0.017961 0.005632 0.000000 0.000000 0.000000
# 3 -0.030815 0.005632 0.030741 0.000000 0.000000 0.000000
# 4 0.000000 0.000000 0.000000 -0.005378 0.000000 0.000000
# 5 0.000000 0.000000 0.000000 0.000000 0.021810 0.000000
# 6 0.000000 0.000000 0.000000 0.000000 0.000000 0.023698
#
#
# Mechanical properties :
#
#
# Convention : Reuss Voigt Hill
#
# Bulk Modulus (GPa) = 46.52385 48.35220 47.43803
# Shear Modulus (GPa) = 22.38083 -11.54386 5.41848
#
# Velocity S-wave (km/s) = 3.36970 -2.42008 1.65803
# Velocity P-wave (km/s) = 6.22444 4.08931 5.26622
#
# Compressibility (1/GPa) = 0.02149435
#
# Stress axis : x y z
#
# Youngs Moduli (GPa) = 19.95985 55.67758 32.52988
#
# Poissons Ratio (x) = 0.75002 1.00241
# Poissons Ratio (y) = 0.26888 -0.18321
# Poissons Ratio (z) = 0.61506 -0.31357
#
# Static dielectric constant tensor:
#      x y z
#    x 1.678720 0.000000 0.000000 
#    y 0.000000 1.740670 0.000000 
#    z 0.000000 0.000000 1.662600 
# 
# From -- ./inp_files/11980.got.cif
#   From: 2010.05.17/outbox.ucp.g08.bks.cvg/sg35_6_cif.got.tgz:11980.got - 2010.06.11 10:36:28.
