data_PCOD9350522
_publ_section_title
;
Structure prediction by ZEFSAII (Michael W. Deem and Ramdas Pophale) SiO2 
 PCOD9350522
Probable space group: C M C 21
;
_chemical_formula_sum "Si O2"
_cell_formula_units_Z 48
_cell_length_a 18.576969
_cell_length_b 8.748157
_cell_length_c 11.086603
_cell_angle_alpha 90.000000
_cell_angle_beta 90.000000
_cell_angle_gamma 90.000000
_cell_volume 1801.730876
_symmetry_space_group_name_H-M "C M C 21"
_symmetry_group_IT_number 36
_symmetry_cell_setting 'orthorhombic'
loop_
_space_group_symop_operation_xyz
x,y,z
-x,-y,1/2+z
x,-y,1/2+z
-x,y,z
1/2+x,1/2+y,z
1/2-x,1/2-y,1/2+z
1/2+x,1/2-y,1/2+z
1/2-x,1/2+y,z
loop_
_atom_site_type_symbol
_atom_site_label
_atom_site_fract_x
_atom_site_fract_y
_atom_site_fract_z
Si Si1 0.255775 0.266984 0.822680
Si Si2 0.335058 0.998234 0.896071
Si Si3 0.879682 0.045020 0.211163
Si Si4 0.500000 0.587249 0.881260
Si Si5 0.000000 0.223544 0.522392
Si Si6 0.653293 0.251079 0.103026
Si Si7 0.000000 0.261005 0.103496
Si Si8 0.000000 0.532323 0.816366
O O1 0.207316 0.657976 0.430070
O O2 0.326278 0.366788 0.799237
O O3 0.198277 0.295179 0.717383
O O4 0.282992 0.094184 0.806528
O O5 0.328560 0.131979 0.997725
O O6 0.417744 0.977710 0.852197
O O7 0.929728 0.171488 0.149538
O O8 0.930807 0.942050 0.297612
O O9 0.842804 0.937314 0.110094
O O10 0.500000 0.452910 0.982420
O O11 0.500000 0.741934 0.959182
O O12 0.932122 0.265969 0.600578
O O13 0.000000 0.310533 0.395521
O O14 0.000000 0.420778 0.174460
#
# Coordination Sequence:
#
# PCOD9350522 Si02
#       8
#     8   8   8   4   4   8   4   4
#     4  12  25  43  64 105 136 184 234 292 346 431
#     4  11  26  44  73  96 144 185 236 289 357 426
#     4  11  21  38  61  98 139 171 229 288 342 417
#     4  11  20  34  66 102 127 175 233 292 331 397
#     4  10  17  38  66  92 129 177 224 267 346 417
#     4  11  24  42  69  95 137 185 221 293 364 403
#     4  11  19  33  69  96 134 174 232 285 341 401
#     4  10  20  43  61 100 132 180 221 278 348 417
#
# _framework density 26.641045999999999
#
# number of rings (size 3 to 8) (size 9 to 14) (size 15 to 20)
#    0.000    1.000    6.667    1.500    2.333    0.667 
#    0.000    1.667    0.000    0.000    0.000    0.000 
#    0.000    0.000    0.000    0.000    0.000    0.000 
#
# Total GULP energy -133930.272603 kJ/mol
# GULP energy per Si atom -5580.428025 kJ/mol
# Density = 2.658041 g / cm^3
# Si number density = 26.641046 Si / 1000 Ang^3
#
#
#
# Elastic Constant Matrix: (Units=GPa)
#
#
# Indices 1 2 3 4 5 6 
#
# 1 99.7567 64.7428 3.5124 0.0000 0.0000 0.0000
# 2 64.7428 122.5987 14.4935 0.0000 0.0000 0.0000
# 3 3.5124 14.4935 32.3118 0.0000 0.0000 0.0000
# 4 0.0000 0.0000 0.0000 26.2622 0.0000 0.0000
# 5 0.0000 0.0000 0.0000 0.0000 44.8080 0.0000
# 6 0.0000 0.0000 0.0000 0.0000 0.0000 42.4236
#
#
#
# Elastic Compliance Matrix: (Units=1/GPa)
#
#
# Indices 1 2 3 4 5 6 
#
# 1 0.015383 -0.008370 0.002082 0.000000 0.000000 0.000000
# 2 -0.008370 0.013167 -0.004996 0.000000 0.000000 0.000000
# 3 0.002082 -0.004996 0.032963 0.000000 0.000000 0.000000
# 4 0.000000 0.000000 0.000000 0.038077 0.000000 0.000000
# 5 0.000000 0.000000 0.000000 0.000000 0.022317 0.000000
# 6 0.000000 0.000000 0.000000 0.000000 0.000000 0.023572
#
#
# Mechanical properties :
#
#
# Convention : Reuss Voigt Hill
#
# Bulk Modulus (GPa) = 25.67685 46.68493 36.18089
# Shear Modulus (GPa) = 27.61966 34.16001 30.88983
#
# Velocity S-wave (km/s) = 3.22333 3.58471 3.40881
# Velocity P-wave (km/s) = 4.84893 5.89027 5.39478
#
# Compressibility (1/GPa) = 0.03894559
#
# Stress axis : x y z
#
# Youngs Moduli (GPa) = 65.00630 75.94553 30.33676
#
# Poissons Ratio (x) = 0.63565 -0.06316
# Poissons Ratio (y) = 0.54409 0.15157
# Poissons Ratio (z) = -0.13535 0.37946
#
# Static dielectric constant tensor:
#      x y z
#    x 1.267440 0.000000 0.000000 
#    y 0.000000 2.550350 0.000000 
#    z 0.000000 0.000000 2.322770 
# 
# From -- ./inp_files/8940.got.cif
#   From: 2010.05.17/outbox.cif.g08.bks.cpg/sg36_5_cif.got.tgz:8940.got - 2010.06.03 17:41:39.
