data_PCOD9350649
_publ_section_title
;
Structure prediction by ZEFSAII (Michael W. Deem and Ramdas Pophale) SiO2 
 PCOD9350649
Probable space group: C M C 21
;
_chemical_formula_sum "Si O2"
_cell_formula_units_Z 48
_cell_length_a 10.757947
_cell_length_b 28.437899
_cell_length_c 7.105509
_cell_angle_alpha 90.000000
_cell_angle_beta 90.000000
_cell_angle_gamma 90.000000
_cell_volume 2173.812600
_symmetry_space_group_name_H-M "C M C 21"
_symmetry_group_IT_number 36
_symmetry_cell_setting 'orthorhombic'
loop_
_space_group_symop_operation_xyz
x,y,z
-x,-y,1/2+z
x,-y,1/2+z
-x,y,z
1/2+x,1/2+y,z
1/2-x,1/2-y,1/2+z
1/2+x,1/2-y,1/2+z
1/2-x,1/2+y,z
loop_
_atom_site_type_symbol
_atom_site_label
_atom_site_fract_x
_atom_site_fract_y
_atom_site_fract_z
Si Si1 0.745417 0.161370 0.040890
Si Si2 0.243781 0.631603 0.486757
Si Si3 0.000000 0.205528 0.099310
Si Si4 0.500000 0.784330 0.601677
Si Si5 0.142165 0.433421 0.441660
Si Si6 0.500000 0.675285 0.530151
Si Si7 0.641959 0.036868 0.375983
Si Si8 0.000000 0.687159 0.539118
O O1 0.746329 0.147478 0.264617
O O2 0.625350 0.194477 0.012067
O O3 0.725117 0.112903 0.928436
O O4 0.873302 0.188440 0.001335
O O5 0.373591 0.647846 0.573267
O O6 0.218560 0.575762 0.489336
O O7 0.124890 0.657990 0.573627
O O8 0.000000 0.182182 0.304173
O O9 0.000000 0.261382 0.128332
O O10 0.500000 0.728298 0.605370
O O11 0.500000 0.802444 0.815457
O O12 0.188652 0.483444 0.364780
O O13 0.134427 0.443547 0.665362
O O14 0.000000 0.424406 0.377036
O O15 0.500000 0.034310 0.451149
#
# Coordination Sequence:
#
# PCOD9350649 Si02
#       8
#     8   8   4   4   8   4   8   4
#     4   9  17  31  50  69  93 125 156 185 228 281
#     4   9  17  31  50  69  93 125 156 185 228 281
#     4  10  20  32  47  70  96 122 155 194 229 268
#     4  10  18  32  51  68  90 126 161 188 225 274
#     4   9  16  29  49  70  90 117 153 190 226 270
#     4  10  20  32  47  70  96 122 155 194 229 268
#     4   9  16  29  49  70  90 117 153 190 226 270
#     4  10  18  32  51  68  90 126 161 188 225 274
#
# _framework density 22.081018
#
# number of rings (size 3 to 8) (size 9 to 14) (size 15 to 20)
#    0.000    2.667    1.667    1.000    0.000    0.000 
#    0.000    4.167    0.000    0.000    0.000    0.000 
#    0.000    0.000    0.000    0.000    0.000    0.000 
#
# Total GULP energy -134160.818812 kJ/mol
# GULP energy per Si atom -5590.034117 kJ/mol
# Density = 2.203076 g / cm^3
# Si number density = 22.081018 Si / 1000 Ang^3
#
#
#
# Elastic Constant Matrix: (Units=GPa)
#
#
# Indices 1 2 3 4 5 6 
#
# 1 181.3704 106.5791 24.1268 0.0000 0.0000 0.0000
# 2 106.5791 175.6083 24.9957 0.0000 0.0000 0.0000
# 3 24.1268 24.9957 55.6732 0.0000 0.0000 0.0000
# 4 0.0000 0.0000 0.0000 36.1118 0.0000 0.0000
# 5 0.0000 0.0000 0.0000 0.0000 3.7711 0.0000
# 6 0.0000 0.0000 0.0000 0.0000 0.0000 -11.1077
#
#
#
# Elastic Compliance Matrix: (Units=1/GPa)
#
#
# Indices 1 2 3 4 5 6 
#
# 1 0.008685 -0.005058 -0.001493 0.000000 0.000000 0.000000
# 2 -0.005058 0.009029 -0.001862 0.000000 0.000000 0.000000
# 3 -0.001493 -0.001862 0.019445 0.000000 0.000000 0.000000
# 4 0.000000 0.000000 0.000000 0.027692 0.000000 0.000000
# 5 0.000000 0.000000 0.000000 0.000000 0.265177 0.000000
# 6 0.000000 0.000000 0.000000 0.000000 0.000000 -0.090027
#
#
# Mechanical properties :
#
#
# Convention : Reuss Voigt Hill
#
# Bulk Modulus (GPa) = 49.18050 80.45057 64.81554
# Shear Modulus (GPa) = 18.96786 22.88504 20.92645
#
# Velocity S-wave (km/s) = 2.93407 3.22283 3.08183
# Velocity P-wave (km/s) = 5.81373 7.09663 6.48697
#
# Compressibility (1/GPa) = 0.02033326
#
# Stress axis : x y z
#
# Youngs Moduli (GPa) = 115.14679 110.74830 51.42787
#
# Poissons Ratio (x) = 0.56020 0.07676
# Poissons Ratio (y) = 0.58245 0.09575
# Poissons Ratio (z) = 0.17186 0.20620
#
# Static dielectric constant tensor:
#      x y z
#    x 1.753640 0.000000 0.000000 
#    y 0.000000 1.798090 0.000000 
#    z 0.000000 0.000000 1.924240 
# 
# From -- ./inp_files/2779.got.cif
#   From: 2010.05.17/outbox.cif.g08.bks.cpg/sg36_2_cif.got.tgz:2779.got - 2010.06.03 17:41:39.
