data_PCOD9350174
_publ_section_title
;
Structure prediction by ZEFSAII (Michael W. Deem and Ramdas Pophale) SiO2 
 PCOD9350174
Probable space group: C M M 2
;
_chemical_formula_sum "Si O2"
_cell_formula_units_Z 32
_cell_length_a 9.000000
_cell_length_b 21.000000
_cell_length_c 18.000000
_cell_angle_alpha 90.000000
_cell_angle_beta 90.000000
_cell_angle_gamma 90.000000
_cell_volume 3402.000000
_symmetry_space_group_name_H-M "C M M 2"
_symmetry_group_IT_number 35
_symmetry_cell_setting 'orthorhombic'
loop_
_space_group_symop_operation_xyz
x,y,z
-x,-y,z
-x,y,z
x,-y,z
1/2+x,1/2+y,z
1/2-x,1/2-y,z
1/2-x,1/2+y,z
1/2+x,1/2-y,z
loop_
_atom_site_type_symbol
_atom_site_label
_atom_site_fract_x
_atom_site_fract_y
_atom_site_fract_z
Si Si1 0.822058 0.187330 0.271810
Si Si2 0.677524 0.428619 0.376132
Si Si3 0.325661 0.188555 0.110274
Si Si4 0.178960 0.313793 0.636110
Si Si5 0.167351 0.929330 0.870855
Si Si6 0.325849 0.187955 0.807737
Si Si7 0.832774 0.928658 0.048679
Si Si8 0.821036 0.429011 0.535305
O O1 0.750000 0.250000 0.307849
O O2 0.783112 0.124726 0.317280
O O3 0.751091 0.182916 0.190596
O O4 0.000000 0.193623 0.267093
O O5 0.500000 0.425963 0.387705
O O6 0.715304 0.500000 0.350480
O O7 0.757398 0.417187 0.453891
O O8 0.500000 0.198870 0.117158
O O9 0.250000 0.250000 0.072577
O O10 0.285771 0.123494 0.070227
O O11 0.250000 0.250000 0.604062
O O12 0.224326 0.318257 0.722106
O O13 0.229164 0.375421 0.591845
O O14 0.000000 0.309740 0.633210
O O15 0.280615 0.876184 0.847246
O O16 0.000000 0.913426 0.844922
O O17 0.205933 0.000000 0.843585
O O18 0.162184 0.931650 0.959822
O O19 0.500000 0.197755 0.808577
O O20 0.250000 0.250000 0.841737
O O21 0.000000 0.910610 0.074808
O O22 0.800997 0.000000 0.076667
O O23 0.775228 0.500000 0.558506
O O24 0.000000 0.427512 0.532125
#
# Coordination Sequence:
#
# PCOD9350174 Si02
#       8
#     8   8   8   8   8   8   8   8
#     4  10  20  35  54  75 102 135 169 208 254 303
#     4   9  19  35  53  74 100 131 168 207 248 298
#     4  11  22  36  55  79 107 137 173 215 256 303
#     4   9  19  34  51  73 101 133 169 208 252 301
#     4   9  19  36  56  78 105 136 171 212 257 307
#     4  10  20  34  53  76 104 138 174 215 259 306
#     4   9  19  37  58  78 104 138 172 209 257 309
#     4   9  18  33  52  73  99 131 166 206 251 298
#
# _framework density 9.4062319999999993
#
# number of rings (size 3 to 8) (size 9 to 14) (size 15 to 20)
#    0.000    2.500    0.000    3.375    0.000    5.000 
#    0.000    6.250    0.000    1.500    0.000    0.000 
#    0.000    0.000    0.000    0.000    0.000    0.000 
#
# Total GULP energy -178343.437753 kJ/mol
# GULP energy per Si atom -5573.232430 kJ/mol
# Density = 0.938482 g / cm^3
# Si number density = 9.406232 Si / 1000 Ang^3
#
#
#
# Elastic Constant Matrix: (Units=GPa)
#
#
# Indices 1 2 3 4 5 6 
#
# 1 36.3715 45.8004 18.2172 0.0000 0.0000 0.0000
# 2 45.8004 72.5575 40.9278 0.0000 0.0000 0.0000
# 3 18.2172 40.9278 21.2304 0.0000 0.0000 0.0000
# 4 0.0000 0.0000 0.0000 27.9566 0.0000 0.0000
# 5 0.0000 0.0000 0.0000 0.0000 18.7009 0.0000
# 6 0.0000 0.0000 0.0000 0.0000 0.0000 28.2585
#
#
#
# Elastic Compliance Matrix: (Units=1/GPa)
#
#
# Indices 1 2 3 4 5 6 
#
# 1 0.025821 0.043484 -0.105985 0.000000 0.000000 0.000000
# 2 0.043484 -0.084432 0.125454 0.000000 0.000000 0.000000
# 3 -0.105985 0.125454 -0.103805 0.000000 0.000000 0.000000
# 4 0.000000 0.000000 0.000000 0.035770 0.000000 0.000000
# 5 0.000000 0.000000 0.000000 0.000000 0.053473 0.000000
# 6 0.000000 0.000000 0.000000 0.000000 0.000000 0.035388
#
#
# Mechanical properties :
#
#
# Convention : Reuss Voigt Hill
#
# Bulk Modulus (GPa) = -27.39102 37.78335 5.19617
# Shear Modulus (GPa) = -28.43127 16.66413 -5.88357
#
# Velocity S-wave (km/s) = -3.89176 2.97947 -1.77039
# Velocity P-wave (km/s) = 5.89797 5.65369 1.18783
#
# Compressibility (1/GPa) = -0.03650832
#
# Stress axis : x y z
#
# Youngs Moduli (GPa) = 38.72810 -11.84387 -9.63342
#
# Poissons Ratio (x) = 0.51502 -1.02100
# Poissons Ratio (y) = -1.68406 1.20856
# Poissons Ratio (z) = 4.10459 1.48587
#
# Static dielectric constant tensor:
#      x y z
#    x 1.642120 0.000000 0.000000 
#    y 0.000000 1.698970 0.000000 
#    z 0.000000 0.000000 1.637810 
# 
# From -- ./inp_files/18329.got.cif
#   From: 2010.05.17/outbox.ucp.g08.bks.cvg/sg35_10_cif.got.tgz:18329.got - 2010.06.11 10:36:28.
