data_PCOD9350795
_publ_section_title
;
Structure prediction by ZEFSAII (Michael W. Deem and Ramdas Pophale) SiO2 
 PCOD9350795
Probable space group: C M C 21
;
_chemical_formula_sum "Si O2"
_cell_formula_units_Z 52
_cell_length_a 7.814130
_cell_length_b 27.293573
_cell_length_c 12.069790
_cell_angle_alpha 90.000000
_cell_angle_beta 90.000000
_cell_angle_gamma 90.000000
_cell_volume 2574.190830
_symmetry_space_group_name_H-M "C M C 21"
_symmetry_group_IT_number 36
_symmetry_cell_setting 'orthorhombic'
loop_
_space_group_symop_operation_xyz
x,y,z
-x,-y,1/2+z
x,-y,1/2+z
-x,y,z
1/2+x,1/2+y,z
1/2-x,1/2-y,1/2+z
1/2+x,1/2-y,1/2+z
1/2-x,1/2+y,z
loop_
_atom_site_type_symbol
_atom_site_label
_atom_site_fract_x
_atom_site_fract_y
_atom_site_fract_z
Si Si1 0.000000 0.525802 0.115891
Si Si2 0.806849 0.081269 0.215901
Si Si3 0.706353 0.236956 0.174544
Si Si4 0.811125 0.156868 0.007546
Si Si5 0.000000 0.601445 0.910799
Si Si6 0.295144 0.166614 0.373745
Si Si7 0.500000 0.917167 0.160395
Si Si8 0.194997 0.843195 0.118869
O O1 0.167894 0.540770 0.185657
O O2 0.000000 0.468238 0.096107
O O3 0.000000 0.560166 0.006961
O O4 0.747392 0.114192 0.318915
O O5 0.000000 0.063031 0.231861
O O6 0.808481 0.118905 0.111500
O O7 0.500000 0.233638 0.167551
O O8 0.759513 0.206935 0.283320
O O9 0.752309 0.293688 0.180899
O O10 0.776065 0.208971 0.066012
O O11 0.664381 0.136518 0.928218
O O12 0.000000 0.156846 0.956742
O O13 0.000000 0.575796 0.792617
O O14 0.500000 0.170469 0.389849
O O15 0.201916 0.171421 0.489558
O O16 0.331466 0.885847 0.133668
O O17 0.000000 0.855941 0.149493
#
# Coordination Sequence:
#
# PCOD9350795 Si02
#       8
#     4   8   8   8   4   8   4   8
#     4  10  22  42  66  90 120 160 212 262 302 372
#     4   9  17  33  61  96 121 148 201 260 307 357
#     4   9  19  36  60  90 124 164 213 254 292 362
#     4   9  17  32  61  93 122 153 197 253 301 357
#     4  10  22  42  62  92 124 154 204 259 315 360
#     4  10  18  36  64  91 123 165 204 254 311 363
#     4  12  28  44  62  88 124 170 202 257 319 368
#     4  11  25  43  57  85 130 166 206 251 307 372
#
# _framework density 20.200523
#
# number of rings (size 3 to 8) (size 9 to 14) (size 15 to 20)
#    0.000    2.154    2.308    0.462    1.077    4.308 
#    0.000    1.538    0.000    0.000    0.000    0.000 
#    0.000    0.000    0.000    0.000    0.000    0.000 
#
# Total GULP energy -145235.873723 kJ/mol
# GULP energy per Si atom -5585.995143 kJ/mol
# Density = 2.015455 g / cm^3
# Si number density = 20.200523 Si / 1000 Ang^3
#
#
#
# Elastic Constant Matrix: (Units=GPa)
#
#
# Indices 1 2 3 4 5 6 
#
# 1 112.0206 57.2260 6.2949 0.0000 0.0000 0.0000
# 2 57.2260 121.8898 10.4561 0.0000 0.0000 0.0000
# 3 6.2949 10.4561 52.3045 0.0000 0.0000 0.0000
# 4 0.0000 0.0000 0.0000 15.3095 0.0000 0.0000
# 5 0.0000 0.0000 0.0000 0.0000 13.4311 0.0000
# 6 0.0000 0.0000 0.0000 0.0000 0.0000 13.1832
#
#
#
# Elastic Compliance Matrix: (Units=1/GPa)
#
#
# Indices 1 2 3 4 5 6 
#
# 1 0.011749 -0.005489 -0.000317 0.000000 0.000000 0.000000
# 2 -0.005489 0.010911 -0.001521 0.000000 0.000000 0.000000
# 3 -0.000317 -0.001521 0.019461 0.000000 0.000000 0.000000
# 4 0.000000 0.000000 0.000000 0.065319 0.000000 0.000000
# 5 0.000000 0.000000 0.000000 0.000000 0.074454 0.000000
# 6 0.000000 0.000000 0.000000 0.000000 0.000000 0.075854
#
#
# Mechanical properties :
#
#
# Convention : Reuss Voigt Hill
#
# Bulk Modulus (GPa) = 36.40499 48.24097 42.32298
# Shear Modulus (GPa) = 17.75841 22.53395 20.14618
#
# Velocity S-wave (km/s) = 2.96819 3.34355 3.16145
# Velocity P-wave (km/s) = 5.45965 6.23207 5.85860
#
# Compressibility (1/GPa) = 0.02746876
#
# Stress axis : x y z
#
# Youngs Moduli (GPa) = 85.11619 91.64664 51.38501
#
# Poissons Ratio (x) = 0.50302 0.01627
# Poissons Ratio (y) = 0.46718 0.07814
# Poissons Ratio (z) = 0.02696 0.13937
#
# Static dielectric constant tensor:
#      x y z
#    x 1.714650 0.000000 0.000000 
#    y 0.000000 1.697970 0.000000 
#    z 0.000000 0.000000 1.734470 
# 
# From -- ./inp_files/6934.got.cif
#   From: 2010.05.17/outbox.cif.g08.bks.cpg/sg36_4_cif.got.tgz:6934.got - 2010.06.03 17:41:39.
