data_PCOD9350742
_publ_section_title
;
Structure prediction by ZEFSAII (Michael W. Deem and Ramdas Pophale) SiO2 
 PCOD9350742
Probable space group: C M C 21
;
_chemical_formula_sum "Si O2"
_cell_formula_units_Z 64
_cell_length_a 7.354451
_cell_length_b 20.008486
_cell_length_c 17.141586
_cell_angle_alpha 90.000000
_cell_angle_beta 90.000000
_cell_angle_gamma 90.000000
_cell_volume 2522.408890
_symmetry_space_group_name_H-M "C M C 21"
_symmetry_group_IT_number 36
_symmetry_cell_setting 'orthorhombic'
loop_
_space_group_symop_operation_xyz
x,y,z
-x,-y,1/2+z
x,-y,1/2+z
-x,y,z
1/2+x,1/2+y,z
1/2-x,1/2-y,1/2+z
1/2+x,1/2-y,1/2+z
1/2-x,1/2+y,z
loop_
_atom_site_type_symbol
_atom_site_label
_atom_site_fract_x
_atom_site_fract_y
_atom_site_fract_z
Si Si1 0.280041 0.662991 0.746190
Si Si2 0.782735 0.907565 0.086958
Si Si3 0.714580 0.956054 0.653965
Si Si4 0.285710 0.921646 0.402993
Si Si5 0.779933 0.793163 0.982125
Si Si6 0.706371 0.200317 0.309165
Si Si7 0.778094 0.659851 0.053451
Si Si8 0.222322 0.450557 0.823783
O O1 0.500000 0.666345 0.742923
O O2 0.216266 0.627272 0.667096
O O3 0.233044 0.620107 0.822883
O O4 0.214285 0.739383 0.758452
O O5 0.000000 0.901089 0.087096
O O6 0.741902 0.985603 0.091606
O O7 0.717524 0.865082 0.013130
O O8 0.500000 0.948405 0.662868
O O9 0.785689 0.884696 0.625598
O O10 0.780485 0.977887 0.738690
O O11 0.500000 0.928831 0.418341
O O12 0.215598 0.879714 0.476031
O O13 0.212168 0.996211 0.387243
O O14 0.704968 0.773883 0.898174
O O15 0.000000 0.792582 0.974980
O O16 0.726940 0.736670 0.044536
O O17 0.500000 0.189875 0.280234
O O18 0.785713 0.126143 0.320740
O O19 0.000000 0.659815 0.055100
O O20 0.000000 0.449630 0.829899
#
# Coordination Sequence:
#
# PCOD9350742 Si02
#       8
#     8   8   8   8   8   8   8   8
#     4  10  20  35  55  79 107 141 176 216 267 318
#     4  10  22  37  54  78 111 144 175 216 269 323
#     4  10  20  36  58  81 104 140 184 222 264 315
#     4  10  18  34  56  79 104 137 178 223 264 309
#     4  10  21  38  56  78 109 145 180 216 264 323
#     4  10  21  36  56  81 109 139 178 227 268 311
#     4   9  19  33  55  80 106 138 178 222 264 312
#     4   9  19  33  54  82 108 134 177 228 266 305
#
# _framework density 25.372572999999999
#
# number of rings (size 3 to 8) (size 9 to 14) (size 15 to 20)
#    0.000    2.250    2.500    0.000    3.500    0.500 
#    0.000    2.500    0.000    0.000    0.000    0.000 
#    0.000    0.000    0.000    0.000    0.000    0.000 
#
# Total GULP energy -178879.383698 kJ/mol
# GULP energy per Si atom -5589.980741 kJ/mol
# Density = 2.531482 g / cm^3
# Si number density = 25.372573 Si / 1000 Ang^3
#
#
#
# Elastic Constant Matrix: (Units=GPa)
#
#
# Indices 1 2 3 4 5 6 
#
# 1 96.4150 -5.5796 -6.8627 0.0000 0.0000 0.0000
# 2 -5.5796 127.6091 -16.0933 0.0000 0.0000 0.0000
# 3 -6.8627 -16.0933 33.8318 0.0000 0.0000 0.0000
# 4 0.0000 0.0000 0.0000 47.3814 0.0000 0.0000
# 5 0.0000 0.0000 0.0000 0.0000 7.5787 0.0000
# 6 0.0000 0.0000 0.0000 0.0000 0.0000 383.1676
#
#
#
# Elastic Compliance Matrix: (Units=1/GPa)
#
#
# Indices 1 2 3 4 5 6 
#
# 1 0.010596 0.000781 0.002521 0.000000 0.000000 0.000000
# 2 0.000781 0.008394 0.004151 0.000000 0.000000 0.000000
# 3 0.002521 0.004151 0.032044 0.000000 0.000000 0.000000
# 4 0.000000 0.000000 0.000000 0.021105 0.000000 0.000000
# 5 0.000000 0.000000 0.000000 0.000000 0.131949 0.000000
# 6 0.000000 0.000000 0.000000 0.000000 0.000000 0.002610
#
#
# Mechanical properties :
#
#
# Convention : Reuss Voigt Hill
#
# Bulk Modulus (GPa) = 15.16471 22.30940 18.73706
# Shear Modulus (GPa) = 23.38940 106.71829 65.05384
#
# Velocity S-wave (km/s) = 3.03947 6.49244 5.06903
# Velocity P-wave (km/s) = 4.27874 8.06314 6.45453
#
# Compressibility (1/GPa) = 0.06594256
#
# Stress axis : x y z
#
# Youngs Moduli (GPa) = 94.37090 119.13052 31.20687
#
# Poissons Ratio (x) = -0.09307 -0.07868
# Poissons Ratio (y) = -0.07373 -0.12955
# Poissons Ratio (z) = -0.23792 -0.49457
#
# Static dielectric constant tensor:
#      x y z
#    x 2.011440 0.000000 0.000000 
#    y 0.000000 2.004330 0.000000 
#    z 0.000000 0.000000 1.989570 
# 
# From -- ./inp_files/13839.got.cif
#   From: 2010.05.17/outbox.cif.g08.bks.cpg/sg36_7_cif.got.tgz:13839.got - 2010.06.03 17:41:39.
