data_PCOD9350562
_publ_section_title
;
Structure prediction by ZEFSAII (Michael W. Deem and Ramdas Pophale) SiO2 
 PCOD9350562
Probable space group: C M C 21
;
_chemical_formula_sum "Si O2"
_cell_formula_units_Z 64
_cell_length_a 19.928871
_cell_length_b 9.488895
_cell_length_c 18.277286
_cell_angle_alpha 90.000000
_cell_angle_beta 90.000000
_cell_angle_gamma 90.000000
_cell_volume 3456.288964
_symmetry_space_group_name_H-M "C M C 21"
_symmetry_group_IT_number 36
_symmetry_cell_setting 'orthorhombic'
loop_
_space_group_symop_operation_xyz
x,y,z
-x,-y,1/2+z
x,-y,1/2+z
-x,y,z
1/2+x,1/2+y,z
1/2-x,1/2-y,1/2+z
1/2+x,1/2-y,1/2+z
1/2-x,1/2+y,z
loop_
_atom_site_type_symbol
_atom_site_label
_atom_site_fract_x
_atom_site_fract_y
_atom_site_fract_z
Si Si1 0.668751 0.442928 0.327880
Si Si2 0.422828 0.765424 0.895605
Si Si3 0.422130 0.518529 0.684943
Si Si4 0.623952 0.207453 0.678361
Si Si5 0.388475 0.921873 0.745609
Si Si6 0.581867 0.047454 0.535324
Si Si7 0.576726 0.234144 0.095897
Si Si8 0.256487 0.303959 0.773462
O O1 0.623598 0.373056 0.390505
O O2 0.621750 0.443174 0.255508
O O3 0.700235 0.597772 0.327814
O O4 0.728131 0.332622 0.313511
O O5 0.500000 0.723579 0.904920
O O6 0.414980 0.851794 0.819701
O O7 0.404147 0.871825 0.960462
O O8 0.500000 0.556299 0.697249
O O9 0.417165 0.351800 0.674179
O O10 0.395618 0.611750 0.616503
O O11 0.599444 0.088447 0.736059
O O12 0.617826 0.130183 0.600994
O O13 0.697008 0.255991 0.706250
O O14 0.419393 0.845625 0.674610
O O15 0.308430 0.890673 0.745793
O O16 0.500000 0.050360 0.547052
O O17 0.604315 0.883626 0.540481
O O18 0.500000 0.257330 0.073111
#
# Coordination Sequence:
#
# PCOD9350562 Si02
#       8
#     8   8   8   8   8   8   8   8
#     4  10  19  31  53  76 104 136 175 218 263 311
#     4  10  19  33  56  79 105 141 182 220 269 326
#     4  10  18  29  51  82 106 130 171 228 278 315
#     4  10  20  32  53  79 108 137 176 227 273 314
#     4  10  18  31  54  78 103 137 179 223 263 310
#     4   9  19  34  53  76 106 143 178 219 271 325
#     4   9  16  29  51  76 101 132 174 218 264 314
#     4  10  18  31  51  76 102 136 173 215 265 307
#
# _framework density 18.516971000000002
#
# number of rings (size 3 to 8) (size 9 to 14) (size 15 to 20)
#    0.000    2.250    3.750    1.125    0.000    1.500 
#    0.000    0.000   16.500    0.000    0.000    0.000 
#    0.000    0.000    0.000    0.000    0.000    0.000 
#
# Total GULP energy -178162.508608 kJ/mol
# GULP energy per Si atom -5567.578394 kJ/mol
# Density = 1.847483 g / cm^3
# Si number density = 18.516971 Si / 1000 Ang^3
#
#
#
# Elastic Constant Matrix: (Units=GPa)
#
#
# Indices 1 2 3 4 5 6 
#
# 1 45.5141 5.7998 -5.7089 0.0000 0.0000 0.0000
# 2 5.7998 98.6180 -6.8682 0.0000 0.0000 0.0000
# 3 -5.7089 -6.8682 21.5024 0.0000 0.0000 0.0000
# 4 0.0000 0.0000 0.0000 19.3026 0.0000 0.0000
# 5 0.0000 0.0000 0.0000 0.0000 -9.6297 0.0000
# 6 0.0000 0.0000 0.0000 0.0000 0.0000 22.8575
#
#
#
# Elastic Compliance Matrix: (Units=1/GPa)
#
#
# Indices 1 2 3 4 5 6 
#
# 1 0.022813 -0.000941 0.005756 0.000000 0.000000 0.000000
# 2 -0.000941 0.010410 0.003075 0.000000 0.000000 0.000000
# 3 0.005756 0.003075 0.049017 0.000000 0.000000 0.000000
# 4 0.000000 0.000000 0.000000 0.051806 0.000000 0.000000
# 5 0.000000 0.000000 0.000000 0.000000 -0.103845 0.000000
# 6 0.000000 0.000000 0.000000 0.000000 0.000000 0.043749
#
#
# Mechanical properties :
#
#
# Convention : Reuss Voigt Hill
#
# Bulk Modulus (GPa) = 10.20183 16.89777 13.54980
# Shear Modulus (GPa) = 55.04011 18.00019 36.52015
#
# Velocity S-wave (km/s) = 5.45790 3.12122 4.44582
# Velocity P-wave (km/s) = 6.72604 4.70476 5.80407
#
# Compressibility (1/GPa) = 0.09802161
#
# Stress axis : x y z
#
# Youngs Moduli (GPa) = 43.83442 96.06485 20.40105
#
# Poissons Ratio (x) = 0.09037 -0.11744
# Poissons Ratio (y) = 0.04124 -0.06274
# Poissons Ratio (z) = -0.25233 -0.29542
#
# Static dielectric constant tensor:
#      x y z
#    x 1.668070 0.000000 0.000000 
#    y 0.000000 1.701080 0.000000 
#    z 0.000000 0.000000 1.621160 
# 
# From -- ./inp_files/15041.got.cif
#   From: 2010.05.17/outbox.cif.g08.bks.cpg/sg36_8_cif.got.tgz:15041.got - 2010.06.03 17:41:39.
