data_PCOD9350118
_publ_section_title
;
Structure prediction by ZEFSAII (Michael W. Deem and Ramdas Pophale) SiO2 
 PCOD9350118
Probable space group: C M M 2
;
_chemical_formula_sum "Si O2"
_cell_formula_units_Z 56
_cell_length_a 8.747054
_cell_length_b 22.164359
_cell_length_c 14.634022
_cell_angle_alpha 90.000000
_cell_angle_beta 90.000000
_cell_angle_gamma 90.000000
_cell_volume 2837.139480
_symmetry_space_group_name_H-M "C M M 2"
_symmetry_group_IT_number 35
_symmetry_cell_setting 'orthorhombic'
loop_
_space_group_symop_operation_xyz
x,y,z
-x,-y,z
-x,y,z
x,-y,z
1/2+x,1/2+y,z
1/2-x,1/2-y,z
1/2-x,1/2+y,z
1/2+x,1/2-y,z
loop_
_atom_site_type_symbol
_atom_site_label
_atom_site_fract_x
_atom_site_fract_y
_atom_site_fract_z
Si Si1 0.680870 0.500000 0.144331
Si Si2 0.320227 0.110762 0.034026
Si Si3 0.180845 0.126130 0.370593
Si Si4 0.183968 0.930689 0.641443
Si Si5 0.181571 0.314209 0.538080
Si Si6 0.681781 0.000000 0.346831
Si Si7 0.819173 0.812369 0.181852
Si Si8 0.181693 0.070114 0.856770
O O1 0.500000 0.500000 0.163890
O O2 0.726822 0.557541 0.084143
O O3 0.770848 0.500000 0.239827
O O4 0.500000 0.099935 0.043576
O O5 0.269338 0.168960 0.090654
O O6 0.272714 0.110440 0.928355
O O7 0.264803 0.174172 0.434087
O O8 0.205212 0.140266 0.263788
O O9 0.000000 0.128216 0.388638
O O10 0.246483 0.059998 0.389655
O O11 0.257490 0.874139 0.589714
O O12 0.214671 0.921828 0.749776
O O13 0.000000 0.928750 0.628440
O O14 0.233018 0.000000 0.617749
O O15 0.250000 0.250000 0.570163
O O16 0.000000 0.311641 0.544324
O O17 0.500000 0.000000 0.355836
O O18 0.750000 0.750000 0.215623
O O19 0.000000 0.808429 0.165133
O O20 0.000000 0.078772 0.870040
O O21 0.216752 0.000000 0.878241
#
# Coordination Sequence:
#
# PCOD9350118 Si02
#       8
#     4   8   8   8   8   4   8   8
#     4  12  22  36  56  83 120 161 202 244 296 350
#     4  12  23  35  57  89 123 159 202 251 300 358
#     4  11  24  42  65  90 124 166 206 251 311 376
#     4   9  20  41  68  97 128 165 207 256 320 387
#     4  12  26  44  67  94 127 166 214 266 318 381
#     4  12  24  38  60  93 128 161 206 258 310 364
#     4  11  24  41  61  83 116 161 209 256 305 363
#     4   9  18  35  61  90 123 161 200 246 307 375
#
# _framework density 19.738188999999998
#
# number of rings (size 3 to 8) (size 9 to 14) (size 15 to 20)
#    0.000    1.143    2.143    6.000    1.000    3.714 
#    0.000    2.143    0.000    3.429    0.000    0.000 
#    0.000    0.000    0.000    0.000    0.000    0.000 
#
# Total GULP energy -156513.558301 kJ/mol
# GULP energy per Si atom -5589.769939 kJ/mol
# Density = 1.969326 g / cm^3
# Si number density = 19.738189 Si / 1000 Ang^3
#
#
#
# Elastic Constant Matrix: (Units=GPa)
#
#
# Indices 1 2 3 4 5 6 
#
# 1 93.4222 46.6321 37.0560 0.0000 0.0000 0.0000
# 2 46.6321 114.3400 31.6029 0.0000 0.0000 0.0000
# 3 37.0560 31.6029 75.8716 0.0000 0.0000 0.0000
# 4 0.0000 0.0000 0.0000 42.1142 0.0000 0.0000
# 5 0.0000 0.0000 0.0000 0.0000 30.7956 0.0000
# 6 0.0000 0.0000 0.0000 0.0000 0.0000 26.9268
#
#
#
# Elastic Compliance Matrix: (Units=1/GPa)
#
#
# Indices 1 2 3 4 5 6 
#
# 1 0.015220 -0.004693 -0.005479 0.000000 0.000000 0.000000
# 2 -0.004693 0.011331 -0.002428 0.000000 0.000000 0.000000
# 3 -0.005479 -0.002428 0.016867 0.000000 0.000000 0.000000
# 4 0.000000 0.000000 0.000000 0.023745 0.000000 0.000000
# 5 0.000000 0.000000 0.000000 0.000000 0.032472 0.000000
# 6 0.000000 0.000000 0.000000 0.000000 0.000000 0.037138
#
#
# Mechanical properties :
#
#
# Convention : Reuss Voigt Hill
#
# Bulk Modulus (GPa) = 54.88674 57.13511 56.01092
# Shear Modulus (GPa) = 29.75419 31.19019 30.47219
#
# Velocity S-wave (km/s) = 3.88679 3.97948 3.93341
# Velocity P-wave (km/s) = 6.92897 7.07985 7.00482
#
# Compressibility (1/GPa) = 0.01821934
#
# Stress axis : x y z
#
# Youngs Moduli (GPa) = 65.70445 88.25546 59.28701
#
# Poissons Ratio (x) = 0.41417 0.32481
# Poissons Ratio (y) = 0.30834 0.14392
# Poissons Ratio (z) = 0.35997 0.21425
#
# Static dielectric constant tensor:
#      x y z
#    x 1.648290 0.000000 0.000000 
#    y 0.000000 1.697070 0.000000 
#    z 0.000000 0.000000 1.699700 
# 
# From -- ./inp_files/15714.got.cif
#   From: 2010.05.17/outbox.cif.g08.bks.cpg/sg35_8_cif.got.tgz:15714.got - 2010.06.03 17:29:28.
