data_PCOD9350424
_publ_section_title
;
Structure prediction by ZEFSAII (Michael W. Deem and Ramdas Pophale) SiO2 
 PCOD9350424
Probable space group: C M M 2
;
_chemical_formula_sum "Si O2"
_cell_formula_units_Z 40
_cell_length_a 8.693122
_cell_length_b 19.043994
_cell_length_c 13.391049
_cell_angle_alpha 90.000000
_cell_angle_beta 90.000000
_cell_angle_gamma 90.000000
_cell_volume 2216.911773
_symmetry_space_group_name_H-M "C M M 2"
_symmetry_group_IT_number 35
_symmetry_cell_setting 'orthorhombic'
loop_
_space_group_symop_operation_xyz
x,y,z
-x,-y,z
-x,y,z
x,-y,z
1/2+x,1/2+y,z
1/2-x,1/2-y,z
1/2-x,1/2+y,z
1/2+x,1/2-y,z
loop_
_atom_site_type_symbol
_atom_site_label
_atom_site_fract_x
_atom_site_fract_y
_atom_site_fract_z
Si Si1 0.682757 0.328590 0.102260
Si Si2 0.183779 0.670431 0.896124
Si Si3 0.815507 0.917883 0.495381
Si Si4 0.682268 0.083400 0.282341
Si Si5 0.315139 0.671228 0.689861
O O1 0.500000 0.323942 0.091294
O O2 0.750000 0.250000 0.114903
O O3 0.729578 0.374413 0.197184
O O4 0.754495 0.360090 0.000163
O O5 0.250000 0.750000 0.896309
O O6 0.247173 0.639641 0.792571
O O7 0.000000 0.671971 0.895629
O O8 0.734848 0.894525 0.393202
O O9 0.772620 0.873290 0.592410
O O10 0.000000 0.912318 0.482087
O O11 0.778367 0.000000 0.511364
O O12 0.500000 0.094185 0.270824
O O13 0.714580 0.000000 0.273885
O O14 0.500000 0.674147 0.698219
O O15 0.250000 0.750000 0.679162
#
# Coordination Sequence:
#
# PCOD9350424 Si02
#       5
#     8   8   8   8   8
#     4  11  21  35  56  80 107 138 175 217 261 311
#     4  10  18  31  51  75 105 137 170 210 258 310
#     4   9  19  36  55  74 100 137 177 214 256 307
#     4  10  21  37  56  78 106 139 175 216 263 314
#     4  10  19  32  52  77 104 134 170 213 257 306
#
# _framework density 18.043118
#
# number of rings (size 3 to 8) (size 9 to 14) (size 15 to 20)
#    0.000    2.000    0.000    7.200    0.000    3.600 
#    0.000    3.000    0.000    3.600    0.000    0.000 
#    0.000    0.000    0.000    0.000    0.000    0.000 
#
# Total GULP energy -111623.816353 kJ/mol
# GULP energy per Si atom -5581.190818 kJ/mol
# Density = 1.800205 g / cm^3
# Si number density = 18.043118 Si / 1000 Ang^3
#
#
#
# Elastic Constant Matrix: (Units=GPa)
#
#
# Indices 1 2 3 4 5 6 
#
# 1 118.9916 33.8219 81.2972 0.0000 0.0000 0.0000
# 2 33.8219 31.3167 51.8280 0.0000 0.0000 0.0000
# 3 81.2972 51.8280 180.8560 0.0000 0.0000 0.0000
# 4 0.0000 0.0000 0.0000 -207.0288 0.0000 0.0000
# 5 0.0000 0.0000 0.0000 0.0000 35.6420 0.0000
# 6 0.0000 0.0000 0.0000 0.0000 0.0000 20.7127
#
#
#
# Elastic Compliance Matrix: (Units=1/GPa)
#
#
# Indices 1 2 3 4 5 6 
#
# 1 0.013207 -0.008442 -0.003517 0.000000 0.000000 0.000000
# 2 -0.008442 0.066134 -0.015157 0.000000 0.000000 0.000000
# 3 -0.003517 -0.015157 0.011454 0.000000 0.000000 0.000000
# 4 0.000000 0.000000 0.000000 -0.004830 0.000000 0.000000
# 5 0.000000 0.000000 0.000000 0.000000 0.028057 0.000000
# 6 0.000000 0.000000 0.000000 0.000000 0.000000 0.048280
#
#
# Mechanical properties :
#
#
# Convention : Reuss Voigt Hill
#
# Bulk Modulus (GPa) = 27.35133 73.89538 50.62335
# Shear Modulus (GPa) = 21.86072 -19.18700 1.33686
#
# Velocity S-wave (km/s) = 3.48456 -3.26451 0.86170
# Velocity P-wave (km/s) = 5.60190 5.18019 5.39517
#
# Compressibility (1/GPa) = 0.03656129
#
# Stress axis : x y z
#
# Youngs Moduli (GPa) = 75.71983 15.12084 87.30624
#
# Poissons Ratio (x) = 0.12765 0.30708
# Poissons Ratio (y) = 0.63923 1.32332
# Poissons Ratio (z) = 0.26633 0.22919
#
# Static dielectric constant tensor:
#      x y z
#    x 1.605210 0.000000 0.000000 
#    y 0.000000 1.602130 0.000000 
#    z 0.000000 0.000000 1.642030 
# 
# From -- ./inp_files/11012.got.cif
#   From: 2010.05.17/outbox.cif.g08.bks.cpg/sg35_6_cif.got.tgz:11012.got - 2010.06.03 17:29:28.
