data_PCOD9350389
_publ_section_title
;
Structure prediction by ZEFSAII (Michael W. Deem and Ramdas Pophale) SiO2 
 PCOD9350389
Probable space group: C M M 2
;
_chemical_formula_sum "Si O2"
_cell_formula_units_Z 64
_cell_length_a 15.045489
_cell_length_b 20.952167
_cell_length_c 9.956351
_cell_angle_alpha 90.000000
_cell_angle_beta 90.000000
_cell_angle_gamma 90.000000
_cell_volume 3138.596263
_symmetry_space_group_name_H-M "C M M 2"
_symmetry_group_IT_number 35
_symmetry_cell_setting 'orthorhombic'
loop_
_space_group_symop_operation_xyz
x,y,z
-x,-y,z
-x,y,z
x,-y,z
1/2+x,1/2+y,z
1/2-x,1/2-y,z
1/2-x,1/2+y,z
1/2+x,1/2-y,z
loop_
_atom_site_type_symbol
_atom_site_label
_atom_site_fract_x
_atom_site_fract_y
_atom_site_fract_z
Si Si1 0.312505 0.186955 0.658800
Si Si2 0.601442 0.231628 0.902211
Si Si3 0.606765 0.165429 0.163506
Si Si4 0.598882 0.426417 0.267426
Si Si5 0.100999 0.879866 0.832944
Si Si6 0.160066 0.123603 0.534087
Si Si7 0.261179 0.576246 0.052851
Si Si8 0.100533 0.740516 0.421470
O O1 0.250000 0.250000 0.650825
O O2 0.339218 0.184718 0.812830
O O3 0.258978 0.129407 0.593284
O O4 0.393818 0.203490 0.562588
O O5 0.500000 0.213822 0.875334
O O6 0.613217 0.304123 0.857009
O O7 0.616545 0.223574 0.058727
O O8 0.500000 0.148443 0.170934
O O9 0.669218 0.111443 0.095657
O O10 0.638464 0.193826 0.306566
O O11 0.500000 0.397880 0.262537
O O12 0.591554 0.500000 0.225615
O O13 0.635857 0.424947 0.418366
O O14 0.669053 0.397722 0.164730
O O15 0.105588 0.887094 0.671341
O O16 0.000000 0.897951 0.878358
O O17 0.182051 0.911940 0.915018
O O18 0.142105 0.190859 0.456001
O O19 0.246764 0.500000 0.063778
O O20 0.000000 0.752634 0.380522
#
# Coordination Sequence:
#
# PCOD9350389 Si02
#       8
#     8   8   8   8   8   8   8   8
#     4  10  18  30  50  79 112 154 187 224 284 356
#     4  10  20  36  55  84 121 156 189 237 301 360
#     4  10  23  39  60  88 117 152 197 245 300 361
#     4  10  22  40  58  79 113 158 205 252 299 350
#     4  11  22  37  60  89 124 160 195 241 298 361
#     4  11  21  34  56  85 120 157 194 241 299 359
#     4  11  25  43  62  84 116 159 208 256 298 347
#     4  10  19  33  52  81 116 146 185 236 295 359
#
# _framework density 20.391282
#
# number of rings (size 3 to 8) (size 9 to 14) (size 15 to 20)
#    0.000    1.625    2.500    3.375    1.750    1.500 
#    0.000    0.000    0.000    0.000    0.000    0.000 
#    0.000   10.000    0.000    0.000    0.000    0.000 
#
# Total GULP energy -178216.170111 kJ/mol
# GULP energy per Si atom -5569.255316 kJ/mol
# Density = 2.034487 g / cm^3
# Si number density = 20.391282 Si / 1000 Ang^3
#
#
#
# Elastic Constant Matrix: (Units=GPa)
#
#
# Indices 1 2 3 4 5 6 
#
# 1 73.0060 21.8198 21.9208 0.0000 0.0000 0.0000
# 2 21.8198 30.4442 14.0812 0.0000 0.0000 0.0000
# 3 21.9208 14.0812 103.9998 0.0000 0.0000 0.0000
# 4 0.0000 0.0000 0.0000 22.2528 0.0000 0.0000
# 5 0.0000 0.0000 0.0000 0.0000 33.1168 0.0000
# 6 0.0000 0.0000 0.0000 0.0000 0.0000 17.0085
#
#
#
# Elastic Compliance Matrix: (Units=1/GPa)
#
#
# Indices 1 2 3 4 5 6 
#
# 1 0.017879 -0.011811 -0.002169 0.000000 0.000000 0.000000
# 2 -0.011811 0.042843 -0.003311 0.000000 0.000000 0.000000
# 3 -0.002169 -0.003311 0.010521 0.000000 0.000000 0.000000
# 4 0.000000 0.000000 0.000000 0.044938 0.000000 0.000000
# 5 0.000000 0.000000 0.000000 0.000000 0.030196 0.000000
# 6 0.000000 0.000000 0.000000 0.000000 0.000000 0.058794
#
#
# Mechanical properties :
#
#
# Convention : Reuss Voigt Hill
#
# Bulk Modulus (GPa) = 27.27731 35.89928 31.58829
# Shear Modulus (GPa) = 19.84329 24.45085 22.14707
#
# Velocity S-wave (km/s) = 3.12288 3.46654 3.29919
# Velocity P-wave (km/s) = 5.13899 5.80223 5.48065
#
# Compressibility (1/GPa) = 0.03666051
#
# Stress axis : x y z
#
# Youngs Moduli (GPa) = 55.93226 23.34077 95.04792
#
# Poissons Ratio (x) = 0.27567 0.20619
# Poissons Ratio (y) = 0.66059 0.31475
# Poissons Ratio (z) = 0.12134 0.07729
#
# Static dielectric constant tensor:
#      x y z
#    x 1.808570 0.000000 0.000000 
#    y 0.000000 1.724120 0.000000 
#    z 0.000000 0.000000 1.786020 
# 
# From -- ./inp_files/7885.got.cif
#   From: 2010.05.17/outbox.cif.g08.bks.cpg/sg35_4_cif.got.tgz:7885.got - 2010.06.03 17:29:28.
