data_PCOD9350746
_publ_section_title
;
Structure prediction by ZEFSAII (Michael W. Deem and Ramdas Pophale) SiO2 
 PCOD9350746
Probable space group: C M C 21
;
_chemical_formula_sum "Si O2"
_cell_formula_units_Z 64
_cell_length_a 7.788799
_cell_length_b 20.751085
_cell_length_c 20.138979
_cell_angle_alpha 90.000000
_cell_angle_beta 90.000000
_cell_angle_gamma 90.000000
_cell_volume 3254.983226
_symmetry_space_group_name_H-M "C M C 21"
_symmetry_group_IT_number 36
_symmetry_cell_setting 'orthorhombic'
loop_
_space_group_symop_operation_xyz
x,y,z
-x,-y,1/2+z
x,-y,1/2+z
-x,y,z
1/2+x,1/2+y,z
1/2-x,1/2-y,1/2+z
1/2+x,1/2-y,1/2+z
1/2-x,1/2+y,z
loop_
_atom_site_type_symbol
_atom_site_label
_atom_site_fract_x
_atom_site_fract_y
_atom_site_fract_z
Si Si1 0.302017 0.556981 0.834940
Si Si2 0.701432 0.894136 0.614859
Si Si3 0.297891 0.933737 0.754401
Si Si4 0.291641 0.244540 0.625192
Si Si5 0.295822 0.814421 0.261976
Si Si6 0.791969 0.314999 0.841304
Si Si7 0.797642 0.883429 0.466891
Si Si8 0.790204 0.736252 0.477819
O O1 0.500000 0.537445 0.842310
O O2 0.217935 0.500717 0.792342
O O3 0.290044 0.624129 0.795432
O O4 0.226027 0.572111 0.908102
O O5 0.500000 0.907327 0.607318
O O6 0.772816 0.931341 0.679265
O O7 0.727642 0.818115 0.630425
O O8 0.779083 0.906949 0.542357
O O9 0.500000 0.919465 0.746201
O O10 0.226261 0.876146 0.800136
O O11 0.500000 0.247777 0.626882
O O12 0.235561 0.202130 0.687453
O O13 0.238392 0.219204 0.552697
O O14 0.500000 0.826379 0.260561
O O15 0.260083 0.750558 0.304653
O O16 0.733861 0.308916 0.917656
O O17 0.000000 0.317653 0.842268
O O18 0.729916 0.809891 0.464611
O O19 0.000000 0.877888 0.452412
O O20 0.000000 0.737446 0.477587
#
# Coordination Sequence:
#
# PCOD9350746 Si02
#       8
#     8   8   8   8   8   8   8   8
#     4  11  23  39  58  78 109 152 191 230 278 331
#     4  10  19  32  54  82 111 142 179 226 274 326
#     4  10  22  37  54  81 115 147 184 231 277 328
#     4   9  18  32  51  79 112 145 180 220 269 327
#     4  11  21  33  54  82 113 142 180 232 275 322
#     4  10  18  34  57  79 108 142 180 225 275 331
#     4   9  18  34  55  78 105 141 186 228 271 330
#     4   8  14  29  53  77 103 137 178 218 265 323
#
# _framework density 19.662158999999999
#
# number of rings (size 3 to 8) (size 9 to 14) (size 15 to 20)
#    0.000    2.250    2.500    1.875    0.000    3.000 
#    0.000    1.250    0.000    3.000    0.000    0.000 
#    0.000    0.000    0.000    0.000    0.000    0.000 
#
# Total GULP energy -178489.477996 kJ/mol
# GULP energy per Si atom -5577.796187 kJ/mol
# Density = 1.961741 g / cm^3
# Si number density = 19.662159 Si / 1000 Ang^3
#
#
#
# Elastic Constant Matrix: (Units=GPa)
#
#
# Indices 1 2 3 4 5 6 
#
# 1 21.9655 -14.1075 -5.8199 0.0000 0.0000 0.0000
# 2 -14.1075 70.4328 47.6977 0.0000 0.0000 0.0000
# 3 -5.8199 47.6977 173.8593 0.0000 0.0000 0.0000
# 4 0.0000 0.0000 0.0000 27.8281 0.0000 0.0000
# 5 0.0000 0.0000 0.0000 0.0000 17.9569 0.0000
# 6 0.0000 0.0000 0.0000 0.0000 0.0000 20.0530
#
#
#
# Elastic Compliance Matrix: (Units=1/GPa)
#
#
# Indices 1 2 3 4 5 6 
#
# 1 0.052517 0.011457 -0.001385 0.000000 0.000000 0.000000
# 2 0.011457 0.019937 -0.005086 0.000000 0.000000 0.000000
# 3 -0.001385 -0.005086 0.007101 0.000000 0.000000 0.000000
# 4 0.000000 0.000000 0.000000 0.035935 0.000000 0.000000
# 5 0.000000 0.000000 0.000000 0.000000 0.055689 0.000000
# 6 0.000000 0.000000 0.000000 0.000000 0.000000 0.049868
#
#
# Mechanical properties :
#
#
# Convention : Reuss Voigt Hill
#
# Bulk Modulus (GPa) = 11.16982 35.75535 23.46258
# Shear Modulus (GPa) = 20.75398 29.06676 24.91037
#
# Velocity S-wave (km/s) = 3.25242 3.84905 3.56324
# Velocity P-wave (km/s) = 4.44944 6.16262 5.37473
#
# Compressibility (1/GPa) = 0.08952699
#
# Stress axis : x y z
#
# Youngs Moduli (GPa) = 19.04130 50.15754 140.82958
#
# Poissons Ratio (x) = -0.57466 0.19508
# Poissons Ratio (y) = -0.21816 0.71628
# Poissons Ratio (z) = 0.02638 0.25511
#
# Static dielectric constant tensor:
#      x y z
#    x 1.711660 0.000000 0.000000 
#    y 0.000000 1.640500 0.000000 
#    z 0.000000 0.000000 1.740630 
# 
# From -- ./inp_files/15717.got.cif
#   From: 2010.05.17/outbox.cif.g08.bks.cpg/sg36_8_cif.got.tgz:15717.got - 2010.06.03 17:41:39.
