data_PCOD9350047
_publ_section_title
;
Structure prediction by ZEFSAII (Michael W. Deem and Ramdas Pophale) SiO2 
 PCOD9350047
Probable space group: C M M 2
;
_chemical_formula_sum "Si O2"
_cell_formula_units_Z 64
_cell_length_a 29.073642
_cell_length_b 8.672829
_cell_length_c 16.039235
_cell_angle_alpha 90.000000
_cell_angle_beta 90.000000
_cell_angle_gamma 90.000000
_cell_volume 4044.304741
_symmetry_space_group_name_H-M "C M M 2"
_symmetry_group_IT_number 35
_symmetry_cell_setting 'orthorhombic'
loop_
_space_group_symop_operation_xyz
x,y,z
-x,-y,z
-x,y,z
x,-y,z
1/2+x,1/2+y,z
1/2-x,1/2-y,z
1/2-x,1/2+y,z
1/2+x,1/2-y,z
loop_
_atom_site_type_symbol
_atom_site_label
_atom_site_fract_x
_atom_site_fract_y
_atom_site_fract_z
Si Si1 0.802001 0.184026 0.199150
Si Si2 0.947681 0.185251 0.616014
Si Si3 0.698477 0.315570 0.518185
Si Si4 0.854770 0.683414 0.357666
Si Si5 0.552608 0.685198 0.419132
Si Si6 0.144862 0.315427 0.677480
Si Si7 0.198038 0.314808 0.026257
Si Si8 0.698356 0.814347 0.842604
O O1 0.750000 0.250000 0.207432
O O2 0.832013 0.244961 0.275551
O O3 0.799534 0.000000 0.199659
O O4 0.821891 0.242265 0.110394
O O5 0.941340 0.221504 0.517605
O O6 0.908013 0.266823 0.667659
O O7 0.000000 0.227754 0.638674
O O8 0.943313 0.000000 0.623744
O O9 0.699253 0.500000 0.514278
O O10 0.750000 0.250000 0.518507
O O11 0.671548 0.250660 0.438243
O O12 0.672531 0.261752 0.601602
O O13 0.849776 0.500000 0.356335
O O14 0.907934 0.730929 0.367929
O O15 0.500000 0.724762 0.396587
O O16 0.557847 0.500000 0.410918
O O17 0.149132 0.500000 0.670204
O O18 0.166996 0.265710 0.765276
O O19 0.198691 0.500000 0.034469
O O20 0.250000 0.250000 0.023805
O O21 0.179179 0.272810 0.934611
O O22 0.750000 0.750000 0.833271
O O23 0.701690 0.000000 0.841055
#
# Coordination Sequence:
#
# PCOD9350047 Si02
#       8
#     8   8   8   8   8   8   8   8
#     4  11  21  34  51  73 101 132 166 205 247 294
#     4   9  18  33  52  72  96 128 165 207 253 294
#     4  12  24  37  49  66  97 135 171 205 242 285
#     4  12  23  35  51  74 100 130 167 204 244 294
#     4   9  18  34  54  74  98 128 163 205 251 293
#     4  11  21  33  49  74 101 131 168 204 245 294
#     4   9  16  30  49  70  96 127 162 204 247 289
#     4   9  19  32  48  71 101 132 165 203 244 289
#
# _framework density 15.824723000000001
#
# number of rings (size 3 to 8) (size 9 to 14) (size 15 to 20)
#    0.000    1.750    1.250    6.375    0.000    3.000 
#    0.000    1.250    0.000    0.000    0.000    0.875 
#    0.000    5.000    0.000    0.000    0.000    0.000 
#
# Total GULP energy -178596.002148 kJ/mol
# GULP energy per Si atom -5581.125067 kJ/mol
# Density = 1.578871 g / cm^3
# Si number density = 15.824723 Si / 1000 Ang^3
#
#
#
# Elastic Constant Matrix: (Units=GPa)
#
#
# Indices 1 2 3 4 5 6 
#
# 1 97.8434 45.2009 67.0181 0.0000 0.0000 0.0000
# 2 45.2009 95.1189 59.0166 0.0000 0.0000 0.0000
# 3 67.0181 59.0166 151.9240 0.0000 0.0000 0.0000
# 4 0.0000 0.0000 0.0000 14.7114 0.0000 0.0000
# 5 0.0000 0.0000 0.0000 0.0000 6.6910 0.0000
# 6 0.0000 0.0000 0.0000 0.0000 0.0000 25.4396
#
#
#
# Elastic Compliance Matrix: (Units=1/GPa)
#
#
# Indices 1 2 3 4 5 6 
#
# 1 0.015825 -0.004201 -0.005349 0.000000 0.000000 0.000000
# 2 -0.004201 0.014967 -0.003961 0.000000 0.000000 0.000000
# 3 -0.005349 -0.003961 0.010480 0.000000 0.000000 0.000000
# 4 0.000000 0.000000 0.000000 0.067974 0.000000 0.000000
# 5 0.000000 0.000000 0.000000 0.000000 0.149454 0.000000
# 6 0.000000 0.000000 0.000000 0.000000 0.000000 0.039309
#
#
# Mechanical properties :
#
#
# Convention : Reuss Voigt Hill
#
# Bulk Modulus (GPa) = 70.17291 76.37304 73.27297
# Shear Modulus (GPa) = 15.16153 20.94512 18.05333
#
# Velocity S-wave (km/s) = 3.09866 3.64204 3.38128
# Velocity P-wave (km/s) = 7.56587 8.12727 7.85159
#
# Compressibility (1/GPa) = 0.01425051
#
# Stress axis : x y z
#
# Youngs Moduli (GPa) = 63.19102 66.81285 95.41675
#
# Poissons Ratio (x) = 0.28071 0.51036
# Poissons Ratio (y) = 0.26550 0.37792
# Poissons Ratio (z) = 0.33799 0.26463
#
# Static dielectric constant tensor:
#      x y z
#    x 1.504460 0.000000 0.000000 
#    y 0.000000 1.530370 0.000000 
#    z 0.000000 0.000000 1.540670 
# 
# From -- ./inp_files/17747.got.cif
#   From: 2010.05.17/outbox.cif.g08.bks.cpg/sg35_9_cif.got.tgz:17747.got - 2010.06.03 17:29:28.
