data_PCOD9350196
_publ_section_title
;
Structure prediction by ZEFSAII (Michael W. Deem and Ramdas Pophale) SiO2 
 PCOD9350196
Probable space group: C M M 2
;
_chemical_formula_sum "Si O2"
_cell_formula_units_Z 32
_cell_length_a 30.000000
_cell_length_b 9.000000
_cell_length_c 12.000000
_cell_angle_alpha 90.000000
_cell_angle_beta 90.000000
_cell_angle_gamma 90.000000
_cell_volume 3240.000000
_symmetry_space_group_name_H-M "C M M 2"
_symmetry_group_IT_number 35
_symmetry_cell_setting 'orthorhombic'
loop_
_space_group_symop_operation_xyz
x,y,z
-x,-y,z
-x,y,z
x,-y,z
1/2+x,1/2+y,z
1/2-x,1/2-y,z
1/2-x,1/2+y,z
1/2+x,1/2-y,z
loop_
_atom_site_type_symbol
_atom_site_label
_atom_site_fract_x
_atom_site_fract_y
_atom_site_fract_z
Si Si1 0.704943 0.822950 0.089120
Si Si2 0.052385 0.329762 0.063207
Si Si3 0.205697 0.671442 0.602243
Si Si4 0.327383 0.173715 0.845614
Si Si5 0.377491 0.822800 0.246067
Si Si6 0.876581 0.825233 0.484106
Si Si7 0.079207 0.173927 0.839669
Si Si8 0.449159 0.167431 0.623537
O O1 0.750000 0.750000 0.129801
O O2 0.663283 0.782122 0.165301
O O3 0.709443 0.000000 0.091913
O O4 0.695589 0.781122 0.960815
O O5 0.065945 0.500000 0.032864
O O6 0.078339 0.291784 0.175169
O O7 0.000000 0.327298 0.080504
O O8 0.064990 0.222874 0.962552
O O9 0.205266 0.500000 0.569965
O O10 0.250000 0.750000 0.561641
O O11 0.202672 0.680553 0.736293
O O12 0.163229 0.751424 0.552366
O O13 0.369550 0.278318 0.826570
O O14 0.341849 0.000000 0.857415
O O15 0.375799 0.735262 0.359606
O O16 0.375466 0.000000 0.268394
O O17 0.921210 0.772556 0.544601
O O18 0.872262 0.000000 0.487048
O O19 0.053321 0.269537 0.748143
O O20 0.072629 0.000000 0.821296
O O21 0.500000 0.161947 0.587294
O O22 0.430167 0.000000 0.621521
#
# Coordination Sequence:
#
# PCOD9350196 Si02
#       8
#     8   8   8   8   8   8   8   8
#     4  10  21  38  62  91 123 159 201 250 300 358
#     4  10  21  40  66  91 120 162 208 251 301 367
#     4  11  23  40  66  94 127 166 208 255 308 371
#     4  10  20  38  63  90 124 165 203 246 303 370
#     4  10  22  42  64  87 120 163 212 258 303 360
#     4  12  26  43  64  92 126 162 207 262 318 371
#     4  12  23  35  60  95 131 164 198 249 310 369
#     4  11  24  43  67  92 122 164 210 254 307 375
#
# _framework density 9.8765429999999999
#
# number of rings (size 3 to 8) (size 9 to 14) (size 15 to 20)
#    0.000    1.250    2.500    3.750    0.000    5.750 
#    0.000    2.500    0.000    0.000    0.000    0.000 
#    0.000    0.000    0.000    0.000    0.000    0.000 
#
# Total GULP energy -178822.992079 kJ/mol
# GULP energy per Si atom -5588.218502 kJ/mol
# Density = 0.985406 g / cm^3
# Si number density = 9.876543 Si / 1000 Ang^3
#
#
#
# Elastic Constant Matrix: (Units=GPa)
#
#
# Indices 1 2 3 4 5 6 
#
# 1 57.7828 39.5160 8.0531 0.0000 0.0000 0.0000
# 2 39.5160 83.6209 60.5979 0.0000 0.0000 0.0000
# 3 8.0531 60.5979 67.8463 0.0000 0.0000 0.0000
# 4 0.0000 0.0000 0.0000-1613.6112 0.0000 0.0000
# 5 0.0000 0.0000 0.0000 0.0000 -62.7374 0.0000
# 6 0.0000 0.0000 0.0000 0.0000 0.0000 22.3212
#
#
#
# Elastic Compliance Matrix: (Units=1/GPa)
#
#
# Indices 1 2 3 4 5 6 
#
# 1 0.046715 -0.051191 0.040177 0.000000 0.000000 0.000000
# 2 -0.051191 0.089998 -0.074307 0.000000 0.000000 0.000000
# 3 0.040177 -0.074307 0.076338 0.000000 0.000000 0.000000
# 4 0.000000 0.000000 0.000000 -0.000620 0.000000 0.000000
# 5 0.000000 0.000000 0.000000 0.000000 -0.015939 0.000000
# 6 0.000000 0.000000 0.000000 0.000000 0.000000 0.044800
#
#
# Mechanical properties :
#
#
# Convention : Reuss Voigt Hill
#
# Bulk Modulus (GPa) = 23.57937 47.28711 35.43324
# Shear Modulus (GPa) = 11.73517 -324.06661 -156.16572
#
# Velocity S-wave (km/s) = 2.44005 -12.82244 -8.90115
# Velocity P-wave (km/s) = 4.46110 13.97243 9.36289
#
# Compressibility (1/GPa) = 0.04240996
#
# Stress axis : x y z
#
# Youngs Moduli (GPa) = 21.40652 11.11140 13.09956
#
# Poissons Ratio (x) = 0.56880 -0.52630
# Poissons Ratio (y) = 1.09582 0.97338
# Poissons Ratio (z) = -0.86005 0.82565
#
# Static dielectric constant tensor:
#      x y z
#    x 1.683830 0.000000 0.000000 
#    y 0.000000 1.744340 0.000000 
#    z 0.000000 0.000000 1.673650 
# 
# From -- ./inp_files/11917.got.cif
#   From: 2010.05.17/outbox.ucp.g08.bks.cvg/sg35_6_cif.got.tgz:11917.got - 2010.06.11 10:36:28.
