data_PCOD9350160
_publ_section_title
;
Structure prediction by ZEFSAII (Michael W. Deem and Ramdas Pophale) SiO2 
 PCOD9350160
Probable space group: C M M 2
;
_chemical_formula_sum "Si O2"
_cell_formula_units_Z 24
_cell_length_a 15.000000
_cell_length_b 9.000000
_cell_length_c 18.000000
_cell_angle_alpha 90.000000
_cell_angle_beta 90.000000
_cell_angle_gamma 90.000000
_cell_volume 2430.000000
_symmetry_space_group_name_H-M "C M M 2"
_symmetry_group_IT_number 35
_symmetry_cell_setting 'orthorhombic'
loop_
_space_group_symop_operation_xyz
x,y,z
-x,-y,z
-x,y,z
x,-y,z
1/2+x,1/2+y,z
1/2-x,1/2-y,z
1/2-x,1/2+y,z
1/2+x,1/2-y,z
loop_
_atom_site_type_symbol
_atom_site_label
_atom_site_fract_x
_atom_site_fract_y
_atom_site_fract_z
Si Si1 0.841531 0.176706 0.965300
Si Si2 0.341338 0.679440 0.596301
Si Si3 0.609183 0.327467 0.269764
Si Si4 0.107915 0.668957 0.118980
Si Si5 0.500000 0.821523 0.690249
Si Si6 0.896676 0.180293 0.431457
Si Si7 0.500000 0.678166 0.852114
O O1 0.750000 0.250000 0.941291
O O2 0.916178 0.213427 0.904641
O O3 0.834564 0.000000 0.969962
O O4 0.864394 0.238326 0.047084
O O5 0.343968 0.500000 0.600854
O O6 0.250000 0.750000 0.622846
O O7 0.417227 0.751581 0.646119
O O8 0.352838 0.722654 0.509148
O O9 0.500000 0.325039 0.271845
O O10 0.635291 0.500000 0.261618
O O11 0.637932 0.237126 0.197511
O O12 0.638463 0.268363 0.350950
O O13 0.139773 0.500000 0.111183
O O14 0.000000 0.668272 0.120576
O O15 0.500000 0.765748 0.775183
O O16 0.500000 0.000000 0.686698
O O17 0.000000 0.225864 0.437109
O O18 0.894965 0.000000 0.427653
O O19 0.500000 0.500000 0.836990
#
# Coordination Sequence:
#
# PCOD9350160 Si02
#       7
#     8   8   8   8   4   8   4
#     4  11  23  41  65  93 123 158 201 246 300 360
#     4  11  22  40  65  93 128 165 207 256 308 367
#     4   8  14  26  49  79 111 154 209 255 300 355
#     4  10  19  32  53  83 121 162 205 251 300 352
#     4  12  26  44  68  97 126 161 202 247 306 371
#     4   8  14  29  55  83 112 157 208 254 305 357
#     4  10  24  46  70  93 122 159 196 243 304 369
#
# _framework density 9.8765429999999999
#
# number of rings (size 3 to 8) (size 9 to 14) (size 15 to 20)
#    0.000    2.167    1.667    3.250    0.000    2.667 
#    0.000    4.167    0.000    2.000    0.000    0.000 
#    0.000    0.000    0.000    0.000    0.000    0.000 
#
# Total GULP energy -133982.136736 kJ/mol
# GULP energy per Si atom -5582.589031 kJ/mol
# Density = 0.985406 g / cm^3
# Si number density = 9.876543 Si / 1000 Ang^3
#
#
#
# Elastic Constant Matrix: (Units=GPa)
#
#
# Indices 1 2 3 4 5 6 
#
# 1 123.3462 54.3220 75.6444 0.0000 0.0000 0.0000
# 2 54.3220 92.9054 85.2127 0.0000 0.0000 0.0000
# 3 75.6444 85.2127 177.4601 0.0000 0.0000 0.0000
# 4 0.0000 0.0000 0.0000 15.9766 0.0000 0.0000
# 5 0.0000 0.0000 0.0000 0.0000 -35.0110 0.0000
# 6 0.0000 0.0000 0.0000 0.0000 0.0000 19.4281
#
#
#
# Elastic Compliance Matrix: (Units=1/GPa)
#
#
# Indices 1 2 3 4 5 6 
#
# 1 0.011783 -0.004079 -0.003064 0.000000 0.000000 0.000000
# 2 -0.004079 0.020648 -0.008176 0.000000 0.000000 0.000000
# 3 -0.003064 -0.008176 0.010867 0.000000 0.000000 0.000000
# 4 0.000000 0.000000 0.000000 0.062592 0.000000 0.000000
# 5 0.000000 0.000000 0.000000 0.000000 -0.028562 0.000000
# 6 0.000000 0.000000 0.000000 0.000000 0.000000 0.051472
#
#
# Mechanical properties :
#
#
# Convention : Reuss Voigt Hill
#
# Bulk Modulus (GPa) = 78.99128 91.56333 85.27731
# Shear Modulus (GPa) = 30.55199 11.98090 21.26644
#
# Velocity S-wave (km/s) = 3.93707 2.46546 3.28474
# Velocity P-wave (km/s) = 7.79381 7.38642 7.59285
#
# Compressibility (1/GPa) = 0.01265962
#
# Stress axis : x y z
#
# Youngs Moduli (GPa) = 84.87027 48.43189 92.02350
#
# Poissons Ratio (x) = 0.19757 0.28193
# Poissons Ratio (y) = 0.34622 0.75235
# Poissons Ratio (z) = 0.26002 0.39596
#
# Static dielectric constant tensor:
#      x y z
#    x 1.682370 0.000000 0.000000 
#    y 0.000000 1.655810 0.000000 
#    z 0.000000 0.000000 1.675210 
# 
# From -- ./inp_files/18758.got.cif
#   From: 2010.05.17/outbox.ucp.g08.bks.cvg/sg35_10_cif.got.tgz:18758.got - 2010.06.11 10:36:28.
