data_PCOD9350765
_publ_section_title
;
Structure prediction by ZEFSAII (Michael W. Deem and Ramdas Pophale) SiO2 
 PCOD9350765
Probable space group: C M C 21
;
_chemical_formula_sum "Si O2"
_cell_formula_units_Z 44
_cell_length_a 17.511219
_cell_length_b 10.496736
_cell_length_c 8.691021
_cell_angle_alpha 90.000000
_cell_angle_beta 90.000000
_cell_angle_gamma 90.000000
_cell_volume 1597.502157
_symmetry_space_group_name_H-M "C M C 21"
_symmetry_group_IT_number 36
_symmetry_cell_setting 'orthorhombic'
loop_
_space_group_symop_operation_xyz
x,y,z
-x,-y,1/2+z
x,-y,1/2+z
-x,y,z
1/2+x,1/2+y,z
1/2-x,1/2-y,1/2+z
1/2+x,1/2-y,1/2+z
1/2-x,1/2+y,z
loop_
_atom_site_type_symbol
_atom_site_label
_atom_site_fract_x
_atom_site_fract_y
_atom_site_fract_z
Si Si1 0.080385 0.480716 0.045680
Si Si2 0.253187 0.013174 0.048588
Si Si3 0.754596 0.764060 0.840837
Si Si4 0.626225 0.638755 0.680634
Si Si5 0.080730 0.740443 0.863449
Si Si6 0.000000 0.759507 0.401427
O O1 0.080897 0.594850 0.921354
O O2 0.000000 0.509264 0.136023
O O3 0.162625 0.496441 0.123684
O O4 0.065204 0.343660 0.968779
O O5 0.253806 0.894255 0.931188
O O6 0.245911 0.141423 0.951250
O O7 0.178509 0.984992 0.151915
O O8 0.690704 0.744426 0.714383
O O9 0.840764 0.759965 0.776745
O O10 0.586293 0.677063 0.520221
O O11 0.566620 0.651085 0.818275
O O12 0.000000 0.769349 0.782464
#
# Coordination Sequence:
#
# PCOD9350765 Si02
#       6
#     8   8   8   8   8   4
#     4   8  16  34  57  88 120 151 204 270 315 359
#     4  10  21  37  58  94 126 162 209 265 309 387
#     4  10  21  38  59  90 130 162 207 263 320 376
#     4  11  21  36  61  89 124 176 210 248 331 392
#     4   9  18  35  59  91 125 158 209 269 319 372
#     4  10  18  34  64  84 118 170 214 250 322 384
#
# _framework density 27.542995999999999
#
# number of rings (size 3 to 8) (size 9 to 14) (size 15 to 20)
#    0.545    1.818    2.727    0.000    0.000    4.364 
#    0.000    1.818    0.000    0.000    0.000    0.000 
#    0.000    0.000    0.000    0.000    0.000    0.000 
#
# Total GULP energy -122566.166537 kJ/mol
# GULP energy per Si atom -5571.189388 kJ/mol
# Density = 2.748031 g / cm^3
# Si number density = 27.542996 Si / 1000 Ang^3
#
#
#
# Elastic Constant Matrix: (Units=GPa)
#
#
# Indices 1 2 3 4 5 6 
#
# 1 241.8074 42.0233 29.7142 0.0000 0.0000 0.0000
# 2 42.0233 163.8417 63.8973 0.0000 0.0000 0.0000
# 3 29.7142 63.8973 33.7164 0.0000 0.0000 0.0000
# 4 0.0000 0.0000 0.0000 59.7542 0.0000 0.0000
# 5 0.0000 0.0000 0.0000 0.0000 36.1384 0.0000
# 6 0.0000 0.0000 0.0000 0.0000 0.0000 16.2550
#
#
#
# Elastic Compliance Matrix: (Units=1/GPa)
#
#
# Indices 1 2 3 4 5 6 
#
# 1 0.004743 0.001585 -0.007184 0.000000 0.000000 0.000000
# 2 0.001585 0.023923 -0.046735 0.000000 0.000000 0.000000
# 3 -0.007184 -0.046735 0.124561 0.000000 0.000000 0.000000
# 4 0.000000 0.000000 0.000000 0.016735 0.000000 0.000000
# 5 0.000000 0.000000 0.000000 0.000000 0.027671 0.000000
# 6 0.000000 0.000000 0.000000 0.000000 0.000000 0.061520
#
#
# Mechanical properties :
#
#
# Convention : Reuss Voigt Hill
#
# Bulk Modulus (GPa) = 20.59379 78.95944 49.77662
# Shear Modulus (GPa) = 13.15763 42.67823 27.91793
#
# Velocity S-wave (km/s) = 2.18803 3.94066 3.18718
# Velocity P-wave (km/s) = 3.72512 7.03100 5.62634
#
# Compressibility (1/GPa) = 0.04855832
#
# Stress axis : x y z
#
# Youngs Moduli (GPa) = 210.84367 41.80028 8.02821
#
# Poissons Ratio (x) = -0.06627 0.05768
# Poissons Ratio (y) = -0.33428 0.37520
# Poissons Ratio (z) = 1.51480 1.95355
#
# Static dielectric constant tensor:
#      x y z
#    x 2.116960 0.000000 0.000000 
#    y 0.000000 2.132580 0.000000 
#    z 0.000000 0.000000 2.227190 
# 
# From -- ./inp_files/8838.got.cif
#   From: 2010.05.17/outbox.cif.g08.bks.cpg/sg36_5_cif.got.tgz:8838.got - 2010.06.03 17:41:39.
