data_PCOD9350603
_publ_section_title
;
Structure prediction by ZEFSAII (Michael W. Deem and Ramdas Pophale) SiO2 
 PCOD9350603
Probable space group: C M C 21
;
_chemical_formula_sum "Si O2"
_cell_formula_units_Z 64
_cell_length_a 7.611273
_cell_length_b 22.632614
_cell_length_c 14.421375
_cell_angle_alpha 90.000000
_cell_angle_beta 90.000000
_cell_angle_gamma 90.000000
_cell_volume 2484.269377
_symmetry_space_group_name_H-M "C M C 21"
_symmetry_group_IT_number 36
_symmetry_cell_setting 'orthorhombic'
loop_
_space_group_symop_operation_xyz
x,y,z
-x,-y,1/2+z
x,-y,1/2+z
-x,y,z
1/2+x,1/2+y,z
1/2-x,1/2-y,1/2+z
1/2+x,1/2-y,1/2+z
1/2-x,1/2+y,z
loop_
_atom_site_type_symbol
_atom_site_label
_atom_site_fract_x
_atom_site_fract_y
_atom_site_fract_z
Si Si1 0.697622 0.470205 0.034740
Si Si2 0.212868 0.776114 0.401170
Si Si3 0.794088 0.645342 0.426207
Si Si4 0.206383 0.973926 0.359940
Si Si5 0.787089 0.084565 0.242861
Si Si6 0.202732 0.602844 0.702706
Si Si7 0.715306 0.657229 0.076512
Si Si8 0.204284 0.272935 0.185205
O O1 0.500000 0.488435 0.060402
O O2 0.782726 0.449913 0.129630
O O3 0.697922 0.409169 0.974995
O O4 0.779590 0.517124 0.963001
O O5 0.259500 0.712371 0.446303
O O6 0.270249 0.827807 0.471626
O O7 0.283750 0.774309 0.296927
O O8 0.000000 0.777639 0.394233
O O9 0.768198 0.634838 0.316236
O O10 0.000000 0.638893 0.450308
O O11 0.279002 0.024989 0.292121
O O12 0.000000 0.985732 0.373108
O O13 0.218485 0.914883 0.301148
O O14 0.728887 0.101542 0.139398
O O15 0.000000 0.082468 0.241892
O O16 0.280871 0.662792 0.659992
O O17 0.000000 0.613889 0.720409
O O18 0.500000 0.654402 0.073721
O O19 0.774513 0.714300 0.137137
O O20 0.000000 0.272283 0.156480
#
# Coordination Sequence:
#
# PCOD9350603 Si02
#       8
#     8   8   8   8   8   8   8   8
#     4  10  21  38  62  88 112 149 201 243 282 338
#     4  10  20  33  52  82 116 151 188 228 281 343
#     4  10  18  30  52  82 117 146 182 234 283 333
#     4   9  20  38  59  84 111 144 193 243 282 337
#     4   9  17  33  57  78 102 142 191 232 278 336
#     4  11  23  39  60  86 118 155 191 236 295 347
#     4   9  17  33  56  79 109 147 184 226 278 334
#     4  10  21  38  58  81 115 154 188 228 283 346
#
# _framework density 25.762101000000001
#
# number of rings (size 3 to 8) (size 9 to 14) (size 15 to 20)
#    0.000    2.250    1.250    2.625    0.000    6.000 
#    2.250    1.250    0.000    0.000    0.000    0.000 
#    0.000    0.000    0.000    0.000    0.000    0.000 
#
# Total GULP energy -178809.427146 kJ/mol
# GULP energy per Si atom -5587.794598 kJ/mol
# Density = 2.570347 g / cm^3
# Si number density = 25.762101 Si / 1000 Ang^3
#
#
#
# Elastic Constant Matrix: (Units=GPa)
#
#
# Indices 1 2 3 4 5 6 
#
# 1 55.3556 2.4223 -5.3726 0.0000 0.0000 0.0000
# 2 2.4223 47.5448 26.2874 0.0000 0.0000 0.0000
# 3 -5.3726 26.2874 129.2872 0.0000 0.0000 0.0000
# 4 0.0000 0.0000 0.0000 57.9126 0.0000 0.0000
# 5 0.0000 0.0000 0.0000 0.0000 17.8991 0.0000
# 6 0.0000 0.0000 0.0000 0.0000 0.0000 9.4661
#
#
#
# Elastic Compliance Matrix: (Units=1/GPa)
#
#
# Indices 1 2 3 4 5 6 
#
# 1 0.018235 -0.001519 0.001067 0.000000 0.000000 0.000000
# 2 -0.001519 0.023823 -0.004907 0.000000 0.000000 0.000000
# 3 0.001067 -0.004907 0.008777 0.000000 0.000000 0.000000
# 4 0.000000 0.000000 0.000000 0.017267 0.000000 0.000000
# 5 0.000000 0.000000 0.000000 0.000000 0.055869 0.000000
# 6 0.000000 0.000000 0.000000 0.000000 0.000000 0.105640
#
#
# Mechanical properties :
#
#
# Convention : Reuss Voigt Hill
#
# Bulk Modulus (GPa) = 24.92732 30.98467 27.95600
# Shear Modulus (GPa) = 19.70819 30.97893 25.34356
#
# Velocity S-wave (km/s) = 2.76888 3.47147 3.13989
# Velocity P-wave (km/s) = 4.46309 5.30297 4.90106
#
# Compressibility (1/GPa) = 0.04011662
#
# Stress axis : x y z
#
# Youngs Moduli (GPa) = 54.83965 41.97586 113.93729
#
# Poissons Ratio (x) = 0.06375 -0.12152
# Poissons Ratio (y) = 0.08329 0.55909
# Poissons Ratio (z) = -0.05849 0.20598
#
# Static dielectric constant tensor:
#      x y z
#    x 1.942550 0.000000 0.000000 
#    y 0.000000 2.094420 0.000000 
#    z 0.000000 0.000000 2.039460 
# 
# From -- ./inp_files/11214.got.cif
#   From: 2010.05.17/outbox.cif.g08.bks.cpg/sg36_6_cif.got.tgz:11214.got - 2010.06.03 17:41:39.
