data_PCOD9350412
_publ_section_title
;
Structure prediction by ZEFSAII (Michael W. Deem and Ramdas Pophale) SiO2 
 PCOD9350412
Probable space group: C M M 2
;
_chemical_formula_sum "Si O2"
_cell_formula_units_Z 36
_cell_length_a 15.718832
_cell_length_b 14.270724
_cell_length_c 7.488941
_cell_angle_alpha 90.000000
_cell_angle_beta 90.000000
_cell_angle_gamma 90.000000
_cell_volume 1679.912603
_symmetry_space_group_name_H-M "C M M 2"
_symmetry_group_IT_number 35
_symmetry_cell_setting 'orthorhombic'
loop_
_space_group_symop_operation_xyz
x,y,z
-x,-y,z
-x,y,z
x,-y,z
1/2+x,1/2+y,z
1/2-x,1/2-y,z
1/2-x,1/2+y,z
1/2+x,1/2-y,z
loop_
_atom_site_type_symbol
_atom_site_label
_atom_site_fract_x
_atom_site_fract_y
_atom_site_fract_z
Si Si1 0.658364 0.500000 0.747170
Si Si2 0.000000 0.000000 0.489467
Si Si3 0.294185 0.837502 0.712469
Si Si4 0.599951 0.000000 0.092923
Si Si5 0.339456 0.796927 0.114753
Si Si6 0.500000 0.500000 0.994641
Si Si7 0.904028 0.500000 0.654969
Si Si8 0.500000 0.322093 0.238210
O O1 0.593143 0.500000 0.581886
O O2 0.719197 0.410385 0.759567
O O3 0.590298 0.500000 0.901074
O O4 0.000000 0.894559 0.403902
O O5 0.250000 0.750000 0.618029
O O6 0.358498 0.903206 0.604010
O O7 0.338283 0.797898 0.894409
O O8 0.647335 0.906627 0.155812
O O9 0.500000 0.000000 0.142959
O O10 0.600388 0.000000 0.874021
O O11 0.250000 0.750000 0.164782
O O12 0.416844 0.741050 0.204655
O O13 0.500000 0.401125 0.088689
O O14 0.000000 0.500000 0.595990
#
# Coordination Sequence:
#
# PCOD9350412 Si02
#       8
#     4   2   8   4   8   2   4   4
#     4  10  20  40  57  85 125 171 213 267 325 397
#     4  10  26  44  60  82 136 192 222 256 322 422
#     4   9  17  30  53  85 117 151 203 263 330 376
#     4   9  15  28  46  74 120 162 183 244 330 399
#     4  10  19  31  55  91 127 159 206 275 345 396
#     4  10  18  30  58  82 114 148 212 288 316 354
#     4   8  15  25  41  73 118 149 175 229 326 388
#     4  11  22  37  58  92 128 171 225 271 340 406
#
# _framework density 21.429686
#
# number of rings (size 3 to 8) (size 9 to 14) (size 15 to 20)
#    0.000    2.444    1.111    3.333    1.556    1.778 
#    4.000    1.111    0.000    0.000    0.000    1.556 
#    0.000    0.444    0.000    0.000    0.000    0.000 
#
# Total GULP energy -100283.553840 kJ/mol
# GULP energy per Si atom -5571.308547 kJ/mol
# Density = 2.138091 g / cm^3
# Si number density = 21.429686 Si / 1000 Ang^3
#
#
#
# Elastic Constant Matrix: (Units=GPa)
#
#
# Indices 1 2 3 4 5 6 
#
# 1 136.5382 60.0792 1.0469 0.0000 0.0000 0.0000
# 2 60.0792 191.2425 4.0015 0.0000 0.0000 0.0000
# 3 1.0469 4.0015 34.3565 0.0000 0.0000 0.0000
# 4 0.0000 0.0000 0.0000 -147.9233 0.0000 0.0000
# 5 0.0000 0.0000 0.0000 0.0000 10.7408 0.0000
# 6 0.0000 0.0000 0.0000 0.0000 0.0000 35.7231
#
#
#
# Elastic Compliance Matrix: (Units=1/GPa)
#
#
# Indices 1 2 3 4 5 6 
#
# 1 0.008499 -0.002671 0.000052 0.000000 0.000000 0.000000
# 2 -0.002671 0.006081 -0.000627 0.000000 0.000000 0.000000
# 3 0.000052 -0.000627 0.029178 0.000000 0.000000 0.000000
# 4 0.000000 0.000000 0.000000 -0.006760 0.000000 0.000000
# 5 0.000000 0.000000 0.000000 0.000000 0.093103 0.000000
# 6 0.000000 0.000000 0.000000 0.000000 0.000000 0.027993
#
#
# Mechanical properties :
#
#
# Convention : Reuss Voigt Hill
#
# Bulk Modulus (GPa) = 26.83377 54.71025 40.77201
# Shear Modulus (GPa) = 28.24740 -0.49123 13.87808
#
# Velocity S-wave (km/s) = 3.63456 -0.47930 2.54758
# Velocity P-wave (km/s) = 5.49203 5.02785 5.26505
#
# Compressibility (1/GPa) = 0.03726647
#
# Stress axis : x y z
#
# Youngs Moduli (GPa) = 117.66292 164.44164 34.27241
#
# Poissons Ratio (x) = 0.43923 -0.00179
# Poissons Ratio (y) = 0.31428 0.02148
# Poissons Ratio (z) = -0.00613 0.10309
#
# Static dielectric constant tensor:
#      x y z
#    x 1.725360 0.000000 0.000000 
#    y 0.000000 1.786810 0.000000 
#    z 0.000000 0.000000 1.836620 
# 
# From -- ./inp_files/6972.got.cif
#   From: 2010.05.17/outbox.cif.g08.bks.cpg/sg35_4_cif.got.tgz:6972.got - 2010.06.03 17:29:28.
