data_PCOD9350296
_publ_section_title
;
Structure prediction by ZEFSAII (Michael W. Deem and Ramdas Pophale) SiO2 
 PCOD9350296
Probable space group: C M M 2
;
_chemical_formula_sum "Si O2"
_cell_formula_units_Z 24
_cell_length_a 5.543719
_cell_length_b 18.384239
_cell_length_c 10.423283
_cell_angle_alpha 90.000000
_cell_angle_beta 90.000000
_cell_angle_gamma 90.000000
_cell_volume 1062.310307
_symmetry_space_group_name_H-M "C M M 2"
_symmetry_group_IT_number 35
_symmetry_cell_setting 'orthorhombic'
loop_
_space_group_symop_operation_xyz
x,y,z
-x,-y,z
-x,y,z
x,-y,z
1/2+x,1/2+y,z
1/2-x,1/2-y,z
1/2-x,1/2+y,z
1/2+x,1/2-y,z
loop_
_atom_site_type_symbol
_atom_site_label
_atom_site_fract_x
_atom_site_fract_y
_atom_site_fract_z
Si Si1 0.500000 0.628356 0.243611
Si Si2 0.500000 0.209997 0.622742
Si Si3 0.000000 0.588037 0.819467
Si Si4 0.500000 0.842060 0.337080
Si Si5 0.000000 0.000000 0.454139
Si Si6 0.000000 0.914631 0.950075
Si Si7 0.000000 0.500000 0.466891
O O1 0.751780 0.669471 0.262326
O O2 0.500000 0.568897 0.358997
O O3 0.500000 0.594753 0.102827
O O4 0.750000 0.250000 0.659256
O O5 0.500000 0.130190 0.684995
O O6 0.500000 0.201424 0.469502
O O7 0.246443 0.612604 0.891603
O O8 0.000000 0.500000 0.812847
O O9 0.500000 0.928200 0.377450
O O10 0.757092 0.000000 0.535664
O O11 0.000000 0.000000 0.921391
#
# Coordination Sequence:
#
# PCOD9350296 Si02
#       7
#     4   4   4   4   2   4   2
#     4  10  17  32  55  91 128 158 194 244 318 382
#     4  12  26  46  68  88 125 175 219 267 323 383
#     4  10  23  41  65  96 126 164 218 273 314 365
#     4  10  21  34  59  90 123 162 203 249 307 379
#     4   8  14  24  42  76 118 154 178 216 286 364
#     4  10  19  35  61  95 135 164 201 262 326 377
#     4   8  16  28  48  80 116 144 184 238 282 344
#
# _framework density 22.592269000000002
#
# number of rings (size 3 to 8) (size 9 to 14) (size 15 to 20)
#    0.000    2.000    0.833    3.000    1.167    0.000 
#    0.000    0.000    0.000   20.000    0.000    0.000 
#    0.000    0.000    0.000    0.000    0.000    0.000 
#
# Total GULP energy -66994.492655 kJ/mol
# GULP energy per Si atom -5582.874388 kJ/mol
# Density = 2.254085 g / cm^3
# Si number density = 22.592269 Si / 1000 Ang^3
#
#
#
# Elastic Constant Matrix: (Units=GPa)
#
#
# Indices 1 2 3 4 5 6 
#
# 1 289.9948 25.6331 47.5728 0.0000 0.0000 0.0000
# 2 25.6331 68.0210 -16.5355 0.0000 0.0000 0.0000
# 3 47.5728 -16.5355 47.3077 0.0000 0.0000 0.0000
# 4 0.0000 0.0000 0.0000 1.1874 0.0000 0.0000
# 5 0.0000 0.0000 0.0000 0.0000 14.4909 0.0000
# 6 0.0000 0.0000 0.0000 0.0000 0.0000 -7.4474
#
#
#
# Elastic Compliance Matrix: (Units=1/GPa)
#
#
# Indices 1 2 3 4 5 6 
#
# 1 0.004685 -0.003181 -0.005823 0.000000 0.000000 0.000000
# 2 -0.003181 0.018226 0.009569 0.000000 0.000000 0.000000
# 3 -0.005823 0.009569 0.030338 0.000000 0.000000 0.000000
# 4 0.000000 0.000000 0.000000 0.842141 0.000000 0.000000
# 5 0.000000 0.000000 0.000000 0.000000 0.069009 0.000000
# 6 0.000000 0.000000 0.000000 0.000000 0.000000 -0.134274
#
#
# Mechanical properties :
#
#
# Convention : Reuss Voigt Hill
#
# Bulk Modulus (GPa) = 18.38881 57.62937 38.00909
# Shear Modulus (GPa) = 5.90235 24.88972 15.39603
#
# Velocity S-wave (km/s) = 1.61809 3.32277 2.61334
# Velocity P-wave (km/s) = 3.41293 6.34704 5.09573
#
# Compressibility (1/GPa) = 0.05438090
#
# Stress axis : x y z
#
# Youngs Moduli (GPa) = 213.46023 54.86575 32.96147
#
# Poissons Ratio (x) = 0.17452 0.19193
# Poissons Ratio (y) = 0.67899 -0.31542
# Poissons Ratio (z) = 1.24293 -0.52503
#
# Static dielectric constant tensor:
#      x y z
#    x 1.938250 0.000000 0.000000 
#    y 0.000000 1.852820 0.000000 
#    z 0.000000 0.000000 1.744350 
# 
# From -- ./inp_files/4153.got.cif
#   From: 2010.05.17/outbox.cif.g08.bks.cpg/sg35_3_cif.got.tgz:4153.got - 2010.06.03 17:29:28.
