data_PCOD9350517
_publ_section_title
;
Structure prediction by ZEFSAII (Michael W. Deem and Ramdas Pophale) SiO2 
 PCOD9350517
Probable space group: C M C 21
;
_chemical_formula_sum "Si O2"
_cell_formula_units_Z 64
_cell_length_a 16.152955
_cell_length_b 10.271168
_cell_length_c 19.678764
_cell_angle_alpha 90.000000
_cell_angle_beta 90.000000
_cell_angle_gamma 90.000000
_cell_volume 3264.898117
_symmetry_space_group_name_H-M "C M C 21"
_symmetry_group_IT_number 36
_symmetry_cell_setting 'orthorhombic'
loop_
_space_group_symop_operation_xyz
x,y,z
-x,-y,1/2+z
x,-y,1/2+z
-x,y,z
1/2+x,1/2+y,z
1/2-x,1/2-y,1/2+z
1/2+x,1/2-y,1/2+z
1/2-x,1/2+y,z
loop_
_atom_site_type_symbol
_atom_site_label
_atom_site_fract_x
_atom_site_fract_y
_atom_site_fract_z
Si Si1 0.160457 0.518910 0.933140
Si Si2 0.095810 0.522489 0.784990
Si Si3 0.096276 0.767463 0.287471
Si Si4 0.156392 0.890700 0.572293
Si Si5 0.315199 0.287195 0.428934
Si Si6 0.664631 0.842308 0.166731
Si Si7 0.858349 0.415890 0.578886
Si Si8 0.362431 0.352083 0.144575
O O1 0.106242 0.528470 0.865730
O O2 0.231986 0.627454 0.926550
O O3 0.195264 0.369763 0.937482
O O4 0.113993 0.549731 0.003122
O O5 0.128606 0.377157 0.766674
O O6 0.145723 0.633450 0.745379
O O7 0.000000 0.533638 0.765911
O O8 0.140340 0.808949 0.356762
O O9 0.104837 0.857746 0.221537
O O10 0.000000 0.750078 0.303565
O O11 0.137686 0.838490 0.496690
O O12 0.133546 0.786826 0.630135
O O13 0.257270 0.904579 0.574150
O O14 0.119363 0.027630 0.595408
O O15 0.762882 0.846754 0.153921
O O16 0.624327 0.965107 0.128631
O O17 0.890159 0.281180 0.608986
#
# Coordination Sequence:
#
# PCOD9350517 Si02
#       8
#     8   8   8   8   8   8   8   8
#     4  10  20  35  57  84 110 140 182 226 274 324
#     4  10  21  37  55  78 110 147 186 226 266 319
#     4  10  21  38  56  77 109 149 188 221 263 325
#     4   9  19  31  55  86 110 134 175 229 278 314
#     4  10  20  36  58  84 108 142 181 224 275 323
#     4  10  17  34  55  82 108 136 177 224 270 320
#     4   9  17  31  55  83 108 134 176 224 268 318
#     4  10  19  34  57  84 109 142 179 222 272 323
#
# _framework density 19.602447999999999
#
# number of rings (size 3 to 8) (size 9 to 14) (size 15 to 20)
#    0.000    2.250    2.500    0.750    5.250    0.000 
#    2.250    3.125    0.000    0.000    0.000    0.000 
#    0.000    0.000    0.000    0.000    0.000    0.000 
#
# Total GULP energy -178422.418052 kJ/mol
# GULP energy per Si atom -5575.700564 kJ/mol
# Density = 1.955783 g / cm^3
# Si number density = 19.602448 Si / 1000 Ang^3
#
#
#
# Elastic Constant Matrix: (Units=GPa)
#
#
# Indices 1 2 3 4 5 6 
#
# 1 15.1513 8.3540 0.7324 0.0000 0.0000 0.0000
# 2 8.3540 81.8590 24.3315 0.0000 0.0000 0.0000
# 3 0.7324 24.3315 107.7157 0.0000 0.0000 0.0000
# 4 0.0000 0.0000 0.0000 36.8087 0.0000 0.0000
# 5 0.0000 0.0000 0.0000 0.0000 -8.1660 0.0000
# 6 0.0000 0.0000 0.0000 0.0000 0.0000 6.4027
#
#
#
# Elastic Compliance Matrix: (Units=1/GPa)
#
#
# Indices 1 2 3 4 5 6 
#
# 1 0.070086 -0.007515 0.001221 0.000000 0.000000 0.000000
# 2 -0.007515 0.013901 -0.003089 0.000000 0.000000 0.000000
# 3 0.001221 -0.003089 0.009973 0.000000 0.000000 0.000000
# 4 0.000000 0.000000 0.000000 0.027167 0.000000 0.000000
# 5 0.000000 0.000000 0.000000 0.000000 -0.122459 0.000000
# 6 0.000000 0.000000 0.000000 0.000000 0.000000 0.156185
#
#
# Mechanical properties :
#
#
# Convention : Reuss Voigt Hill
#
# Bulk Modulus (GPa) = 13.29903 30.17354 21.73629
# Shear Modulus (GPa) = 25.16557 18.42963 21.79760
#
# Velocity S-wave (km/s) = 3.58690 3.06954 3.33826
# Velocity P-wave (km/s) = 4.89424 5.29046 5.09620
#
# Compressibility (1/GPa) = 0.07519344
#
# Stress axis : x y z
#
# Youngs Moduli (GPa) = 14.26824 71.93588 100.26917
#
# Poissons Ratio (x) = 0.54063 -0.12244
# Poissons Ratio (y) = 0.10723 0.30973
# Poissons Ratio (z) = -0.01742 0.22221
#
# Static dielectric constant tensor:
#      x y z
#    x 1.678730 0.000000 0.000000 
#    y 0.000000 1.696130 0.000000 
#    z 0.000000 0.000000 1.704510 
# 
# From -- ./inp_files/15047.got.cif
#   From: 2010.05.17/outbox.cif.g08.bks.cpg/sg36_8_cif.got.tgz:15047.got - 2010.06.03 17:41:39.
