data_PCOD9350933
_publ_section_title
;
Structure prediction by ZEFSAII (Michael W. Deem and Ramdas Pophale) SiO2 
 PCOD9350933
Probable space group: C M C 21
;
_chemical_formula_sum "Si O2"
_cell_formula_units_Z 64
_cell_length_a 7.581004
_cell_length_b 29.399642
_cell_length_c 14.692160
_cell_angle_alpha 90.000000
_cell_angle_beta 90.000000
_cell_angle_gamma 90.000000
_cell_volume 3274.571043
_symmetry_space_group_name_H-M "C M C 21"
_symmetry_group_IT_number 36
_symmetry_cell_setting 'orthorhombic'
loop_
_space_group_symop_operation_xyz
x,y,z
-x,-y,1/2+z
x,-y,1/2+z
-x,y,z
1/2+x,1/2+y,z
1/2-x,1/2-y,1/2+z
1/2+x,1/2-y,1/2+z
1/2-x,1/2+y,z
loop_
_atom_site_type_symbol
_atom_site_label
_atom_site_fract_x
_atom_site_fract_y
_atom_site_fract_z
Si Si1 0.710839 0.751870 0.736040
Si Si2 0.709475 0.496228 0.943750
Si Si3 0.789153 0.429500 0.592286
Si Si4 0.284268 0.321649 0.092287
Si Si5 0.784005 0.674170 0.092286
Si Si6 0.290525 0.496228 0.240823
Si Si7 0.216712 0.925472 0.092287
Si Si8 0.289161 0.248130 0.948533
O O1 0.500000 0.752187 0.727107
O O2 0.772874 0.707591 0.680069
O O3 0.772602 0.796498 0.680587
O O4 0.749999 0.750000 0.842287
O O5 0.500000 0.488735 0.935184
O O6 0.783647 0.500000 0.842286
O O7 0.733953 0.541440 0.004065
O O8 0.776711 0.454234 0.004482
O O9 0.722467 0.377783 0.592286
O O10 0.733954 0.458560 0.680507
O O11 0.000000 0.428067 0.592286
O O12 0.500000 0.322753 0.092288
O O13 0.224817 0.373519 0.092287
O O14 0.227128 0.292409 0.004504
O O15 0.000000 0.672986 0.092286
O O16 0.727395 0.703502 0.003986
O O17 0.500000 0.488735 0.249388
O O18 0.223289 0.454234 0.180091
O O19 0.000000 0.925855 0.092287
O O20 0.500000 0.247812 0.957466
#
# Coordination Sequence:
#
# PCOD9350933 Si02
#       8
#     8   8   8   8   8   8   8   8
#     4   9  17  31  49  68  91 119 153 189 227 272
#     4   9  18  32  49  70  97 124 151 193 243 280
#     4  10  19  32  50  69  93 128 165 194 226 279
#     4   8  15  28  46  65  87 120 153 177 215 279
#     4   8  17  33  48  65  97 134 155 181 235 287
#     4   9  18  32  49  70  97 124 151 193 243 280
#     4   8  14  27  46  67  91 118 149 184 224 269
#     4   9  17  31  49  68  91 119 153 189 227 272
#
# _framework density 19.544544999999999
#
# number of rings (size 3 to 8) (size 9 to 14) (size 15 to 20)
#    0.000    3.250    0.000    2.625    0.000    2.500 
#    0.000    7.500    0.000    6.000    0.000    0.000 
#    0.000    0.000    0.000    0.000    0.000    0.000 
#
# Total GULP energy -178383.070939 kJ/mol
# GULP energy per Si atom -5574.470967 kJ/mol
# Density = 1.950006 g / cm^3
# Si number density = 19.544545 Si / 1000 Ang^3
#
#
#
# Elastic Constant Matrix: (Units=GPa)
#
#
# Indices 1 2 3 4 5 6 
#
# 1 36.1729 -3.8322 -1.3472 0.0000 0.0000 0.0000
# 2 -3.8322 217.7974 121.0302 0.0000 0.0000 0.0000
# 3 -1.3472 121.0302 218.2177 0.0000 0.0000 0.0000
# 4 0.0000 0.0000 0.0000 9.0440 0.0000 0.0000
# 5 0.0000 0.0000 0.0000 0.0000 34.9986 0.0000
# 6 0.0000 0.0000 0.0000 0.0000 0.0000 13.0604
#
#
#
# Elastic Compliance Matrix: (Units=1/GPa)
#
#
# Indices 1 2 3 4 5 6 
#
# 1 0.027700 0.000567 -0.000144 0.000000 0.000000 0.000000
# 2 0.000567 0.006649 -0.003684 0.000000 0.000000 0.000000
# 3 -0.000144 -0.003684 0.006625 0.000000 0.000000 0.000000
# 4 0.000000 0.000000 0.000000 0.110570 0.000000 0.000000
# 5 0.000000 0.000000 0.000000 0.000000 0.028573 0.000000
# 6 0.000000 0.000000 0.000000 0.000000 0.000000 0.076567
#
#
# Mechanical properties :
#
#
# Convention : Reuss Voigt Hill
#
# Bulk Modulus (GPa) = 29.02545 78.20992 53.61769
# Shear Modulus (GPa) = 18.20243 35.17642 26.68943
#
# Velocity S-wave (km/s) = 3.05508 4.24702 3.69937
# Velocity P-wave (km/s) = 5.22761 8.00953 6.76315
#
# Compressibility (1/GPa) = 0.03445253
#
# Stress axis : x y z
#
# Youngs Moduli (GPa) = 36.10138 150.40718 150.94413
#
# Poissons Ratio (x) = -0.08531 0.02167
# Poissons Ratio (y) = -0.02048 0.55608
# Poissons Ratio (z) = 0.00518 0.55410
#
# Static dielectric constant tensor:
#      x y z
#    x 1.726800 0.000000 0.000000 
#    y 0.000000 1.666560 0.000000 
#    z 0.000000 0.000000 1.683730 
# 
# From -- ./inp_files/11195.got.cif
#   From: 2010.05.17/outbox.cif.g08.bks.cpg/sg36_6_cif.got.tgz:11195.got - 2010.06.03 17:41:39.
