data_PCOD9350655
_publ_section_title
;
Structure prediction by ZEFSAII (Michael W. Deem and Ramdas Pophale) SiO2 
 PCOD9350655
Probable space group: C M C 21
;
_chemical_formula_sum "Si O2"
_cell_formula_units_Z 64
_cell_length_a 7.438144
_cell_length_b 20.750871
_cell_length_c 20.139643
_cell_angle_alpha 90.000000
_cell_angle_beta 90.000000
_cell_angle_gamma 90.000000
_cell_volume 3108.512946
_symmetry_space_group_name_H-M "C M C 21"
_symmetry_group_IT_number 36
_symmetry_cell_setting 'orthorhombic'
loop_
_space_group_symop_operation_xyz
x,y,z
-x,-y,1/2+z
x,-y,1/2+z
-x,y,z
1/2+x,1/2+y,z
1/2-x,1/2-y,1/2+z
1/2+x,1/2-y,1/2+z
1/2-x,1/2+y,z
loop_
_atom_site_type_symbol
_atom_site_label
_atom_site_fract_x
_atom_site_fract_y
_atom_site_fract_z
Si Si1 0.717487 0.173248 0.743040
Si Si2 0.206855 0.942468 0.148026
Si Si3 0.719762 0.721695 0.427631
Si Si4 0.281172 0.139144 0.893715
Si Si5 0.206207 0.106544 0.511820
Si Si6 0.210697 0.497481 0.905280
Si Si7 0.217767 0.043922 0.254731
Si Si8 0.781322 0.187152 0.277311
O O1 0.500000 0.171213 0.739750
O O2 0.788870 0.124125 0.688951
O O3 0.769909 0.148971 0.816615
O O4 0.774325 0.247970 0.739097
O O5 0.000000 0.962645 0.136690
O O6 0.285401 0.997169 0.196454
O O7 0.289106 0.927333 0.076238
O O8 0.500000 0.720366 0.428193
O O9 0.775263 0.796245 0.431863
O O10 0.785659 0.672968 0.483787
O O11 0.772670 0.695934 0.354492
O O12 0.500000 0.137910 0.894610
O O13 0.218809 0.069647 0.918036
O O14 0.000000 0.121732 0.530572
O O15 0.203660 0.057180 0.450486
O O16 0.231159 0.482486 0.827307
O O17 0.000000 0.496120 0.921213
O O18 0.278057 0.118172 0.250263
O O19 0.000000 0.043242 0.253253
O O20 0.000000 0.187065 0.277174
#
# Coordination Sequence:
#
# PCOD9350655 Si02
#       8
#     8   8   8   8   8   8   8   8
#     4   9  16  30  51  72  95 125 164 206 245 292
#     4  10  21  33  49  75 105 135 167 204 254 307
#     4   8  13  26  49  70  89 122 168 202 230 287
#     4   8  15  27  47  74  96 118 160 210 247 287
#     4  10  20  35  52  71 100 139 173 203 246 306
#     4  11  20  31  50  77 102 125 164 215 259 296
#     4  10  18  32  52  74 101 133 169 205 247 304
#     4   8  14  26  50  75  90 121 169 203 234 287
#
# _framework density 20.588623999999999
#
# number of rings (size 3 to 8) (size 9 to 14) (size 15 to 20)
#    0.000    2.750    2.500    1.875    0.000    0.500 
#    0.000    1.875    0.000    1.500    0.000    0.000 
#    0.000    0.000    0.000    0.000    0.000    0.000 
#
# Total GULP energy -178500.292920 kJ/mol
# GULP energy per Si atom -5578.134154 kJ/mol
# Density = 2.054176 g / cm^3
# Si number density = 20.588624 Si / 1000 Ang^3
#
#
#
# Elastic Constant Matrix: (Units=GPa)
#
#
# Indices 1 2 3 4 5 6 
#
# 1 65.2720 -7.0475 -6.7656 0.0000 0.0000 0.0000
# 2 -7.0475 114.1303 -4.3390 0.0000 0.0000 0.0000
# 3 -6.7656 -4.3390 17.8434 0.0000 0.0000 0.0000
# 4 0.0000 0.0000 0.0000 22.9563 0.0000 0.0000
# 5 0.0000 0.0000 0.0000 0.0000 4.6721 0.0000
# 6 0.0000 0.0000 0.0000 0.0000 0.0000 7.1002
#
#
#
# Elastic Compliance Matrix: (Units=1/GPa)
#
#
# Indices 1 2 3 4 5 6 
#
# 1 0.016119 0.001239 0.006413 0.000000 0.000000 0.000000
# 2 0.001239 0.008939 0.002644 0.000000 0.000000 0.000000
# 3 0.006413 0.002644 0.059118 0.000000 0.000000 0.000000
# 4 0.000000 0.000000 0.000000 0.043561 0.000000 0.000000
# 5 0.000000 0.000000 0.000000 0.000000 0.214036 0.000000
# 6 0.000000 0.000000 0.000000 0.000000 0.000000 0.140841
#
#
# Mechanical properties :
#
#
# Convention : Reuss Voigt Hill
#
# Bulk Modulus (GPa) = 9.54497 17.88239 13.71368
# Shear Modulus (GPa) = 10.06149 21.30559 15.68354
#
# Velocity S-wave (km/s) = 2.21304 3.22036 2.76299
# Velocity P-wave (km/s) = 3.34307 4.74679 4.10537
#
# Compressibility (1/GPa) = 0.10476727
#
# Stress axis : x y z
#
# Youngs Moduli (GPa) = 62.03849 111.87019 16.91541
#
# Poissons Ratio (x) = -0.13862 -0.10848
# Poissons Ratio (y) = -0.07688 -0.04472
# Poissons Ratio (z) = -0.39786 -0.29573
#
# Static dielectric constant tensor:
#      x y z
#    x 1.880770 0.000000 0.000000 
#    y 0.000000 1.752400 0.000000 
#    z 0.000000 0.000000 1.700790 
# 
# From -- ./inp_files/15805.got.cif
#   From: 2010.05.17/outbox.cif.g08.bks.cpg/sg36_8_cif.got.tgz:15805.got - 2010.06.03 17:41:39.
