data_PCOD9350184
_publ_section_title
;
Structure prediction by ZEFSAII (Michael W. Deem and Ramdas Pophale) SiO2 
 PCOD9350184
Probable space group: C M M 2
;
_chemical_formula_sum "Si O2"
_cell_formula_units_Z 24
_cell_length_a 9.000000
_cell_length_b 15.000000
_cell_length_c 18.000000
_cell_angle_alpha 90.000000
_cell_angle_beta 90.000000
_cell_angle_gamma 90.000000
_cell_volume 2430.000000
_symmetry_space_group_name_H-M "C M M 2"
_symmetry_group_IT_number 35
_symmetry_cell_setting 'orthorhombic'
loop_
_space_group_symop_operation_xyz
x,y,z
-x,-y,z
-x,y,z
x,-y,z
1/2+x,1/2+y,z
1/2-x,1/2-y,z
1/2-x,1/2+y,z
1/2+x,1/2-y,z
loop_
_atom_site_type_symbol
_atom_site_label
_atom_site_fract_x
_atom_site_fract_y
_atom_site_fract_z
Si Si1 0.828567 0.344550 0.386970
Si Si2 0.165780 0.000000 0.466188
Si Si3 0.827104 0.656315 0.219067
Si Si4 0.674302 0.343192 0.860219
Si Si5 0.331641 0.160635 0.711251
Si Si6 0.161761 0.500000 0.599240
Si Si7 0.671785 0.500000 0.973939
Si Si8 0.823308 0.500000 0.123761
O O1 0.750000 0.250000 0.389788
O O2 0.749308 0.413287 0.438988
O O3 0.817101 0.379739 0.302700
O O4 0.000000 0.334155 0.405808
O O5 0.188495 0.000000 0.553156
O O6 0.000000 0.000000 0.438904
O O7 0.750000 0.750000 0.216146
O O8 0.759557 0.587053 0.162444
O O9 0.000000 0.670514 0.202787
O O10 0.500000 0.331641 0.849612
O O11 0.750000 0.250000 0.879025
O O12 0.747152 0.374355 0.783549
O O13 0.695818 0.414268 0.923769
O O14 0.500000 0.182791 0.732568
O O15 0.250000 0.250000 0.686254
O O16 0.336254 0.086892 0.649189
O O17 0.000000 0.500000 0.557873
O O18 0.500000 0.500000 0.000548
O O19 0.787525 0.500000 0.039076
O O20 0.000000 0.500000 0.138498
#
# Coordination Sequence:
#
# PCOD9350184 Si02
#       8
#     8   4   8   8   8   4   4   4
#     4  10  20  38  62  85 113 146 185 234 282 332
#     4  12  25  38  56  84 116 152 191 228 276 334
#     4   9  19  36  58  83 108 140 181 225 274 325
#     4  10  20  36  57  80 107 139 178 223 269 319
#     4  10  20  36  59  84 108 138 179 224 271 323
#     4  10  23  40  56  78 112 150 183 222 274 328
#     4  10  23  38  52  76 110 146 181 220 268 318
#     4  10  21  36  54  78 110 146 181 218 268 326
#
# _framework density 9.8765429999999999
#
# number of rings (size 3 to 8) (size 9 to 14) (size 15 to 20)
#    0.000    2.000    0.000    4.250    0.000    6.667 
#    0.000    5.833    0.000    0.000    0.000    0.000 
#    0.000    0.000    0.000    0.000    0.000    0.000 
#
# Total GULP energy -133757.641844 kJ/mol
# GULP energy per Si atom -5573.235077 kJ/mol
# Density = 0.985406 g / cm^3
# Si number density = 9.876543 Si / 1000 Ang^3
#
#
#
# Elastic Constant Matrix: (Units=GPa)
#
#
# Indices 1 2 3 4 5 6 
#
# 1 69.6684 36.2137 65.2626 0.0000 0.0000 0.0000
# 2 36.2137 10.4985 53.6394 0.0000 0.0000 0.0000
# 3 65.2626 53.6394 14.5948 0.0000 0.0000 0.0000
# 4 0.0000 0.0000 0.0000 46.1797 0.0000 0.0000
# 5 0.0000 0.0000 0.0000 0.0000 19.5697 0.0000
# 6 0.0000 0.0000 0.0000 0.0000 0.0000 76.6224
#
#
#
# Elastic Compliance Matrix: (Units=1/GPa)
#
#
# Indices 1 2 3 4 5 6 
#
# 1 31.558074-34.433061-14.566543 0.000000 0.000000 0.000000
# 2 -34.433061 37.564605 15.913268 0.000000 0.000000 0.000000
# 3 -14.566543 15.913268 6.719756 0.000000 0.000000 0.000000
# 4 0.000000 0.000000 0.000000 0.021655 0.000000 0.000000
# 5 0.000000 0.000000 0.000000 0.000000 0.051099 0.000000
# 6 0.000000 0.000000 0.000000 0.000000 0.000000 0.013051
#
#
# Mechanical properties :
#
#
# Convention : Reuss Voigt Hill
#
# Bulk Modulus (GPa) = 0.10342 44.99923 22.55132
# Shear Modulus (GPa) = 0.03441 24.45077 12.24259
#
# Velocity S-wave (km/s) = 0.13212 3.52208 2.49224
# Velocity P-wave (km/s) = 0.27521 6.27459 4.44107
#
# Compressibility (1/GPa) = 9.66976313
#
# Stress axis : x y z
#
# Youngs Moduli (GPa) = 0.03169 0.02662 0.14881
#
# Poissons Ratio (x) = 0.91664 2.16772
# Poissons Ratio (y) = 1.09110 -2.36813
# Poissons Ratio (z) = 0.46158 -0.42362
#
# Static dielectric constant tensor:
#      x y z
#    x 1.698030 0.000000 0.000000 
#    y 0.000000 1.651880 0.000000 
#    z 0.000000 0.000000 1.727050 
# 
# From -- ./inp_files/17139.got.cif
#   From: 2010.05.17/outbox.ucp.g08.bks.cvg/sg35_9_cif.got.tgz:17139.got - 2010.06.11 10:36:28.
