data_PCOD9350132
_publ_section_title
;
Structure prediction by ZEFSAII (Michael W. Deem and Ramdas Pophale) SiO2 
 PCOD9350132
Probable space group: C M M 2
;
_chemical_formula_sum "Si O2"
_cell_formula_units_Z 64
_cell_length_a 9.813079
_cell_length_b 14.600153
_cell_length_c 21.457023
_cell_angle_alpha 90.000000
_cell_angle_beta 90.000000
_cell_angle_gamma 90.000000
_cell_volume 3074.200358
_symmetry_space_group_name_H-M "C M M 2"
_symmetry_group_IT_number 35
_symmetry_cell_setting 'orthorhombic'
loop_
_space_group_symop_operation_xyz
x,y,z
-x,-y,z
-x,y,z
x,-y,z
1/2+x,1/2+y,z
1/2-x,1/2-y,z
1/2-x,1/2+y,z
1/2+x,1/2-y,z
loop_
_atom_site_type_symbol
_atom_site_label
_atom_site_fract_x
_atom_site_fract_y
_atom_site_fract_z
Si Si1 0.836867 0.657912 0.001440
Si Si2 0.342671 0.388275 0.388879
Si Si3 0.843630 0.611905 0.503472
Si Si4 0.651517 0.892211 0.139603
Si Si5 0.652153 0.893224 0.728022
Si Si6 0.155288 0.887919 0.619940
Si Si7 0.844447 0.111903 0.248701
Si Si8 0.161256 0.341320 0.866985
O O1 0.750000 0.750000 0.999343
O O2 0.801034 0.614365 0.067873
O O3 0.000000 0.673792 0.003739
O O4 0.811242 0.611037 0.934010
O O5 0.500000 0.359544 0.400663
O O6 0.344760 0.500000 0.390337
O O7 0.236211 0.359000 0.441246
O O8 0.301731 0.361334 0.318646
O O9 0.847758 0.500000 0.503279
O O10 0.752543 0.638514 0.562737
O O11 0.000000 0.643792 0.506532
O O12 0.500000 0.851240 0.144256
O O13 0.751441 0.855434 0.192184
O O14 0.639955 0.000000 0.152381
O O15 0.500000 0.852402 0.718731
O O16 0.770515 0.857118 0.683461
O O17 0.687020 0.889404 0.801222
O O18 0.640445 0.000000 0.711191
O O19 0.000000 0.855025 0.614125
O O20 0.148363 0.000000 0.619525
O O21 0.000000 0.141270 0.239718
O O22 0.844751 0.000000 0.248039
O O23 0.250000 0.250000 0.865658
O O24 0.000000 0.319867 0.867216
#
# Coordination Sequence:
#
# PCOD9350132 Si02
#       8
#     8   8   8   8   8   8   8   8
#     4   9  18  32  48  66  88 115 146 179 218 262
#     4   8  13  21  32  47  71 105 142 176 210 251
#     4   9  15  21  31  49  74 106 143 179 213 252
#     4   9  17  28  43  64  89 115 144 181 222 262
#     4   9  17  29  45  65  88 114 145 181 220 261
#     4   9  16  25  37  54  79 111 143 176 216 259
#     4   8  14  24  37  54  79 111 144 177 215 259
#     4   9  18  32  49  67  88 115 145 179 219 262
#
# _framework density 20.81842
#
# number of rings (size 3 to 8) (size 9 to 14) (size 15 to 20)
#    0.000    3.250    0.000    1.500    0.000    5.000 
#    0.000    5.000    0.000    0.000    0.000    7.000 
#    0.000    1.000    0.000    5.000    0.000    9.875 
#
# Total GULP energy -178292.402876 kJ/mol
# GULP energy per Si atom -5571.637590 kJ/mol
# Density = 2.077104 g / cm^3
# Si number density = 20.818420 Si / 1000 Ang^3
#
#
#
# Elastic Constant Matrix: (Units=GPa)
#
#
# Indices 1 2 3 4 5 6 
#
# 1 120.4171 12.2717 124.9260 0.0000 0.0000 0.0000
# 2 12.2717 39.0086 2.6227 0.0000 0.0000 0.0000
# 3 124.9260 2.6227 205.1312 0.0000 0.0000 0.0000
# 4 0.0000 0.0000 0.0000 85.1097 0.0000 0.0000
# 5 0.0000 0.0000 0.0000 0.0000 60.5171 0.0000
# 6 0.0000 0.0000 0.0000 0.0000 0.0000 5.0771
#
#
#
# Elastic Compliance Matrix: (Units=1/GPa)
#
#
# Indices 1 2 3 4 5 6 
#
# 1 0.024147 -0.006613 -0.014621 0.000000 0.000000 0.000000
# 2 -0.006613 0.027469 0.003676 0.000000 0.000000 0.000000
# 3 -0.014621 0.003676 0.013732 0.000000 0.000000 0.000000
# 4 0.000000 0.000000 0.000000 0.011750 0.000000 0.000000
# 5 0.000000 0.000000 0.000000 0.000000 0.016524 0.000000
# 6 0.000000 0.000000 0.000000 0.000000 0.000000 0.196961
#
#
# Mechanical properties :
#
#
# Convention : Reuss Voigt Hill
#
# Bulk Modulus (GPa) = 33.07777 71.57752 52.32765
# Shear Modulus (GPa) = 14.89086 45.12321 30.00703
#
# Velocity S-wave (km/s) = 2.67736 4.66066 3.80066
# Velocity P-wave (km/s) = 5.04786 7.96359 6.66707
#
# Compressibility (1/GPa) = 0.03023178
#
# Stress axis : x y z
#
# Youngs Moduli (GPa) = 41.41295 36.40507 72.82119
#
# Poissons Ratio (x) = 0.24076 1.06473
# Poissons Ratio (y) = 0.27388 -0.26772
# Poissons Ratio (z) = 0.60550 -0.13384
#
# Static dielectric constant tensor:
#      x y z
#    x 1.724970 0.000000 0.000000 
#    y 0.000000 1.808720 0.000000 
#    z 0.000000 0.000000 1.771200 
# 
# From -- ./inp_files/18470.got.cif
#   From: 2010.05.17/outbox.cif.g08.bks.cpg/sg35_10_cif.got.tgz:18470.got - 2010.06.03 17:29:28.
