data_PCOD9350227
_publ_section_title
;
Structure prediction by ZEFSAII (Michael W. Deem and Ramdas Pophale) SiO2 
 PCOD9350227
Probable space group: C M M 2
;
_chemical_formula_sum "Si O2"
_cell_formula_units_Z 32
_cell_length_a 14.908349
_cell_length_b 10.751582
_cell_length_c 10.538767
_cell_angle_alpha 90.000000
_cell_angle_beta 90.000000
_cell_angle_gamma 90.000000
_cell_volume 1689.241434
_symmetry_space_group_name_H-M "C M M 2"
_symmetry_group_IT_number 35
_symmetry_cell_setting 'orthorhombic'
loop_
_space_group_symop_operation_xyz
x,y,z
-x,-y,z
-x,y,z
x,-y,z
1/2+x,1/2+y,z
1/2-x,1/2-y,z
1/2-x,1/2+y,z
1/2+x,1/2-y,z
loop_
_atom_site_type_symbol
_atom_site_label
_atom_site_fract_x
_atom_site_fract_y
_atom_site_fract_z
Si Si1 0.641537 0.258836 0.862070
Si Si2 0.151975 0.000000 0.726892
Si Si3 0.357279 0.000000 0.758358
Si Si4 0.250000 0.250000 0.336017
Si Si5 0.727800 0.000000 0.497155
Si Si6 0.604425 0.353101 0.143488
O O1 0.750000 0.250000 0.849073
O O2 0.608993 0.373056 0.774684
O O3 0.605258 0.126901 0.814459
O O4 0.618766 0.290790 0.006379
O O5 0.250690 0.000000 0.793688
O O6 0.179555 0.000000 0.579801
O O7 0.349535 0.000000 0.605459
O O8 0.273802 0.127704 0.418641
O O9 0.332315 0.288742 0.246016
O O10 0.500000 0.343431 0.178155
O O11 0.627357 0.500000 0.133424
#
# Coordination Sequence:
#
# PCOD9350227 Si02
#       6
#     8   4   4   4   4   8
#     4  10  16  32  59  86 117 149 187 245 312 350
#     4   8  16  29  54  86 111 152 196 241 286 360
#     4   8  18  29  54  90 115 142 194 251 294 354
#     4  12  22  38  64  88 120 174 208 238 302 360
#     4  10  20  34  58  94 116 162 214 240 294 370
#     4  11  24  40  61  91 126 161 205 254 300 367
#
# _framework density 18.943415000000002
#
# number of rings (size 3 to 8) (size 9 to 14) (size 15 to 20)
#    0.750    1.250    3.750    1.500    0.000    1.000 
#    0.000    2.500    0.000    9.000    0.000    0.000 
#    0.000    0.000    0.000    0.000    0.000    0.000 
#
# Total GULP energy -89159.308743 kJ/mol
# GULP energy per Si atom -5572.456796 kJ/mol
# Density = 1.890030 g / cm^3
# Si number density = 18.943415 Si / 1000 Ang^3
#
#
#
# Elastic Constant Matrix: (Units=GPa)
#
#
# Indices 1 2 3 4 5 6 
#
# 1 63.4724 48.1293 30.9620 0.0000 0.0000 0.0000
# 2 48.1293 230.7867 119.0246 0.0000 0.0000 0.0000
# 3 30.9620 119.0246 148.6542 0.0000 0.0000 0.0000
# 4 0.0000 0.0000 0.0000 45.1291 0.0000 0.0000
# 5 0.0000 0.0000 0.0000 0.0000 -13.6924 0.0000
# 6 0.0000 0.0000 0.0000 0.0000 0.0000 4.2913
#
#
#
# Elastic Compliance Matrix: (Units=1/GPa)
#
#
# Indices 1 2 3 4 5 6 
#
# 1 0.018867 -0.003250 -0.001327 0.000000 0.000000 0.000000
# 2 -0.003250 0.007941 -0.005681 0.000000 0.000000 0.000000
# 3 -0.001327 -0.005681 0.011552 0.000000 0.000000 0.000000
# 4 0.000000 0.000000 0.000000 0.022159 0.000000 0.000000
# 5 0.000000 0.000000 0.000000 0.000000 -0.073033 0.000000
# 6 0.000000 0.000000 0.000000 0.000000 0.000000 0.233028
#
#
# Mechanical properties :
#
#
# Convention : Reuss Voigt Hill
#
# Bulk Modulus (GPa) = 56.04510 93.23835 74.64172
# Shear Modulus (GPa) = 20.24480 23.46543 21.85511
#
# Velocity S-wave (km/s) = 3.27264 3.52335 3.40031
# Velocity P-wave (km/s) = 6.62797 8.11654 7.40973
#
# Compressibility (1/GPa) = 0.01784277
#
# Stress axis : x y z
#
# Youngs Moduli (GPa) = 53.00328 125.93397 86.56362
#
# Poissons Ratio (x) = 0.40928 0.11491
# Poissons Ratio (y) = 0.17226 0.49177
# Poissons Ratio (z) = 0.07036 0.71543
#
# Static dielectric constant tensor:
#      x y z
#    x 1.675050 0.000000 0.000000 
#    y 0.000000 1.698810 0.000000 
#    z 0.000000 0.000000 1.630230 
# 
# From -- ./inp_files/6761.got.cif
#   From: 2010.05.17/outbox.cif.g08.bks.cpg/sg35_4_cif.got.tgz:6761.got - 2010.06.03 17:29:28.
