data_PCOD9350753
_publ_section_title
;
Structure prediction by ZEFSAII (Michael W. Deem and Ramdas Pophale) SiO2 
 PCOD9350753
Probable space group: C M C 21
;
_chemical_formula_sum "Si O2"
_cell_formula_units_Z 64
_cell_length_a 7.531569
_cell_length_b 24.745702
_cell_length_c 16.033635
_cell_angle_alpha 90.000000
_cell_angle_beta 90.000000
_cell_angle_gamma 90.000000
_cell_volume 2988.252081
_symmetry_space_group_name_H-M "C M C 21"
_symmetry_group_IT_number 36
_symmetry_cell_setting 'orthorhombic'
loop_
_space_group_symop_operation_xyz
x,y,z
-x,-y,1/2+z
x,-y,1/2+z
-x,y,z
1/2+x,1/2+y,z
1/2-x,1/2-y,1/2+z
1/2+x,1/2-y,1/2+z
1/2-x,1/2+y,z
loop_
_atom_site_type_symbol
_atom_site_label
_atom_site_fract_x
_atom_site_fract_y
_atom_site_fract_z
Si Si1 0.708854 0.450924 0.357540
Si Si2 0.717856 0.483883 0.019112
Si Si3 0.798593 0.752626 0.208927
Si Si4 0.717373 0.520264 0.200146
Si Si5 0.785411 0.134481 0.266681
Si Si6 0.784878 0.130543 0.457649
Si Si7 0.781910 0.248018 0.518650
Si Si8 0.206930 0.674763 0.868681
O O1 0.500000 0.463576 0.357640
O O2 0.778680 0.478552 0.442347
O O3 0.779180 0.480671 0.274493
O O4 0.724029 0.386132 0.357499
O O5 0.500000 0.484806 0.018936
O O6 0.777106 0.503102 0.109163
O O7 0.774901 0.422130 0.006349
O O8 0.793097 0.691228 0.239995
O O9 0.721469 0.749152 0.115039
O O10 0.724191 0.789949 0.283620
O O11 0.000000 0.772334 0.198776
O O12 0.500000 0.519060 0.200735
O O13 0.769530 0.582079 0.215727
O O14 0.737468 0.123055 0.361792
O O15 0.000000 0.139966 0.261767
O O16 0.725756 0.188903 0.487705
O O17 0.000000 0.131473 0.462375
O O18 0.720884 0.292119 0.449565
O O19 0.000000 0.250776 0.518553
O O20 0.000000 0.668185 0.885039
#
# Coordination Sequence:
#
# PCOD9350753 Si02
#       8
#     8   8   8   8   8   8   8   8
#     4  10  20  35  55  84 114 142 187 238 275 324
#     4   9  17  29  51  82 111 140 181 230 275 319
#     4  11  23  38  58  86 112 143 190 239 280 326
#     4   9  18  31  52  83 113 143 180 227 279 326
#     4  10  18  34  58  81 109 146 186 226 275 333
#     4   9  15  30  55  78 103 142 188 225 263 323
#     4   9  20  36  56  81 110 148 187 225 279 340
#     4  11  23  41  59  79 114 156 189 224 284 351
#
# _framework density 21.417203000000001
#
# number of rings (size 3 to 8) (size 9 to 14) (size 15 to 20)
#    0.000    2.250    2.500    0.750    3.500    0.000 
#    0.000    2.500    0.000    0.750    0.000    0.000 
#    0.000    0.000    0.000    0.000    0.000    0.000 
#
# Total GULP energy -178590.935575 kJ/mol
# GULP energy per Si atom -5580.966737 kJ/mol
# Density = 2.136846 g / cm^3
# Si number density = 21.417203 Si / 1000 Ang^3
#
#
#
# Elastic Constant Matrix: (Units=GPa)
#
#
# Indices 1 2 3 4 5 6 
#
# 1 46.8938 -10.6663 3.3705 0.0000 0.0000 0.0000
# 2 -10.6663 100.0000 15.4900 0.0000 0.0000 0.0000
# 3 3.3705 15.4900 84.8850 0.0000 0.0000 0.0000
# 4 0.0000 0.0000 0.0000 42.2497 0.0000 0.0000
# 5 0.0000 0.0000 0.0000 0.0000 3.8031 0.0000
# 6 0.0000 0.0000 0.0000 0.0000 0.0000 14.8786
#
#
#
# Elastic Compliance Matrix: (Units=1/GPa)
#
#
# Indices 1 2 3 4 5 6 
#
# 1 0.022002 0.002554 -0.001340 0.000000 0.000000 0.000000
# 2 0.002554 0.010587 -0.002033 0.000000 0.000000 0.000000
# 3 -0.001340 -0.002033 0.012205 0.000000 0.000000 0.000000
# 4 0.000000 0.000000 0.000000 0.023669 0.000000 0.000000
# 5 0.000000 0.000000 0.000000 0.000000 0.262941 0.000000
# 6 0.000000 0.000000 0.000000 0.000000 0.000000 0.067211
#
#
# Mechanical properties :
#
#
# Convention : Reuss Voigt Hill
#
# Bulk Modulus (GPa) = 23.17138 27.57414 25.37276
# Shear Modulus (GPa) = 12.05869 27.09192 19.57531
#
# Velocity S-wave (km/s) = 2.37542 3.56049 3.02652
# Velocity P-wave (km/s) = 4.28556 5.45944 4.90772
#
# Compressibility (1/GPa) = 0.04315668
#
# Stress axis : x y z
#
# Youngs Moduli (GPa) = 45.45023 94.45165 81.93421
#
# Poissons Ratio (x) = -0.24126 0.10977
# Poissons Ratio (y) = -0.11609 0.16661
# Poissons Ratio (z) = 0.06089 0.19206
#
# Static dielectric constant tensor:
#      x y z
#    x 1.831690 0.000000 0.000000 
#    y 0.000000 1.623040 0.000000 
#    z 0.000000 0.000000 1.773230 
# 
# From -- ./inp_files/10880.got.cif
#   From: 2010.05.17/outbox.cif.g08.bks.cpg/sg36_6_cif.got.tgz:10880.got - 2010.06.03 17:41:39.
