data_PCOD9350326
_publ_section_title
;
Structure prediction by ZEFSAII (Michael W. Deem and Ramdas Pophale) SiO2 
 PCOD9350326
Probable space group: C M M 2
;
_chemical_formula_sum "Si O2"
_cell_formula_units_Z 48
_cell_length_a 9.819843
_cell_length_b 16.346950
_cell_length_c 14.438439
_cell_angle_alpha 90.000000
_cell_angle_beta 90.000000
_cell_angle_gamma 90.000000
_cell_volume 2317.722949
_symmetry_space_group_name_H-M "C M M 2"
_symmetry_group_IT_number 35
_symmetry_cell_setting 'orthorhombic'
loop_
_space_group_symop_operation_xyz
x,y,z
-x,-y,z
-x,y,z
x,-y,z
1/2+x,1/2+y,z
1/2-x,1/2-y,z
1/2-x,1/2+y,z
1/2+x,1/2-y,z
loop_
_atom_site_type_symbol
_atom_site_label
_atom_site_fract_x
_atom_site_fract_y
_atom_site_fract_z
Si Si1 0.836269 0.164058 0.524260
Si Si2 0.500000 0.673269 0.867809
Si Si3 0.000000 0.408344 0.028886
Si Si4 0.768483 0.347094 0.155109
Si Si5 0.271015 0.651187 0.728074
Si Si6 0.163697 0.664030 0.358472
Si Si7 0.000000 0.907029 0.064699
Si Si8 0.000000 0.367843 0.819791
O O1 0.750000 0.250000 0.532320
O O2 0.823093 0.126208 0.626809
O O3 0.750061 0.121581 0.441391
O O4 0.000000 0.173818 0.505269
O O5 0.372221 0.636788 0.812949
O O6 0.500000 0.770679 0.847388
O O7 0.500000 0.652205 0.975495
O O8 0.129503 0.364708 0.071838
O O9 0.000000 0.500000 0.065429
O O10 0.000000 0.409177 0.918983
O O11 0.750000 0.250000 0.157779
O O12 0.822435 0.373735 0.256056
O O13 0.629379 0.390026 0.128257
O O14 0.250000 0.750000 0.724985
O O15 0.129286 0.613576 0.757442
O O16 0.250000 0.750000 0.350645
O O17 0.000000 0.673550 0.377595
O O18 0.000000 0.000000 0.030353
#
# Coordination Sequence:
#
# PCOD9350326 Si02
#       8
#     8   4   4   8   8   8   4   4
#     4  10  18  28  48  80 121 154 183 240 305 357
#     4  10  18  36  53  78 118 150 201 236 295 352
#     4  12  24  42  61  88 122 160 205 256 311 362
#     4  11  23  40  63  89 122 161 205 249 302 364
#     4   9  18  29  49  79 114 150 191 235 295 349
#     4  10  20  32  54  85 118 154 193 246 303 358
#     4  12  26  40  61  90 122 160 205 256 311 362
#     4  10  20  32  55  82 110 160 195 248 285 360
#
# _framework density 20.709983000000001
#
# number of rings (size 3 to 8) (size 9 to 14) (size 15 to 20)
#    0.000    1.667    1.667    5.000    9.333    1.333 
#    0.000    0.000    0.000    0.000    0.000    7.000 
#    0.000    0.000    0.000    0.000    0.000    0.000 
#
# Total GULP energy -133749.391715 kJ/mol
# GULP energy per Si atom -5572.891321 kJ/mol
# Density = 2.066285 g / cm^3
# Si number density = 20.709983 Si / 1000 Ang^3
#
#
#
# Elastic Constant Matrix: (Units=GPa)
#
#
# Indices 1 2 3 4 5 6 
#
# 1 195.2552 5.3029 59.0268 0.0000 0.0000 0.0000
# 2 5.3029 25.4058 5.4867 0.0000 0.0000 0.0000
# 3 59.0268 5.4867 141.2611 0.0000 0.0000 0.0000
# 4 0.0000 0.0000 0.0000 -8.5587 0.0000 0.0000
# 5 0.0000 0.0000 0.0000 0.0000 33.6217 0.0000
# 6 0.0000 0.0000 0.0000 0.0000 0.0000 0.7680
#
#
#
# Elastic Compliance Matrix: (Units=1/GPa)
#
#
# Indices 1 2 3 4 5 6 
#
# 1 0.005874 -0.000702 -0.002427 0.000000 0.000000 0.000000
# 2 -0.000702 0.039778 -0.001252 0.000000 0.000000 0.000000
# 3 -0.002427 -0.001252 0.008142 0.000000 0.000000 0.000000
# 4 0.000000 0.000000 0.000000 -0.116841 0.000000 0.000000
# 5 0.000000 0.000000 0.000000 0.000000 0.029743 0.000000
# 6 0.000000 0.000000 0.000000 0.000000 0.000000 1.302013
#
#
# Mechanical properties :
#
#
# Convention : Reuss Voigt Hill
#
# Bulk Modulus (GPa) = 22.20630 55.72836 38.96733
# Shear Modulus (GPa) = 3.86852 24.63993 14.25423
#
# Velocity S-wave (km/s) = 1.36821 3.45303 2.62635
# Velocity P-wave (km/s) = 3.63893 6.54716 5.29656
#
# Compressibility (1/GPa) = 0.04503227
#
# Stress axis : x y z
#
# Youngs Moduli (GPa) = 170.23081 25.13956 122.81988
#
# Poissons Ratio (x) = 0.01765 0.29813
# Poissons Ratio (y) = 0.11949 0.15374
# Poissons Ratio (z) = 0.41322 0.03147
#
# Static dielectric constant tensor:
#      x y z
#    x 1.940350 0.000000 0.000000 
#    y 0.000000 1.762230 0.000000 
#    z 0.000000 0.000000 1.762110 
# 
# From -- ./inp_files/15351.got.cif
#   From: 2010.05.17/outbox.cif.g08.bks.cpg/sg35_8_cif.got.tgz:15351.got - 2010.06.03 17:29:28.
