data_PCOD9350703
_publ_section_title
;
Structure prediction by ZEFSAII (Michael W. Deem and Ramdas Pophale) SiO2 
 PCOD9350703
Probable space group: C M C 21
;
_chemical_formula_sum "Si O2"
_cell_formula_units_Z 36
_cell_length_a 7.159487
_cell_length_b 14.485677
_cell_length_c 12.438121
_cell_angle_alpha 90.000000
_cell_angle_beta 90.000000
_cell_angle_gamma 90.000000
_cell_volume 1289.957730
_symmetry_space_group_name_H-M "C M C 21"
_symmetry_group_IT_number 36
_symmetry_cell_setting 'orthorhombic'
loop_
_space_group_symop_operation_xyz
x,y,z
-x,-y,1/2+z
x,-y,1/2+z
-x,y,z
1/2+x,1/2+y,z
1/2-x,1/2-y,1/2+z
1/2+x,1/2-y,1/2+z
1/2-x,1/2+y,z
loop_
_atom_site_type_symbol
_atom_site_label
_atom_site_fract_x
_atom_site_fract_y
_atom_site_fract_z
Si Si1 0.287683 0.257794 0.092620
Si Si2 0.279744 0.937758 0.993844
Si Si3 0.000000 0.062475 0.727940
Si Si4 0.225947 0.394906 0.751527
Si Si5 0.723613 0.862570 0.403005
O O1 0.500000 0.224996 0.090069
O O2 0.213462 0.199318 0.192343
O O3 0.305908 0.368479 0.081810
O O4 0.209981 0.219708 0.980330
O O5 0.500000 0.929953 0.011503
O O6 0.225858 0.895995 0.877588
O O7 0.238797 0.044956 0.974628
O O8 0.162912 0.981312 0.704520
O O9 0.159899 0.124604 0.795940
O O10 0.000000 0.409623 0.746315
O O11 0.500000 0.859337 0.381283
#
# Coordination Sequence:
#
# PCOD9350703 Si02
#       5
#     8   8   4   8   8
#     4  10  21  37  61  85 119 157 204 244 294 358
#     4   9  19  36  58  81 118 151 194 246 297 348
#     4  10  18  32  62  76 114 146 196 230 304 346
#     4   9  20  37  56  87 120 161 193 246 300 347
#     4   9  20  37  56  86 110 151 198 246 299 351
#
# _framework density 27.907892
#
# number of rings (size 3 to 8) (size 9 to 14) (size 15 to 20)
#    0.000    2.667    0.000    2.000    9.333    0.000 
#    0.000    4.444    4.889   10.667    0.000    0.000 
#    0.000    0.000    0.000    0.000    0.000    0.000 
#
# Total GULP energy -100216.896940 kJ/mol
# GULP energy per Si atom -5567.605386 kJ/mol
# Density = 2.784437 g / cm^3
# Si number density = 27.907892 Si / 1000 Ang^3
#
#
#
# Elastic Constant Matrix: (Units=GPa)
#
#
# Indices 1 2 3 4 5 6 
#
# 1 157.6600 -17.5071 -7.4979 0.0000 0.0000 0.0000
# 2 -17.5071 163.7304 9.0594 0.0000 0.0000 0.0000
# 3 -7.4979 9.0594 65.5672 0.0000 0.0000 0.0000
# 4 0.0000 0.0000 0.0000 9.4021 0.0000 0.0000
# 5 0.0000 0.0000 0.0000 0.0000 -111.8727 0.0000
# 6 0.0000 0.0000 0.0000 0.0000 0.0000 67.1715
#
#
#
# Elastic Compliance Matrix: (Units=1/GPa)
#
#
# Indices 1 2 3 4 5 6 
#
# 1 0.006446 0.000653 0.000647 0.000000 0.000000 0.000000
# 2 0.000653 0.006221 -0.000785 0.000000 0.000000 0.000000
# 3 0.000647 -0.000785 0.015434 0.000000 0.000000 0.000000
# 4 0.000000 0.000000 0.000000 0.106360 0.000000 0.000000
# 5 0.000000 0.000000 0.000000 0.000000 -0.008939 0.000000
# 6 0.000000 0.000000 0.000000 0.000000 0.000000 0.014887
#
#
# Mechanical properties :
#
#
# Convention : Reuss Voigt Hill
#
# Bulk Modulus (GPa) = 34.32662 39.45183 36.88922
# Shear Modulus (GPa) = 33.53710 19.80038 26.66874
#
# Velocity S-wave (km/s) = 3.47032 2.66652 3.09463
# Velocity P-wave (km/s) = 5.32768 4.86287 5.10058
#
# Compressibility (1/GPa) = 0.02913191
#
# Stress axis : x y z
#
# Youngs Moduli (GPa) = 155.13288 160.74842 64.79232
#
# Poissons Ratio (x) = -0.10504 -0.04191
# Poissons Ratio (y) = -0.10137 0.05085
# Poissons Ratio (z) = -0.10035 0.12616
#
# Static dielectric constant tensor:
#      x y z
#    x 2.206400 0.000000 0.000000 
#    y 0.000000 2.259900 0.000000 
#    z 0.000000 0.000000 2.374720 
# 
# From -- ./inp_files/10030.got.cif
#   From: 2010.05.17/outbox.cif.g08.bks.cpg/sg36_6_cif.got.tgz:10030.got - 2010.06.03 17:41:39.
