data_PCOD9350216
_publ_section_title
;
Structure prediction by ZEFSAII (Michael W. Deem and Ramdas Pophale) SiO2 
 PCOD9350216
Probable space group: C M M 2
;
_chemical_formula_sum "Si O2"
_cell_formula_units_Z 40
_cell_length_a 30.349096
_cell_length_b 8.038451
_cell_length_c 7.788019
_cell_angle_alpha 90.000000
_cell_angle_beta 90.000000
_cell_angle_gamma 90.000000
_cell_volume 1899.962943
_symmetry_space_group_name_H-M "C M M 2"
_symmetry_group_IT_number 35
_symmetry_cell_setting 'orthorhombic'
loop_
_space_group_symop_operation_xyz
x,y,z
-x,-y,z
-x,y,z
x,-y,z
1/2+x,1/2+y,z
1/2-x,1/2-y,z
1/2-x,1/2+y,z
1/2+x,1/2-y,z
loop_
_atom_site_type_symbol
_atom_site_label
_atom_site_fract_x
_atom_site_fract_y
_atom_site_fract_z
Si Si1 0.549812 0.500000 0.493621
Si Si2 0.549342 0.500000 0.085683
Si Si3 0.108475 0.318599 0.581958
Si Si4 0.297976 0.691396 0.564860
Si Si5 0.204437 0.698073 0.958143
Si Si6 0.608939 0.187337 0.995518
O O1 0.500000 0.500000 0.565966
O O2 0.546441 0.500000 0.289681
O O3 0.577039 0.664703 0.541676
O O4 0.500000 0.500000 0.011818
O O5 0.575410 0.333227 0.036675
O O6 0.092060 0.500000 0.524206
O O7 0.158089 0.289830 0.512725
O O8 0.111976 0.322217 0.788739
O O9 0.304475 0.500000 0.520628
O O10 0.250000 0.750000 0.502777
O O11 0.296171 0.709939 0.773596
O O12 0.205008 0.500000 0.924426
O O13 0.250000 0.750000 0.046246
O O14 0.158649 0.733257 0.053509
O O15 0.597583 0.000000 0.056959
#
# Coordination Sequence:
#
# PCOD9350216 Si02
#       6
#     4   4   8   8   8   8
#     4  11  25  43  59  83 111 151 203 241 294 355
#     4  11  25  41  61  81 109 155 199 241 290 349
#     4  10  20  37  60  89 119 148 189 242 293 343
#     4  10  16  25  46  81 119 150 182 225 277 338
#     4   9  16  25  44  80 116 148 182 222 277 336
#     4   9  20  36  58  89 118 145 187 239 291 340
#
# _framework density 21.053042999999999
#
# number of rings (size 3 to 8) (size 9 to 14) (size 15 to 20)
#    0.000    2.200    1.000    5.400    5.600    3.200 
#    0.000    4.000    0.000    1.200    0.000    0.000 
#    0.000    0.000    0.000    0.000    0.000    0.000 
#
# Total GULP energy -111614.896084 kJ/mol
# GULP energy per Si atom -5580.744804 kJ/mol
# Density = 2.100513 g / cm^3
# Si number density = 21.053043 Si / 1000 Ang^3
#
#
#
# Elastic Constant Matrix: (Units=GPa)
#
#
# Indices 1 2 3 4 5 6 
#
# 1 193.5106 105.7573 10.2999 0.0000 0.0000 0.0000
# 2 105.7573 170.8257 6.8232 0.0000 0.0000 0.0000
# 3 10.2999 6.8232 28.2276 0.0000 0.0000 0.0000
# 4 0.0000 0.0000 0.0000 -26.9332 0.0000 0.0000
# 5 0.0000 0.0000 0.0000 0.0000 39.6177 0.0000
# 6 0.0000 0.0000 0.0000 0.0000 0.0000 35.7113
#
#
#
# Elastic Compliance Matrix: (Units=1/GPa)
#
#
# Indices 1 2 3 4 5 6 
#
# 1 0.007892 -0.004817 -0.001715 0.000000 0.000000 0.000000
# 2 -0.004817 0.008851 -0.000382 0.000000 0.000000 0.000000
# 3 -0.001715 -0.000382 0.036144 0.000000 0.000000 0.000000
# 4 0.000000 0.000000 0.000000 -0.037129 0.000000 0.000000
# 5 0.000000 0.000000 0.000000 0.000000 0.025241 0.000000
# 6 0.000000 0.000000 0.000000 0.000000 0.000000 0.028002
#
#
# Mechanical properties :
#
#
# Convention : Reuss Voigt Hill
#
# Bulk Modulus (GPa) = 25.60218 70.92498 48.26358
# Shear Modulus (GPa) = 52.16467 27.65806 39.91137
#
# Velocity S-wave (km/s) = 4.98312 3.62848 4.35875
# Velocity P-wave (km/s) = 6.73022 7.16354 6.95026
#
# Compressibility (1/GPa) = 0.03905918
#
# Stress axis : x y z
#
# Youngs Moduli (GPa) = 126.71624 112.97568 27.66678
#
# Poissons Ratio (x) = 0.54422 0.04745
# Poissons Ratio (y) = 0.61041 0.01057
# Poissons Ratio (z) = 0.21734 0.04314
#
# Static dielectric constant tensor:
#      x y z
#    x 1.812700 0.000000 0.000000 
#    y 0.000000 1.794520 0.000000 
#    z 0.000000 0.000000 1.771900 
# 
# From -- ./inp_files/10073.got.cif
#   From: 2010.05.17/outbox.cif.g08.bks.cpg/sg35_6_cif.got.tgz:10073.got - 2010.06.03 17:29:28.
