data_PCOD9350745
_publ_section_title
;
Structure prediction by ZEFSAII (Michael W. Deem and Ramdas Pophale) SiO2 
 PCOD9350745
Probable space group: C M C 21
;
_chemical_formula_sum "Si O2"
_cell_formula_units_Z 64
_cell_length_a 8.738344
_cell_length_b 21.113331
_cell_length_c 19.862330
_cell_angle_alpha 90.000000
_cell_angle_beta 90.000000
_cell_angle_gamma 90.000000
_cell_volume 3664.511483
_symmetry_space_group_name_H-M "C M C 21"
_symmetry_group_IT_number 36
_symmetry_cell_setting 'orthorhombic'
loop_
_space_group_symop_operation_xyz
x,y,z
-x,-y,1/2+z
x,-y,1/2+z
-x,y,z
1/2+x,1/2+y,z
1/2-x,1/2-y,1/2+z
1/2+x,1/2-y,1/2+z
1/2-x,1/2+y,z
loop_
_atom_site_type_symbol
_atom_site_label
_atom_site_fract_x
_atom_site_fract_y
_atom_site_fract_z
Si Si1 0.816162 0.240208 0.000000
Si Si2 0.814894 0.933145 0.142938
Si Si3 0.815152 0.187764 0.141883
Si Si4 0.317330 0.888655 0.005287
Si Si5 0.817044 0.193129 0.722220
Si Si6 0.315511 0.611902 0.360306
Si Si7 0.182135 0.260649 0.356377
Si Si8 0.186560 0.060579 0.217817
O O1 0.772431 0.198278 0.064135
O O2 0.775862 0.313950 0.014322
O O3 0.000000 0.237515 0.991408
O O4 0.736334 0.221206 0.930834
O O5 0.752484 0.927002 0.067370
O O6 0.766869 0.870735 0.184433
O O7 0.000000 0.933840 0.139961
O O8 0.763555 0.995938 0.182432
O O9 0.749732 0.246263 0.183733
O O10 0.765684 0.121591 0.174251
O O11 0.000000 0.190782 0.146043
O O12 0.500000 0.893374 0.006466
O O13 0.255683 0.907349 0.931656
O O14 0.760029 0.198412 0.798551
O O15 0.000000 0.195457 0.720635
O O16 0.500000 0.608840 0.365788
O O17 0.275483 0.686028 0.347564
O O18 0.265957 0.571780 0.295231
O O19 0.000000 0.265002 0.350250
O O20 0.000000 0.060228 0.218480
#
# Coordination Sequence:
#
# PCOD9350745 Si02
#       8
#     8   8   8   8   8   8   8   8
#     4   9  18  31  51  79 108 135 170 219 269 314
#     4  10  21  36  54  78 107 141 179 217 259 311
#     4  10  18  34  57  79 103 135 175 218 264 310
#     4  10  19  32  52  78 108 138 172 216 264 317
#     4  11  21  32  51  79 109 136 170 216 264 314
#     4   9  17  32  55  78 101 133 177 222 260 308
#     4  10  19  32  53  78 105 138 177 220 264 311
#     4   9  18  35  57  79 103 136 180 222 256 303
#
# _framework density 17.46481
#
# number of rings (size 3 to 8) (size 9 to 14) (size 15 to 20)
#    0.000    2.250    2.500    1.125    0.000    2.000 
#    0.000    2.500    0.000    7.500    0.000    0.000 
#    0.000    0.000    0.000    0.000    0.000    0.000 
#
# Total GULP energy -178532.786076 kJ/mol
# GULP energy per Si atom -5579.149565 kJ/mol
# Density = 1.742506 g / cm^3
# Si number density = 17.464810 Si / 1000 Ang^3
#
#
#
# Elastic Constant Matrix: (Units=GPa)
#
#
# Indices 1 2 3 4 5 6 
#
# 1 10.0690 21.8081 31.3345 0.0000 0.0000 0.0000
# 2 21.8081 107.3004 81.0684 0.0000 0.0000 0.0000
# 3 31.3345 81.0684 174.5860 0.0000 0.0000 0.0000
# 4 0.0000 0.0000 0.0000 28.8849 0.0000 0.0000
# 5 0.0000 0.0000 0.0000 0.0000 30.8811 0.0000
# 6 0.0000 0.0000 0.0000 0.0000 0.0000 16.3445
#
#
#
# Elastic Compliance Matrix: (Units=1/GPa)
#
#
# Indices 1 2 3 4 5 6 
#
# 1 0.271090 -0.028247 -0.035539 0.000000 0.000000 0.000000
# 2 -0.028247 0.017299 -0.002963 0.000000 0.000000 0.000000
# 3 -0.035539 -0.002963 0.013482 0.000000 0.000000 0.000000
# 4 0.000000 0.000000 0.000000 0.034620 0.000000 0.000000
# 5 0.000000 0.000000 0.000000 0.000000 0.032382 0.000000
# 6 0.000000 0.000000 0.000000 0.000000 0.000000 0.061183
#
#
# Mechanical properties :
#
#
# Convention : Reuss Voigt Hill
#
# Bulk Modulus (GPa) = 5.93915 62.26414 34.10164
# Shear Modulus (GPa) = 8.06869 25.73839 16.90354
#
# Velocity S-wave (km/s) = 2.15174 3.84308 3.11442
# Velocity P-wave (km/s) = 3.09538 7.44453 5.70098
#
# Compressibility (1/GPa) = 0.16837430
#
# Stress axis : x y z
#
# Youngs Moduli (GPa) = 3.68881 57.80544 74.17182
#
# Poissons Ratio (x) = 1.63283 2.63596
# Poissons Ratio (y) = 0.10420 0.21979
# Poissons Ratio (z) = 0.13110 0.17129
#
# Static dielectric constant tensor:
#      x y z
#    x 1.585690 0.000000 0.000000 
#    y 0.000000 1.579120 0.000000 
#    z 0.000000 0.000000 1.592610 
# 
# From -- ./inp_files/13804.got.cif
#   From: 2010.05.17/outbox.cif.g08.bks.cpg/sg36_7_cif.got.tgz:13804.got - 2010.06.03 17:41:39.
