data_PCOD9350288
_publ_section_title
;
Structure prediction by ZEFSAII (Michael W. Deem and Ramdas Pophale) SiO2 
 PCOD9350288
Probable space group: C M M 2
;
_chemical_formula_sum "Si O2"
_cell_formula_units_Z 64
_cell_length_a 20.683247
_cell_length_b 15.053428
_cell_length_c 10.332523
_cell_angle_alpha 90.000000
_cell_angle_beta 90.000000
_cell_angle_gamma 90.000000
_cell_volume 3217.069985
_symmetry_space_group_name_H-M "C M M 2"
_symmetry_group_IT_number 35
_symmetry_cell_setting 'orthorhombic'
loop_
_space_group_symop_operation_xyz
x,y,z
-x,-y,z
-x,y,z
x,-y,z
1/2+x,1/2+y,z
1/2-x,1/2-y,z
1/2-x,1/2+y,z
1/2+x,1/2-y,z
loop_
_atom_site_type_symbol
_atom_site_label
_atom_site_fract_x
_atom_site_fract_y
_atom_site_fract_z
Si Si1 0.658065 0.602566 0.776760
Si Si2 0.572695 0.390934 0.005982
Si Si3 0.572955 0.894140 0.323973
Si Si4 0.803447 0.608161 0.825376
Si Si5 0.177289 0.608850 0.117315
Si Si6 0.831325 0.654049 0.546463
Si Si7 0.813316 0.861220 0.497117
Si Si8 0.818872 0.895534 0.203437
O O1 0.664200 0.500000 0.815572
O O2 0.729030 0.641054 0.808653
O O3 0.648901 0.605004 0.623068
O O4 0.601288 0.637890 0.866788
O O5 0.500000 0.359070 0.027529
O O6 0.569822 0.500000 0.010521
O O7 0.624727 0.359966 0.111920
O O8 0.500000 0.857628 0.323905
O O9 0.619972 0.859351 0.210426
O O10 0.610864 0.880193 0.458353
O O11 0.568277 0.000000 0.304650
O O12 0.804132 0.500000 0.818201
O O13 0.840931 0.643035 0.699739
O O14 0.828126 0.634116 0.966906
O O15 0.177018 0.500000 0.121598
O O16 0.247053 0.639684 0.171771
O O17 0.819869 0.755911 0.510587
O O18 0.761825 0.609230 0.513570
O O19 0.834593 0.886649 0.354354
O O20 0.814778 0.000000 0.172820
#
# Coordination Sequence:
#
# PCOD9350288 Si02
#       8
#     8   8   8   8   8   8   8   8
#     4   9  16  29  49  74 101 133 173 215 257 308
#     4   9  17  30  49  74 104 133 165 212 264 309
#     4  10  20  35  56  80 107 140 175 217 274 328
#     4   9  16  29  53  79 100 128 170 218 265 308
#     4   9  16  29  52  80 103 127 170 223 267 311
#     4  10  20  34  50  74 108 137 171 220 261 317
#     4  10  20  32  51  75 105 136 178 220 261 305
#     4  10  17  30  53  79 103 132 174 222 261 305
#
# _framework density 19.893879999999999
#
# number of rings (size 3 to 8) (size 9 to 14) (size 15 to 20)
#    0.000    2.500    2.500    0.750    0.000    1.000 
#    0.000    3.750    2.750    5.250    0.000    0.000 
#    0.000    0.000    0.000    0.000    0.000    0.000 
#
# Total GULP energy -178461.096033 kJ/mol
# GULP energy per Si atom -5576.909251 kJ/mol
# Density = 1.984860 g / cm^3
# Si number density = 19.893880 Si / 1000 Ang^3
#
#
#
# Elastic Constant Matrix: (Units=GPa)
#
#
# Indices 1 2 3 4 5 6 
#
# 1 146.7503 8.5119 99.0703 0.0000 0.0000 0.0000
# 2 8.5119 27.6773 -9.8132 0.0000 0.0000 0.0000
# 3 99.0703 -9.8132 169.2057 0.0000 0.0000 0.0000
# 4 0.0000 0.0000 0.0000 -75.3933 0.0000 0.0000
# 5 0.0000 0.0000 0.0000 0.0000 21.5739 0.0000
# 6 0.0000 0.0000 0.0000 0.0000 0.0000 145.8795
#
#
#
# Elastic Compliance Matrix: (Units=1/GPa)
#
#
# Indices 1 2 3 4 5 6 
#
# 1 0.012308 -0.006474 -0.007582 0.000000 0.000000 0.000000
# 2 -0.006474 0.040294 0.006127 0.000000 0.000000 0.000000
# 3 -0.007582 0.006127 0.010705 0.000000 0.000000 0.000000
# 4 0.000000 0.000000 0.000000 -0.013264 0.000000 0.000000
# 5 0.000000 0.000000 0.000000 0.000000 0.046352 0.000000
# 6 0.000000 0.000000 0.000000 0.000000 0.000000 0.006855
#
#
# Mechanical properties :
#
#
# Convention : Reuss Voigt Hill
#
# Bulk Modulus (GPa) = 21.07475 59.90793 40.49134
# Shear Modulus (GPa) = 37.05788 34.80298 35.93043
#
# Velocity S-wave (km/s) = 4.32067 4.18716 4.25444
# Velocity P-wave (km/s) = 5.95882 7.31816 6.67319
#
# Compressibility (1/GPa) = 0.04745015
#
# Stress axis : x y z
#
# Youngs Moduli (GPa) = 81.24555 24.81757 93.41774
#
# Poissons Ratio (x) = 0.16066 0.70829
# Poissons Ratio (y) = 0.52595 -0.57239
# Poissons Ratio (z) = 0.61601 -0.15206
#
# Static dielectric constant tensor:
#      x y z
#    x 1.693990 0.000000 0.000000 
#    y 0.000000 1.826490 0.000000 
#    z 0.000000 0.000000 1.703550 
# 
# From -- ./inp_files/8735.got.cif
#   From: 2010.05.17/outbox.cif.g08.bks.cpg/sg35_5_cif.got.tgz:8735.got - 2010.06.03 17:29:28.
