data_PCOD9350139
_publ_section_title
;
Structure prediction by ZEFSAII (Michael W. Deem and Ramdas Pophale) SiO2 
 PCOD9350139
Probable space group: C M M 2
;
_chemical_formula_sum "Si O2"
_cell_formula_units_Z 48
_cell_length_a 23.746252
_cell_length_b 11.341037
_cell_length_c 7.016501
_cell_angle_alpha 90.000000
_cell_angle_beta 90.000000
_cell_angle_gamma 90.000000
_cell_volume 1889.593695
_symmetry_space_group_name_H-M "C M M 2"
_symmetry_group_IT_number 35
_symmetry_cell_setting 'orthorhombic'
loop_
_space_group_symop_operation_xyz
x,y,z
-x,-y,z
-x,y,z
x,-y,z
1/2+x,1/2+y,z
1/2-x,1/2-y,z
1/2-x,1/2+y,z
1/2+x,1/2-y,z
loop_
_atom_site_type_symbol
_atom_site_label
_atom_site_fract_x
_atom_site_fract_y
_atom_site_fract_z
Si Si1 0.594988 0.126694 0.133040
Si Si2 0.246648 0.874382 0.537269
Si Si3 0.616680 0.627239 0.594987
Si Si4 0.063246 0.873101 0.188973
Si Si5 0.718015 0.129229 0.953658
Si Si6 0.432165 0.871559 0.581822
O O1 0.568597 0.251789 0.076182
O O2 0.589354 0.126782 0.362789
O O3 0.569415 0.000000 0.074676
O O4 0.658578 0.129745 0.059416
O O5 0.250000 0.750000 0.429757
O O6 0.183494 0.876162 0.620956
O O7 0.286721 0.868962 0.722145
O O8 0.256856 0.000000 0.437919
O O9 0.593270 0.500000 0.660750
O O10 0.605655 0.628527 0.366513
O O11 0.591129 0.749793 0.666262
O O12 0.000000 0.872066 0.272279
O O13 0.070602 0.000000 0.090321
O O14 0.750000 0.250000 0.000738
O O15 0.745400 0.000000 0.993468
O O16 0.500000 0.866206 0.579632
O O17 0.415419 0.000000 0.663082
#
# Coordination Sequence:
#
# PCOD9350139 Si02
#       6
#     8   8   8   8   8   8
#     4   9  16  27  45  68  94 125 158 192 234 282
#     4   9  18  32  48  66  89 121 163 205 240 275
#     4   9  16  27  45  68  94 125 158 192 234 282
#     4   9  17  29  46  71 101 128 154 188 233 285
#     4   9  18  32  48  66  89 121 163 205 240 275
#     4   9  17  29  46  71 101 128 154 188 233 285
#
# _framework density 25.402286
#
# number of rings (size 3 to 8) (size 9 to 14) (size 15 to 20)
#    0.000    3.000    0.000    2.000    0.000    3.333 
#    0.000    3.333    0.000   18.000    0.000   18.667 
#    0.000   32.000    0.000    0.000    0.000    0.000 
#
# Total GULP energy -133891.370938 kJ/mol
# GULP energy per Si atom -5578.807122 kJ/mol
# Density = 2.534447 g / cm^3
# Si number density = 25.402286 Si / 1000 Ang^3
#
#
#
# Elastic Constant Matrix: (Units=GPa)
#
#
# Indices 1 2 3 4 5 6 
#
# 1 68.7492 43.8804 -1.4652 0.0000 0.0000 0.0000
# 2 43.8804 369.7121 2.5989 0.0000 0.0000 0.0000
# 3 -1.4652 2.5989 94.3161 0.0000 0.0000 0.0000
# 4 0.0000 0.0000 0.0000 -26.1310 0.0000 0.0000
# 5 0.0000 0.0000 0.0000 0.0000 38.0657 0.0000
# 6 0.0000 0.0000 0.0000 0.0000 0.0000 43.2693
#
#
#
# Elastic Compliance Matrix: (Units=1/GPa)
#
#
# Indices 1 2 3 4 5 6 
#
# 1 0.015746 -0.001871 0.000296 0.000000 0.000000 0.000000
# 2 -0.001871 0.002928 -0.000110 0.000000 0.000000 0.000000
# 3 0.000296 -0.000110 0.010610 0.000000 0.000000 0.000000
# 4 0.000000 0.000000 0.000000 -0.038269 0.000000 0.000000
# 5 0.000000 0.000000 0.000000 0.000000 0.026270 0.000000
# 6 0.000000 0.000000 0.000000 0.000000 0.000000 0.023111
#
#
# Mechanical properties :
#
#
# Convention : Reuss Voigt Hill
#
# Bulk Modulus (GPa) = 38.58773 69.20062 53.89417
# Shear Modulus (GPa) = 95.41237 43.55835 69.48536
#
# Velocity S-wave (km/s) = 6.13531 4.14544 5.23578
# Velocity P-wave (km/s) = 8.08784 7.08618 7.60352
#
# Compressibility (1/GPa) = 0.02591497
#
# Stress axis : x y z
#
# Youngs Moduli (GPa) = 63.50778 341.57223 94.24829
#
# Poissons Ratio (x) = 0.63907 -0.02791
# Poissons Ratio (y) = 0.11882 0.01034
# Poissons Ratio (z) = -0.01881 0.03748
#
# Static dielectric constant tensor:
#      x y z
#    x 1.691510 0.000000 0.000000 
#    y 0.000000 2.113290 0.000000 
#    z 0.000000 0.000000 1.933230 
# 
# From -- ./inp_files/9756.got.cif
#   From: 2010.05.17/outbox.cif.g08.bks.cpg/sg35_5_cif.got.tgz:9756.got - 2010.06.03 17:29:28.
