data_PCOD9350273
_publ_section_title
;
Structure prediction by ZEFSAII (Michael W. Deem and Ramdas Pophale) SiO2 
 PCOD9350273
Probable space group: C M M 2
;
_chemical_formula_sum "Si O2"
_cell_formula_units_Z 56
_cell_length_a 26.901827
_cell_length_b 14.239241
_cell_length_c 9.644703
_cell_angle_alpha 90.000000
_cell_angle_beta 90.000000
_cell_angle_gamma 90.000000
_cell_volume 3694.515343
_symmetry_space_group_name_H-M "C M M 2"
_symmetry_group_IT_number 35
_symmetry_cell_setting 'orthorhombic'
loop_
_space_group_symop_operation_xyz
x,y,z
-x,-y,z
-x,y,z
x,-y,z
1/2+x,1/2+y,z
1/2-x,1/2-y,z
1/2-x,1/2+y,z
1/2+x,1/2-y,z
loop_
_atom_site_type_symbol
_atom_site_label
_atom_site_fract_x
_atom_site_fract_y
_atom_site_fract_z
Si Si1 0.331599 0.287727 0.279320
Si Si2 0.727564 0.891818 0.327851
Si Si3 0.631778 0.714607 0.585441
Si Si4 0.138313 0.888495 0.010379
Si Si5 0.312748 0.892093 0.642476
Si Si6 0.557943 0.611472 0.774317
Si Si7 0.212957 0.112757 0.770442
O O1 0.310241 0.182427 0.259333
O O2 0.282829 0.352861 0.303183
O O3 0.363255 0.290271 0.420466
O O4 0.360322 0.327650 0.148001
O O5 0.714332 0.887613 0.491911
O O6 0.723061 0.000000 0.282933
O O7 0.641704 0.821047 0.634660
O O8 0.582832 0.669584 0.650257
O O9 0.678291 0.658447 0.653159
O O10 0.138961 0.000000 0.042387
O O11 0.091353 0.869994 0.910485
O O12 0.187086 0.866750 0.916972
O O13 0.270287 0.860208 0.750613
O O14 0.326471 0.000000 0.668582
O O15 0.500000 0.631850 0.794069
O O16 0.563455 0.500000 0.745084
O O17 0.210934 0.000000 0.751255
#
# Coordination Sequence:
#
# PCOD9350273 Si02
#       7
#     8   8   8   8   8   8   8
#     4  10  18  28  44  68  94 124 158 186 222 266
#     4   9  17  28  42  63  97 132 155 182 217 258
#     4  10  17  28  48  70  90 118 157 193 227 269
#     4   9  18  30  45  66  92 123 154 187 230 275
#     4   9  16  27  44  66  94 127 157 184 217 261
#     4   9  19  36  53  68  88 116 151 193 243 287
#     4   9  16  27  43  64  92 127 157 181 217 266
#
# _framework density 15.157603999999999
#
# number of rings (size 3 to 8) (size 9 to 14) (size 15 to 20)
#    0.000    2.714    1.429    2.143    0.000    1.714 
#   10.286    0.714    0.000    2.143    0.000    0.000 
#    0.000    1.143    0.000    0.000    0.000    0.000 
#
# Total GULP energy -156033.085081 kJ/mol
# GULP energy per Si atom -5572.610181 kJ/mol
# Density = 1.512310 g / cm^3
# Si number density = 15.157604 Si / 1000 Ang^3
#
#
#
# Elastic Constant Matrix: (Units=GPa)
#
#
# Indices 1 2 3 4 5 6 
#
# 1 78.2710 42.7386 43.8499 0.0000 0.0000 0.0000
# 2 42.7386 83.3347 47.9423 0.0000 0.0000 0.0000
# 3 43.8499 47.9423 72.1265 0.0000 0.0000 0.0000
# 4 0.0000 0.0000 0.0000 19.5043 0.0000 0.0000
# 5 0.0000 0.0000 0.0000 0.0000 10.0505 0.0000
# 6 0.0000 0.0000 0.0000 0.0000 0.0000 20.1776
#
#
#
# Elastic Compliance Matrix: (Units=1/GPa)
#
#
# Indices 1 2 3 4 5 6 
#
# 1 0.020823 -0.005499 -0.009005 0.000000 0.000000 0.000000
# 2 -0.005499 0.020882 -0.010537 0.000000 0.000000 0.000000
# 3 -0.009005 -0.010537 0.026343 0.000000 0.000000 0.000000
# 4 0.000000 0.000000 0.000000 0.051271 0.000000 0.000000
# 5 0.000000 0.000000 0.000000 0.000000 0.099497 0.000000
# 6 0.000000 0.000000 0.000000 0.000000 0.000000 0.049560
#
#
# Mechanical properties :
#
#
# Convention : Reuss Voigt Hill
#
# Bulk Modulus (GPa) = 55.65763 55.86599 55.76181
# Shear Modulus (GPa) = 15.41087 16.55992 15.98539
#
# Velocity S-wave (km/s) = 3.19205 3.30891 3.25100
# Velocity P-wave (km/s) = 7.09821 7.17881 7.13862
#
# Compressibility (1/GPa) = 0.01796699
#
# Stress axis : x y z
#
# Youngs Moduli (GPa) = 48.02279 47.88827 37.96109
#
# Poissons Ratio (x) = 0.26334 0.34182
# Poissons Ratio (y) = 0.26408 0.39999
# Poissons Ratio (z) = 0.43242 0.50460
#
# Static dielectric constant tensor:
#      x y z
#    x 1.483750 0.000000 0.000000 
#    y 0.000000 1.527330 0.000000 
#    z 0.000000 0.000000 1.504790 
# 
# From -- ./inp_files/7965.got.cif
#   From: 2010.05.17/outbox.cif.g08.bks.cpg/sg35_4_cif.got.tgz:7965.got - 2010.06.03 17:29:28.
