data_PCOD9350238
_publ_section_title
;
Structure prediction by ZEFSAII (Michael W. Deem and Ramdas Pophale) SiO2 
 PCOD9350238
Probable space group: C M M 2
;
_chemical_formula_sum "Si O2"
_cell_formula_units_Z 56
_cell_length_a 27.316981
_cell_length_b 15.936137
_cell_length_c 7.964852
_cell_angle_alpha 90.000000
_cell_angle_beta 90.000000
_cell_angle_gamma 90.000000
_cell_volume 3467.316334
_symmetry_space_group_name_H-M "C M M 2"
_symmetry_group_IT_number 35
_symmetry_cell_setting 'orthorhombic'
loop_
_space_group_symop_operation_xyz
x,y,z
-x,-y,z
-x,y,z
x,-y,z
1/2+x,1/2+y,z
1/2-x,1/2-y,z
1/2-x,1/2+y,z
1/2+x,1/2-y,z
loop_
_atom_site_type_symbol
_atom_site_label
_atom_site_fract_x
_atom_site_fract_y
_atom_site_fract_z
Si Si1 0.553202 0.901347 0.682990
Si Si2 0.444822 0.097161 0.087567
Si Si3 0.737362 0.601159 0.693148
Si Si4 0.151857 0.326125 0.219151
Si Si5 0.343049 0.902119 0.569734
Si Si6 0.793668 0.181360 0.365150
Si Si7 0.756900 0.598327 0.060811
O O1 0.500000 0.865847 0.630716
O O2 0.604161 0.864118 0.616869
O O3 0.552532 0.000000 0.632405
O O4 0.555350 0.899642 0.885096
O O5 0.500000 0.117604 0.144521
O O6 0.402155 0.155289 0.155765
O O7 0.434705 0.000000 0.135768
O O8 0.735355 0.500000 0.672629
O O9 0.793397 0.630094 0.654314
O O10 0.703892 0.642073 0.549774
O O11 0.729221 0.621206 0.888289
O O12 0.162869 0.390119 0.371744
O O13 0.160713 0.234399 0.296775
O O14 0.193445 0.347758 0.082234
O O15 0.345197 0.000000 0.616457
O O16 0.750000 0.250000 0.370327
O O17 0.776080 0.115910 0.223992
O O18 0.770076 0.500000 0.050037
#
# Coordination Sequence:
#
# PCOD9350238 Si02
#       7
#     8   8   8   8   8   8   8
#     4   8  15  27  41  61  87 117 161 206 233 259
#     4   9  17  30  47  65  90 127 169 202 225 266
#     4  10  19  32  49  64  86 123 162 199 236 279
#     4  11  20  30  42  69  97 124 155 197 241 280
#     4  10  17  26  42  61  85 120 158 196 231 270
#     4  10  20  32  43  66  96 122 153 195 238 285
#     4  10  19  32  50  67  88 123 163 198 233 278
#
# _framework density 16.150818999999998
#
# number of rings (size 3 to 8) (size 9 to 14) (size 15 to 20)
#    0.000    2.286    2.857    3.429    0.000    4.571 
#    2.571    1.429    0.000    0.000    0.000    0.000 
#    0.000    2.286    0.000    3.143    0.000    0.000 
#
# Total GULP energy -155958.275050 kJ/mol
# GULP energy per Si atom -5569.938395 kJ/mol
# Density = 1.611406 g / cm^3
# Si number density = 16.150819 Si / 1000 Ang^3
#
#
#
# Elastic Constant Matrix: (Units=GPa)
#
#
# Indices 1 2 3 4 5 6 
#
# 1 73.6234 24.7886 18.9317 0.0000 0.0000 0.0000
# 2 24.7886 34.8507 22.5960 0.0000 0.0000 0.0000
# 3 18.9317 22.5960 78.7619 0.0000 0.0000 0.0000
# 4 0.0000 0.0000 0.0000 14.8139 0.0000 0.0000
# 5 0.0000 0.0000 0.0000 0.0000 20.6657 0.0000
# 6 0.0000 0.0000 0.0000 0.0000 0.0000 20.0098
#
#
#
# Elastic Compliance Matrix: (Units=1/GPa)
#
#
# Indices 1 2 3 4 5 6 
#
# 1 0.017901 -0.012215 -0.000798 0.000000 0.000000 0.000000
# 2 -0.012215 0.043586 -0.009568 0.000000 0.000000 0.000000
# 3 -0.000798 -0.009568 0.015633 0.000000 0.000000 0.000000
# 4 0.000000 0.000000 0.000000 0.067504 0.000000 0.000000
# 5 0.000000 0.000000 0.000000 0.000000 0.048389 0.000000
# 6 0.000000 0.000000 0.000000 0.000000 0.000000 0.049976
#
#
# Mechanical properties :
#
#
# Convention : Reuss Voigt Hill
#
# Bulk Modulus (GPa) = 31.29214 35.54097 33.41656
# Shear Modulus (GPa) = 16.73339 19.15919 17.94629
#
# Velocity S-wave (km/s) = 3.22230 3.44796 3.33704
# Velocity P-wave (km/s) = 5.76726 6.15668 5.96515
#
# Compressibility (1/GPa) = 0.03195691
#
# Stress axis : x y z
#
# Youngs Moduli (GPa) = 55.86421 22.94332 63.96537
#
# Poissons Ratio (x) = 0.28024 0.05107
# Poissons Ratio (y) = 0.68236 0.61204
# Poissons Ratio (z) = 0.04460 0.21953
#
# Static dielectric constant tensor:
#      x y z
#    x 1.566770 0.000000 0.000000 
#    y 0.000000 1.552780 0.000000 
#    z 0.000000 0.000000 1.591580 
# 
# From -- ./inp_files/10649.got.cif
#   From: 2010.05.17/outbox.cif.g08.bks.cpg/sg35_6_cif.got.tgz:10649.got - 2010.06.03 17:29:28.
