data_PCOD9350138
_publ_section_title
;
Structure prediction by ZEFSAII (Michael W. Deem and Ramdas Pophale) SiO2 
 PCOD9350138
Probable space group: C M M 2
;
_chemical_formula_sum "Si O2"
_cell_formula_units_Z 48
_cell_length_a 7.508276
_cell_length_b 16.717563
_cell_length_c 18.664247
_cell_angle_alpha 90.000000
_cell_angle_beta 90.000000
_cell_angle_gamma 90.000000
_cell_volume 2342.737722
_symmetry_space_group_name_H-M "C M M 2"
_symmetry_group_IT_number 35
_symmetry_cell_setting 'orthorhombic'
loop_
_space_group_symop_operation_xyz
x,y,z
-x,-y,z
-x,y,z
x,-y,z
1/2+x,1/2+y,z
1/2-x,1/2-y,z
1/2-x,1/2+y,z
1/2+x,1/2-y,z
loop_
_atom_site_type_symbol
_atom_site_label
_atom_site_fract_x
_atom_site_fract_y
_atom_site_fract_z
Si Si1 0.713258 0.344695 0.480170
Si Si2 0.000000 0.598026 0.742812
Si Si3 0.713057 0.343901 0.325987
Si Si4 0.783138 0.092847 0.174500
Si Si5 0.296892 0.403910 0.632860
Si Si6 0.000000 0.597738 0.906830
Si Si7 0.705296 0.402014 0.018559
O O1 0.500000 0.357329 0.479668
O O2 0.750000 0.250000 0.482684
O O3 0.780102 0.376441 0.402883
O O4 0.777791 0.381264 0.554575
O O5 0.171437 0.624025 0.697052
O O6 0.000000 0.624914 0.824894
O O7 0.000000 0.500000 0.743591
O O8 0.500000 0.358300 0.324825
O O9 0.750000 0.250000 0.328958
O O10 0.783330 0.372142 0.249318
O O11 0.000000 0.098099 0.173795
O O12 0.735070 0.000000 0.175587
O O13 0.727812 0.126372 0.096980
O O14 0.500000 0.373626 0.639304
O O15 0.302989 0.500000 0.635900
O O16 0.170768 0.622839 0.953303
O O17 0.000000 0.500000 0.905408
O O18 0.500000 0.378477 0.008817
O O19 0.708455 0.500000 0.021464
#
# Coordination Sequence:
#
# PCOD9350138 Si02
#       7
#     8   4   8   8   8   4   8
#     4   9  18  30  47  69  92 123 160 198 235 275
#     4   9  18  30  46  69  97 127 152 189 242 287
#     4   9  17  30  45  65  94 122 155 195 231 273
#     4   8  14  26  45  66  90 122 158 193 229 271
#     4   9  18  32  48  69  98 126 157 195 237 287
#     4   9  16  26  42  67  95 121 151 185 232 287
#     4   8  14  25  41  63  92 122 152 190 230 271
#
# _framework density 20.488849999999999
#
# number of rings (size 3 to 8) (size 9 to 14) (size 15 to 20)
#    0.000    3.333    0.000    1.000    1.167    1.333 
#    1.500    6.667    0.000    0.000    0.000    1.167 
#    0.000    0.000    0.000    0.000    0.000    0.000 
#
# Total GULP energy -133681.077029 kJ/mol
# GULP energy per Si atom -5570.044876 kJ/mol
# Density = 2.044222 g / cm^3
# Si number density = 20.488850 Si / 1000 Ang^3
#
#
#
# Elastic Constant Matrix: (Units=GPa)
#
#
# Indices 1 2 3 4 5 6 
#
# 1 88.3357 2.8962 80.6954 0.0000 0.0000 0.0000
# 2 2.8962 -2.7310 20.6667 0.0000 0.0000 0.0000
# 3 80.6954 20.6667 268.4020 0.0000 0.0000 0.0000
# 4 0.0000 0.0000 0.0000 -145.3663 0.0000 0.0000
# 5 0.0000 0.0000 0.0000 0.0000 43.8740 0.0000
# 6 0.0000 0.0000 0.0000 0.0000 0.0000 7.8612
#
#
#
# Elastic Compliance Matrix: (Units=1/GPa)
#
#
# Indices 1 2 3 4 5 6 
#
# 1 0.015010 -0.011520 -0.003626 0.000000 0.000000 0.000000
# 2 -0.011520 -0.222515 0.020597 0.000000 0.000000 0.000000
# 3 -0.003626 0.020597 0.003230 0.000000 0.000000 0.000000
# 4 0.000000 0.000000 0.000000 -0.006879 0.000000 0.000000
# 5 0.000000 0.000000 0.000000 0.000000 0.022793 0.000000
# 6 0.000000 0.000000 0.000000 0.000000 0.000000 0.127207
#
#
# Mechanical properties :
#
#
# Convention : Reuss Voigt Hill
#
# Bulk Modulus (GPa) = -5.17136 62.50256 28.66560
# Shear Modulus (GPa) = -36.62645 -2.07633 -19.35139
#
# Velocity S-wave (km/s) = -4.23262 -1.00777 -3.07658
# Velocity P-wave (km/s) = 5.13967 5.40534 1.18353
#
# Compressibility (1/GPa) = -0.19337269
#
# Stress axis : x y z
#
# Youngs Moduli (GPa) = 66.62053 -4.49408 309.60412
#
# Poissons Ratio (x) = -0.05177 1.12258
# Poissons Ratio (y) = 0.76748 -6.37690
# Poissons Ratio (z) = 0.24156 0.09256
#
# Static dielectric constant tensor:
#      x y z
#    x 1.775310 0.000000 0.000000 
#    y 0.000000 1.714060 0.000000 
#    z 0.000000 0.000000 1.760860 
# 
# From -- ./inp_files/15212.got.cif
#   From: 2010.05.17/outbox.cif.g08.bks.cpg/sg35_8_cif.got.tgz:15212.got - 2010.06.03 17:29:28.
