data_PCOD9350988
_publ_section_title
;
Structure prediction by ZEFSAII (Michael W. Deem and Ramdas Pophale) SiO2 
 PCOD9350988
Probable space group: C M C 21
;
_chemical_formula_sum "Si O2"
_cell_formula_units_Z 64
_cell_length_a 8.210236
_cell_length_b 23.688654
_cell_length_c 16.489479
_cell_angle_alpha 90.000000
_cell_angle_beta 90.000000
_cell_angle_gamma 90.000000
_cell_volume 3207.029534
_symmetry_space_group_name_H-M "C M C 21"
_symmetry_group_IT_number 36
_symmetry_cell_setting 'orthorhombic'
loop_
_space_group_symop_operation_xyz
x,y,z
-x,-y,1/2+z
x,-y,1/2+z
-x,y,z
1/2+x,1/2+y,z
1/2-x,1/2-y,1/2+z
1/2+x,1/2-y,1/2+z
1/2-x,1/2+y,z
loop_
_atom_site_type_symbol
_atom_site_label
_atom_site_fract_x
_atom_site_fract_y
_atom_site_fract_z
Si Si1 0.690327 0.640726 0.797370
Si Si2 0.692460 0.905810 0.464492
Si Si3 0.699339 0.969291 0.910786
Si Si4 0.693538 0.654182 0.128511
Si Si5 0.684078 0.875754 0.027278
Si Si6 0.197405 0.283480 0.148606
Si Si7 0.190574 0.554445 0.226171
Si Si8 0.316307 0.552121 0.659386
O O1 0.500000 0.649676 0.814217
O O2 0.778612 0.630557 0.882534
O O3 0.748226 0.688788 0.733957
O O4 0.708204 0.583072 0.745291
O O5 0.500000 0.910173 0.479849
O O6 0.753887 0.970134 0.446646
O O7 0.768505 0.874736 0.541972
O O8 0.500000 0.969115 0.917024
O O9 0.740604 0.960832 0.817101
O O10 0.761381 0.913107 0.956509
O O11 0.500000 0.652934 0.141000
O O12 0.747449 0.719177 0.134979
O O13 0.777834 0.617660 0.198537
O O14 0.500000 0.860495 0.002503
O O15 0.758954 0.821921 0.073055
O O16 0.685953 0.921540 0.099504
O O17 0.000000 0.286823 0.147209
O O18 0.291421 0.513802 0.167634
O O19 0.000000 0.540843 0.217673
O O20 0.500000 0.565808 0.632109
#
# Coordination Sequence:
#
# PCOD9350988 Si02
#       8
#     8   8   8   8   8   8   8   8
#     4  10  20  35  59  88 117 150 195 244 290 341
#     4  11  21  37  61  89 119 154 196 242 296 358
#     4   9  19  34  56  86 114 141 189 240 284 347
#     4  11  24  41  57  84 121 157 199 249 300 349
#     4   9  17  34  59  83 107 146 190 235 282 341
#     4   9  20  39  61  81 114 156 198 241 291 349
#     4  11  21  36  56  81 114 155 194 236 288 351
#     4  10  19  32  53  84 116 147 181 231 291 344
#
# _framework density 19.956161000000002
#
# number of rings (size 3 to 8) (size 9 to 14) (size 15 to 20)
#    0.000    2.000    1.250    2.625    0.000    3.000 
#    2.250    1.875    0.000    0.000    0.000    0.000 
#    0.000    0.000    0.000    0.000    0.000    0.000 
#
# Total GULP energy -178452.780693 kJ/mol
# GULP energy per Si atom -5576.649397 kJ/mol
# Density = 1.991074 g / cm^3
# Si number density = 19.956161 Si / 1000 Ang^3
#
#
#
# Elastic Constant Matrix: (Units=GPa)
#
#
# Indices 1 2 3 4 5 6 
#
# 1 23.9303 1.1849 3.4948 0.0000 0.0000 0.0000
# 2 1.1849 137.2601 39.1281 0.0000 0.0000 0.0000
# 3 3.4948 39.1281 58.0381 0.0000 0.0000 0.0000
# 4 0.0000 0.0000 0.0000 26.4818 0.0000 0.0000
# 5 0.0000 0.0000 0.0000 0.0000 17.9037 0.0000
# 6 0.0000 0.0000 0.0000 0.0000 0.0000 18.7607
#
#
#
# Elastic Compliance Matrix: (Units=1/GPa)
#
#
# Indices 1 2 3 4 5 6 
#
# 1 0.042181 0.000446 -0.002840 0.000000 0.000000 0.000000
# 2 0.000446 0.009023 -0.006110 0.000000 0.000000 0.000000
# 3 -0.002840 -0.006110 0.021520 0.000000 0.000000 0.000000
# 4 0.000000 0.000000 0.000000 0.037762 0.000000 0.000000
# 5 0.000000 0.000000 0.000000 0.000000 0.055854 0.000000
# 6 0.000000 0.000000 0.000000 0.000000 0.000000 0.053303
#
#
# Mechanical properties :
#
#
# Convention : Reuss Voigt Hill
#
# Bulk Modulus (GPa) = 17.94860 34.09376 26.02118
# Shear Modulus (GPa) = 19.59055 24.32396 21.95726
#
# Velocity S-wave (km/s) = 3.13658 3.49502 3.32064
# Velocity P-wave (km/s) = 4.70436 5.77999 5.26969
#
# Compressibility (1/GPa) = 0.05571467
#
# Stress axis : x y z
#
# Youngs Moduli (GPa) = 23.70752 110.82294 46.46736
#
# Poissons Ratio (x) = -0.04938 0.13198
# Poissons Ratio (y) = -0.01056 0.28393
# Poissons Ratio (z) = 0.06734 0.67715
#
# Static dielectric constant tensor:
#      x y z
#    x 1.721520 0.000000 0.000000 
#    y 0.000000 1.712780 0.000000 
#    z 0.000000 0.000000 1.728530 
# 
# From -- ./inp_files/10930.got.cif
#   From: 2010.05.17/outbox.cif.g08.bks.cpg/sg36_6_cif.got.tgz:10930.got - 2010.06.03 17:41:39.
