data_PCOD9350218
_publ_section_title
;
Structure prediction by ZEFSAII (Michael W. Deem and Ramdas Pophale) SiO2 
 PCOD9350218
Probable space group: C M M 2
;
_chemical_formula_sum "Si O2"
_cell_formula_units_Z 48
_cell_length_a 31.031121
_cell_length_b 14.261400
_cell_length_c 4.991520
_cell_angle_alpha 90.000000
_cell_angle_beta 90.000000
_cell_angle_gamma 90.000000
_cell_volume 2208.983345
_symmetry_space_group_name_H-M "C M M 2"
_symmetry_group_IT_number 35
_symmetry_cell_setting 'orthorhombic'
loop_
_space_group_symop_operation_xyz
x,y,z
-x,-y,z
-x,y,z
x,-y,z
1/2+x,1/2+y,z
1/2-x,1/2-y,z
1/2-x,1/2+y,z
1/2+x,1/2-y,z
loop_
_atom_site_type_symbol
_atom_site_label
_atom_site_fract_x
_atom_site_fract_y
_atom_site_fract_z
Si Si1 0.595714 0.807823 0.697300
Si Si2 0.811892 0.351523 0.474060
Si Si3 0.372071 0.603753 0.834821
Si Si4 0.237565 0.638577 0.984054
Si Si5 0.184075 0.864569 0.344041
Si Si6 0.049950 0.389553 0.207277
O O1 0.640369 0.854663 0.593646
O O2 0.602789 0.696104 0.734920
O O3 0.560752 0.832293 0.473823
O O4 0.580716 0.852231 0.974546
O O5 0.776990 0.388827 0.687005
O O6 0.804404 0.240628 0.429820
O O7 0.803290 0.384960 0.173942
O O8 0.392866 0.500000 0.838225
O O9 0.332188 0.595791 0.625356
O O10 0.355170 0.628223 0.132315
O O11 0.250000 0.750000 0.961657
O O12 0.276885 0.599844 0.160233
O O13 0.057197 0.500000 0.256252
O O14 0.000000 0.377594 0.129403
#
# Coordination Sequence:
#
# PCOD9350218 Si02
#       6
#     8   8   8   8   8   8
#     4  11  21  39  64  92 124 156 195 242 300 365
#     4  10  18  29  51  82 111 149 196 242 300 353
#     4  11  22  37  59  88 124 167 214 255 291 339
#     4  10  16  27  47  75 110 150 203 253 294 337
#     4  10  19  32  51  80 116 161 215 262 295 334
#     4  11  24  43  69  96 119 147 185 237 304 377
#
# _framework density 21.729455000000002
#
# number of rings (size 3 to 8) (size 9 to 14) (size 15 to 20)
#    0.000    1.500    0.000   11.000    0.000    1.333 
#    0.000    0.000    0.000   23.000    0.000    0.000 
#    0.000    0.000    0.000    0.000    0.000    0.000 
#
# Total GULP energy -133912.609474 kJ/mol
# GULP energy per Si atom -5579.692061 kJ/mol
# Density = 2.168000 g / cm^3
# Si number density = 21.729455 Si / 1000 Ang^3
#
#
#
# Elastic Constant Matrix: (Units=GPa)
#
#
# Indices 1 2 3 4 5 6 
#
# 1 53.2609 32.2042 4.1587 0.0000 0.0000 0.0000
# 2 32.2042 108.2349 16.6067 0.0000 0.0000 0.0000
# 3 4.1587 16.6067 131.3909 0.0000 0.0000 0.0000
# 4 0.0000 0.0000 0.0000 1913.9468 0.0000 0.0000
# 5 0.0000 0.0000 0.0000 0.0000 39.3321 0.0000
# 6 0.0000 0.0000 0.0000 0.0000 0.0000 -3.0886
#
#
#
# Elastic Compliance Matrix: (Units=1/GPa)
#
#
# Indices 1 2 3 4 5 6 
#
# 1 0.022897 -0.006834 0.000139 0.000000 0.000000 0.000000
# 2 -0.006834 0.011462 -0.001232 0.000000 0.000000 0.000000
# 3 0.000139 -0.001232 0.007762 0.000000 0.000000 0.000000
# 4 0.000000 0.000000 0.000000 0.000522 0.000000 0.000000
# 5 0.000000 0.000000 0.000000 0.000000 0.025425 0.000000
# 6 0.000000 0.000000 0.000000 0.000000 0.000000 -0.323773
#
#
# Mechanical properties :
#
#
# Convention : Reuss Voigt Hill
#
# Bulk Modulus (GPa) = 38.07201 44.31399 41.19300
# Shear Modulus (GPa) = -21.63608 406.03254 192.19823
#
# Velocity S-wave (km/s) = -3.15890 13.68444 9.41502
# Velocity P-wave (km/s) = 2.06255 16.43541 11.71275
#
# Compressibility (1/GPa) = 0.02626602
#
# Stress axis : x y z
#
# Youngs Moduli (GPa) = 43.67416 87.24756 128.82888
#
# Poissons Ratio (x) = 0.59625 -0.01791
# Poissons Ratio (y) = 0.29847 0.15876
# Poissons Ratio (z) = -0.00607 0.10752
#
# Static dielectric constant tensor:
#      x y z
#    x 1.805720 0.000000 0.000000 
#    y 0.000000 0.351000 0.000000 
#    z 0.000000 0.000000 1.768170 
# 
# From -- ./inp_files/3993.got.cif
#   From: 2010.05.17/outbox.cif.g08.bks.cpg/sg35_2_cif.got.tgz:3993.got - 2010.06.03 17:29:28.
