data_PCOD9350741
_publ_section_title
;
Structure prediction by ZEFSAII (Michael W. Deem and Ramdas Pophale) SiO2 
 PCOD9350741
Probable space group: C M C 21
;
_chemical_formula_sum "Si O2"
_cell_formula_units_Z 64
_cell_length_a 7.934390
_cell_length_b 20.718227
_cell_length_c 20.302506
_cell_angle_alpha 90.000000
_cell_angle_beta 90.000000
_cell_angle_gamma 90.000000
_cell_volume 3337.457763
_symmetry_space_group_name_H-M "C M C 21"
_symmetry_group_IT_number 36
_symmetry_cell_setting 'orthorhombic'
loop_
_space_group_symop_operation_xyz
x,y,z
-x,-y,1/2+z
x,-y,1/2+z
-x,y,z
1/2+x,1/2+y,z
1/2-x,1/2-y,1/2+z
1/2+x,1/2-y,1/2+z
1/2-x,1/2+y,z
loop_
_atom_site_type_symbol
_atom_site_label
_atom_site_fract_x
_atom_site_fract_y
_atom_site_fract_z
Si Si1 0.292770 0.176477 0.565800
Si Si2 0.302255 0.744578 0.324868
Si Si3 0.799830 0.396109 0.824026
Si Si4 0.198810 0.785853 0.467926
Si Si5 0.702325 0.574261 0.934223
Si Si6 0.296994 0.936832 0.970159
Si Si7 0.701904 0.842377 0.213785
Si Si8 0.701610 0.533882 0.788553
O O1 0.500000 0.176943 0.565521
O O2 0.232993 0.237999 0.523606
O O3 0.240475 0.112079 0.526517
O O4 0.235360 0.174949 0.641100
O O5 0.500000 0.757560 0.334360
O O6 0.278800 0.671103 0.301610
O O7 0.217797 0.753800 0.395969
O O8 0.232807 0.795102 0.271345
O O9 0.736925 0.411872 0.898412
O O10 0.761148 0.460215 0.782476
O O11 0.000000 0.387030 0.826862
O O12 0.269907 0.858227 0.461910
O O13 0.000000 0.792058 0.481709
O O14 0.500000 0.579919 0.929389
O O15 0.742749 0.510882 0.976246
O O16 0.765781 0.560227 0.859804
O O17 0.500000 0.935523 0.968408
O O18 0.500000 0.834301 0.212620
O O19 0.740346 0.915688 0.233943
O O20 0.500000 0.533581 0.790403
#
# Coordination Sequence:
#
# PCOD9350741 Si02
#       8
#     8   8   8   8   8   8   8   8
#     4   9  18  35  56  76 102 142 186 220 261 325
#     4  11  21  32  51  81 112 142 178 226 272 318
#     4  10  19  33  55  80 106 139 178 221 270 320
#     4  10  18  34  56  77 102 140 183 222 268 320
#     4   9  18  30  50  78 106 132 167 219 269 312
#     4   9  17  31  53  76 100 133 173 216 261 315
#     4  10  21  36  54  77 109 148 183 218 269 329
#     4  10  19  33  53  79 109 138 174 224 270 317
#
# _framework density 19.176273999999999
#
# number of rings (size 3 to 8) (size 9 to 14) (size 15 to 20)
#    0.000    2.250    2.500    1.125    0.000    2.000 
#    0.000    2.500    0.000    1.500    0.000    0.000 
#    0.000    0.000    0.000    0.000    0.000    0.000 
#
# Total GULP energy -178544.928137 kJ/mol
# GULP energy per Si atom -5579.529004 kJ/mol
# Density = 1.913263 g / cm^3
# Si number density = 19.176274 Si / 1000 Ang^3
#
#
#
# Elastic Constant Matrix: (Units=GPa)
#
#
# Indices 1 2 3 4 5 6 
#
# 1 12.2026 -9.5868 -1.8652 0.0000 0.0000 0.0000
# 2 -9.5868 104.8759 8.9130 0.0000 0.0000 0.0000
# 3 -1.8652 8.9130 44.1388 0.0000 0.0000 0.0000
# 4 0.0000 0.0000 0.0000 25.2915 0.0000 0.0000
# 5 0.0000 0.0000 0.0000 0.0000 11.3319 0.0000
# 6 0.0000 0.0000 0.0000 0.0000 0.0000 21.5900
#
#
#
# Elastic Compliance Matrix: (Units=1/GPa)
#
#
# Indices 1 2 3 4 5 6 
#
# 1 0.088489 0.007907 0.002143 0.000000 0.000000 0.000000
# 2 0.007907 0.010408 -0.001768 0.000000 0.000000 0.000000
# 3 0.002143 -0.001768 0.023103 0.000000 0.000000 0.000000
# 4 0.000000 0.000000 0.000000 0.039539 0.000000 0.000000
# 5 0.000000 0.000000 0.000000 0.000000 0.088246 0.000000
# 6 0.000000 0.000000 0.000000 0.000000 0.000000 0.046318
#
#
# Mechanical properties :
#
#
# Convention : Reuss Voigt Hill
#
# Bulk Modulus (GPa) = 7.21689 17.34881 12.28285
# Shear Modulus (GPa) = 15.35026 22.55977 18.95501
#
# Velocity S-wave (km/s) = 2.83235 3.43365 3.14739
# Velocity P-wave (km/s) = 3.80367 4.97861 4.43026
#
# Compressibility (1/GPa) = 0.13856379
#
# Stress axis : x y z
#
# Youngs Moduli (GPa) = 11.30087 96.07941 43.28385
#
# Poissons Ratio (x) = -0.75967 -0.09274
# Poissons Ratio (y) = -0.08935 0.07651
# Poissons Ratio (z) = -0.02421 0.16983
#
# Static dielectric constant tensor:
#      x y z
#    x 1.690750 0.000000 0.000000 
#    y 0.000000 1.683360 0.000000 
#    z 0.000000 0.000000 1.651730 
# 
# From -- ./inp_files/15771.got.cif
#   From: 2010.05.17/outbox.cif.g08.bks.cpg/sg36_8_cif.got.tgz:15771.got - 2010.06.03 17:41:39.
