data_PCOD9350616
_publ_section_title
;
Structure prediction by ZEFSAII (Michael W. Deem and Ramdas Pophale) SiO2 
 PCOD9350616
Probable space group: C M C 21
;
_chemical_formula_sum "Si O2"
_cell_formula_units_Z 56
_cell_length_a 28.912213
_cell_length_b 17.186437
_cell_length_c 4.964059
_cell_angle_alpha 90.000000
_cell_angle_beta 90.000000
_cell_angle_gamma 90.000000
_cell_volume 2466.630628
_symmetry_space_group_name_H-M "C M C 21"
_symmetry_group_IT_number 36
_symmetry_cell_setting 'orthorhombic'
loop_
_space_group_symop_operation_xyz
x,y,z
-x,-y,1/2+z
x,-y,1/2+z
-x,y,z
1/2+x,1/2+y,z
1/2-x,1/2-y,1/2+z
1/2+x,1/2-y,1/2+z
1/2-x,1/2+y,z
loop_
_atom_site_type_symbol
_atom_site_label
_atom_site_fract_x
_atom_site_fract_y
_atom_site_fract_z
Si Si1 0.740534 0.700593 0.625000
Si Si2 0.500000 0.918387 0.497413
Si Si3 0.397954 0.785500 0.079569
Si Si4 0.397273 0.955589 0.341497
Si Si5 0.864257 0.199393 0.596219
Si Si6 0.136538 0.046013 0.897350
Si Si7 0.500000 0.184467 0.506364
Si Si8 0.750946 0.954009 0.397698
O O1 0.764095 0.737725 0.366836
O O2 0.688949 0.680752 0.525790
O O3 0.764623 0.626473 0.763914
O O4 0.452862 0.958330 0.399745
O O5 0.500000 0.839935 0.318871
O O6 0.500000 0.889406 0.804072
O O7 0.390239 0.871324 0.207675
O O8 0.388305 0.726168 0.323047
O O9 0.450428 0.776778 0.970468
O O10 0.367565 0.767756 0.817780
O O11 0.379584 0.978658 0.635694
O O12 0.881838 0.124140 0.760122
O O13 0.192780 0.051336 0.899950
O O14 0.123360 0.974902 0.700159
O O15 0.737385 0.975860 0.698514
#
# Coordination Sequence:
#
# PCOD9350616 Si02
#       8
#     8   4   8   8   8   8   4   8
#     4  11  22  37  59  85 114 147 186 231 283 339
#     4  10  18  31  50  78 106 135 185 246 297 323
#     4  11  22  37  56  82 114 149 191 232 280 342
#     4  11  20  32  51  75 106 147 191 242 285 319
#     4  11  22  37  59  85 114 149 183 229 286 342
#     4   9  17  31  53  83 109 131 169 227 285 329
#     4  10  20  35  54  80 112 145 181 230 283 335
#     4   9  17  31  53  79 108 136 172 227 281 319
#
# _framework density 22.703036000000001
#
# number of rings (size 3 to 8) (size 9 to 14) (size 15 to 20)
#    0.000    1.714    0.000    7.286    0.000    4.571 
#    0.000    0.000    0.000   17.143    0.000   10.000 
#    0.000    0.000    0.000    0.000    0.000    0.000 
#
# Total GULP energy -156352.709754 kJ/mol
# GULP energy per Si atom -5584.025348 kJ/mol
# Density = 2.265136 g / cm^3
# Si number density = 22.703036 Si / 1000 Ang^3
#
#
#
# Elastic Constant Matrix: (Units=GPa)
#
#
# Indices 1 2 3 4 5 6 
#
# 1 61.7321 7.0937 8.9114 0.0000 0.0000 0.0000
# 2 7.0937 57.5419 7.6215 0.0000 0.0000 0.0000
# 3 8.9114 7.6215 106.1216 0.0000 0.0000 0.0000
# 4 0.0000 0.0000 0.0000 41.9444 0.0000 0.0000
# 5 0.0000 0.0000 0.0000 0.0000 22.1131 0.0000
# 6 0.0000 0.0000 0.0000 0.0000 0.0000 23.6183
#
#
#
# Elastic Compliance Matrix: (Units=1/GPa)
#
#
# Indices 1 2 3 4 5 6 
#
# 1 0.016597 -0.001879 -0.001259 0.000000 0.000000 0.000000
# 2 -0.001879 0.017758 -0.001118 0.000000 0.000000 0.000000
# 3 -0.001259 -0.001118 0.009609 0.000000 0.000000 0.000000
# 4 0.000000 0.000000 0.000000 0.023841 0.000000 0.000000
# 5 0.000000 0.000000 0.000000 0.000000 0.045222 0.000000
# 6 0.000000 0.000000 0.000000 0.000000 0.000000 0.042340
#
#
# Mechanical properties :
#
#
# Convention : Reuss Voigt Hill
#
# Bulk Modulus (GPa) = 28.20639 30.29431 29.25035
# Shear Modulus (GPa) = 28.45823 30.98643 29.72233
#
# Velocity S-wave (km/s) = 3.54432 3.69841 3.62218
# Velocity P-wave (km/s) = 5.40376 5.62231 5.51412
#
# Compressibility (1/GPa) = 0.03545296
#
# Stress axis : x y z
#
# Youngs Moduli (GPa) = 60.25300 56.31157 104.06786
#
# Poissons Ratio (x) = 0.10583 0.13099
# Poissons Ratio (y) = 0.11323 0.11630
# Poissons Ratio (z) = 0.07584 0.06293
#
# Static dielectric constant tensor:
#      x y z
#    x 1.894150 0.000000 0.000000 
#    y 0.000000 1.914310 0.000000 
#    z 0.000000 0.000000 1.803860 
# 
# From -- ./inp_files/1868.got.cif
#   From: 2010.05.17/outbox.cif.g08.bks.cpg/sg36_1_cif.got.tgz:1868.got - 2010.06.03 17:41:39.
