data_PCOD9350508
_publ_section_title
;
Structure prediction by ZEFSAII (Michael W. Deem and Ramdas Pophale) SiO2 
 PCOD9350508
Probable space group: C M C 21
;
_chemical_formula_sum "Si O2"
_cell_formula_units_Z 64
_cell_length_a 13.373829
_cell_length_b 16.606701
_cell_length_c 16.750793
_cell_angle_alpha 90.000000
_cell_angle_beta 90.000000
_cell_angle_gamma 90.000000
_cell_volume 3720.270377
_symmetry_space_group_name_H-M "C M C 21"
_symmetry_group_IT_number 36
_symmetry_cell_setting 'orthorhombic'
loop_
_space_group_symop_operation_xyz
x,y,z
-x,-y,1/2+z
x,-y,1/2+z
-x,y,z
1/2+x,1/2+y,z
1/2-x,1/2-y,1/2+z
1/2+x,1/2-y,1/2+z
1/2-x,1/2+y,z
loop_
_atom_site_type_symbol
_atom_site_label
_atom_site_fract_x
_atom_site_fract_y
_atom_site_fract_z
Si Si1 0.808804 0.110013 0.022660
Si Si2 0.383531 0.705463 0.160959
Si Si3 0.199113 0.809285 0.191522
Si Si4 0.620932 0.602878 0.841326
Si Si5 0.118310 0.688691 0.059347
Si Si6 0.112012 0.941289 0.083928
Si Si7 0.386627 0.679085 0.435811
Si Si8 0.120964 0.922330 0.791594
O O1 0.859738 0.184725 0.069198
O O2 0.692835 0.114330 0.049685
O O3 0.857048 0.029230 0.057633
O O4 0.830559 0.112229 0.928633
O O5 0.500000 0.722346 0.173087
O O6 0.311550 0.775937 0.191420
O O7 0.357246 0.623439 0.209533
O O8 0.156638 0.829467 0.278642
O O9 0.139798 0.741518 0.139142
O O10 0.183854 0.891919 0.142110
O O11 0.500000 0.604714 0.848720
O O12 0.651180 0.514343 0.806590
O O13 0.000000 0.673188 0.054743
O O14 0.152189 0.744539 0.984091
O O15 0.000000 0.942107 0.120586
O O16 0.107382 0.889803 0.002845
O O17 0.500000 0.701589 0.412023
O O18 0.337358 0.637806 0.359801
O O19 0.000000 0.924163 0.799372
#
# Coordination Sequence:
#
# PCOD9350508 Si02
#       8
#     8   8   8   8   8   8   8   8
#     4  11  21  32  53  82 108 138 176 219 279 321
#     4  10  21  36  52  76 110 143 177 219 265 322
#     4  10  21  34  54  79 103 141 183 214 267 322
#     4  11  20  32  51  81 111 133 169 227 280 318
#     4   9  19  35  52  74 105 142 181 215 253 319
#     4  10  17  32  54  76 104 131 168 222 264 306
#     4   8  14  27  49  73  96 128 164 205 255 300
#     4   9  17  30  51  75 101 132 166 211 265 308
#
# _framework density 17.203050000000001
#
# number of rings (size 3 to 8) (size 9 to 14) (size 15 to 20)
#    0.000    2.250    1.250    3.750    1.750    1.000 
#    0.000    0.625    0.000    0.000    0.000    5.250 
#    0.000    0.000    0.000    0.000    0.000    0.000 
#
# Total GULP energy -178206.386030 kJ/mol
# GULP energy per Si atom -5568.949563 kJ/mol
# Density = 1.716390 g / cm^3
# Si number density = 17.203050 Si / 1000 Ang^3
#
#
#
# Elastic Constant Matrix: (Units=GPa)
#
#
# Indices 1 2 3 4 5 6 
#
# 1 89.7296 32.4806 31.0671 0.0000 0.0000 0.0000
# 2 32.4806 49.7350 27.1779 0.0000 0.0000 0.0000
# 3 31.0671 27.1779 105.7576 0.0000 0.0000 0.0000
# 4 0.0000 0.0000 0.0000 15.3335 0.0000 0.0000
# 5 0.0000 0.0000 0.0000 0.0000 16.8343 0.0000
# 6 0.0000 0.0000 0.0000 0.0000 0.0000 25.7164
#
#
#
# Elastic Compliance Matrix: (Units=1/GPa)
#
#
# Indices 1 2 3 4 5 6 
#
# 1 0.015023 -0.008608 -0.002201 0.000000 0.000000 0.000000
# 2 -0.008608 0.028324 -0.004750 0.000000 0.000000 0.000000
# 3 -0.002201 -0.004750 0.011323 0.000000 0.000000 0.000000
# 4 0.000000 0.000000 0.000000 0.065217 0.000000 0.000000
# 5 0.000000 0.000000 0.000000 0.000000 0.059403 0.000000
# 6 0.000000 0.000000 0.000000 0.000000 0.000000 0.038886
#
#
# Mechanical properties :
#
#
# Convention : Reuss Voigt Hill
#
# Bulk Modulus (GPa) = 42.46066 47.40815 44.93441
# Shear Modulus (GPa) = 19.44441 21.87660 20.66050
#
# Velocity S-wave (km/s) = 3.36562 3.56992 3.46927
# Velocity P-wave (km/s) = 6.31180 6.67909 6.49804
#
# Compressibility (1/GPa) = 0.02355121
#
# Stress axis : x y z
#
# Youngs Moduli (GPa) = 66.56621 35.30561 88.31747
#
# Poissons Ratio (x) = 0.30392 0.19437
# Poissons Ratio (y) = 0.57302 0.41951
# Poissons Ratio (z) = 0.14650 0.16770
#
# Static dielectric constant tensor:
#      x y z
#    x 1.585120 0.000000 0.000000 
#    y 0.000000 1.593230 0.000000 
#    z 0.000000 0.000000 1.632250 
# 
# From -- ./inp_files/14468.got.cif
#   From: 2010.05.17/outbox.cif.g08.bks.cpg/sg36_8_cif.got.tgz:14468.got - 2010.06.03 17:41:39.
