data_PCOD9350309
_publ_section_title
;
Structure prediction by ZEFSAII (Michael W. Deem and Ramdas Pophale) SiO2 
 PCOD9350309
Probable space group: C M M 2
;
_chemical_formula_sum "Si O2"
_cell_formula_units_Z 48
_cell_length_a 8.775401
_cell_length_b 27.397944
_cell_length_c 11.854517
_cell_angle_alpha 90.000000
_cell_angle_beta 90.000000
_cell_angle_gamma 90.000000
_cell_volume 2850.157163
_symmetry_space_group_name_H-M "C M M 2"
_symmetry_group_IT_number 35
_symmetry_cell_setting 'orthorhombic'
loop_
_space_group_symop_operation_xyz
x,y,z
-x,-y,z
-x,y,z
x,-y,z
1/2+x,1/2+y,z
1/2-x,1/2-y,z
1/2-x,1/2+y,z
1/2+x,1/2-y,z
loop_
_atom_site_type_symbol
_atom_site_label
_atom_site_fract_x
_atom_site_fract_y
_atom_site_fract_z
Si Si1 0.816380 0.302896 0.444540
Si Si2 0.320235 0.364279 0.988268
Si Si3 0.315228 0.943246 0.819362
Si Si4 0.681507 0.802829 0.178358
Si Si5 0.171999 0.379820 0.619224
Si Si6 0.328787 0.797617 0.810003
O O1 0.750000 0.250000 0.479064
O O2 0.785254 0.308776 0.311530
O O3 0.757829 0.350114 0.514335
O O4 0.000000 0.301033 0.461156
O O5 0.500000 0.370412 0.997612
O O6 0.249220 0.410418 0.921475
O O7 0.276022 0.319016 0.907746
O O8 0.249088 0.347543 0.106704
O O9 0.500000 0.937504 0.819531
O O10 0.259673 0.923044 0.696620
O O11 0.278667 0.000000 0.832907
O O12 0.500000 0.801214 0.162972
O O13 0.750000 0.750000 0.144029
O O14 0.161177 0.337498 0.713015
O O15 0.000000 0.395309 0.585454
O O16 0.500000 0.788425 0.852324
O O17 0.250000 0.750000 0.763139
#
# Coordination Sequence:
#
# PCOD9350309 Si02
#       6
#     8   8   8   8   8   8
#     4   9  17  29  46  68  97 130 162 194 227 271
#     4  11  21  32  47  67  93 124 159 197 237 284
#     4   9  18  34  55  75  95 120 152 195 246 293
#     4  10  19  31  47  68  97 132 167 200 233 274
#     4   8  15  28  46  69  94 121 153 189 232 282
#     4  10  18  28  43  65  95 125 154 189 231 281
#
# _framework density 16.841176999999998
#
# number of rings (size 3 to 8) (size 9 to 14) (size 15 to 20)
#    0.000    2.500    0.000    4.500    0.000    1.000 
#    0.000    3.333    0.000    1.000    0.000    4.667 
#    0.000    0.000    0.000    0.000    0.000    0.000 
#
# Total GULP energy -133609.918685 kJ/mol
# GULP energy per Si atom -5567.079945 kJ/mol
# Density = 1.680285 g / cm^3
# Si number density = 16.841177 Si / 1000 Ang^3
#
#
#
# Elastic Constant Matrix: (Units=GPa)
#
#
# Indices 1 2 3 4 5 6 
#
# 1 43.9044 38.9917 28.1073 0.0000 0.0000 0.0000
# 2 38.9917 99.0570 48.7866 0.0000 0.0000 0.0000
# 3 28.1073 48.7866 88.8840 0.0000 0.0000 0.0000
# 4 0.0000 0.0000 0.0000 24.1710 0.0000 0.0000
# 5 0.0000 0.0000 0.0000 0.0000 13.4125 0.0000
# 6 0.0000 0.0000 0.0000 0.0000 0.0000 18.7505
#
#
#
# Elastic Compliance Matrix: (Units=1/GPa)
#
#
# Indices 1 2 3 4 5 6 
#
# 1 0.036585 -0.011927 -0.005022 0.000000 0.000000 0.000000
# 2 -0.011927 0.017724 -0.005957 0.000000 0.000000 0.000000
# 3 -0.005022 -0.005957 0.016108 0.000000 0.000000 0.000000
# 4 0.000000 0.000000 0.000000 0.041372 0.000000 0.000000
# 5 0.000000 0.000000 0.000000 0.000000 0.074557 0.000000
# 6 0.000000 0.000000 0.000000 0.000000 0.000000 0.053332
#
#
# Mechanical properties :
#
#
# Convention : Reuss Voigt Hill
#
# Bulk Modulus (GPa) = 40.64309 51.51296 46.07802
# Shear Modulus (GPa) = 17.02468 18.99746 18.01107
#
# Velocity S-wave (km/s) = 3.18291 3.36227 3.27382
# Velocity P-wave (km/s) = 6.13950 6.76218 6.45835
#
# Compressibility (1/GPa) = 0.02460443
#
# Stress axis : x y z
#
# Youngs Moduli (GPa) = 27.33382 56.42150 62.08008
#
# Poissons Ratio (x) = 0.67295 0.31179
# Poissons Ratio (y) = 0.32602 0.36978
# Poissons Ratio (z) = 0.13728 0.33607
#
# Static dielectric constant tensor:
#      x y z
#    x 1.601890 0.000000 0.000000 
#    y 0.000000 1.604280 0.000000 
#    z 0.000000 0.000000 1.606110 
# 
# From -- ./inp_files/11469.got.cif
#   From: 2010.05.17/outbox.cif.g08.bks.cpg/sg35_6_cif.got.tgz:11469.got - 2010.06.03 17:29:28.
