data_PCOD9350382
_publ_section_title
;
Structure prediction by ZEFSAII (Michael W. Deem and Ramdas Pophale) SiO2 
 PCOD9350382
Probable space group: C M M 2
;
_chemical_formula_sum "Si O2"
_cell_formula_units_Z 48
_cell_length_a 8.689637
_cell_length_b 18.852117
_cell_length_c 16.233847
_cell_angle_alpha 90.000000
_cell_angle_beta 90.000000
_cell_angle_gamma 90.000000
_cell_volume 2659.397215
_symmetry_space_group_name_H-M "C M M 2"
_symmetry_group_IT_number 35
_symmetry_cell_setting 'orthorhombic'
loop_
_space_group_symop_operation_xyz
x,y,z
-x,-y,z
-x,y,z
x,-y,z
1/2+x,1/2+y,z
1/2-x,1/2-y,z
1/2-x,1/2+y,z
1/2+x,1/2-y,z
loop_
_atom_site_type_symbol
_atom_site_label
_atom_site_fract_x
_atom_site_fract_y
_atom_site_fract_z
Si Si1 0.816261 0.669569 0.060720
Si Si2 0.812374 0.918381 0.390225
Si Si3 0.680034 0.915176 0.743012
Si Si4 0.181953 0.829048 0.891310
Si Si5 0.821614 0.913689 0.570483
Si Si6 0.314733 0.329614 0.230648
O O1 0.750000 0.750000 0.059738
O O2 0.750389 0.638105 0.145470
O O3 0.000000 0.671248 0.062880
O O4 0.757263 0.638683 0.974362
O O5 0.763103 0.890533 0.480362
O O6 0.766720 0.872812 0.311565
O O7 0.000000 0.918810 0.392993
O O8 0.762381 0.000000 0.380744
O O9 0.500000 0.901228 0.756827
O O10 0.776901 0.875315 0.812076
O O11 0.727477 0.892239 0.650813
O O12 0.705711 0.000000 0.748220
O O13 0.250000 0.750000 0.879733
O O14 0.000000 0.823589 0.903379
O O15 0.000000 0.892353 0.580730
O O16 0.819646 0.000000 0.566990
O O17 0.500000 0.327492 0.225891
O O18 0.250000 0.250000 0.237470
#
# Coordination Sequence:
#
# PCOD9350382 Si02
#       6
#     8   8   8   8   8   8
#     4  10  18  31  50  71  97 129 165 201 241 292
#     4   8  15  29  50  73  95 124 165 208 244 282
#     4  10  20  34  52  76 105 134 166 206 250 295
#     4  11  21  35  55  77 101 130 167 207 250 299
#     4   8  14  28  50  72  94 126 168 206 242 290
#     4  10  18  30  49  72  98 127 161 201 244 291
#
# _framework density 18.049202999999999
#
# number of rings (size 3 to 8) (size 9 to 14) (size 15 to 20)
#    0.000    2.500    0.000    7.000    0.000    1.000 
#    0.000    3.333    0.000    9.000    0.000    0.000 
#    0.000    0.000    0.000    0.000    0.000    0.000 
#
# Total GULP energy -133786.657244 kJ/mol
# GULP energy per Si atom -5574.444052 kJ/mol
# Density = 1.800812 g / cm^3
# Si number density = 18.049203 Si / 1000 Ang^3
#
#
#
# Elastic Constant Matrix: (Units=GPa)
#
#
# Indices 1 2 3 4 5 6 
#
# 1 97.4671 18.0745 47.9669 0.0000 0.0000 0.0000
# 2 18.0745 18.8870 32.1487 0.0000 0.0000 0.0000
# 3 47.9669 32.1487 165.4758 0.0000 0.0000 0.0000
# 4 0.0000 0.0000 0.0000 29.4631 0.0000 0.0000
# 5 0.0000 0.0000 0.0000 0.0000 26.8412 0.0000
# 6 0.0000 0.0000 0.0000 0.0000 0.0000 15.6570
#
#
#
# Elastic Compliance Matrix: (Units=1/GPa)
#
#
# Indices 1 2 3 4 5 6 
#
# 1 0.012903 -0.008937 -0.002004 0.000000 0.000000 0.000000
# 2 -0.008937 0.085297 -0.013981 0.000000 0.000000 0.000000
# 3 -0.002004 -0.013981 0.009340 0.000000 0.000000 0.000000
# 4 0.000000 0.000000 0.000000 0.033941 0.000000 0.000000
# 5 0.000000 0.000000 0.000000 0.000000 0.037256 0.000000
# 6 0.000000 0.000000 0.000000 0.000000 0.000000 0.063869
#
#
# Mechanical properties :
#
#
# Convention : Reuss Voigt Hill
#
# Bulk Modulus (GPa) = 17.33204 53.13445 35.23325
# Shear Modulus (GPa) = 16.04192 26.63493 21.33842
#
# Velocity S-wave (km/s) = 2.98449 3.84563 3.44210
# Velocity P-wave (km/s) = 4.63678 7.01577 5.94646
#
# Compressibility (1/GPa) = 0.05769660
#
# Stress axis : x y z
#
# Youngs Moduli (GPa) = 77.49866 11.72373 107.06281
#
# Poissons Ratio (x) = 0.10478 0.21456
# Poissons Ratio (y) = 0.69262 1.49684
# Poissons Ratio (z) = 0.15531 0.16391
#
# Static dielectric constant tensor:
#      x y z
#    x 1.609920 0.000000 0.000000 
#    y 0.000000 1.602750 0.000000 
#    z 0.000000 0.000000 1.664830 
# 
# From -- ./inp_files/15395.got.cif
#   From: 2010.05.17/outbox.cif.g08.bks.cpg/sg35_8_cif.got.tgz:15395.got - 2010.06.03 17:29:28.
