data_PCOD9350002
_publ_section_title
;
Structure prediction by ZEFSAII (Michael W. Deem and Ramdas Pophale) SiO2 
 PCOD9350002
Probable space group: C M M 2
;
_chemical_formula_sum "Si O2"
_cell_formula_units_Z 42
_cell_length_a 7.952912
_cell_length_b 19.990815
_cell_length_c 12.591514
_cell_angle_alpha 90.000000
_cell_angle_beta 90.000000
_cell_angle_gamma 90.000000
_cell_volume 2001.864277
_symmetry_space_group_name_H-M "C M M 2"
_symmetry_group_IT_number 35
_symmetry_cell_setting 'orthorhombic'
loop_
_space_group_symop_operation_xyz
x,y,z
-x,-y,z
-x,y,z
x,-y,z
1/2+x,1/2+y,z
1/2-x,1/2-y,z
1/2-x,1/2+y,z
1/2+x,1/2-y,z
loop_
_atom_site_type_symbol
_atom_site_label
_atom_site_fract_x
_atom_site_fract_y
_atom_site_fract_z
Si Si1 0.811961 0.103094 0.100410
Si Si2 0.305365 0.173291 0.899746
Si Si3 0.198665 0.174203 0.661994
Si Si4 0.000000 0.500000 0.129216
Si Si5 0.299044 0.821990 0.290693
Si Si6 0.703168 0.923379 0.471999
O O1 0.651665 0.057017 0.127088
O O2 0.787670 0.166643 0.177690
O O3 0.000000 0.076028 0.118455
O O4 0.795816 0.125884 0.978514
O O5 0.500000 0.166671 0.928140
O O6 0.250000 0.250000 0.913425
O O7 0.281714 0.157896 0.775360
O O8 0.250000 0.250000 0.630867
O O9 0.245583 0.120157 0.573613
O O10 0.000000 0.174556 0.678547
O O11 0.500000 0.824359 0.281044
O O12 0.250000 0.750000 0.336365
O O13 0.242691 0.881952 0.368263
O O14 0.500000 0.925737 0.468871
O O15 0.764334 0.000000 0.473793
#
# Coordination Sequence:
#
# PCOD9350002 Si02
#       6
#     8   8   8   2   8   8
#     4  12  25  44  69  99 135 178 226 270 329 395
#     4  11  21  40  67  97 131 168 219 279 335 391
#     4  11  22  39  64  94 127 167 221 276 331 396
#     4  12  26  48  64  98 138 188 212 272 328 396
#     4  11  23  41  68  99 133 170 223 278 331 397
#     4  10  23  42  65  91 129 175 216 269 334 397
#
# _framework density 20.980443000000001
#
# number of rings (size 3 to 8) (size 9 to 14) (size 15 to 20)
#    0.000    0.952    1.905    6.571    1.333    3.429 
#    1.714    0.000    0.000    0.000    0.000    0.000 
#    0.000    0.000    0.000    0.000    0.000    0.000 
#
# Total GULP energy -117142.544322 kJ/mol
# GULP energy per Si atom -5578.216396 kJ/mol
# Density = 2.093269 g / cm^3
# Si number density = 20.980443 Si / 1000 Ang^3
#
#
#
# Elastic Constant Matrix: (Units=GPa)
#
#
# Indices 1 2 3 4 5 6 
#
# 1 132.6265 27.5185 9.9012 0.0000 0.0000 0.0000
# 2 27.5185 120.5502 47.5117 0.0000 0.0000 0.0000
# 3 9.9012 47.5117 78.1850 0.0000 0.0000 0.0000
# 4 0.0000 0.0000 0.0000 -62.1474 0.0000 0.0000
# 5 0.0000 0.0000 0.0000 0.0000 -1.8059 0.0000
# 6 0.0000 0.0000 0.0000 0.0000 0.0000 24.5094
#
#
#
# Elastic Compliance Matrix: (Units=1/GPa)
#
#
# Indices 1 2 3 4 5 6 
#
# 1 0.007916 -0.001857 0.000126 0.000000 0.000000 0.000000
# 2 -0.001857 0.011343 -0.006658 0.000000 0.000000 0.000000
# 3 0.000126 -0.006658 0.016820 0.000000 0.000000 0.000000
# 4 0.000000 0.000000 0.000000 -0.016091 0.000000 0.000000
# 5 0.000000 0.000000 0.000000 0.000000 -0.553741 0.000000
# 6 0.000000 0.000000 0.000000 0.000000 0.000000 0.040801
#
#
# Mechanical properties :
#
#
# Convention : Reuss Voigt Hill
#
# Bulk Modulus (GPa) = 51.80901 55.69160 53.75031
# Shear Modulus (GPa) = -10.64418 8.53990 -1.05214
#
# Velocity S-wave (km/s) = -2.25486 2.01971 -0.70892
# Velocity P-wave (km/s) = 4.23891 5.66049 5.00048
#
# Compressibility (1/GPa) = 0.01930166
#
# Stress axis : x y z
#
# Youngs Moduli (GPa) = 126.32975 88.15897 59.45250
#
# Poissons Ratio (x) = 0.16367 -0.00748
# Poissons Ratio (y) = 0.23453 0.39583
# Poissons Ratio (z) = -0.01588 0.58696
#
# Static dielectric constant tensor:
#      x y z
#    x 1.738990 0.000000 0.000000 
#    y 0.000000 1.805160 0.000000 
#    z 0.000000 0.000000 1.747580 
# 
# From -- ./inp_files/11213.got.cif
#   From: 2010.05.17/outbox.cif.g08.bks.cpg/sg35_6_cif.got.tgz:11213.got - 2010.06.03 17:29:28.
