data_PCOD9350265
_publ_section_title
;
Structure prediction by ZEFSAII (Michael W. Deem and Ramdas Pophale) SiO2 
 PCOD9350265
Probable space group: C M M 2
;
_chemical_formula_sum "Si O2"
_cell_formula_units_Z 58
_cell_length_a 8.932620
_cell_length_b 19.008601
_cell_length_c 18.004458
_cell_angle_alpha 90.000000
_cell_angle_beta 90.000000
_cell_angle_gamma 90.000000
_cell_volume 3057.095924
_symmetry_space_group_name_H-M "C M M 2"
_symmetry_group_IT_number 35
_symmetry_cell_setting 'orthorhombic'
loop_
_space_group_symop_operation_xyz
x,y,z
-x,-y,z
-x,y,z
x,-y,z
1/2+x,1/2+y,z
1/2-x,1/2-y,z
1/2-x,1/2+y,z
1/2+x,1/2-y,z
loop_
_atom_site_type_symbol
_atom_site_label
_atom_site_fract_x
_atom_site_fract_y
_atom_site_fract_z
Si Si1 0.172076 0.085332 0.650340
Si Si2 0.335250 0.360036 0.351525
Si Si3 0.322857 0.180651 0.203475
Si Si4 0.179138 0.827684 0.939245
Si Si5 0.000000 0.000000 0.316720
Si Si6 0.678997 0.083717 0.494697
Si Si7 0.678638 0.916067 0.805999
Si Si8 0.320080 0.081911 0.070889
O O1 0.253060 0.105778 0.574027
O O2 0.261588 0.104777 0.724503
O O3 0.000000 0.109751 0.652562
O O4 0.169428 0.000000 0.649768
O O5 0.500000 0.325530 0.361776
O O6 0.241198 0.326457 0.285907
O O7 0.373432 0.438109 0.322648
O O8 0.250759 0.370799 0.428921
O O9 0.500000 0.188912 0.205621
O O10 0.250000 0.250000 0.168140
O O11 0.286702 0.113977 0.151858
O O12 0.250000 0.750000 0.940243
O O13 0.238170 0.870569 0.867801
O O14 0.000000 0.822954 0.938718
O O15 0.236105 0.871739 0.010097
O O16 0.500000 0.089209 0.495134
O O17 0.716992 0.000000 0.483847
O O18 0.500000 0.906130 0.810968
O O19 0.708166 0.000000 0.816626
O O20 0.500000 0.087646 0.058835
O O21 0.279208 0.000000 0.065819
#
# Coordination Sequence:
#
# PCOD9350265 Si02
#       8
#     8   8   8   8   2   8   8   8
#     4   9  17  28  47  76 113 151 190 238 289 340
#     4  10  19  34  53  79 113 149 191 238 291 343
#     4  11  24  41  60  85 116 154 194 236 286 343
#     4  12  25  41  62  87 117 154 194 235 283 341
#     4   8  20  32  54  84 112 148 186 252 292 340
#     4  10  17  27  46  76 112 149 191 239 292 344
#     4  10  20  36  58  85 118 153 192 239 290 342
#     4  10  23  42  65  92 121 150 185 233 286 339
#
# _framework density 18.972252999999998
#
# number of rings (size 3 to 8) (size 9 to 14) (size 15 to 20)
#    0.414    1.379    0.690    4.138    0.966    7.172 
#    0.000    0.000    0.000    0.828    0.000    5.793 
#    0.000    0.000    0.000    0.000    0.000    0.000 
#
# Total GULP energy -161595.788176 kJ/mol
# GULP energy per Si atom -5572.268558 kJ/mol
# Density = 1.892907 g / cm^3
# Si number density = 18.972253 Si / 1000 Ang^3
#
#
#
# Elastic Constant Matrix: (Units=GPa)
#
#
# Indices 1 2 3 4 5 6 
#
# 1 115.5307 56.9768 85.3535 0.0000 0.0000 0.0000
# 2 56.9768 92.0224 61.0396 0.0000 0.0000 0.0000
# 3 85.3535 61.0396 157.7203 0.0000 0.0000 0.0000
# 4 0.0000 0.0000 0.0000 -137.0428 0.0000 0.0000
# 5 0.0000 0.0000 0.0000 0.0000 28.0798 0.0000
# 6 0.0000 0.0000 0.0000 0.0000 0.0000 27.3091
#
#
#
# Elastic Compliance Matrix: (Units=1/GPa)
#
#
# Indices 1 2 3 4 5 6 
#
# 1 0.016405 -0.005743 -0.006655 0.000000 0.000000 0.000000
# 2 -0.005743 0.016630 -0.003328 0.000000 0.000000 0.000000
# 3 -0.006655 -0.003328 0.011230 0.000000 0.000000 0.000000
# 4 0.000000 0.000000 0.000000 -0.007297 0.000000 0.000000
# 5 0.000000 0.000000 0.000000 0.000000 0.035613 0.000000
# 6 0.000000 0.000000 0.000000 0.000000 0.000000 0.036618
#
#
# Mechanical properties :
#
#
# Convention : Reuss Voigt Hill
#
# Bulk Modulus (GPa) = 78.04867 85.77927 81.91397
# Shear Modulus (GPa) = 34.50125 -5.53723 14.48201
#
# Velocity S-wave (km/s) = 4.26903 -1.71024 2.76583
# Velocity P-wave (km/s) = 8.09488 6.43516 7.31226
#
# Compressibility (1/GPa) = 0.01281252
#
# Stress axis : x y z
#
# Youngs Moduli (GPa) = 60.95803 60.13117 89.04643
#
# Poissons Ratio (x) = 0.34531 0.59263
# Poissons Ratio (y) = 0.35006 0.29638
# Poissons Ratio (z) = 0.40569 0.20014
#
# Static dielectric constant tensor:
#      x y z
#    x 1.658010 0.000000 0.000000 
#    y 0.000000 1.759360 0.000000 
#    z 0.000000 0.000000 1.644670 
# 
# From -- ./inp_files/18131.got.cif
#   From: 2010.05.17/outbox.cif.g08.bks.cpg/sg35_10_cif.got.tgz:18131.got - 2010.06.03 17:29:28.
