data_PCOD9350904
_publ_section_title
;
Structure prediction by ZEFSAII (Michael W. Deem and Ramdas Pophale) SiO2 
 PCOD9350904
Probable space group: C M C 21
;
_chemical_formula_sum "Si O2"
_cell_formula_units_Z 64
_cell_length_a 7.770006
_cell_length_b 21.177939
_cell_length_c 19.952916
_cell_angle_alpha 90.000000
_cell_angle_beta 90.000000
_cell_angle_gamma 90.000000
_cell_volume 3283.306462
_symmetry_space_group_name_H-M "C M C 21"
_symmetry_group_IT_number 36
_symmetry_cell_setting 'orthorhombic'
loop_
_space_group_symop_operation_xyz
x,y,z
-x,-y,1/2+z
x,-y,1/2+z
-x,y,z
1/2+x,1/2+y,z
1/2-x,1/2-y,1/2+z
1/2+x,1/2-y,1/2+z
1/2-x,1/2+y,z
loop_
_atom_site_type_symbol
_atom_site_label
_atom_site_fract_x
_atom_site_fract_y
_atom_site_fract_z
Si Si1 0.295704 0.859067 0.114620
Si Si2 0.699803 0.571151 0.985636
Si Si3 0.204866 0.367265 0.262811
Si Si4 0.791531 0.189585 0.901130
Si Si5 0.709577 0.505759 0.116889
Si Si6 0.211147 0.317284 0.972904
Si Si7 0.700318 0.488320 0.767209
Si Si8 0.198583 0.448245 0.908381
O O1 0.500000 0.847685 0.116169
O O2 0.229440 0.845466 0.189644
O O3 0.266038 0.933829 0.103054
O O4 0.228717 0.821846 0.050025
O O5 0.500000 0.586884 0.997653
O O6 0.774355 0.630069 0.944925
O O7 0.708207 0.508463 0.940216
O O8 0.772953 0.551204 0.057828
O O9 0.240007 0.321232 0.324310
O O10 0.283684 0.436101 0.277720
O O11 0.000000 0.377212 0.257625
O O12 0.732749 0.254916 0.933933
O O13 0.000000 0.188588 0.902370
O O14 0.500000 0.505296 0.116906
O O15 0.766731 0.523491 0.191923
O O16 0.264876 0.381750 0.935983
O O17 0.000000 0.316727 0.972901
O O18 0.500000 0.471124 0.769589
O O19 0.790232 0.453570 0.828400
O O20 0.000000 0.454085 0.929427
#
# Coordination Sequence:
#
# PCOD9350904 Si02
#       8
#     8   8   8   8   8   8   8   8
#     4   9  17  32  52  74 100 133 173 214 255 306
#     4  10  19  32  52  77 102 131 172 215 259 307
#     4  10  19  31  51  78 105 132 171 218 261 304
#     4  10  20  35  54  74 104 142 176 209 253 315
#     4   9  18  31  49  76 105 132 168 215 263 310
#     4   9  19  35  53  75 102 139 178 210 253 310
#     4  10  19  32  50  75 107 138 171 212 262 315
#     4  11  20  32  53  77 103 133 173 219 258 303
#
# _framework density 19.492545
#
# number of rings (size 3 to 8) (size 9 to 14) (size 15 to 20)
#    0.000    2.250    2.500    1.125    0.000    1.000 
#    0.000    3.125    0.000    3.000    0.000    0.000 
#    0.000    0.000    0.000    0.000    0.000    0.000 
#
# Total GULP energy -178525.641866 kJ/mol
# GULP energy per Si atom -5578.926308 kJ/mol
# Density = 1.944818 g / cm^3
# Si number density = 19.492545 Si / 1000 Ang^3
#
#
#
# Elastic Constant Matrix: (Units=GPa)
#
#
# Indices 1 2 3 4 5 6 
#
# 1 26.9104 -5.4487 -3.1415 0.0000 0.0000 0.0000
# 2 -5.4487 100.7192 74.9579 0.0000 0.0000 0.0000
# 3 -3.1415 74.9579 175.9969 0.0000 0.0000 0.0000
# 4 0.0000 0.0000 0.0000 31.0791 0.0000 0.0000
# 5 0.0000 0.0000 0.0000 0.0000 13.2498 0.0000
# 6 0.0000 0.0000 0.0000 0.0000 0.0000 13.1076
#
#
#
# Elastic Compliance Matrix: (Units=1/GPa)
#
#
# Indices 1 2 3 4 5 6 
#
# 1 0.037582 0.002246 -0.000286 0.000000 0.000000 0.000000
# 2 0.002246 0.014670 -0.006208 0.000000 0.000000 0.000000
# 3 -0.000286 -0.006208 0.008321 0.000000 0.000000 0.000000
# 4 0.000000 0.000000 0.000000 0.032176 0.000000 0.000000
# 5 0.000000 0.000000 0.000000 0.000000 0.075473 0.000000
# 6 0.000000 0.000000 0.000000 0.000000 0.000000 0.076291
#
#
# Mechanical properties :
#
#
# Convention : Reuss Voigt Hill
#
# Bulk Modulus (GPa) = 19.20237 48.48465 33.84351
# Shear Modulus (GPa) = 18.49331 27.30456 22.89893
#
# Velocity S-wave (km/s) = 3.08350 3.74675 3.43119
# Velocity P-wave (km/s) = 4.74866 6.60643 5.75303
#
# Compressibility (1/GPa) = 0.05207689
#
# Stress axis : x y z
#
# Youngs Moduli (GPa) = 26.60865 68.16494 120.17976
#
# Poissons Ratio (x) = -0.15308 0.03433
# Poissons Ratio (y) = -0.05975 0.74608
# Poissons Ratio (z) = 0.00760 0.42317
#
# Static dielectric constant tensor:
#      x y z
#    x 1.725380 0.000000 0.000000 
#    y 0.000000 1.640120 0.000000 
#    z 0.000000 0.000000 1.717620 
# 
# From -- ./inp_files/15620.got.cif
#   From: 2010.05.17/outbox.cif.g08.bks.cpg/sg36_8_cif.got.tgz:15620.got - 2010.06.03 17:41:39.
