data_PCOD9350314
_publ_section_title
;
Structure prediction by ZEFSAII (Michael W. Deem and Ramdas Pophale) SiO2 
 PCOD9350314
Probable space group: C M M 2
;
_chemical_formula_sum "Si O2"
_cell_formula_units_Z 56
_cell_length_a 8.777885
_cell_length_b 18.407970
_cell_length_c 19.155782
_cell_angle_alpha 90.000000
_cell_angle_beta 90.000000
_cell_angle_gamma 90.000000
_cell_volume 3095.249561
_symmetry_space_group_name_H-M "C M M 2"
_symmetry_group_IT_number 35
_symmetry_cell_setting 'orthorhombic'
loop_
_space_group_symop_operation_xyz
x,y,z
-x,-y,z
-x,y,z
x,-y,z
1/2+x,1/2+y,z
1/2-x,1/2-y,z
1/2-x,1/2+y,z
1/2+x,1/2-y,z
loop_
_atom_site_type_symbol
_atom_site_label
_atom_site_fract_x
_atom_site_fract_y
_atom_site_fract_z
Si Si1 0.317277 0.331945 0.799990
Si Si2 0.819834 0.669275 0.505661
Si Si3 0.676700 0.587367 0.377537
Si Si4 0.676853 0.088514 0.232598
Si Si5 0.683240 0.831037 0.941814
Si Si6 0.685687 0.083545 0.080110
Si Si7 0.317576 0.331769 0.647276
O O1 0.500000 0.328200 0.806832
O O2 0.250000 0.250000 0.798003
O O3 0.246078 0.365517 0.869833
O O4 0.281300 0.364808 0.723582
O O5 0.750000 0.750000 0.498061
O O6 0.774783 0.623602 0.438034
O O7 0.751130 0.635109 0.576890
O O8 0.000000 0.675283 0.513035
O O9 0.500000 0.605687 0.388506
O O10 0.693055 0.500000 0.380471
O O11 0.729566 0.611157 0.300352
O O12 0.500000 0.109727 0.241385
O O13 0.734257 0.112789 0.156236
O O14 0.679757 0.000000 0.229786
O O15 0.500000 0.828530 0.938508
O O16 0.750000 0.750000 0.945768
O O17 0.731393 0.872547 0.011846
O O18 0.500000 0.083443 0.082367
O O19 0.735195 0.000000 0.073431
O O20 0.500000 0.327996 0.641152
O O21 0.250000 0.250000 0.648647
#
# Coordination Sequence:
#
# PCOD9350314 Si02
#       7
#     8   8   8   8   8   8   8
#     4   9  16  26  42  64  91 122 156 192 229 273
#     4  11  21  33  51  74 101 129 160 198 241 288
#     4  10  20  34  52  74 100 128 160 198 240 286
#     4   8  14  28  50  71  90 117 158 201 235 274
#     4  10  18  28  45  68  95 123 152 190 235 280
#     4   8  15  29  49  70  90 118 158 198 233 272
#     4   9  16  27  44  66  92 122 157 195 235 277
#
# _framework density 18.09224
#
# number of rings (size 3 to 8) (size 9 to 14) (size 15 to 20)
#    0.000    2.714    0.000    5.571    0.000    2.571 
#    0.000    2.143    0.000    6.000    0.000    4.000 
#    0.000    0.000    0.000    0.000    0.000    0.000 
#
# Total GULP energy -155954.391293 kJ/mol
# GULP energy per Si atom -5569.799689 kJ/mol
# Density = 1.805106 g / cm^3
# Si number density = 18.092240 Si / 1000 Ang^3
#
#
#
# Elastic Constant Matrix: (Units=GPa)
#
#
# Indices 1 2 3 4 5 6 
#
# 1 81.7814 13.2762 54.1484 0.0000 0.0000 0.0000
# 2 13.2762 10.2321 28.6174 0.0000 0.0000 0.0000
# 3 54.1484 28.6174 191.0252 0.0000 0.0000 0.0000
# 4 0.0000 0.0000 0.0000 27.8497 0.0000 0.0000
# 5 0.0000 0.0000 0.0000 0.0000 30.0175 0.0000
# 6 0.0000 0.0000 0.0000 0.0000 0.0000 13.0741
#
#
#
# Elastic Compliance Matrix: (Units=1/GPa)
#
#
# Indices 1 2 3 4 5 6 
#
# 1 0.016143 -0.014023 -0.002475 0.000000 0.000000 0.000000
# 2 -0.014023 0.180390 -0.023049 0.000000 0.000000 0.000000
# 3 -0.002475 -0.023049 0.009390 0.000000 0.000000 0.000000
# 4 0.000000 0.000000 0.000000 0.035907 0.000000 0.000000
# 5 0.000000 0.000000 0.000000 0.000000 0.033314 0.000000
# 6 0.000000 0.000000 0.000000 0.000000 0.000000 0.076487
#
#
# Mechanical properties :
#
#
# Convention : Reuss Voigt Hill
#
# Bulk Modulus (GPa) = 7.88468 52.79140 30.33804
# Shear Modulus (GPa) = 10.57080 26.65471 18.61275
#
# Velocity S-wave (km/s) = 2.41979 3.84248 3.21092
# Velocity P-wave (km/s) = 3.48923 6.99490 5.52735
#
# Compressibility (1/GPa) = 0.12682818
#
# Stress axis : x y z
#
# Youngs Moduli (GPa) = 61.94637 5.54354 106.50175
#
# Poissons Ratio (x) = 0.07774 0.26361
# Poissons Ratio (y) = 0.86867 2.45478
# Poissons Ratio (z) = 0.15333 0.12777
#
# Static dielectric constant tensor:
#      x y z
#    x 1.610560 0.000000 0.000000 
#    y 0.000000 1.601510 0.000000 
#    z 0.000000 0.000000 1.685720 
# 
# From -- ./inp_files/18232.got.cif
#   From: 2010.05.17/outbox.cif.g08.bks.cpg/sg35_10_cif.got.tgz:18232.got - 2010.06.03 17:29:28.
