data_PCOD9350410
_publ_section_title
;
Structure prediction by ZEFSAII (Michael W. Deem and Ramdas Pophale) SiO2 
 PCOD9350410
Probable space group: C M M 2
;
_chemical_formula_sum "Si O2"
_cell_formula_units_Z 52
_cell_length_a 14.667839
_cell_length_b 29.450286
_cell_length_c 7.516946
_cell_angle_alpha 90.000000
_cell_angle_beta 90.000000
_cell_angle_gamma 90.000000
_cell_volume 3247.110600
_symmetry_space_group_name_H-M "C M M 2"
_symmetry_group_IT_number 35
_symmetry_cell_setting 'orthorhombic'
loop_
_space_group_symop_operation_xyz
x,y,z
-x,-y,z
-x,y,z
x,-y,z
1/2+x,1/2+y,z
1/2-x,1/2-y,z
1/2-x,1/2+y,z
1/2+x,1/2-y,z
loop_
_atom_site_type_symbol
_atom_site_label
_atom_site_fract_x
_atom_site_fract_y
_atom_site_fract_z
Si Si1 0.812042 0.643918 0.568020
Si Si2 0.188917 0.643265 0.989429
Si Si3 0.105183 0.551111 0.561309
Si Si4 0.205237 0.800823 0.278140
Si Si5 0.605079 0.948855 0.994798
Si Si6 0.500000 0.801996 0.578600
Si Si7 0.500000 0.726888 0.282160
Si Si8 0.000000 0.696424 0.987703
O O1 0.789461 0.644671 0.778583
O O2 0.829177 0.592038 0.507631
O O3 0.742243 0.672008 0.449308
O O4 0.910221 0.668177 0.546404
O O5 0.172625 0.591258 0.048548
O O6 0.090114 0.666615 0.014602
O O7 0.258437 0.671699 0.107295
O O8 0.130860 0.500000 0.506881
O O9 0.103701 0.552064 0.778060
O O10 0.000000 0.559135 0.505063
O O11 0.250000 0.750000 0.277515
O O12 0.096094 0.798677 0.278483
O O13 0.500000 0.940221 0.050680
O O14 0.629537 0.000000 0.049870
O O15 0.500000 0.758642 0.455188
O O16 0.500000 0.788242 0.783952
O O17 0.500000 0.761450 0.117400
#
# Coordination Sequence:
#
# PCOD9350410 Si02
#       8
#     8   8   8   8   8   4   4   4
#     4  10  19  33  52  77 105 137 168 197 243 301
#     4  10  19  33  52  77 105 137 168 197 243 301
#     4   8  13  24  46  76 108 137 161 192 240 298
#     4  12  24  36  53  71  97 133 173 217 252 295
#     4   8  13  24  46  76 108 137 161 192 240 298
#     4  10  18  30  53  76 102 133 164 201 243 295
#     4  12  24  40  48  70  98 128 174 222 258 282
#     4  10  18  30  53  76 102 133 164 201 243 295
#
# _framework density 16.014237999999999
#
# number of rings (size 3 to 8) (size 9 to 14) (size 15 to 20)
#    0.000    2.154    4.615    0.923    0.000    1.846 
#    0.000    0.769    0.000    1.846    0.000    2.154 
#    0.000    4.923    0.000    0.000    0.000    0.000 
#
# Total GULP energy -145025.842203 kJ/mol
# GULP energy per Si atom -5577.917008 kJ/mol
# Density = 1.597779 g / cm^3
# Si number density = 16.014238 Si / 1000 Ang^3
#
#
#
# Elastic Constant Matrix: (Units=GPa)
#
#
# Indices 1 2 3 4 5 6 
#
# 1 76.4447 40.1403 33.0686 0.0000 0.0000 0.0000
# 2 40.1403 113.4459 34.9169 0.0000 0.0000 0.0000
# 3 33.0686 34.9169 46.4730 0.0000 0.0000 0.0000
# 4 0.0000 0.0000 0.0000 23.6214 0.0000 0.0000
# 5 0.0000 0.0000 0.0000 0.0000 25.8003 0.0000
# 6 0.0000 0.0000 0.0000 0.0000 0.0000 9.0788
#
#
#
# Elastic Compliance Matrix: (Units=1/GPa)
#
#
# Indices 1 2 3 4 5 6 
#
# 1 0.019908 -0.003491 -0.011543 0.000000 0.000000 0.000000
# 2 -0.003491 0.012079 -0.006591 0.000000 0.000000 0.000000
# 3 -0.011543 -0.006591 0.034683 0.000000 0.000000 0.000000
# 4 0.000000 0.000000 0.000000 0.042335 0.000000 0.000000
# 5 0.000000 0.000000 0.000000 0.000000 0.038759 0.000000
# 6 0.000000 0.000000 0.000000 0.000000 0.000000 0.110146
#
#
# Mechanical properties :
#
#
# Convention : Reuss Voigt Hill
#
# Bulk Modulus (GPa) = 42.69832 50.29058 46.49445
# Shear Modulus (GPa) = 16.18303 20.24929 18.21616
#
# Velocity S-wave (km/s) = 3.18235 3.55978 3.37634
# Velocity P-wave (km/s) = 6.34222 6.95470 6.65551
#
# Compressibility (1/GPa) = 0.02342012
#
# Stress axis : x y z
#
# Youngs Moduli (GPa) = 50.23191 82.79079 28.83248
#
# Poissons Ratio (x) = 0.28905 0.33280
# Poissons Ratio (y) = 0.17537 0.19003
# Poissons Ratio (z) = 0.57980 0.54566
#
# Static dielectric constant tensor:
#      x y z
#    x 1.505920 0.000000 0.000000 
#    y 0.000000 1.553660 0.000000 
#    z 0.000000 0.000000 1.647870 
# 
# From -- ./inp_files/6421.got.cif
#   From: 2010.05.17/outbox.cif.g08.bks.cpg/sg35_4_cif.got.tgz:6421.got - 2010.06.03 17:29:28.
