data_PCOD9350943
_publ_section_title
;
Structure prediction by ZEFSAII (Michael W. Deem and Ramdas Pophale) SiO2 
 PCOD9350943
Probable space group: C M C 21
;
_chemical_formula_sum "Si O2"
_cell_formula_units_Z 64
_cell_length_a 10.043413
_cell_length_b 23.479547
_cell_length_c 16.242018
_cell_angle_alpha 90.000000
_cell_angle_beta 90.000000
_cell_angle_gamma 90.000000
_cell_volume 3830.108024
_symmetry_space_group_name_H-M "C M C 21"
_symmetry_group_IT_number 36
_symmetry_cell_setting 'orthorhombic'
loop_
_space_group_symop_operation_xyz
x,y,z
-x,-y,1/2+z
x,-y,1/2+z
-x,y,z
1/2+x,1/2+y,z
1/2-x,1/2-y,1/2+z
1/2+x,1/2-y,1/2+z
1/2-x,1/2+y,z
loop_
_atom_site_type_symbol
_atom_site_label
_atom_site_fract_x
_atom_site_fract_y
_atom_site_fract_z
Si Si1 0.337749 0.709922 0.843700
Si Si2 0.839415 0.600419 0.151127
Si Si3 0.654584 0.940983 0.929111
Si Si4 0.656750 0.636799 0.003477
Si Si5 0.839289 0.338665 0.823616
Si Si6 0.644165 0.531185 0.884302
Si Si7 0.344322 0.966845 0.122293
Si Si8 0.848615 0.111372 0.725381
O O1 0.500000 0.708442 0.843304
O O2 0.289255 0.774234 0.831957
O O3 0.298673 0.670126 0.766490
O O4 0.301695 0.681424 0.931620
O O5 0.754419 0.632690 0.081012
O O6 0.804822 0.627927 0.239612
O O7 0.809711 0.532435 0.145352
O O8 0.000000 0.606188 0.138185
O O9 0.500000 0.947110 0.906839
O O10 0.696917 0.878045 0.901360
O O11 0.740568 0.986011 0.879722
O O12 0.668509 0.956406 0.024611
O O13 0.500000 0.647011 0.024519
O O14 0.662887 0.575113 0.959203
O O15 0.000000 0.333932 0.822842
O O16 0.500000 0.502788 0.894370
O O17 0.641683 0.569659 0.803746
O O18 0.500000 0.958603 0.144650
O O19 0.250558 0.920339 0.164599
O O20 0.000000 0.118671 0.692564
#
# Coordination Sequence:
#
# PCOD9350943 Si02
#       8
#     8   8   8   8   8   8   8   8
#     4   8  16  34  54  72  96 130 175 210 240 299
#     4  10  19  32  51  77 104 130 166 209 253 301
#     4  10  19  32  51  73 101 136 167 201 248 300
#     4   9  17  31  53  76  97 127 166 208 250 294
#     4   9  18  33  53  73  98 137 175 205 246 301
#     4   9  17  30  49  73  99 127 162 202 250 301
#     4  10  20  32  47  76 110 131 160 206 254 304
#     4   9  18  32  52  74  95 128 169 207 247 294
#
# _framework density 16.709710999999999
#
# number of rings (size 3 to 8) (size 9 to 14) (size 15 to 20)
#    0.000    2.750    1.250    2.250    0.000    2.500 
#    2.250    2.500    0.000    2.250    0.000    0.000 
#    0.000    0.000    0.000    0.000    0.000    0.000 
#
# Total GULP energy -178139.916399 kJ/mol
# GULP energy per Si atom -5566.872387 kJ/mol
# Density = 1.667168 g / cm^3
# Si number density = 16.709711 Si / 1000 Ang^3
#
#
#
# Elastic Constant Matrix: (Units=GPa)
#
#
# Indices 1 2 3 4 5 6 
#
# 1 31.4702 40.1571 27.9897 0.0000 0.0000 0.0000
# 2 40.1571 135.6408 42.2015 0.0000 0.0000 0.0000
# 3 27.9897 42.2015 41.9090 0.0000 0.0000 0.0000
# 4 0.0000 0.0000 0.0000 20.1144 0.0000 0.0000
# 5 0.0000 0.0000 0.0000 0.0000 14.0272 0.0000
# 6 0.0000 0.0000 0.0000 0.0000 0.0000 14.8296
#
#
#
# Elastic Compliance Matrix: (Units=1/GPa)
#
#
# Indices 1 2 3 4 5 6 
#
# 1 0.088984 -0.011437 -0.047912 0.000000 0.000000 0.000000
# 2 -0.011437 0.012206 -0.004653 0.000000 0.000000 0.000000
# 3 -0.047912 -0.004653 0.060545 0.000000 0.000000 0.000000
# 4 0.000000 0.000000 0.000000 0.049716 0.000000 0.000000
# 5 0.000000 0.000000 0.000000 0.000000 0.071290 0.000000
# 6 0.000000 0.000000 0.000000 0.000000 0.000000 0.067432
#
#
# Mechanical properties :
#
#
# Convention : Reuss Voigt Hill
#
# Bulk Modulus (GPa) = 29.64647 47.74629 38.69638
# Shear Modulus (GPa) = 10.21613 16.37236 13.29424
#
# Velocity S-wave (km/s) = 2.47531 3.13359 2.82370
# Velocity P-wave (km/s) = 5.09413 6.45976 5.81716
#
# Compressibility (1/GPa) = 0.03373083
#
# Stress axis : x y z
#
# Youngs Moduli (GPa) = 11.23796 81.92670 16.51650
#
# Poissons Ratio (x) = 0.93702 0.79135
# Poissons Ratio (y) = 0.12853 0.07684
# Poissons Ratio (z) = 0.53844 0.38117
#
# Static dielectric constant tensor:
#      x y z
#    x 1.564230 0.000000 0.000000 
#    y 0.000000 1.573000 0.000000 
#    z 0.000000 0.000000 1.572640 
# 
# From -- ./inp_files/10912.got.cif
#   From: 2010.05.17/outbox.cif.g08.bks.cpg/sg36_6_cif.got.tgz:10912.got - 2010.06.03 17:41:39.
