data_PCOD9350390
_publ_section_title
;
Structure prediction by ZEFSAII (Michael W. Deem and Ramdas Pophale) SiO2 
 PCOD9350390
Probable space group: C M M 2
;
_chemical_formula_sum "Si O2"
_cell_formula_units_Z 56
_cell_length_a 22.050825
_cell_length_b 8.195356
_cell_length_c 14.545805
_cell_angle_alpha 90.000000
_cell_angle_beta 90.000000
_cell_angle_gamma 90.000000
_cell_volume 2628.635855
_symmetry_space_group_name_H-M "C M M 2"
_symmetry_group_IT_number 35
_symmetry_cell_setting 'orthorhombic'
loop_
_space_group_symop_operation_xyz
x,y,z
-x,-y,z
-x,y,z
x,-y,z
1/2+x,1/2+y,z
1/2-x,1/2-y,z
1/2-x,1/2+y,z
1/2+x,1/2-y,z
loop_
_atom_site_type_symbol
_atom_site_label
_atom_site_fract_x
_atom_site_fract_y
_atom_site_fract_z
Si Si1 0.686054 0.308210 0.674030
Si Si2 0.372513 0.806654 0.851050
Si Si3 0.566950 0.196659 0.566834
Si Si4 0.814366 0.696539 0.244681
Si Si5 0.500000 0.311363 0.869150
Si Si6 0.066380 0.301782 0.350091
Si Si7 0.500000 0.812665 0.071296
Si Si8 0.867314 0.699729 0.060119
O O1 0.688344 0.500000 0.684084
O O2 0.750000 0.250000 0.633016
O O3 0.676892 0.231762 0.774985
O O4 0.626378 0.261692 0.616697
O O5 0.436586 0.727124 0.820945
O O6 0.381758 0.000000 0.854867
O O7 0.357525 0.747789 0.954801
O O8 0.500000 0.253061 0.600142
O O9 0.570164 0.236074 0.458325
O O10 0.567785 0.000000 0.575933
O O11 0.816109 0.500000 0.245908
O O12 0.750000 0.750000 0.283611
O O13 0.873721 0.757077 0.298525
O O14 0.821029 0.751502 0.138438
O O15 0.500000 0.500000 0.897970
O O16 0.500000 0.197018 0.959731
O O17 0.066169 0.500000 0.342441
O O18 0.000000 0.246033 0.315161
O O19 0.565792 0.743189 0.093659
O O20 0.500000 0.000000 0.103805
O O21 0.868924 0.500000 0.058641
#
# Coordination Sequence:
#
# PCOD9350390 Si02
#       8
#     8   8   8   8   4   8   4   8
#     4  12  26  42  60  86 118 154 199 244 296 355
#     4  10  20  37  57  80 114 155 199 244 292 341
#     4   9  19  39  65  91 119 150 188 236 296 356
#     4  10  20  34  53  82 117 151 190 233 282 338
#     4  10  18  30  50  80 111 144 189 238 289 342
#     4   8  16  33  60  90 114 143 187 237 282 334
#     4   8  14  28  48  72  99 134 185 242 291 330
#     4   8  16  30  52  79 107 144 191 239 283 333
#
# _framework density 21.303826000000001
#
# number of rings (size 3 to 8) (size 9 to 14) (size 15 to 20)
#    0.000    2.571    0.000    4.071    2.000    1.429 
#    0.000    7.143    0.000    1.286    0.000    0.000 
#    0.000    0.000    0.000    0.000    0.000    0.000 
#
# Total GULP energy -156204.912629 kJ/mol
# GULP energy per Si atom -5578.746880 kJ/mol
# Density = 2.125534 g / cm^3
# Si number density = 21.303826 Si / 1000 Ang^3
#
#
#
# Elastic Constant Matrix: (Units=GPa)
#
#
# Indices 1 2 3 4 5 6 
#
# 1 171.4848 11.4023 62.7275 0.0000 0.0000 0.0000
# 2 11.4023 36.2501 13.7400 0.0000 0.0000 0.0000
# 3 62.7275 13.7400 64.5240 0.0000 0.0000 0.0000
# 4 0.0000 0.0000 0.0000 1.8457 0.0000 0.0000
# 5 0.0000 0.0000 0.0000 0.0000 28.8925 0.0000
# 6 0.0000 0.0000 0.0000 0.0000 0.0000 25.9372
#
#
#
# Elastic Compliance Matrix: (Units=1/GPa)
#
#
# Indices 1 2 3 4 5 6 
#
# 1 0.009059 0.000531 -0.008920 0.000000 0.000000 0.000000
# 2 0.000531 0.030039 -0.006913 0.000000 0.000000 0.000000
# 3 -0.008920 -0.006913 0.025642 0.000000 0.000000 0.000000
# 4 0.000000 0.000000 0.000000 0.541808 0.000000 0.000000
# 5 0.000000 0.000000 0.000000 0.000000 0.034611 0.000000
# 6 0.000000 0.000000 0.000000 0.000000 0.000000 0.038555
#
#
# Mechanical properties :
#
#
# Convention : Reuss Voigt Hill
#
# Bulk Modulus (GPa) = 29.29410 49.77760 39.53585
# Shear Modulus (GPa) = 6.92812 23.62769 15.27790
#
# Velocity S-wave (km/s) = 1.80530 3.33390 2.68086
# Velocity P-wave (km/s) = 4.25746 6.18354 5.30858
#
# Compressibility (1/GPa) = 0.03413657
#
# Stress axis : x y z
#
# Youngs Moduli (GPa) = 110.38907 33.28963 38.99889
#
# Poissons Ratio (x) = -0.01769 0.34786
# Poissons Ratio (y) = -0.05867 0.26961
# Poissons Ratio (z) = 0.98465 0.23014
#
# Static dielectric constant tensor:
#      x y z
#    x 1.800060 0.000000 0.000000 
#    y 0.000000 1.761300 0.000000 
#    z 0.000000 0.000000 1.781420 
# 
# From -- ./inp_files/17497.got.cif
#   From: 2010.05.17/outbox.cif.g08.bks.cpg/sg35_9_cif.got.tgz:17497.got - 2010.06.03 17:29:28.
