data_PCOD9350348
_publ_section_title
;
Structure prediction by ZEFSAII (Michael W. Deem and Ramdas Pophale) SiO2 
 PCOD9350348
Probable space group: C M M 2
;
_chemical_formula_sum "Si O2"
_cell_formula_units_Z 48
_cell_length_a 8.400414
_cell_length_b 15.956626
_cell_length_c 17.907733
_cell_angle_alpha 90.000000
_cell_angle_beta 90.000000
_cell_angle_gamma 90.000000
_cell_volume 2400.393082
_symmetry_space_group_name_H-M "C M M 2"
_symmetry_group_IT_number 35
_symmetry_cell_setting 'orthorhombic'
loop_
_space_group_symop_operation_xyz
x,y,z
-x,-y,z
-x,y,z
x,-y,z
1/2+x,1/2+y,z
1/2-x,1/2-y,z
1/2-x,1/2+y,z
1/2+x,1/2-y,z
loop_
_atom_site_type_symbol
_atom_site_label
_atom_site_fract_x
_atom_site_fract_y
_atom_site_fract_z
Si Si1 0.809475 0.154398 0.268580
Si Si2 0.190434 0.161728 0.952785
Si Si3 0.309795 0.153825 0.423503
Si Si4 0.806596 0.095034 0.107507
Si Si5 0.307552 0.845946 0.589330
Si Si6 0.690836 0.000000 0.863953
Si Si7 0.194561 0.500000 0.691817
O O1 0.750000 0.250000 0.267637
O O2 0.753746 0.114455 0.346794
O O3 0.750149 0.115413 0.190884
O O4 0.000000 0.153109 0.268657
O O5 0.250000 0.250000 0.922132
O O6 0.000000 0.160816 0.953771
O O7 0.248830 0.082645 0.905906
O O8 0.249386 0.151322 0.038698
O O9 0.500000 0.152554 0.419666
O O10 0.250000 0.250000 0.422918
O O11 0.260441 0.123228 0.505671
O O12 0.000000 0.100509 0.109841
O O13 0.764517 0.000000 0.088452
O O14 0.500000 0.843002 0.590740
O O15 0.250000 0.750000 0.600898
O O16 0.253921 0.915369 0.648883
O O17 0.744747 0.000000 0.777800
O O18 0.500000 0.000000 0.865129
O O19 0.000000 0.500000 0.690053
#
# Coordination Sequence:
#
# PCOD9350348 Si02
#       7
#     8   8   8   8   8   4   4
#     4  10  18  29  49  73 103 140 183 228 273 324
#     4  11  22  40  65  89 118 155 195 238 290 347
#     4   9  16  28  48  73 103 139 181 225 271 321
#     4   9  18  34  54  76 107 149 189 230 280 333
#     4   9  18  35  58  81 109 148 187 227 276 331
#     4  11  23  41  63  90 121 150 190 239 291 353
#     4   9  20  39  61  84 113 148 182 225 283 343
#
# _framework density 19.996725000000001
#
# number of rings (size 3 to 8) (size 9 to 14) (size 15 to 20)
#    0.000    2.333    0.833    3.250    0.000    1.333 
#    1.500    6.250    0.000    0.000    0.000    0.000 
#    0.000    0.000    0.000    0.000    0.000    0.000 
#
# Total GULP energy -133850.009923 kJ/mol
# GULP energy per Si atom -5577.083747 kJ/mol
# Density = 1.995121 g / cm^3
# Si number density = 19.996725 Si / 1000 Ang^3
#
#
#
# Elastic Constant Matrix: (Units=GPa)
#
#
# Indices 1 2 3 4 5 6 
#
# 1 33.9930 15.7098 31.4986 0.0000 0.0000 0.0000
# 2 15.7098 118.3936 78.2026 0.0000 0.0000 0.0000
# 3 31.4986 78.2026 174.8809 0.0000 0.0000 0.0000
# 4 0.0000 0.0000 0.0000 97.2175 0.0000 0.0000
# 5 0.0000 0.0000 0.0000 0.0000 33.3737 0.0000
# 6 0.0000 0.0000 0.0000 0.0000 0.0000 20.5954
#
#
#
# Elastic Compliance Matrix: (Units=1/GPa)
#
#
# Indices 1 2 3 4 5 6 
#
# 1 0.035351 -0.000688 -0.006059 0.000000 0.000000 0.000000
# 2 -0.000688 0.012000 -0.005242 0.000000 0.000000 0.000000
# 3 -0.006059 -0.005242 0.009154 0.000000 0.000000 0.000000
# 4 0.000000 0.000000 0.000000 0.010286 0.000000 0.000000
# 5 0.000000 0.000000 0.000000 0.000000 0.029964 0.000000
# 6 0.000000 0.000000 0.000000 0.000000 0.000000 0.048555
#
#
# Mechanical properties :
#
#
# Convention : Reuss Voigt Hill
#
# Bulk Modulus (GPa) = 30.74574 64.23217 47.48896
# Shear Modulus (GPa) = 27.75758 43.69443 35.72601
#
# Velocity S-wave (km/s) = 3.72977 4.67955 4.23140
# Velocity P-wave (km/s) = 5.82727 7.83510 6.90455
#
# Compressibility (1/GPa) = 0.03252483
#
# Stress axis : x y z
#
# Youngs Moduli (GPa) = 28.28805 83.33014 109.24415
#
# Poissons Ratio (x) = 0.05736 0.66195
# Poissons Ratio (y) = 0.01947 0.57270
# Poissons Ratio (z) = 0.17141 0.43685
#
# Static dielectric constant tensor:
#      x y z
#    x 1.687610 0.000000 0.000000 
#    y 0.000000 1.682150 0.000000 
#    z 0.000000 0.000000 1.755550 
# 
# From -- ./inp_files/17855.got.cif
#   From: 2010.05.17/outbox.cif.g08.bks.cpg/sg35_9_cif.got.tgz:17855.got - 2010.06.03 17:29:28.
