data_PCOD9350515
_publ_section_title
;
Structure prediction by ZEFSAII (Michael W. Deem and Ramdas Pophale) SiO2 
 PCOD9350515
Probable space group: C M C 21
;
_chemical_formula_sum "Si O2"
_cell_formula_units_Z 56
_cell_length_a 20.579830
_cell_length_b 13.825481
_cell_length_c 10.930307
_cell_angle_alpha 90.000000
_cell_angle_beta 90.000000
_cell_angle_gamma 90.000000
_cell_volume 3109.957061
_symmetry_space_group_name_H-M "C M C 21"
_symmetry_group_IT_number 36
_symmetry_cell_setting 'orthorhombic'
loop_
_space_group_symop_operation_xyz
x,y,z
-x,-y,1/2+z
x,-y,1/2+z
-x,y,z
1/2+x,1/2+y,z
1/2-x,1/2-y,1/2+z
1/2+x,1/2-y,1/2+z
1/2-x,1/2+y,z
loop_
_atom_site_type_symbol
_atom_site_label
_atom_site_fract_x
_atom_site_fract_y
_atom_site_fract_z
Si Si1 0.834853 0.278479 0.881340
Si Si2 0.741058 0.591519 0.955047
Si Si3 0.423286 0.072423 0.518117
Si Si4 0.773556 0.877524 0.017590
Si Si5 0.147647 0.711124 0.095525
Si Si6 0.174390 0.602766 0.723332
Si Si7 0.071636 0.628844 0.896459
O O1 0.813922 0.170190 0.921548
O O2 0.853797 0.284555 0.740235
O O3 0.890686 0.331325 0.961183
O O4 0.768236 0.339087 0.903387
O O5 0.780275 0.561427 0.831245
O O6 0.717555 0.491811 0.013221
O O7 0.793244 0.643782 0.044226
O O8 0.500000 0.081594 0.548483
O O9 0.376364 0.046665 0.634040
O O10 0.418201 0.986219 0.418545
O O11 0.837244 0.816466 0.040299
O O12 0.725671 0.851199 0.130992
O O13 0.083734 0.671872 0.029998
O O14 0.125067 0.667736 0.802396
O O15 0.000000 0.646533 0.850962
#
# Coordination Sequence:
#
# PCOD9350515 Si02
#       7
#     8   8   8   8   8   8   8
#     4  10  20  34  52  77 108 139 178 219 269 320
#     4  10  21  32  52  80 108 141 174 220 272 318
#     4  10  22  34  51  78 108 144 178 215 262 314
#     4  10  21  32  52  80 108 141 174 220 272 318
#     4  10  20  34  52  77 108 139 178 219 269 320
#     4  10  17  34  52  74 107 138 174 214 256 314
#     4  10  22  34  51  78 108 144 178 215 262 314
#
# _framework density 18.006678999999998
#
# number of rings (size 3 to 8) (size 9 to 14) (size 15 to 20)
#    0.000    2.000    1.429    3.857    8.000    0.571 
#    0.000    0.000    0.000    0.857    0.000    0.000 
#    0.000    0.000    0.000    0.000    0.000    0.000 
#
# Total GULP energy -155898.521531 kJ/mol
# GULP energy per Si atom -5567.804340 kJ/mol
# Density = 1.796570 g / cm^3
# Si number density = 18.006679 Si / 1000 Ang^3
#
#
#
# Elastic Constant Matrix: (Units=GPa)
#
#
# Indices 1 2 3 4 5 6 
#
# 1 61.8529 23.2025 13.8642 0.0000 0.0000 0.0000
# 2 23.2025 98.5089 18.6693 0.0000 0.0000 0.0000
# 3 13.8642 18.6693 72.0478 0.0000 0.0000 0.0000
# 4 0.0000 0.0000 0.0000 8.5351 0.0000 0.0000
# 5 0.0000 0.0000 0.0000 0.0000 14.1651 0.0000
# 6 0.0000 0.0000 0.0000 0.0000 0.0000 14.2792
#
#
#
# Elastic Compliance Matrix: (Units=1/GPa)
#
#
# Indices 1 2 3 4 5 6 
#
# 1 0.018156 -0.003801 -0.002509 0.000000 0.000000 0.000000
# 2 -0.003801 0.011471 -0.002241 0.000000 0.000000 0.000000
# 3 -0.002509 -0.002241 0.014943 0.000000 0.000000 0.000000
# 4 0.000000 0.000000 0.000000 0.117163 0.000000 0.000000
# 5 0.000000 0.000000 0.000000 0.000000 0.070596 0.000000
# 6 0.000000 0.000000 0.000000 0.000000 0.000000 0.070032
#
#
# Mechanical properties :
#
#
# Convention : Reuss Voigt Hill
#
# Bulk Modulus (GPa) = 36.40527 38.20909 37.30718
# Shear Modulus (GPa) = 15.21521 19.17412 17.19466
#
# Velocity S-wave (km/s) = 2.91000 3.26672 3.09351
# Velocity P-wave (km/s) = 5.61715 5.95769 5.78992
#
# Compressibility (1/GPa) = 0.02746855
#
# Stress axis : x y z
#
# Youngs Moduli (GPa) = 55.07971 87.17385 66.92022
#
# Poissons Ratio (x) = 0.33133 0.16789
# Poissons Ratio (y) = 0.20935 0.14998
# Poissons Ratio (z) = 0.13818 0.19537
#
# Static dielectric constant tensor:
#      x y z
#    x 1.612390 0.000000 0.000000 
#    y 0.000000 1.620020 0.000000 
#    z 0.000000 0.000000 1.692220 
# 
# From -- ./inp_files/9485.got.cif
#   From: 2010.05.17/outbox.cif.g08.bks.cpg/sg36_5_cif.got.tgz:9485.got - 2010.06.03 17:41:39.
