data_PCOD9350091
_publ_section_title
;
Structure prediction by ZEFSAII (Michael W. Deem and Ramdas Pophale) SiO2 
 PCOD9350091
Probable space group: C M M 2
;
_chemical_formula_sum "Si O2"
_cell_formula_units_Z 58
_cell_length_a 29.979971
_cell_length_b 7.611280
_cell_length_c 12.171867
_cell_angle_alpha 90.000000
_cell_angle_beta 90.000000
_cell_angle_gamma 90.000000
_cell_volume 2777.449079
_symmetry_space_group_name_H-M "C M M 2"
_symmetry_group_IT_number 35
_symmetry_cell_setting 'orthorhombic'
loop_
_space_group_symop_operation_xyz
x,y,z
-x,-y,z
-x,y,z
x,-y,z
1/2+x,1/2+y,z
1/2-x,1/2-y,z
1/2-x,1/2+y,z
1/2+x,1/2-y,z
loop_
_atom_site_type_symbol
_atom_site_label
_atom_site_fract_x
_atom_site_fract_y
_atom_site_fract_z
Si Si1 0.621752 0.299458 0.222410
Si Si2 0.302193 0.711101 0.824366
Si Si3 0.949878 0.287715 0.789631
Si Si4 0.131595 0.199412 0.641867
Si Si5 0.000000 0.000000 0.464147
Si Si6 0.424375 0.192586 0.443258
Si Si7 0.697834 0.711229 0.069469
Si Si8 0.050471 0.288040 0.045501
O O1 0.630517 0.500000 0.257730
O O2 0.598069 0.206573 0.323619
O O3 0.666409 0.222122 0.167120
O O4 0.586500 0.297586 0.122872
O O5 0.308424 0.500000 0.825828
O O6 0.250000 0.750000 0.810796
O O7 0.331036 0.779610 0.722424
O O8 0.315294 0.776587 0.946763
O O9 0.946554 0.500000 0.780208
O O10 0.912780 0.200789 0.716343
O O11 0.000000 0.236634 0.756092
O O12 0.943804 0.242525 0.917596
O O13 0.115717 0.289969 0.531147
O O14 0.144760 0.000000 0.614716
O O15 0.960493 0.845655 0.459983
O O16 0.444918 0.000000 0.457455
O O17 0.692336 0.500000 0.067844
O O18 0.750000 0.750000 0.084854
O O19 0.054103 0.500000 0.053971
O O20 0.000000 0.239485 0.078217
#
# Coordination Sequence:
#
# PCOD9350091 Si02
#       8
#     8   8   8   8   2   8   8   8
#     4  11  22  39  59  86 124 162 209 266 320 383
#     4   9  19  36  61  92 126 165 209 261 323 388
#     4   9  19  34  52  79 114 153 199 249 305 373
#     4  11  22  39  59  86 124 162 209 266 320 383
#     4  12  26  52  68  94 126 172 222 280 316 372
#     4  12  27  45  68  95 126 170 223 267 323 382
#     4   9  19  36  61  92 126 165 209 261 323 388
#     4   9  19  34  52  79 114 153 199 249 305 373
#
# _framework density 20.882470999999999
#
# number of rings (size 3 to 8) (size 9 to 14) (size 15 to 20)
#    0.000    1.931    1.379    2.690    1.931    4.414 
#    0.000    4.828    0.000    0.000    0.000    0.000 
#    0.000    0.000    0.000    0.000    0.000    0.000 
#
# Total GULP energy -161746.223452 kJ/mol
# GULP energy per Si atom -5577.455981 kJ/mol
# Density = 2.083494 g / cm^3
# Si number density = 20.882471 Si / 1000 Ang^3
#
#
#
# Elastic Constant Matrix: (Units=GPa)
#
#
# Indices 1 2 3 4 5 6 
#
# 1 47.9473 -1.0984 23.6706 0.0000 0.0000 0.0000
# 2 -1.0984 88.0545 4.4902 0.0000 0.0000 0.0000
# 3 23.6706 4.4902 36.8336 0.0000 0.0000 0.0000
# 4 0.0000 0.0000 0.0000 21.3892 0.0000 0.0000
# 5 0.0000 0.0000 0.0000 0.0000 95.2213 0.0000
# 6 0.0000 0.0000 0.0000 0.0000 0.0000 21.7250
#
#
#
# Elastic Compliance Matrix: (Units=1/GPa)
#
#
# Indices 1 2 3 4 5 6 
#
# 1 0.030718 0.001399 -0.019911 0.000000 0.000000 0.000000
# 2 0.001399 0.011491 -0.002300 0.000000 0.000000 0.000000
# 3 -0.019911 -0.002300 0.040225 0.000000 0.000000 0.000000
# 4 0.000000 0.000000 0.000000 0.046753 0.000000 0.000000
# 5 0.000000 0.000000 0.000000 0.000000 0.010502 0.000000
# 6 0.000000 0.000000 0.000000 0.000000 0.000000 0.046030
#
#
# Mechanical properties :
#
#
# Convention : Reuss Voigt Hill
#
# Bulk Modulus (GPa) = 24.50372 25.21781 24.86077
# Shear Modulus (GPa) = 20.75152 37.38529 29.06841
#
# Velocity S-wave (km/s) = 3.15577 4.23575 3.73500
# Velocity P-wave (km/s) = 5.00381 6.00203 5.52551
#
# Compressibility (1/GPa) = 0.04081013
#
# Stress axis : x y z
#
# Youngs Moduli (GPa) = 32.55426 87.02230 24.86017
#
# Poissons Ratio (x) = -0.12170 0.49499
# Poissons Ratio (y) = -0.04553 0.05717
# Poissons Ratio (z) = 0.64819 0.20012
#
# Static dielectric constant tensor:
#      x y z
#    x 1.714070 0.000000 0.000000 
#    y 0.000000 1.775520 0.000000 
#    z 0.000000 0.000000 1.757250 
# 
# From -- ./inp_files/14338.got.cif
#   From: 2010.05.17/outbox.cif.g08.bks.cpg/sg35_8_cif.got.tgz:14338.got - 2010.06.03 17:29:28.
