data_PCOD9350384
_publ_section_title
;
Structure prediction by ZEFSAII (Michael W. Deem and Ramdas Pophale) SiO2 
 PCOD9350384
Probable space group: C M M 2
;
_chemical_formula_sum "Si O2"
_cell_formula_units_Z 46
_cell_length_a 19.880850
_cell_length_b 8.281095
_cell_length_c 13.971072
_cell_angle_alpha 90.000000
_cell_angle_beta 90.000000
_cell_angle_gamma 90.000000
_cell_volume 2300.130338
_symmetry_space_group_name_H-M "C M M 2"
_symmetry_group_IT_number 35
_symmetry_cell_setting 'orthorhombic'
loop_
_space_group_symop_operation_xyz
x,y,z
-x,-y,z
-x,y,z
x,-y,z
1/2+x,1/2+y,z
1/2-x,1/2-y,z
1/2-x,1/2+y,z
1/2+x,1/2-y,z
loop_
_atom_site_type_symbol
_atom_site_label
_atom_site_fract_x
_atom_site_fract_y
_atom_site_fract_z
Si Si1 0.000000 0.666447 0.483721
Si Si2 0.418087 0.818945 0.967590
Si Si3 0.500000 0.500000 0.493533
Si Si4 0.921832 0.805893 0.174212
Si Si5 0.081326 0.000000 0.852313
Si Si6 0.821596 0.193371 0.342848
Si Si7 0.351245 0.823298 0.552170
Si Si8 0.370373 0.500000 0.635445
O O1 0.933026 0.667140 0.548130
O O2 0.000000 0.500000 0.426393
O O3 0.000000 0.838168 0.431677
O O4 0.500000 0.817834 0.964573
O O5 0.395824 0.665642 0.904178
O O6 0.396389 0.000000 0.938246
O O7 0.399025 0.782718 0.077475
O O8 0.434078 0.500000 0.560715
O O9 0.878368 0.764528 0.266532
O O10 0.000000 0.767653 0.188979
O O11 0.916454 0.000000 0.158350
O O12 0.103315 0.000000 0.742617
O O13 0.000000 0.000000 0.856387
O O14 0.750000 0.250000 0.303670
O O15 0.831610 0.284710 0.442979
O O16 0.823115 0.000000 0.360256
O O17 0.332299 0.666663 0.612877
O O18 0.326155 0.000000 0.581140
#
# Coordination Sequence:
#
# PCOD9350384 Si02
#       8
#     4   8   2   8   4   8   8   4
#     4   8  16  28  46  70  99 137 180 223 269 318
#     4   9  17  30  50  77 111 151 189 229 287 350
#     4   8  14  26  42  64  96 136 178 222 266 318
#     4   9  18  35  57  83 112 152 195 236 287 352
#     4  10  18  30  49  76 117 152 188 240 290 339
#     4  11  23  38  57  84 118 153 197 238 289 349
#     4  10  20  35  52  76 112 150 191 237 282 336
#     4  10  18  32  49  75 105 153 191 229 285 333
#
# _framework density 19.998867000000001
#
# number of rings (size 3 to 8) (size 9 to 14) (size 15 to 20)
#    0.000    2.435    2.174    0.522    1.217    2.087 
#    0.000    0.000    0.000    0.000    0.000    1.217 
#    0.000    0.000    0.000    0.000    0.000    0.000 
#
# Total GULP energy -128280.095785 kJ/mol
# GULP energy per Si atom -5577.395469 kJ/mol
# Density = 1.995335 g / cm^3
# Si number density = 19.998867 Si / 1000 Ang^3
#
#
#
# Elastic Constant Matrix: (Units=GPa)
#
#
# Indices 1 2 3 4 5 6 
#
# 1 38.0620 21.6209 19.6051 0.0000 0.0000 0.0000
# 2 21.6209 199.3569 57.5944 0.0000 0.0000 0.0000
# 3 19.6051 57.5944 77.7799 0.0000 0.0000 0.0000
# 4 0.0000 0.0000 0.0000 1.8740 0.0000 0.0000
# 5 0.0000 0.0000 0.0000 0.0000 -7.2769 0.0000
# 6 0.0000 0.0000 0.0000 0.0000 0.0000 11.3454
#
#
#
# Elastic Compliance Matrix: (Units=1/GPa)
#
#
# Indices 1 2 3 4 5 6 
#
# 1 0.030489 -0.001382 -0.006662 0.000000 0.000000 0.000000
# 2 -0.001382 0.006444 -0.004423 0.000000 0.000000 0.000000
# 3 -0.006662 -0.004423 0.017811 0.000000 0.000000 0.000000
# 4 0.000000 0.000000 0.000000 0.533629 0.000000 0.000000
# 5 0.000000 0.000000 0.000000 0.000000 -0.137421 0.000000
# 6 0.000000 0.000000 0.000000 0.000000 0.000000 0.088142
#
#
# Mechanical properties :
#
#
# Convention : Reuss Voigt Hill
#
# Bulk Modulus (GPa) = 33.54526 56.98218 45.26372
# Shear Modulus (GPa) = 8.71133 15.61372 12.16252
#
# Velocity S-wave (km/s) = 2.08935 2.79719 2.46877
# Velocity P-wave (km/s) = 4.75715 6.24395 5.55056
#
# Compressibility (1/GPa) = 0.02981047
#
# Stress axis : x y z
#
# Youngs Moduli (GPa) = 32.79838 155.18585 56.14447
#
# Poissons Ratio (x) = 0.21448 0.37402
# Poissons Ratio (y) = 0.04533 0.24834
# Poissons Ratio (z) = 0.21849 0.68642
#
# Static dielectric constant tensor:
#      x y z
#    x 1.724700 0.000000 0.000000 
#    y 0.000000 1.794530 0.000000 
#    z 0.000000 0.000000 1.647480 
# 
# From -- ./inp_files/17282.got.cif
#   From: 2010.05.17/outbox.cif.g08.bks.cpg/sg35_9_cif.got.tgz:17282.got - 2010.06.03 17:29:28.
