data_PCOD9350870
_publ_section_title
;
Structure prediction by ZEFSAII (Michael W. Deem and Ramdas Pophale) SiO2 
 PCOD9350870
Probable space group: C M C 21
;
_chemical_formula_sum "Si O2"
_cell_formula_units_Z 64
_cell_length_a 7.609424
_cell_length_b 14.610362
_cell_length_c 29.402229
_cell_angle_alpha 90.000000
_cell_angle_beta 90.000000
_cell_angle_gamma 90.000000
_cell_volume 3268.835126
_symmetry_space_group_name_H-M "C M C 21"
_symmetry_group_IT_number 36
_symmetry_cell_setting 'orthorhombic'
loop_
_space_group_symop_operation_xyz
x,y,z
-x,-y,1/2+z
x,-y,1/2+z
-x,y,z
1/2+x,1/2+y,z
1/2-x,1/2-y,1/2+z
1/2+x,1/2-y,1/2+z
1/2-x,1/2+y,z
loop_
_atom_site_type_symbol
_atom_site_label
_atom_site_fract_x
_atom_site_fract_y
_atom_site_fract_z
Si Si1 0.794127 0.267675 0.163450
Si Si2 0.787582 0.108927 0.488080
Si Si3 0.711102 0.236418 0.812027
Si Si4 0.710509 0.753770 0.414557
Si Si5 0.790830 0.617526 0.236453
Si Si6 0.709666 0.743333 0.062502
Si Si7 0.711753 0.401185 0.489165
Si Si8 0.784178 0.408658 0.238173
O O1 0.780592 0.177582 0.194694
O O2 0.717683 0.252406 0.113387
O O3 0.723237 0.350980 0.194159
O O4 0.000000 0.288513 0.157085
O O5 0.722926 0.169253 0.445285
O O6 0.739562 0.165275 0.533185
O O7 0.000000 0.106852 0.485681
O O8 0.723024 0.004989 0.488465
O O9 0.500000 0.228478 0.814463
O O10 0.779979 0.241588 0.863305
O O11 0.750677 0.326259 0.782279
O O12 0.772921 0.149608 0.782260
O O13 0.500000 0.743154 0.411634
O O14 0.745987 0.844941 0.443596
O O15 0.725857 0.513445 0.237986
O O16 0.000000 0.614758 0.230947
O O17 0.500000 0.728774 0.066142
O O18 0.779022 0.659729 0.031533
O O19 0.500000 0.404459 0.492642
O O20 0.000000 0.407960 0.238179
#
# Coordination Sequence:
#
# PCOD9350870 Si02
#       8
#     8   8   8   8   8   8   8   8
#     4   9  18  34  51  67  93 127 158 190 232 281
#     4   9  18  32  48  69  99 128 154 194 243 280
#     4   9  18  34  51  67  93 127 158 190 232 281
#     4   9  18  32  50  70  92 124 163 194 227 280
#     4  10  19  31  48  71  94 117 151 192 234 278
#     4   9  18  32  50  70  92 124 163 194 227 280
#     4   9  18  32  48  69  99 128 154 194 243 280
#     4   8  16  31  48  65  90 121 149 186 234 276
#
# _framework density 19.578838999999999
#
# number of rings (size 3 to 8) (size 9 to 14) (size 15 to 20)
#    0.000    3.000    0.000    1.125    0.000    3.500 
#    0.000    5.000    0.000    0.000    0.000    0.000 
#    0.000    0.000    0.000    0.000    0.000    0.000 
#
# Total GULP energy -178445.199616 kJ/mol
# GULP energy per Si atom -5576.412488 kJ/mol
# Density = 1.953428 g / cm^3
# Si number density = 19.578839 Si / 1000 Ang^3
#
#
#
# Elastic Constant Matrix: (Units=GPa)
#
#
# Indices 1 2 3 4 5 6 
#
# 1 32.6514 -16.5788 -7.1770 0.0000 0.0000 0.0000
# 2 -16.5788 171.9785 88.9015 0.0000 0.0000 0.0000
# 3 -7.1770 88.9015 179.5832 0.0000 0.0000 0.0000
# 4 0.0000 0.0000 0.0000 3.1228 0.0000 0.0000
# 5 0.0000 0.0000 0.0000 0.0000 3.9779 0.0000
# 6 0.0000 0.0000 0.0000 0.0000 0.0000 13.8809
#
#
#
# Elastic Compliance Matrix: (Units=1/GPa)
#
#
# Indices 1 2 3 4 5 6 
#
# 1 0.032218 0.003279 -0.000336 0.000000 0.000000 0.000000
# 2 0.003279 0.008148 -0.003903 0.000000 0.000000 0.000000
# 3 -0.000336 -0.003903 0.007487 0.000000 0.000000 0.000000
# 4 0.000000 0.000000 0.000000 0.320229 0.000000 0.000000
# 5 0.000000 0.000000 0.000000 0.000000 0.251391 0.000000
# 6 0.000000 0.000000 0.000000 0.000000 0.000000 0.072042
#
#
# Mechanical properties :
#
#
# Convention : Reuss Voigt Hill
#
# Bulk Modulus (GPa) = 21.76992 57.16716 39.46854
# Shear Modulus (GPa) = 7.05473 25.46746 16.26110
#
# Velocity S-wave (km/s) = 1.90028 3.61052 2.88504
# Velocity P-wave (km/s) = 3.99475 6.82957 5.59469
#
# Compressibility (1/GPa) = 0.04593494
#
# Stress axis : x y z
#
# Youngs Moduli (GPa) = 31.03865 122.72581 133.56453
#
# Poissons Ratio (x) = -0.40247 0.04486
# Poissons Ratio (y) = -0.10179 0.52126
# Poissons Ratio (z) = 0.01043 0.47896
#
# Static dielectric constant tensor:
#      x y z
#    x 1.717260 0.000000 0.000000 
#    y 0.000000 1.662940 0.000000 
#    z 0.000000 0.000000 1.682080 
# 
# From -- ./inp_files/17341.got.cif
#   From: 2010.05.17/outbox.cif.g08.bks.cpg/sg36_9_cif.got.tgz:17341.got - 2010.06.03 17:41:39.
