data_PCOD9350471
_publ_section_title
;
Structure prediction by ZEFSAII (Michael W. Deem and Ramdas Pophale) SiO2 
 PCOD9350471
Probable space group: C M C 21
;
_chemical_formula_sum "Si O2"
_cell_formula_units_Z 48
_cell_length_a 29.625574
_cell_length_b 12.370288
_cell_length_c 5.222443
_cell_angle_alpha 90.000000
_cell_angle_beta 90.000000
_cell_angle_gamma 90.000000
_cell_volume 1913.904630
_symmetry_space_group_name_H-M "C M C 21"
_symmetry_group_IT_number 36
_symmetry_cell_setting 'orthorhombic'
loop_
_space_group_symop_operation_xyz
x,y,z
-x,-y,1/2+z
x,-y,1/2+z
-x,y,z
1/2+x,1/2+y,z
1/2-x,1/2-y,1/2+z
1/2+x,1/2-y,1/2+z
1/2-x,1/2+y,z
loop_
_atom_site_type_symbol
_atom_site_label
_atom_site_fract_x
_atom_site_fract_y
_atom_site_fract_z
Si Si1 0.450808 0.380966 0.647490
Si Si2 0.950331 0.267964 0.646603
Si Si3 0.179360 0.138338 0.435044
Si Si4 0.271857 0.928561 0.837097
Si Si5 0.875607 0.432778 0.840545
Si Si6 0.858484 0.901314 0.447745
O O1 0.500000 0.435855 0.682171
O O2 0.453911 0.305942 0.398194
O O3 0.406315 0.445537 0.559111
O O4 0.442713 0.308141 0.898587
O O5 0.912324 0.351860 0.726502
O O6 0.000000 0.319571 0.603721
O O7 0.232841 0.156000 0.417846
O O8 0.150105 0.161603 0.684436
O O9 0.171954 0.007765 0.407625
O O10 0.157632 0.178001 0.172890
O O11 0.323724 0.893620 0.830692
O O12 0.265892 0.978401 0.553759
O O13 0.880918 0.532367 0.637400
#
# Coordination Sequence:
#
# PCOD9350471 Si02
#       6
#     8   8   8   8   8   8
#     4  10  21  37  55  74 105 151 188 220 269 333
#     4  10  21  38  56  76 108 146 184 224 273 332
#     4  10  17  30  50  80 106 136 175 231 268 310
#     4  10  16  30  49  78 107 134 168 207 271 328
#     4  10  21  33  56  86 106 136 172 229 278 326
#     4  10  18  30  52  78 104 137 187 219 265 319
#
# _framework density 25.079619999999998
#
# number of rings (size 3 to 8) (size 9 to 14) (size 15 to 20)
#    0.000    2.000    3.333    2.000    0.000    0.667 
#    0.000    3.333    0.000    4.000    0.000    0.000 
#    0.000    0.000    0.000    0.000    0.000    0.000 
#
# Total GULP energy -133868.771631 kJ/mol
# GULP energy per Si atom -5577.865485 kJ/mol
# Density = 2.502254 g / cm^3
# Si number density = 25.079620 Si / 1000 Ang^3
#
#
#
# Elastic Constant Matrix: (Units=GPa)
#
#
# Indices 1 2 3 4 5 6 
#
# 1 170.7902 31.6660 33.6250 0.0000 0.0000 0.0000
# 2 31.6660 35.2814 8.1615 0.0000 0.0000 0.0000
# 3 33.6250 8.1615 202.0416 0.0000 0.0000 0.0000
# 4 0.0000 0.0000 0.0000 26.0637 0.0000 0.0000
# 5 0.0000 0.0000 0.0000 0.0000 40.0436 0.0000
# 6 0.0000 0.0000 0.0000 0.0000 0.0000 5.0615
#
#
#
# Elastic Compliance Matrix: (Units=1/GPa)
#
#
# Indices 1 2 3 4 5 6 
#
# 1 0.007199 -0.006242 -0.000946 0.000000 0.000000 0.000000
# 2 -0.006242 0.034024 -0.000336 0.000000 0.000000 0.000000
# 3 -0.000946 -0.000336 0.005120 0.000000 0.000000 0.000000
# 4 0.000000 0.000000 0.000000 0.038368 0.000000 0.000000
# 5 0.000000 0.000000 0.000000 0.000000 0.024973 0.000000
# 6 0.000000 0.000000 0.000000 0.000000 0.000000 0.197569
#
#
# Mechanical properties :
#
#
# Convention : Reuss Voigt Hill
#
# Bulk Modulus (GPa) = 31.95340 61.66870 46.81105
# Shear Modulus (GPa) = 15.02716 36.54448 25.78582
#
# Velocity S-wave (km/s) = 2.45047 3.82139 3.20997
# Velocity P-wave (km/s) = 4.55794 6.64178 5.69597
#
# Compressibility (1/GPa) = 0.03129557
#
# Stress axis : x y z
#
# Youngs Moduli (GPa) = 138.91347 29.39128 195.29528
#
# Poissons Ratio (x) = 0.18347 0.18473
# Poissons Ratio (y) = 0.86713 0.06553
# Poissons Ratio (z) = 0.13140 0.00986
#
# Static dielectric constant tensor:
#      x y z
#    x 2.150980 0.000000 0.000000 
#    y 0.000000 1.982800 0.000000 
#    z 0.000000 0.000000 2.070680 
# 
# From -- ./inp_files/1735.got.cif
#   From: 2010.05.17/outbox.cif.g08.bks.cpg/sg36_1_cif.got.tgz:1735.got - 2010.06.03 17:41:39.
