data_PCOD9350978
_publ_section_title
;
Structure prediction by ZEFSAII (Michael W. Deem and Ramdas Pophale) SiO2 
 PCOD9350978
Probable space group: C M C 21
;
_chemical_formula_sum "Si O2"
_cell_formula_units_Z 64
_cell_length_a 8.736532
_cell_length_b 21.125616
_cell_length_c 19.861181
_cell_angle_alpha 90.000000
_cell_angle_beta 90.000000
_cell_angle_gamma 90.000000
_cell_volume 3665.671328
_symmetry_space_group_name_H-M "C M C 21"
_symmetry_group_IT_number 36
_symmetry_cell_setting 'orthorhombic'
loop_
_space_group_symop_operation_xyz
x,y,z
-x,-y,1/2+z
x,-y,1/2+z
-x,y,z
1/2+x,1/2+y,z
1/2-x,1/2-y,1/2+z
1/2+x,1/2-y,1/2+z
1/2-x,1/2+y,z
loop_
_atom_site_type_symbol
_atom_site_label
_atom_site_fract_x
_atom_site_fract_y
_atom_site_fract_z
Si Si1 0.682813 0.253737 0.690030
Si Si2 0.686055 0.187199 0.906980
Si Si3 0.314581 0.062702 0.826421
Si Si4 0.184390 0.260157 0.546587
Si Si5 0.317113 0.935279 0.902856
Si Si6 0.315576 0.314122 0.827778
Si Si7 0.316352 0.386957 0.192000
Si Si8 0.183547 0.888387 0.039025
O O1 0.500000 0.245594 0.690877
O O2 0.738926 0.276052 0.617274
O O3 0.723784 0.301452 0.750010
O O4 0.756646 0.184785 0.702609
O O5 0.500000 0.186186 0.906590
O O6 0.737013 0.124123 0.869190
O O7 0.731574 0.250369 0.867075
O O8 0.733159 0.196367 0.984315
O O9 0.500000 0.063859 0.822774
O O10 0.249982 0.070077 0.751284
O O11 0.266845 0.999312 0.865215
O O12 0.221295 0.186453 0.530311
O O13 0.000000 0.263217 0.553866
O O14 0.500000 0.935044 0.904549
O O15 0.258372 0.875097 0.860961
O O16 0.256801 0.927827 0.978932
O O17 0.500000 0.319669 0.833873
O O18 0.500000 0.386497 0.194571
O O19 0.270606 0.405581 0.115546
O O20 0.000000 0.893579 0.034090
#
# Coordination Sequence:
#
# PCOD9350978 Si02
#       8
#     8   8   8   8   8   8   8   8
#     4  10  19  32  53  80 109 142 177 223 276 321
#     4   9  16  33  57  76 100 140 180 214 264 325
#     4  10  21  38  56  79 111 145 181 221 273 325
#     4   9  17  31  53  79 105 136 178 227 270 318
#     4  11  23  35  53  83 114 143 180 228 269 313
#     4  10  19  35  57  76 103 146 182 214 267 326
#     4  10  20  34  55  82 107 139 181 223 267 320
#     4   9  18  34  54  77 107 141 179 216 264 328
#
# _framework density 17.459284
#
# number of rings (size 3 to 8) (size 9 to 14) (size 15 to 20)
#    0.000    2.250    2.500    1.875    0.000    4.500 
#    0.000    1.875    0.000    4.500    0.000    0.000 
#    0.000    0.000    0.000    0.000    0.000    0.000 
#
# Total GULP energy -178508.128391 kJ/mol
# GULP energy per Si atom -5578.379012 kJ/mol
# Density = 1.741955 g / cm^3
# Si number density = 17.459284 Si / 1000 Ang^3
#
#
#
# Elastic Constant Matrix: (Units=GPa)
#
#
# Indices 1 2 3 4 5 6 
#
# 1 22.7082 26.8257 41.1107 0.0000 0.0000 0.0000
# 2 26.8257 111.5512 84.1426 0.0000 0.0000 0.0000
# 3 41.1107 84.1426 177.3165 0.0000 0.0000 0.0000
# 4 0.0000 0.0000 0.0000 28.5885 0.0000 0.0000
# 5 0.0000 0.0000 0.0000 0.0000 33.0019 0.0000
# 6 0.0000 0.0000 0.0000 0.0000 0.0000 18.9223
#
#
#
# Elastic Compliance Matrix: (Units=1/GPa)
#
#
# Indices 1 2 3 4 5 6 
#
# 1 0.080456 -0.008220 -0.014753 0.000000 0.000000 0.000000
# 2 -0.008220 0.014802 -0.005118 0.000000 0.000000 0.000000
# 3 -0.014753 -0.005118 0.011489 0.000000 0.000000 0.000000
# 4 0.000000 0.000000 0.000000 0.034979 0.000000 0.000000
# 5 0.000000 0.000000 0.000000 0.000000 0.030301 0.000000
# 6 0.000000 0.000000 0.000000 0.000000 0.000000 0.052848
#
#
# Mechanical properties :
#
#
# Convention : Reuss Voigt Hill
#
# Bulk Modulus (GPa) = 19.77664 68.41488 44.09576
# Shear Modulus (GPa) = 16.78345 26.73566 21.75955
#
# Velocity S-wave (km/s) = 3.10383 3.91745 3.53413
# Velocity P-wave (km/s) = 4.91904 7.72867 6.47801
#
# Compressibility (1/GPa) = 0.05056471
#
# Stress axis : x y z
#
# Youngs Moduli (GPa) = 12.42909 67.55931 87.04048
#
# Poissons Ratio (x) = 0.55532 1.28413
# Poissons Ratio (y) = 0.10216 0.44549
# Poissons Ratio (z) = 0.18337 0.34578
#
# Static dielectric constant tensor:
#      x y z
#    x 1.591300 0.000000 0.000000 
#    y 0.000000 1.567710 0.000000 
#    z 0.000000 0.000000 1.610300 
# 
# From -- ./inp_files/14091.got.cif
#   From: 2010.05.17/outbox.cif.g08.bks.cpg/sg36_8_cif.got.tgz:14091.got - 2010.06.03 17:41:39.
