data_PCOD9350727
_publ_section_title
;
Structure prediction by ZEFSAII (Michael W. Deem and Ramdas Pophale) SiO2 
 PCOD9350727
Probable space group: C M C 21
;
_chemical_formula_sum "Si O2"
_cell_formula_units_Z 48
_cell_length_a 12.708532
_cell_length_b 14.568353
_cell_length_c 14.584924
_cell_angle_alpha 90.000000
_cell_angle_beta 90.000000
_cell_angle_gamma 90.000000
_cell_volume 2700.287546
_symmetry_space_group_name_H-M "C M C 21"
_symmetry_group_IT_number 36
_symmetry_cell_setting 'orthorhombic'
loop_
_space_group_symop_operation_xyz
x,y,z
-x,-y,1/2+z
x,-y,1/2+z
-x,y,z
1/2+x,1/2+y,z
1/2-x,1/2-y,1/2+z
1/2+x,1/2-y,1/2+z
1/2-x,1/2+y,z
loop_
_atom_site_type_symbol
_atom_site_label
_atom_site_fract_x
_atom_site_fract_y
_atom_site_fract_z
Si Si1 0.379285 0.953599 0.466600
Si Si2 0.720025 0.511964 0.802055
Si Si3 0.755536 0.697822 0.728801
Si Si4 0.621796 0.331437 0.862823
Si Si5 0.876551 0.252553 0.553599
Si Si6 0.119151 0.535784 0.659921
O O1 0.500000 0.957225 0.433178
O O2 0.299584 0.975191 0.386402
O O3 0.361514 0.852393 0.508036
O O4 0.367377 0.021757 0.552193
O O5 0.686204 0.615128 0.773858
O O6 0.636925 0.435575 0.829156
O O7 0.792894 0.479908 0.716350
O O8 0.799792 0.768591 0.802978
O O9 0.694000 0.739197 0.642943
O O10 0.855161 0.639352 0.690466
O O11 0.500000 0.302046 0.850894
O O12 0.646214 0.318577 0.970808
O O13 0.000000 0.244527 0.578138
O O14 0.000000 0.508750 0.683030
#
# Coordination Sequence:
#
# PCOD9350727 Si02
#       6
#     8   8   8   8   8   8
#     4  10  18  33  58  83 112 150 194 236 287 342
#     4  10  21  34  57  85 114 151 195 240 281 346
#     4  10  21  36  59  85 117 152 198 243 291 346
#     4  11  22  39  61  86 119 160 195 235 296 357
#     4  10  20  36  60  85 116 157 196 238 292 352
#     4   9  18  32  53  82 112 146 190 240 285 335
#
# _framework density 17.775884999999999
#
# number of rings (size 3 to 8) (size 9 to 14) (size 15 to 20)
#    1.000    1.000    1.667    3.000    0.000    0.667 
#    0.000    0.833    0.000    3.000    0.000    0.000 
#    0.000    0.000    0.000    0.000    0.000    0.000 
#
# Total GULP energy -133643.529969 kJ/mol
# GULP energy per Si atom -5568.480415 kJ/mol
# Density = 1.773543 g / cm^3
# Si number density = 17.775885 Si / 1000 Ang^3
#
#
#
# Elastic Constant Matrix: (Units=GPa)
#
#
# Indices 1 2 3 4 5 6 
#
# 1 38.3314 3.7053 26.3394 0.0000 0.0000 0.0000
# 2 3.7053 53.2692 9.2712 0.0000 0.0000 0.0000
# 3 26.3394 9.2712 74.7618 0.0000 0.0000 0.0000
# 4 0.0000 0.0000 0.0000 26.1379 0.0000 0.0000
# 5 0.0000 0.0000 0.0000 0.0000 17.0074 0.0000
# 6 0.0000 0.0000 0.0000 0.0000 0.0000 25.8813
#
#
#
# Elastic Compliance Matrix: (Units=1/GPa)
#
#
# Indices 1 2 3 4 5 6 
#
# 1 0.034426 -0.000290 -0.012093 0.000000 0.000000 0.000000
# 2 -0.000290 0.019189 -0.002277 0.000000 0.000000 0.000000
# 3 -0.012093 -0.002277 0.017919 0.000000 0.000000 0.000000
# 4 0.000000 0.000000 0.000000 0.038259 0.000000 0.000000
# 5 0.000000 0.000000 0.000000 0.000000 0.058798 0.000000
# 6 0.000000 0.000000 0.000000 0.000000 0.000000 0.038638
#
#
# Mechanical properties :
#
#
# Convention : Reuss Voigt Hill
#
# Bulk Modulus (GPa) = 23.68918 27.22158 25.45538
# Shear Modulus (GPa) = 19.95061 22.27510 21.11285
#
# Velocity S-wave (km/s) = 3.35377 3.54377 3.45008
# Velocity P-wave (km/s) = 5.32471 5.66493 5.49745
#
# Compressibility (1/GPa) = 0.04221336
#
# Stress axis : x y z
#
# Youngs Moduli (GPa) = 29.04812 52.11289 55.80805
#
# Poissons Ratio (x) = 0.01511 0.67486
# Poissons Ratio (y) = 0.00842 0.12710
# Poissons Ratio (z) = 0.35127 0.11869
#
# Static dielectric constant tensor:
#      x y z
#    x 1.573700 0.000000 0.000000 
#    y 0.000000 1.639130 0.000000 
#    z 0.000000 0.000000 1.603950 
# 
# From -- ./inp_files/7688.got.cif
#   From: 2010.05.17/outbox.cif.g08.bks.cpg/sg36_4_cif.got.tgz:7688.got - 2010.06.03 17:41:39.
