data_PCOD9350938
_publ_section_title
;
Structure prediction by ZEFSAII (Michael W. Deem and Ramdas Pophale) SiO2 
 PCOD9350938
Probable space group: C M C 21
;
_chemical_formula_sum "Si O2"
_cell_formula_units_Z 64
_cell_length_a 8.797717
_cell_length_b 29.560317
_cell_length_c 14.483367
_cell_angle_alpha 90.000000
_cell_angle_beta 90.000000
_cell_angle_gamma 90.000000
_cell_volume 3766.592266
_symmetry_space_group_name_H-M "C M C 21"
_symmetry_group_IT_number 36
_symmetry_cell_setting 'orthorhombic'
loop_
_space_group_symop_operation_xyz
x,y,z
-x,-y,1/2+z
x,-y,1/2+z
-x,y,z
1/2+x,1/2+y,z
1/2-x,1/2-y,1/2+z
1/2+x,1/2-y,1/2+z
1/2-x,1/2+y,z
loop_
_atom_site_type_symbol
_atom_site_label
_atom_site_fract_x
_atom_site_fract_y
_atom_site_fract_z
Si Si1 0.816133 0.179734 0.993760
Si Si2 0.321836 0.407436 0.118081
Si Si3 0.180206 0.548117 0.786180
Si Si4 0.683806 0.425076 0.478924
Si Si5 0.816965 0.240424 0.374118
Si Si6 0.317891 0.821012 0.030246
Si Si7 0.679024 0.492292 0.636320
Si Si8 0.316057 0.740004 0.163670
O O1 0.772913 0.127608 0.982853
O O2 0.742889 0.212924 0.918625
O O3 0.000000 0.183179 0.986385
O O4 0.771401 0.199934 0.093839
O O5 0.500000 0.397057 0.125915
O O6 0.248386 0.412166 0.220188
O O7 0.240376 0.370435 0.056451
O O8 0.306692 0.459346 0.083003
O O9 0.248488 0.552632 0.887331
O O10 0.233136 0.503036 0.731015
O O11 0.000000 0.551100 0.788000
O O12 0.500000 0.427786 0.474721
O O13 0.731867 0.452177 0.570735
O O14 0.753309 0.200312 0.438225
O O15 0.763082 0.236251 0.268449
O O16 0.000000 0.239905 0.376763
O O17 0.500000 0.820283 0.022921
O O18 0.271981 0.786669 0.113110
O O19 0.500000 0.486359 0.657247
O O20 0.500000 0.739755 0.167046
#
# Coordination Sequence:
#
# PCOD9350938 Si02
#       8
#     8   8   8   8   8   8   8   8
#     4   9  19  35  54  78 104 136 180 226 268 314
#     4   9  18  34  53  76 102 131 172 217 259 312
#     4  10  20  33  52  79 109 138 171 215 268 320
#     4  10  19  35  58  80 105 140 181 227 272 319
#     4  10  19  32  50  73 104 141 178 218 264 322
#     4  10  19  33  52  76 104 137 174 218 267 316
#     4   8  18  35  53  75 105 137 176 222 266 315
#     4   8  17  33  50  71 103 136 172 215 264 314
#
# _framework density 16.991486999999999
#
# number of rings (size 3 to 8) (size 9 to 14) (size 15 to 20)
#    0.750    2.000    0.000    2.625    1.750    1.000 
#    0.000    6.875    0.000    4.500    0.000    0.000 
#    0.000    0.000    0.000    0.000    0.000    0.000 
#
# Total GULP energy -178147.504089 kJ/mol
# GULP energy per Si atom -5567.109503 kJ/mol
# Density = 1.695281 g / cm^3
# Si number density = 16.991487 Si / 1000 Ang^3
#
#
#
# Elastic Constant Matrix: (Units=GPa)
#
#
# Indices 1 2 3 4 5 6 
#
# 1 42.6701 18.9813 22.5738 0.0000 0.0000 0.0000
# 2 18.9813 41.1086 22.8312 0.0000 0.0000 0.0000
# 3 22.5738 22.8312 105.1390 0.0000 0.0000 0.0000
# 4 0.0000 0.0000 0.0000 13.1884 0.0000 0.0000
# 5 0.0000 0.0000 0.0000 0.0000 15.6005 0.0000
# 6 0.0000 0.0000 0.0000 0.0000 0.0000 18.6966
#
#
#
# Elastic Compliance Matrix: (Units=1/GPa)
#
#
# Indices 1 2 3 4 5 6 
#
# 1 0.030921 -0.012043 -0.004024 0.000000 0.000000 0.000000
# 2 -0.012043 0.032352 -0.004440 0.000000 0.000000 0.000000
# 3 -0.004024 -0.004440 0.011339 0.000000 0.000000 0.000000
# 4 0.000000 0.000000 0.000000 0.075824 0.000000 0.000000
# 5 0.000000 0.000000 0.000000 0.000000 0.064101 0.000000
# 6 0.000000 0.000000 0.000000 0.000000 0.000000 0.053486
#
#
# Mechanical properties :
#
#
# Convention : Reuss Voigt Hill
#
# Bulk Modulus (GPa) = 29.76171 35.29892 32.53031
# Shear Modulus (GPa) = 15.61349 17.79919 16.70634
#
# Velocity S-wave (km/s) = 3.03463 3.24008 3.13903
# Velocity P-wave (km/s) = 5.46189 5.90060 5.68548
#
# Compressibility (1/GPa) = 0.03360022
#
# Stress axis : x y z
#
# Youngs Moduli (GPa) = 32.34008 30.90996 88.18927
#
# Poissons Ratio (x) = 0.37224 0.35486
# Poissons Ratio (y) = 0.38946 0.39153
# Poissons Ratio (z) = 0.13013 0.13723
#
# Static dielectric constant tensor:
#      x y z
#    x 1.569790 0.000000 0.000000 
#    y 0.000000 1.573260 0.000000 
#    z 0.000000 0.000000 1.566680 
# 
# From -- ./inp_files/11202.got.cif
#   From: 2010.05.17/outbox.cif.g08.bks.cpg/sg36_6_cif.got.tgz:11202.got - 2010.06.03 17:41:39.
