data_PCOD9350341
_publ_section_title
;
Structure prediction by ZEFSAII (Michael W. Deem and Ramdas Pophale) SiO2 
 PCOD9350341
Probable space group: C M M 2
;
_chemical_formula_sum "Si O2"
_cell_formula_units_Z 64
_cell_length_a 29.315801
_cell_length_b 8.573594
_cell_length_c 16.151207
_cell_angle_alpha 90.000000
_cell_angle_beta 90.000000
_cell_angle_gamma 90.000000
_cell_volume 4059.473045
_symmetry_space_group_name_H-M "C M M 2"
_symmetry_group_IT_number 35
_symmetry_cell_setting 'orthorhombic'
loop_
_space_group_symop_operation_xyz
x,y,z
-x,-y,z
-x,y,z
x,-y,z
1/2+x,1/2+y,z
1/2-x,1/2-y,z
1/2-x,1/2+y,z
1/2+x,1/2-y,z
loop_
_atom_site_type_symbol
_atom_site_label
_atom_site_fract_x
_atom_site_fract_y
_atom_site_fract_z
Si Si1 0.055409 0.180585 0.880640
Si Si2 0.390769 0.688637 0.221609
Si Si3 0.946676 0.189442 0.699025
Si Si4 0.052880 0.809020 0.061214
Si Si5 0.200764 0.814141 0.476730
Si Si6 0.799080 0.685703 0.290511
Si Si7 0.946771 0.188418 0.386354
Si Si8 0.108630 0.685416 0.543510
O O1 0.068018 0.246902 0.790852
O O2 0.000000 0.178630 0.881223
O O3 0.070614 0.000000 0.880363
O O4 0.068434 0.248033 0.970131
O O5 0.387562 0.500000 0.221119
O O6 0.415617 0.738847 0.137335
O O7 0.340870 0.758619 0.234590
O O8 0.421522 0.732294 0.301198
O O9 0.916007 0.254218 0.625913
O O10 0.000000 0.231576 0.686065
O O11 0.944795 0.000000 0.699055
O O12 0.000000 0.763725 0.074841
O O13 0.053063 0.000000 0.058640
O O14 0.250000 0.750000 0.503732
O O15 0.193010 0.752171 0.383158
O O16 0.158864 0.756496 0.531688
O O17 0.201905 0.000000 0.474053
O O18 0.797387 0.500000 0.295357
O O19 0.750000 0.750000 0.262679
O O20 0.921165 0.260853 0.464526
O O21 0.000000 0.232077 0.384482
O O22 0.944228 0.000000 0.393754
O O23 0.111656 0.500000 0.544292
#
# Coordination Sequence:
#
# PCOD9350341 Si02
#       8
#     8   8   8   8   8   8   8   8
#     4   7  11  22  42  68  95 122 157 201 242 279
#     4  10  18  29  47  71  98 128 161 196 236 283
#     4   9  17  30  48  69  95 129 166 203 243 286
#     4   8  13  23  43  72 101 127 159 198 236 279
#     4  11  21  36  55  73  93 119 154 198 243 288
#     4  11  21  34  51  70  93 122 158 200 242 284
#     4  10  20  32  45  63  93 133 169 197 229 275
#     4  12  23  33  46  68  96 129 164 199 238 282
#
# _framework density 15.765593000000001
#
# number of rings (size 3 to 8) (size 9 to 14) (size 15 to 20)
#    0.000    2.250    1.250    6.375    0.000    3.500 
#    0.000    0.000    0.000    1.875    0.000    2.625 
#    0.000    4.000    0.000    0.000    0.000    0.000 
#
# Total GULP energy -178440.062465 kJ/mol
# GULP energy per Si atom -5576.251952 kJ/mol
# Density = 1.572971 g / cm^3
# Si number density = 15.765593 Si / 1000 Ang^3
#
#
#
# Elastic Constant Matrix: (Units=GPa)
#
#
# Indices 1 2 3 4 5 6 
#
# 1 123.6859 40.8465 83.4210 0.0000 0.0000 0.0000
# 2 40.8465 51.6786 40.7519 0.0000 0.0000 0.0000
# 3 83.4210 40.7519 152.6680 0.0000 0.0000 0.0000
# 4 0.0000 0.0000 0.0000 2.0683 0.0000 0.0000
# 5 0.0000 0.0000 0.0000 0.0000 9.6449 0.0000
# 6 0.0000 0.0000 0.0000 0.0000 0.0000 21.7424
#
#
#
# Elastic Compliance Matrix: (Units=1/GPa)
#
#
# Indices 1 2 3 4 5 6 
#
# 1 0.014359 -0.006538 -0.006101 0.000000 0.000000 0.000000
# 2 -0.006538 0.027487 -0.003764 0.000000 0.000000 0.000000
# 3 -0.006101 -0.003764 0.010889 0.000000 0.000000 0.000000
# 4 0.000000 0.000000 0.000000 0.483489 0.000000 0.000000
# 5 0.000000 0.000000 0.000000 0.000000 0.103682 0.000000
# 6 0.000000 0.000000 0.000000 0.000000 0.000000 0.045993
#
#
# Mechanical properties :
#
#
# Convention : Reuss Voigt Hill
#
# Bulk Modulus (GPa) = 50.18250 73.11900 61.65075
# Shear Modulus (GPa) = 6.89324 17.55866 12.22595
#
# Velocity S-wave (km/s) = 2.09328 3.34088 2.78777
# Velocity P-wave (km/s) = 6.14345 7.83336 7.03930
#
# Compressibility (1/GPa) = 0.01992727
#
# Stress axis : x y z
#
# Youngs Moduli (GPa) = 69.64296 36.38117 91.83962
#
# Poissons Ratio (x) = 0.23788 0.56029
# Poissons Ratio (y) = 0.45536 0.34572
# Poissons Ratio (z) = 0.42487 0.13695
#
# Static dielectric constant tensor:
#      x y z
#    x 1.509360 0.000000 0.000000 
#    y 0.000000 1.533690 0.000000 
#    z 0.000000 0.000000 1.537180 
# 
# From -- ./inp_files/17753.got.cif
#   From: 2010.05.17/outbox.cif.g08.bks.cpg/sg35_9_cif.got.tgz:17753.got - 2010.06.03 17:29:28.
