data_PCOD9350366
_publ_section_title
;
Structure prediction by ZEFSAII (Michael W. Deem and Ramdas Pophale) SiO2 
 PCOD9350366
Probable space group: C M M 2
;
_chemical_formula_sum "Si O2"
_cell_formula_units_Z 64
_cell_length_a 8.520044
_cell_length_b 29.464472
_cell_length_c 16.065032
_cell_angle_alpha 90.000000
_cell_angle_beta 90.000000
_cell_angle_gamma 90.000000
_cell_volume 4032.943108
_symmetry_space_group_name_H-M "C M M 2"
_symmetry_group_IT_number 35
_symmetry_cell_setting 'orthorhombic'
loop_
_space_group_symop_operation_xyz
x,y,z
-x,-y,z
-x,y,z
x,-y,z
1/2+x,1/2+y,z
1/2-x,1/2-y,z
1/2-x,1/2+y,z
1/2+x,1/2-y,z
loop_
_atom_site_type_symbol
_atom_site_label
_atom_site_fract_x
_atom_site_fract_y
_atom_site_fract_z
Si Si1 0.689659 0.949419 0.844040
Si Si2 0.188407 0.854802 0.103296
Si Si3 0.808936 0.355223 0.775144
Si Si4 0.313096 0.698285 0.436739
Si Si5 0.189403 0.050804 0.031752
Si Si6 0.189095 0.698696 0.942107
Si Si7 0.311331 0.198382 0.611679
Si Si8 0.186512 0.698531 0.261838
O O1 0.500000 0.949233 0.843647
O O2 0.743835 0.907038 0.788838
O O3 0.742696 0.000000 0.818631
O O4 0.744096 0.941986 0.938986
O O5 0.237194 0.907202 0.089365
O O6 0.261595 0.831581 0.184077
O O7 0.000000 0.852606 0.109666
O O8 0.242143 0.827607 0.021299
O O9 0.763202 0.326444 0.856674
O O10 0.757124 0.331183 0.690396
O O11 0.000000 0.355349 0.773410
O O12 0.500000 0.698594 0.438128
O O13 0.250000 0.750000 0.436271
O O14 0.248478 0.679025 0.523438
O O15 0.253069 0.679243 0.349028
O O16 0.000000 0.051642 0.026234
O O17 0.236988 0.000000 0.058960
O O18 0.250000 0.750000 0.941582
O O19 0.000000 0.698248 0.947291
O O20 0.500000 0.199912 0.610014
O O21 0.250000 0.250000 0.620757
O O22 0.250000 0.750000 0.250503
O O23 0.000000 0.701120 0.267434
#
# Coordination Sequence:
#
# PCOD9350366 Si02
#       8
#     8   8   8   8   8   8   8   8
#     4   9  16  29  49  69  90 119 157 199 242 282
#     4  11  21  33  48  69  95 126 160 194 235 281
#     4   9  18  30  45  67  94 124 158 196 234 276
#     4  10  18  31  49  70  94 120 154 194 236 280
#     4   9  18  32  49  69  93 121 155 197 241 282
#     4  11  21  33  45  62  93 129 166 197 230 273
#     4  10  18  30  46  66  94 125 158 194 232 277
#     4  11  21  34  51  71  96 126 159 195 235 280
#
# _framework density 15.869305000000001
#
# number of rings (size 3 to 8) (size 9 to 14) (size 15 to 20)
#    0.000    2.000    1.250    5.625    0.000    0.500 
#    0.000    3.125    0.000    0.000    0.000    0.875 
#    0.000    3.000    0.000    0.000    0.000    0.000 
#
# Total GULP energy -178486.270014 kJ/mol
# GULP energy per Si atom -5577.695938 kJ/mol
# Density = 1.583319 g / cm^3
# Si number density = 15.869305 Si / 1000 Ang^3
#
#
#
# Elastic Constant Matrix: (Units=GPa)
#
#
# Indices 1 2 3 4 5 6 
#
# 1 65.3582 25.9500 35.0905 0.0000 0.0000 0.0000
# 2 25.9500 113.7620 70.4362 0.0000 0.0000 0.0000
# 3 35.0905 70.4362 147.8264 0.0000 0.0000 0.0000
# 4 0.0000 0.0000 0.0000 7.8004 0.0000 0.0000
# 5 0.0000 0.0000 0.0000 0.0000 17.1960 0.0000
# 6 0.0000 0.0000 0.0000 0.0000 0.0000 7.8709
#
#
#
# Elastic Compliance Matrix: (Units=1/GPa)
#
#
# Indices 1 2 3 4 5 6 
#
# 1 0.017868 -0.002056 -0.003262 0.000000 0.000000 0.000000
# 2 -0.002056 0.012705 -0.005566 0.000000 0.000000 0.000000
# 3 -0.003262 -0.005566 0.010191 0.000000 0.000000 0.000000
# 4 0.000000 0.000000 0.000000 0.128199 0.000000 0.000000
# 5 0.000000 0.000000 0.000000 0.000000 0.058153 0.000000
# 6 0.000000 0.000000 0.000000 0.000000 0.000000 0.127051
#
#
# Mechanical properties :
#
#
# Convention : Reuss Voigt Hill
#
# Bulk Modulus (GPa) = 52.64054 65.54445 59.09250
# Shear Modulus (GPa) = 13.07988 19.60478 16.34233
#
# Velocity S-wave (km/s) = 2.87405 3.51862 3.21254
# Velocity P-wave (km/s) = 6.65258 7.60920 7.14691
#
# Compressibility (1/GPa) = 0.01899677
#
# Stress axis : x y z
#
# Youngs Moduli (GPa) = 55.96633 78.70666 98.12711
#
# Poissons Ratio (x) = 0.16185 0.32005
# Poissons Ratio (y) = 0.11509 0.54615
# Poissons Ratio (z) = 0.18254 0.43806
#
# Static dielectric constant tensor:
#      x y z
#    x 1.540700 0.000000 0.000000 
#    y 0.000000 1.536120 0.000000 
#    z 0.000000 0.000000 1.530770 
# 
# From -- ./inp_files/16190.got.cif
#   From: 2010.05.17/outbox.cif.g08.bks.cpg/sg35_9_cif.got.tgz:16190.got - 2010.06.03 17:29:28.
