data_PCOD9350278
_publ_section_title
;
Structure prediction by ZEFSAII (Michael W. Deem and Ramdas Pophale) SiO2 
 PCOD9350278
Probable space group: C M M 2
;
_chemical_formula_sum "Si O2"
_cell_formula_units_Z 64
_cell_length_a 15.478646
_cell_length_b 28.258748
_cell_length_c 7.641145
_cell_angle_alpha 90.000000
_cell_angle_beta 90.000000
_cell_angle_gamma 90.000000
_cell_volume 3342.291508
_symmetry_space_group_name_H-M "C M M 2"
_symmetry_group_IT_number 35
_symmetry_cell_setting 'orthorhombic'
loop_
_space_group_symop_operation_xyz
x,y,z
-x,-y,z
-x,y,z
x,-y,z
1/2+x,1/2+y,z
1/2-x,1/2-y,z
1/2-x,1/2+y,z
1/2+x,1/2-y,z
loop_
_atom_site_type_symbol
_atom_site_label
_atom_site_fract_x
_atom_site_fract_y
_atom_site_fract_z
Si Si1 0.903772 0.173271 0.930740
Si Si2 0.597702 0.054481 0.936543
Si Si3 0.273079 0.866357 0.515875
Si Si4 0.772884 0.633624 0.926620
Si Si5 0.094443 0.828935 0.512588
Si Si6 0.403453 0.216163 0.003996
Si Si7 0.843553 0.270354 0.381246
Si Si8 0.402010 0.945706 0.508658
O O1 0.821700 0.144650 0.002862
O O2 0.906593 0.165148 0.722089
O O3 0.000000 0.162774 0.001566
O O4 0.887546 0.229175 0.956143
O O5 0.500000 0.067781 0.990695
O O6 0.669933 0.090875 0.001171
O O7 0.598014 0.055755 0.722635
O O8 0.613255 0.000000 0.987393
O O9 0.261278 0.876564 0.721061
O O10 0.177135 0.857411 0.441484
O O11 0.323095 0.816518 0.494968
O O12 0.331751 0.908398 0.442994
O O13 0.830892 0.680751 0.937367
O O14 0.111309 0.773376 0.476942
O O15 0.000000 0.842116 0.443286
O O16 0.500000 0.203153 0.942599
O O17 0.397404 0.214585 0.213477
O O18 0.750000 0.250000 0.321701
O O19 0.500000 0.933752 0.453843
O O20 0.384022 0.000000 0.458542
#
# Coordination Sequence:
#
# PCOD9350278 Si02
#       8
#     8   8   8   8   8   8   8   8
#     4   9  18  30  44  62  86 117 149 179 212 251
#     4   8  14  25  42  65  88 108 136 175 216 257
#     4   9  18  29  46  67  85 112 148 181 213 252
#     4  10  17  29  47  65  86 113 147 182 213 251
#     4   9  17  30  45  62  87 117 147 178 212 252
#     4  11  21  30  42  63  90 118 145 176 216 257
#     4  10  19  30  43  62  89 118 146 176 212 254
#     4   8  14  25  42  64  87 109 137 176 217 255
#
# _framework density 19.148539
#
# number of rings (size 3 to 8) (size 9 to 14) (size 15 to 20)
#    0.000    2.750    0.000    3.375    0.000    3.500 
#    0.000    0.000    0.000    1.500    0.000    7.000 
#    0.000    0.000    0.000    7.125    0.000    9.625 
#
# Total GULP energy -178426.465768 kJ/mol
# GULP energy per Si atom -5575.827055 kJ/mol
# Density = 1.910496 g / cm^3
# Si number density = 19.148539 Si / 1000 Ang^3
#
#
#
# Elastic Constant Matrix: (Units=GPa)
#
#
# Indices 1 2 3 4 5 6 
#
# 1 182.6247 98.1341 5.3287 0.0000 0.0000 0.0000
# 2 98.1341 88.8606 -3.8180 0.0000 0.0000 0.0000
# 3 5.3287 -3.8180 33.5915 0.0000 0.0000 0.0000
# 4 0.0000 0.0000 0.0000 -24.3225 0.0000 0.0000
# 5 0.0000 0.0000 0.0000 0.0000 6.7663 0.0000
# 6 0.0000 0.0000 0.0000 0.0000 0.0000 94.9731
#
#
#
# Elastic Compliance Matrix: (Units=1/GPa)
#
#
# Indices 1 2 3 4 5 6 
#
# 1 0.013981 -0.015612 -0.003992 0.000000 0.000000 0.000000
# 2 -0.015612 0.028742 0.005743 0.000000 0.000000 0.000000
# 3 -0.003992 0.005743 0.031056 0.000000 0.000000 0.000000
# 4 0.000000 0.000000 0.000000 -0.041114 0.000000 0.000000
# 5 0.000000 0.000000 0.000000 0.000000 0.147792 0.000000
# 6 0.000000 0.000000 0.000000 0.000000 0.000000 0.010529
#
#
# Mechanical properties :
#
#
# Convention : Reuss Voigt Hill
#
# Bulk Modulus (GPa) = 21.71244 56.04070 38.87657
# Shear Modulus (GPa) = 21.36205 29.17885 25.27045
#
# Velocity S-wave (km/s) = 3.34368 3.90784 3.63672
# Velocity P-wave (km/s) = 5.12547 7.04922 6.16287
#
# Compressibility (1/GPa) = 0.04605654
#
# Stress axis : x y z
#
# Youngs Moduli (GPa) = 71.52388 34.79281 32.20032
#
# Poissons Ratio (x) = 0.54318 0.12856
# Poissons Ratio (y) = 1.11663 -0.18494
# Poissons Ratio (z) = 0.28555 -0.19983
#
# Static dielectric constant tensor:
#      x y z
#    x 1.723120 0.000000 0.000000 
#    y 0.000000 1.638470 0.000000 
#    z 0.000000 0.000000 1.692830 
# 
# From -- ./inp_files/8008.got.cif
#   From: 2010.05.17/outbox.cif.g08.bks.cpg/sg35_5_cif.got.tgz:8008.got - 2010.06.03 17:29:28.
