data_PCOD9350513
_publ_section_title
;
Structure prediction by ZEFSAII (Michael W. Deem and Ramdas Pophale) SiO2 
 PCOD9350513
Probable space group: C M C 21
;
_chemical_formula_sum "Si O2"
_cell_formula_units_Z 56
_cell_length_a 21.899792
_cell_length_b 19.376090
_cell_length_c 5.513362
_cell_angle_alpha 90.000000
_cell_angle_beta 90.000000
_cell_angle_gamma 90.000000
_cell_volume 2339.497803
_symmetry_space_group_name_H-M "C M C 21"
_symmetry_group_IT_number 36
_symmetry_cell_setting 'orthorhombic'
loop_
_space_group_symop_operation_xyz
x,y,z
-x,-y,1/2+z
x,-y,1/2+z
-x,y,z
1/2+x,1/2+y,z
1/2-x,1/2-y,1/2+z
1/2+x,1/2-y,1/2+z
1/2-x,1/2+y,z
loop_
_atom_site_type_symbol
_atom_site_label
_atom_site_fract_x
_atom_site_fract_y
_atom_site_fract_z
Si Si1 0.566147 0.752943 0.262860
Si Si2 0.427614 0.977816 0.575689
Si Si3 0.358035 0.403823 0.253566
Si Si4 0.246306 0.980157 0.759091
Si Si5 0.094413 0.326670 0.765982
Si Si6 0.787034 0.755723 0.257817
Si Si7 0.636502 0.380651 0.752677
O O1 0.500000 0.717079 0.244919
O O2 0.569052 0.787636 0.527147
O O3 0.622599 0.700347 0.247473
O O4 0.570132 0.802341 0.027990
O O5 0.500000 0.991273 0.545031
O O6 0.417817 0.905514 0.711772
O O7 0.404940 0.972610 0.295852
O O8 0.308718 0.464221 0.254840
O O9 0.323086 0.329481 0.255009
O O10 0.392086 0.408362 0.505952
O O11 0.392222 0.406876 0.001284
O O12 0.279758 0.999835 0.509003
O O13 0.207719 0.907885 0.756503
O O14 0.165222 0.306837 0.769226
O O15 0.748247 0.751631 0.504084
#
# Coordination Sequence:
#
# PCOD9350513 Si02
#       7
#     8   8   8   8   8   8   8
#     4  12  22  35  60  94 131 163 201 247 305 373
#     4  10  21  39  65  94 124 163 203 241 307 399
#     4  10  18  35  55  78 112 151 200 242 297 348
#     4   8  16  27  52  75 101 149 192 234 274 340
#     4  12  24  42  62  93 127 167 201 261 312 366
#     4  12  24  39  62  89 120 159 210 258 314 368
#     4  10  17  33  53  83 116 150 197 233 289 336
#
# _framework density 23.93676
#
# number of rings (size 3 to 8) (size 9 to 14) (size 15 to 20)
#    0.000    1.429    2.857    3.857    0.000    1.143 
#    0.000    0.000    0.000   23.143    0.000    0.000 
#    0.000    0.000    0.000    0.000    0.000    0.000 
#
# Total GULP energy -156214.996590 kJ/mol
# GULP energy per Si atom -5579.107021 kJ/mol
# Density = 2.388228 g / cm^3
# Si number density = 23.936760 Si / 1000 Ang^3
#
#
#
# Elastic Constant Matrix: (Units=GPa)
#
#
# Indices 1 2 3 4 5 6 
#
# 1 61.2732 -2.5257 25.8489 0.0000 0.0000 0.0000
# 2 -2.5257 51.8685 5.6414 0.0000 0.0000 0.0000
# 3 25.8489 5.6414 232.6686 0.0000 0.0000 0.0000
# 4 0.0000 0.0000 0.0000 39.6164 0.0000 0.0000
# 5 0.0000 0.0000 0.0000 0.0000 -51.3547 0.0000
# 6 0.0000 0.0000 0.0000 0.0000 0.0000 4.0385
#
#
#
# Elastic Compliance Matrix: (Units=1/GPa)
#
#
# Indices 1 2 3 4 5 6 
#
# 1 0.017179 0.001047 -0.001934 0.000000 0.000000 0.000000
# 2 0.001047 0.019394 -0.000587 0.000000 0.000000 0.000000
# 3 -0.001934 -0.000587 0.004527 0.000000 0.000000 0.000000
# 4 0.000000 0.000000 0.000000 0.025242 0.000000 0.000000
# 5 0.000000 0.000000 0.000000 0.000000 -0.019472 0.000000
# 6 0.000000 0.000000 0.000000 0.000000 0.000000 0.247617
#
#
# Mechanical properties :
#
#
# Convention : Reuss Voigt Hill
#
# Bulk Modulus (GPa) = 26.20998 44.85994 35.53496
# Shear Modulus (GPa) = 16.12112 19.58308 17.85210
#
# Velocity S-wave (km/s) = 2.59798 2.86338 2.73390
# Velocity P-wave (km/s) = 4.46909 5.45102 4.98430
#
# Compressibility (1/GPa) = 0.03815341
#
# Stress axis : x y z
#
# Youngs Moduli (GPa) = 58.20935 51.56158 220.89491
#
# Poissons Ratio (x) = -0.05398 0.42720
# Poissons Ratio (y) = -0.06094 0.12957
# Poissons Ratio (z) = 0.11258 0.03024
#
# Static dielectric constant tensor:
#      x y z
#    x 1.994270 0.000000 0.000000 
#    y 0.000000 1.954110 0.000000 
#    z 0.000000 0.000000 2.091000 
# 
# From -- ./inp_files/1597.got.cif
#   From: 2010.05.17/outbox.cif.g08.bks.cpg/sg36_1_cif.got.tgz:1597.got - 2010.06.03 17:41:39.
