data_PCOD9350647
_publ_section_title
;
Structure prediction by ZEFSAII (Michael W. Deem and Ramdas Pophale) SiO2 
 PCOD9350647
Probable space group: C M C 21
;
_chemical_formula_sum "Si O2"
_cell_formula_units_Z 44
_cell_length_a 25.882067
_cell_length_b 13.744480
_cell_length_c 5.311973
_cell_angle_alpha 90.000000
_cell_angle_beta 90.000000
_cell_angle_gamma 90.000000
_cell_volume 1889.657649
_symmetry_space_group_name_H-M "C M C 21"
_symmetry_group_IT_number 36
_symmetry_cell_setting 'orthorhombic'
loop_
_space_group_symop_operation_xyz
x,y,z
-x,-y,1/2+z
x,-y,1/2+z
-x,y,z
1/2+x,1/2+y,z
1/2-x,1/2-y,1/2+z
1/2+x,1/2-y,1/2+z
1/2-x,1/2+y,z
loop_
_atom_site_type_symbol
_atom_site_label
_atom_site_fract_x
_atom_site_fract_y
_atom_site_fract_z
Si Si1 0.606573 0.896725 0.465280
Si Si2 0.224812 0.625243 0.888772
Si Si3 0.717289 0.641414 0.389527
Si Si4 0.606750 0.561500 0.518837
Si Si5 0.500000 0.564039 0.394563
Si Si6 0.438503 0.883984 0.964795
O O1 0.667533 0.914244 0.441909
O O2 0.591000 0.844203 0.721831
O O3 0.576890 0.000844 0.473697
O O4 0.585323 0.842965 0.220212
O O5 0.245707 0.602203 0.611340
O O6 0.220278 0.742297 0.889450
O O7 0.264225 0.604285 0.117025
O O8 0.659307 0.615355 0.460060
O O9 0.605923 0.524975 0.807303
O O10 0.553499 0.616821 0.455076
O O11 0.500000 0.477475 0.609455
O O12 0.500000 0.874055 0.949332
#
# Coordination Sequence:
#
# PCOD9350647 Si02
#       6
#     8   8   8   8   4   8
#     4  10  18  32  50  76  98 139 182 212 254 301
#     4  10  21  37  55  74 107 154 173 215 256 316
#     4  10  21  38  54  76 108 142 183 207 268 318
#     4  10  19  35  55  85 105 135 169 224 267 313
#     4   8  16  30  54  74 104 132 162 204 276 322
#     4  10  19  33  53  76 108 142 174 213 263 305
#
# _framework density 23.284642999999999
#
# number of rings (size 3 to 8) (size 9 to 14) (size 15 to 20)
#    0.000    2.182    0.000    4.909    0.000    0.000 
#   19.636    0.000    6.000    0.000    4.727    0.000 
#    0.000    0.000    0.000    0.000    0.000    0.000 
#
# Total GULP energy -122921.099410 kJ/mol
# GULP energy per Si atom -5587.322700 kJ/mol
# Density = 2.323165 g / cm^3
# Si number density = 23.284643 Si / 1000 Ang^3
#
#
#
# Elastic Constant Matrix: (Units=GPa)
#
#
# Indices 1 2 3 4 5 6 
#
# 1 110.4479 -4.0304 -12.0090 0.0000 0.0000 0.0000
# 2 -4.0304 47.5265 -8.3739 0.0000 0.0000 0.0000
# 3 -12.0090 -8.3739 145.1851 0.0000 0.0000 0.0000
# 4 0.0000 0.0000 0.0000 26.8633 0.0000 0.0000
# 5 0.0000 0.0000 0.0000 0.0000 42.9939 0.0000
# 6 0.0000 0.0000 0.0000 0.0000 0.0000 -3.2557
#
#
#
# Elastic Compliance Matrix: (Units=1/GPa)
#
#
# Indices 1 2 3 4 5 6 
#
# 1 0.009176 0.000921 0.000812 0.000000 0.000000 0.000000
# 2 0.000921 0.021349 0.001308 0.000000 0.000000 0.000000
# 3 0.000812 0.001308 0.007030 0.000000 0.000000 0.000000
# 4 0.000000 0.000000 0.000000 0.037225 0.000000 0.000000
# 5 0.000000 0.000000 0.000000 0.000000 0.023259 0.000000
# 6 0.000000 0.000000 0.000000 0.000000 0.000000 -0.307150
#
#
# Mechanical properties :
#
#
# Convention : Reuss Voigt Hill
#
# Bulk Modulus (GPa) = 22.91602 28.25922 25.58762
# Shear Modulus (GPa) = -24.91949 35.15848 5.11950
#
# Velocity S-wave (km/s) = -3.27496 3.89001 1.48440
# Velocity P-wave (km/s) = 2.10652 5.68674 3.73508
#
# Compressibility (1/GPa) = 0.04363759
#
# Stress axis : x y z
#
# Youngs Moduli (GPa) = 108.98039 46.83974 142.24041
#
# Poissons Ratio (x) = -0.04315 -0.11552
# Poissons Ratio (y) = -0.10040 -0.18599
# Poissons Ratio (z) = -0.08851 -0.06125
#
# Static dielectric constant tensor:
#      x y z
#    x 1.848780 0.000000 0.000000 
#    y 0.000000 1.823970 0.000000 
#    z 0.000000 0.000000 1.978840 
# 
# From -- ./inp_files/1335.got.cif
#   From: 2010.05.17/outbox.cif.g08.bks.cpg/sg36_1_cif.got.tgz:1335.got - 2010.06.03 17:41:39.
