data_PCOD9350290
_publ_section_title
;
Structure prediction by ZEFSAII (Michael W. Deem and Ramdas Pophale) SiO2 
 PCOD9350290
Probable space group: C M M 2
;
_chemical_formula_sum "Si O2"
_cell_formula_units_Z 64
_cell_length_a 31.694745
_cell_length_b 7.668234
_cell_length_c 12.424906
_cell_angle_alpha 90.000000
_cell_angle_beta 90.000000
_cell_angle_gamma 90.000000
_cell_volume 3019.782965
_symmetry_space_group_name_H-M "C M M 2"
_symmetry_group_IT_number 35
_symmetry_cell_setting 'orthorhombic'
loop_
_space_group_symop_operation_xyz
x,y,z
-x,-y,z
-x,y,z
x,-y,z
1/2+x,1/2+y,z
1/2-x,1/2-y,z
1/2-x,1/2+y,z
1/2+x,1/2-y,z
loop_
_atom_site_type_symbol
_atom_site_label
_atom_site_fract_x
_atom_site_fract_y
_atom_site_fract_z
Si Si1 0.627341 0.786046 0.750000
Si Si2 0.546607 0.786713 0.612811
Si Si3 0.452720 0.786229 0.141778
Si Si4 0.334190 0.704185 0.368056
Si Si5 0.297572 0.792521 0.595793
Si Si6 0.623725 0.205841 0.993694
Si Si7 0.430111 0.200901 0.378103
Si Si8 0.201877 0.792664 0.142078
O O1 0.584913 0.731283 0.688352
O O2 0.667696 0.727975 0.680706
O O3 0.628256 0.000000 0.750611
O O4 0.627522 0.723956 0.872903
O O5 0.500000 0.736520 0.650431
O O6 0.553728 0.723249 0.490450
O O7 0.548240 0.000000 0.610330
O O8 0.500000 0.739336 0.106908
O O9 0.415223 0.723444 0.064433
O O10 0.444879 0.723939 0.264190
O O11 0.450463 0.000000 0.144225
O O12 0.343317 0.500000 0.351985
O O13 0.307654 0.723159 0.476716
O O14 0.379363 0.794776 0.380609
O O15 0.309952 0.771432 0.262410
O O16 0.250000 0.750000 0.627955
O O17 0.302019 0.000000 0.588853
O O18 0.667011 0.225492 0.059273
O O19 0.615364 0.000000 0.982145
O O20 0.444630 0.000000 0.377624
O O21 0.250000 0.750000 0.114924
O O22 0.198191 0.000000 0.142878
#
# Coordination Sequence:
#
# PCOD9350290 Si02
#       8
#     8   8   8   8   8   8   8   8
#     4   9  19  34  53  81 113 146 187 232 273 318
#     4   9  16  28  51  83 115 145 180 226 278 328
#     4   9  17  29  51  85 117 146 185 231 277 326
#     4  11  22  36  57  85 113 144 181 224 277 337
#     4  11  22  38  58  82 113 145 182 226 277 331
#     4  10  20  36  58  82 113 150 190 234 276 320
#     4  10  17  30  54  82 112 148 184 227 280 331
#     4  11  24  40  59  83 112 143 182 228 280 338
#
# _framework density 21.193576
#
# number of rings (size 3 to 8) (size 9 to 14) (size 15 to 20)
#    0.000    2.000    2.500    1.875    0.000    5.000 
#    0.000    5.000    0.000    2.625    0.000    0.000 
#    0.000    0.000    0.000    0.000    0.000    0.000 
#
# Total GULP energy -178776.403786 kJ/mol
# GULP energy per Si atom -5586.762618 kJ/mol
# Density = 2.114534 g / cm^3
# Si number density = 21.193576 Si / 1000 Ang^3
#
#
#
# Elastic Constant Matrix: (Units=GPa)
#
#
# Indices 1 2 3 4 5 6 
#
# 1 187.7819 -12.7694 99.3213 0.0000 0.0000 0.0000
# 2 -12.7694 40.0880 1.4428 0.0000 0.0000 0.0000
# 3 99.3213 1.4428 187.4287 0.0000 0.0000 0.0000
# 4 0.0000 0.0000 0.0000 -5.2120 0.0000 0.0000
# 5 0.0000 0.0000 0.0000 0.0000 6.0937 0.0000
# 6 0.0000 0.0000 0.0000 0.0000 0.0000 12.0973
#
#
#
# Elastic Compliance Matrix: (Units=1/GPa)
#
#
# Indices 1 2 3 4 5 6 
#
# 1 0.007658 0.002586 -0.004078 0.000000 0.000000 0.000000
# 2 0.002586 0.025825 -0.001569 0.000000 0.000000 0.000000
# 3 -0.004078 -0.001569 0.007508 0.000000 0.000000 0.000000
# 4 0.000000 0.000000 0.000000 -0.191864 0.000000 0.000000
# 5 0.000000 0.000000 0.000000 0.000000 0.164103 0.000000
# 6 0.000000 0.000000 0.000000 0.000000 0.000000 0.082663
#
#
# Mechanical properties :
#
#
# Convention : Reuss Voigt Hill
#
# Bulk Modulus (GPa) = 28.67822 65.69865 47.18844
# Shear Modulus (GPa) = 43.99885 24.41608 34.20746
#
# Velocity S-wave (km/s) = 4.56131 3.39787 4.02188
# Velocity P-wave (km/s) = 6.42664 6.81620 6.62428
#
# Compressibility (1/GPa) = 0.03486966
#
# Stress axis : x y z
#
# Youngs Moduli (GPa) = 130.57966 38.72164 133.18275
#
# Poissons Ratio (x) = -0.10014 0.54313
# Poissons Ratio (y) = -0.33770 0.20900
# Poissons Ratio (z) = 0.53251 0.06076
#
# Static dielectric constant tensor:
#      x y z
#    x 1.693730 0.000000 0.000000 
#    y 0.000000 1.805550 0.000000 
#    z 0.000000 0.000000 1.750040 
# 
# From -- ./inp_files/11916.got.cif
#   From: 2010.05.17/outbox.cif.g08.bks.cpg/sg35_6_cif.got.tgz:11916.got - 2010.06.03 17:29:28.
