data_PCOD9350474
_publ_section_title
;
Structure prediction by ZEFSAII (Michael W. Deem and Ramdas Pophale) SiO2 
 PCOD9350474
Probable space group: C M C 21
;
_chemical_formula_sum "Si O2"
_cell_formula_units_Z 48
_cell_length_a 8.137698
_cell_length_b 20.632196
_cell_length_c 15.147743
_cell_angle_alpha 90.000000
_cell_angle_beta 90.000000
_cell_angle_gamma 90.000000
_cell_volume 2543.284542
_symmetry_space_group_name_H-M "C M C 21"
_symmetry_group_IT_number 36
_symmetry_cell_setting 'orthorhombic'
loop_
_space_group_symop_operation_xyz
x,y,z
-x,-y,1/2+z
x,-y,1/2+z
-x,y,z
1/2+x,1/2+y,z
1/2-x,1/2-y,1/2+z
1/2+x,1/2-y,1/2+z
1/2-x,1/2+y,z
loop_
_atom_site_type_symbol
_atom_site_label
_atom_site_fract_x
_atom_site_fract_y
_atom_site_fract_z
Si Si1 0.000000 0.468344 0.475271
Si Si2 0.000000 0.329339 0.209702
Si Si3 0.307396 0.277303 0.309537
Si Si4 0.679065 0.405583 0.426844
Si Si5 0.326832 0.482152 0.776216
Si Si6 0.500000 0.889438 0.019643
Si Si7 0.809883 0.144196 0.398177
Si Si8 0.000000 0.524779 0.765361
O O1 0.835415 0.426128 0.483904
O O2 0.000000 0.533196 0.531594
O O3 0.000000 0.492281 0.370803
O O4 0.831775 0.293635 0.237111
O O5 0.000000 0.348793 0.108503
O O6 0.000000 0.398057 0.261047
O O7 0.500000 0.274061 0.280843
O O8 0.298918 0.335962 0.380705
O O9 0.250076 0.210420 0.353282
O O10 0.500000 0.406996 0.471593
O O11 0.670883 0.459378 0.348299
O O12 0.500000 0.484374 0.727210
O O13 0.313091 0.414723 0.827985
O O14 0.162996 0.495781 0.723175
O O15 0.331616 0.873204 0.967983
O O16 0.000000 0.150355 0.430609
#
# Coordination Sequence:
#
# PCOD9350474 Si02
#       8
#     4   4   8   8   8   4   8   4
#     4  10  16  32  58  78 112 146 189 228 278 354
#     4  12  24  38  56  92 125 148 188 264 311 344
#     4  11  21  35  59  90 111 158 209 246 286 363
#     4   9  16  28  52  84 109 134 190 241 270 326
#     4   9  16  28  52  84 109 134 190 241 270 326
#     4  12  24  38  56  92 125 148 188 264 311 344
#     4  11  21  35  59  90 111 158 209 246 286 363
#     4  10  16  32  58  78 112 146 189 228 278 354
#
# _framework density 18.873232000000002
#
# number of rings (size 3 to 8) (size 9 to 14) (size 15 to 20)
#    0.000    1.667    8.333    0.000    0.000    0.667 
#    0.000    0.000    0.000    2.000    0.000    0.000 
#    0.000    0.000    0.000    0.000    0.000    0.000 
#
# Total GULP energy -133700.619268 kJ/mol
# GULP energy per Si atom -5570.859136 kJ/mol
# Density = 1.883028 g / cm^3
# Si number density = 18.873232 Si / 1000 Ang^3
#
#
#
# Elastic Constant Matrix: (Units=GPa)
#
#
# Indices 1 2 3 4 5 6 
#
# 1 206.3185 23.6828 22.2108 0.0000 0.0000 0.0000
# 2 23.6828 109.1640 5.8018 0.0000 0.0000 0.0000
# 3 22.2108 5.8018 18.5868 0.0000 0.0000 0.0000
# 4 0.0000 0.0000 0.0000 4.6710 0.0000 0.0000
# 5 0.0000 0.0000 0.0000 0.0000 10.4181 0.0000
# 6 0.0000 0.0000 0.0000 0.0000 0.0000 28.4773
#
#
#
# Elastic Compliance Matrix: (Units=1/GPa)
#
#
# Indices 1 2 3 4 5 6 
#
# 1 0.005644 -0.000881 -0.006470 0.000000 0.000000 0.000000
# 2 -0.000881 0.009452 -0.001898 0.000000 0.000000 0.000000
# 3 -0.006470 -0.001898 0.062126 0.000000 0.000000 0.000000
# 4 0.000000 0.000000 0.000000 0.214086 0.000000 0.000000
# 5 0.000000 0.000000 0.000000 0.000000 0.095987 0.000000
# 6 0.000000 0.000000 0.000000 0.000000 0.000000 0.035116
#
#
# Mechanical properties :
#
#
# Convention : Reuss Voigt Hill
#
# Bulk Modulus (GPa) = 17.02860 48.60669 32.81764
# Shear Modulus (GPa) = 10.85813 27.53821 19.19817
#
# Velocity S-wave (km/s) = 2.40118 3.82398 3.19284
# Velocity P-wave (km/s) = 4.09021 6.73107 5.56943
#
# Compressibility (1/GPa) = 0.05872473
#
# Stress axis : x y z
#
# Youngs Moduli (GPa) = 177.16380 105.79236 16.09640
#
# Poissons Ratio (x) = 0.09317 0.10415
# Poissons Ratio (y) = 0.15603 0.03055
# Poissons Ratio (z) = 1.14627 0.20081
#
# Static dielectric constant tensor:
#      x y z
#    x 1.767010 0.000000 0.000000 
#    y 0.000000 1.637210 0.000000 
#    z 0.000000 0.000000 1.628520 
# 
# From -- ./inp_files/13597.got.cif
#   From: 2010.05.17/outbox.cif.g08.bks.cpg/sg36_7_cif.got.tgz:13597.got - 2010.06.03 17:41:39.
