data_PCOD9350442
_publ_section_title
;
Structure prediction by ZEFSAII (Michael W. Deem and Ramdas Pophale) SiO2 
 PCOD9350442
Probable space group: C M M 2
;
_chemical_formula_sum "Si O2"
_cell_formula_units_Z 64
_cell_length_a 7.849297
_cell_length_b 30.624520
_cell_length_c 12.600903
_cell_angle_alpha 90.000000
_cell_angle_beta 90.000000
_cell_angle_gamma 90.000000
_cell_volume 3029.017071
_symmetry_space_group_name_H-M "C M M 2"
_symmetry_group_IT_number 35
_symmetry_cell_setting 'orthorhombic'
loop_
_space_group_symop_operation_xyz
x,y,z
-x,-y,z
-x,y,z
x,-y,z
1/2+x,1/2+y,z
1/2-x,1/2-y,z
1/2-x,1/2+y,z
1/2+x,1/2-y,z
loop_
_atom_site_type_symbol
_atom_site_label
_atom_site_fract_x
_atom_site_fract_y
_atom_site_fract_z
Si Si1 0.207696 0.453078 0.392440
Si Si2 0.803202 0.891800 0.831974
Si Si3 0.204009 0.797551 0.766034
Si Si4 0.299122 0.049795 0.024600
Si Si5 0.202939 0.702244 0.300616
Si Si6 0.305101 0.082412 0.603474
Si Si7 0.791237 0.612056 0.212559
Si Si8 0.701967 0.325296 0.534664
O O1 0.254544 0.500000 0.346010
O O2 0.267047 0.449065 0.513450
O O3 0.263419 0.414122 0.317547
O O4 0.000000 0.451092 0.396686
O O5 0.731113 0.842064 0.822441
O O6 0.790570 0.911019 0.713257
O O7 0.000000 0.888535 0.863517
O O8 0.718680 0.925019 0.913430
O O9 0.250000 0.750000 0.809959
O O10 0.257124 0.799923 0.641596
O O11 0.000000 0.800853 0.767818
O O12 0.500000 0.045564 0.047647
O O13 0.229855 0.083252 0.113500
O O14 0.229356 0.000000 0.023958
O O15 0.250000 0.750000 0.260194
O O16 0.265225 0.661953 0.228295
O O17 0.267569 0.696747 0.421690
O O18 0.000000 0.699148 0.306717
O O19 0.500000 0.070538 0.628734
O O20 0.299691 0.129056 0.543658
O O21 0.000000 0.612606 0.208669
O O22 0.500000 0.333976 0.544657
#
# Coordination Sequence:
#
# PCOD9350442 Si02
#       8
#     8   8   8   8   8   8   8   8
#     4   9  16  28  51  83 113 141 176 224 283 341
#     4  10  22  39  56  80 116 153 189 234 291 347
#     4   9  19  33  51  77 109 147 188 227 272 329
#     4  10  21  39  65  90 107 137 193 249 291 341
#     4  11  21  34  53  81 114 152 194 234 284 341
#     4  10  18  31  53  83 116 152 190 232 279 335
#     4   9  18  35  57  83 113 142 182 238 290 338
#     4  10  19  32  50  77 115 157 194 231 277 335
#
# _framework density 21.128966999999999
#
# number of rings (size 3 to 8) (size 9 to 14) (size 15 to 20)
#    0.000    2.250    1.250    3.000    0.000    6.250 
#    0.000    3.125    0.000    4.125    0.000    0.000 
#    0.000    0.000    0.000    0.000    0.000    0.000 
#
# Total GULP energy -178473.686828 kJ/mol
# GULP energy per Si atom -5577.302713 kJ/mol
# Density = 2.108088 g / cm^3
# Si number density = 21.128967 Si / 1000 Ang^3
#
#
#
# Elastic Constant Matrix: (Units=GPa)
#
#
# Indices 1 2 3 4 5 6 
#
# 1 32.6509 4.0125 -1.9626 0.0000 0.0000 0.0000
# 2 4.0125 180.6896 70.8186 0.0000 0.0000 0.0000
# 3 -1.9626 70.8186 86.3312 0.0000 0.0000 0.0000
# 4 0.0000 0.0000 0.0000 15.3525 0.0000 0.0000
# 5 0.0000 0.0000 0.0000 0.0000 -19.3072 0.0000
# 6 0.0000 0.0000 0.0000 0.0000 0.0000 17.8675
#
#
#
# Elastic Compliance Matrix: (Units=1/GPa)
#
#
# Indices 1 2 3 4 5 6 
#
# 1 0.030913 -0.001418 0.001866 0.000000 0.000000 0.000000
# 2 -0.001418 0.008222 -0.006777 0.000000 0.000000 0.000000
# 3 0.001866 -0.006777 0.017185 0.000000 0.000000 0.000000
# 4 0.000000 0.000000 0.000000 0.065136 0.000000 0.000000
# 5 0.000000 0.000000 0.000000 0.000000 -0.051794 0.000000
# 6 0.000000 0.000000 0.000000 0.000000 0.000000 0.055967
#
#
# Mechanical properties :
#
#
# Convention : Reuss Voigt Hill
#
# Bulk Modulus (GPa) = 22.90291 49.48987 36.19639
# Shear Modulus (GPa) = 32.71376 17.90278 25.30827
#
# Velocity S-wave (km/s) = 3.93910 2.91402 3.46468
# Velocity P-wave (km/s) = 5.61710 5.89878 5.75966
#
# Compressibility (1/GPa) = 0.04366257
#
# Stress axis : x y z
#
# Youngs Moduli (GPa) = 32.34843 121.62673 58.19110
#
# Poissons Ratio (x) = 0.17243 -0.10857
# Poissons Ratio (y) = 0.04586 0.39435
# Poissons Ratio (z) = -0.06035 0.82423
#
# Static dielectric constant tensor:
#      x y z
#    x 1.786010 0.000000 0.000000 
#    y 0.000000 1.814970 0.000000 
#    z 0.000000 0.000000 1.747480 
# 
# From -- ./inp_files/11973.got.cif
#   From: 2010.05.17/outbox.cif.g08.bks.cpg/sg35_6_cif.got.tgz:11973.got - 2010.06.03 17:29:28.
