data_PCOD9350733
_publ_section_title
;
Structure prediction by ZEFSAII (Michael W. Deem and Ramdas Pophale) SiO2 
 PCOD9350733
Probable space group: C M C 21
;
_chemical_formula_sum "Si O2"
_cell_formula_units_Z 64
_cell_length_a 7.497513
_cell_length_b 30.549098
_cell_length_c 12.578400
_cell_angle_alpha 90.000000
_cell_angle_beta 90.000000
_cell_angle_gamma 90.000000
_cell_volume 2880.985156
_symmetry_space_group_name_H-M "C M C 21"
_symmetry_group_IT_number 36
_symmetry_cell_setting 'orthorhombic'
loop_
_space_group_symop_operation_xyz
x,y,z
-x,-y,1/2+z
x,-y,1/2+z
-x,y,z
1/2+x,1/2+y,z
1/2-x,1/2-y,1/2+z
1/2+x,1/2-y,1/2+z
1/2-x,1/2+y,z
loop_
_atom_site_type_symbol
_atom_site_label
_atom_site_fract_x
_atom_site_fract_y
_atom_site_fract_z
Si Si1 0.204033 0.815990 0.281400
Si Si2 0.782722 0.720930 0.331028
Si Si3 0.280400 0.586000 0.817720
Si Si4 0.795575 0.635019 0.215420
Si Si5 0.218238 0.972278 0.116524
Si Si6 0.292629 0.436123 0.550588
Si Si7 0.202113 0.084017 0.425764
Si Si8 0.785311 0.671009 0.543080
O O1 0.285969 0.769885 0.315972
O O2 0.280408 0.863481 0.309880
O O3 0.208166 0.814758 0.154257
O O4 0.000000 0.816255 0.321446
O O5 0.718259 0.681968 0.252489
O O6 0.744065 0.704515 0.449198
O O7 0.000000 0.721661 0.319567
O O8 0.500000 0.586452 0.815238
O O9 0.222356 0.557052 0.716450
O O10 0.219086 0.567942 0.931684
O O11 0.717176 0.608525 0.117175
O O12 0.788518 0.603298 0.319286
O O13 0.000000 0.642762 0.187946
O O14 0.000000 0.969104 0.118059
O O15 0.276327 0.022828 0.119097
O O16 0.276557 0.954108 0.000653
O O17 0.500000 0.446125 0.534601
O O18 0.205809 0.124868 0.506833
O O19 0.000000 0.072220 0.395123
O O20 0.000000 0.666400 0.550344
#
# Coordination Sequence:
#
# PCOD9350733 Si02
#       8
#     8   8   8   8   8   8   8   8
#     4  10  18  34  57  78 105 145 192 231 276 332
#     4   8  18  34  53  74 103 148 185 223 275 330
#     4   9  18  33  54  83 111 136 179 236 279 322
#     4  10  21  38  54  77 116 149 182 232 291 336
#     4   9  18  32  55  85 109 135 180 237 280 319
#     4  10  21  35  57  83 111 147 186 229 282 338
#     4  10  18  33  59  83 103 141 192 235 274 328
#     4  10  19  33  51  79 114 143 178 231 291 335
#
# _framework density 22.214624000000001
#
# number of rings (size 3 to 8) (size 9 to 14) (size 15 to 20)
#    0.000    2.500    1.250    1.875    1.750    1.000 
#    0.000    6.875    0.000    0.000    0.000    0.000 
#    0.000    0.000    0.000    0.000    0.000    0.000 
#
# Total GULP energy -178511.042899 kJ/mol
# GULP energy per Si atom -5578.470091 kJ/mol
# Density = 2.216406 g / cm^3
# Si number density = 22.214624 Si / 1000 Ang^3
#
#
#
# Elastic Constant Matrix: (Units=GPa)
#
#
# Indices 1 2 3 4 5 6 
#
# 1 57.9911 3.7946 -3.3566 0.0000 0.0000 0.0000
# 2 3.7946 147.9458 53.7950 0.0000 0.0000 0.0000
# 3 -3.3566 53.7950 72.0488 0.0000 0.0000 0.0000
# 4 0.0000 0.0000 0.0000 19.4476 0.0000 0.0000
# 5 0.0000 0.0000 0.0000 0.0000 -13.9631 0.0000
# 6 0.0000 0.0000 0.0000 0.0000 0.0000 9.9703
#
#
#
# Elastic Compliance Matrix: (Units=1/GPa)
#
#
# Indices 1 2 3 4 5 6 
#
# 1 0.017401 -0.001017 0.001570 0.000000 0.000000 0.000000
# 2 -0.001017 0.009338 -0.007019 0.000000 0.000000 0.000000
# 3 0.001570 -0.007019 0.019194 0.000000 0.000000 0.000000
# 4 0.000000 0.000000 0.000000 0.051420 0.000000 0.000000
# 5 0.000000 0.000000 0.000000 0.000000 -0.071617 0.000000
# 6 0.000000 0.000000 0.000000 0.000000 0.000000 0.100298
#
#
# Mechanical properties :
#
#
# Convention : Reuss Voigt Hill
#
# Bulk Modulus (GPa) = 30.30301 42.93908 36.62105
# Shear Modulus (GPa) = 33.34070 18.00778 25.67424
#
# Velocity S-wave (km/s) = 3.87828 2.85024 3.40330
# Velocity P-wave (km/s) = 5.80735 5.49572 5.65369
#
# Compressibility (1/GPa) = 0.03300002
#
# Stress axis : x y z
#
# Youngs Moduli (GPa) = 57.46637 107.09349 52.10071
#
# Poissons Ratio (x) = 0.10894 -0.08181
# Poissons Ratio (y) = 0.05846 0.36571
# Poissons Ratio (z) = -0.09024 0.75172
#
# Static dielectric constant tensor:
#      x y z
#    x 1.863770 0.000000 0.000000 
#    y 0.000000 1.837580 0.000000 
#    z 0.000000 0.000000 1.774550 
# 
# From -- ./inp_files/7226.got.cif
#   From: 2010.05.17/outbox.cif.g08.bks.cpg/sg36_4_cif.got.tgz:7226.got - 2010.06.03 17:41:39.
