data_PCOD9350535
_publ_section_title
;
Structure prediction by ZEFSAII (Michael W. Deem and Ramdas Pophale) SiO2 
 PCOD9350535
Probable space group: C M C 21
;
_chemical_formula_sum "Si O2"
_cell_formula_units_Z 48
_cell_length_a 24.160342
_cell_length_b 6.992885
_cell_length_c 11.853762
_cell_angle_alpha 90.000000
_cell_angle_beta 90.000000
_cell_angle_gamma 90.000000
_cell_volume 2002.698936
_symmetry_space_group_name_H-M "C M C 21"
_symmetry_group_IT_number 36
_symmetry_cell_setting 'orthorhombic'
loop_
_space_group_symop_operation_xyz
x,y,z
-x,-y,1/2+z
x,-y,1/2+z
-x,y,z
1/2+x,1/2+y,z
1/2-x,1/2-y,1/2+z
1/2+x,1/2-y,1/2+z
1/2-x,1/2+y,z
loop_
_atom_site_type_symbol
_atom_site_label
_atom_site_fract_x
_atom_site_fract_y
_atom_site_fract_z
Si Si1 0.132407 0.196150 0.975290
Si Si2 0.787482 0.110691 0.799095
Si Si3 0.561618 0.349628 0.250303
Si Si4 0.064966 0.301689 0.186662
Si Si5 0.666537 0.183142 0.838738
Si Si6 0.649543 0.719608 0.584232
O O1 0.190852 0.227629 0.909612
O O2 0.091907 0.173501 0.868850
O O3 0.099775 0.316439 0.069851
O O4 0.142745 0.994840 0.036865
O O5 0.722241 0.083069 0.798060
O O6 0.805450 0.209110 0.682703
O O7 0.818823 0.905487 0.807519
O O8 0.500000 0.280988 0.261981
O O9 0.561103 0.573682 0.216624
O O10 0.593053 0.239460 0.150694
O O11 0.108466 0.374585 0.282080
O O12 0.000000 0.363686 0.182639
O O13 0.662200 0.161277 0.973327
#
# Coordination Sequence:
#
# PCOD9350535 Si02
#       6
#     8   8   8   8   8   8
#     4   9  15  31  44  72 104 133 167 209 259 313
#     4  10  21  33  52  73 109 136 177 216 264 316
#     4   9  15  25  45  70 102 134 162 205 264 312
#     4  10  18  28  47  74 104 133 167 213 262 308
#     4  11  21  34  51  78 106 139 173 218 265 321
#     4   9  17  31  45  69 104 137 166 211 258 310
#
# _framework density 23.967656000000002
#
# number of rings (size 3 to 8) (size 9 to 14) (size 15 to 20)
#    0.000    2.333    6.667    0.500    2.333    1.333 
#    0.000    0.000    0.000    0.000    0.000    7.000 
#    0.000    0.000    0.000    0.000    0.000    0.000 
#
# Total GULP energy -134005.951120 kJ/mol
# GULP energy per Si atom -5583.581297 kJ/mol
# Density = 2.391310 g / cm^3
# Si number density = 23.967656 Si / 1000 Ang^3
#
#
#
# Elastic Constant Matrix: (Units=GPa)
#
#
# Indices 1 2 3 4 5 6 
#
# 1 109.2387 41.5176 22.0433 0.0000 0.0000 0.0000
# 2 41.5176 68.2762 32.2971 0.0000 0.0000 0.0000
# 3 22.0433 32.2971 150.3006 0.0000 0.0000 0.0000
# 4 0.0000 0.0000 0.0000 18.2101 0.0000 0.0000
# 5 0.0000 0.0000 0.0000 0.0000 7.3048 0.0000
# 6 0.0000 0.0000 0.0000 0.0000 0.0000 15.8111
#
#
#
# Elastic Compliance Matrix: (Units=1/GPa)
#
#
# Indices 1 2 3 4 5 6 
#
# 1 0.011912 -0.007143 -0.000212 0.000000 0.000000 0.000000
# 2 -0.007143 0.020587 -0.003376 0.000000 0.000000 0.000000
# 3 -0.000212 -0.003376 0.007410 0.000000 0.000000 0.000000
# 4 0.000000 0.000000 0.000000 0.054915 0.000000 0.000000
# 5 0.000000 0.000000 0.000000 0.000000 0.136897 0.000000
# 6 0.000000 0.000000 0.000000 0.000000 0.000000 0.063247
#
#
# Mechanical properties :
#
#
# Convention : Reuss Voigt Hill
#
# Bulk Modulus (GPa) = 54.21199 57.72575 55.96887
# Shear Modulus (GPa) = 15.50010 23.72902 19.61456
#
# Velocity S-wave (km/s) = 2.54581 3.14991 2.86383
# Velocity P-wave (km/s) = 5.59548 6.11280 5.85985
#
# Compressibility (1/GPa) = 0.01844610
#
# Stress axis : x y z
#
# Youngs Moduli (GPa) = 83.94975 48.57422 134.95402
#
# Poissons Ratio (x) = 0.34697 0.02862
# Poissons Ratio (y) = 0.59966 0.45563
# Poissons Ratio (z) = 0.01780 0.16400
#
# Static dielectric constant tensor:
#      x y z
#    x 1.889610 0.000000 0.000000 
#    y 0.000000 2.087460 0.000000 
#    z 0.000000 0.000000 1.880020 
# 
# From -- ./inp_files/9193.got.cif
#   From: 2010.05.17/outbox.cif.g08.bks.cpg/sg36_5_cif.got.tgz:9193.got - 2010.06.03 17:41:39.
