data_PCOD9350263
_publ_section_title
;
Structure prediction by ZEFSAII (Michael W. Deem and Ramdas Pophale) SiO2 
 PCOD9350263
Probable space group: C M M 2
;
_chemical_formula_sum "Si O2"
_cell_formula_units_Z 40
_cell_length_a 15.012352
_cell_length_b 8.503556
_cell_length_c 15.689253
_cell_angle_alpha 90.000000
_cell_angle_beta 90.000000
_cell_angle_gamma 90.000000
_cell_volume 2002.864557
_symmetry_space_group_name_H-M "C M M 2"
_symmetry_group_IT_number 35
_symmetry_cell_setting 'orthorhombic'
loop_
_space_group_symop_operation_xyz
x,y,z
-x,-y,z
-x,y,z
x,-y,z
1/2+x,1/2+y,z
1/2-x,1/2-y,z
1/2-x,1/2+y,z
1/2+x,1/2-y,z
loop_
_atom_site_type_symbol
_atom_site_label
_atom_site_fract_x
_atom_site_fract_y
_atom_site_fract_z
Si Si1 0.852060 0.686970 0.875000
Si Si2 0.500000 0.691796 0.186024
Si Si3 0.000000 0.807505 0.380921
Si Si4 0.350503 0.689737 0.511305
Si Si5 0.649329 0.311553 0.054436
Si Si6 0.148018 0.811492 0.698900
O O1 0.851410 0.500000 0.877175
O O2 0.750000 0.750000 0.874339
O O3 0.892844 0.743661 0.785595
O O4 0.888764 0.752099 0.963833
O O5 0.500000 0.500000 0.187556
O O6 0.500000 0.746366 0.283437
O O7 0.413491 0.739985 0.131942
O O8 0.914038 0.757051 0.435198
O O9 0.000000 0.000000 0.380041
O O10 0.348104 0.500000 0.510416
O O11 0.250000 0.750000 0.502300
O O12 0.387347 0.734261 0.605450
O O13 0.651743 0.500000 0.051586
O O14 0.750000 0.250000 0.064184
O O15 0.250000 0.750000 0.696819
O O16 0.147416 0.000000 0.705616
#
# Coordination Sequence:
#
# PCOD9350263 Si02
#       6
#     8   4   4   8   8   8
#     4  10  17  27  46  73 103 138 171 207 250 300
#     4   9  20  36  56  77 102 134 173 215 260 309
#     4   9  18  36  56  77 102 134 173 215 258 309
#     4   9  18  32  54  78 105 137 172 210 254 302
#     4  10  19  34  54  78 104 136 172 212 256 305
#     4   9  15  25  43  71 102 135 170 207 247 297
#
# _framework density 19.971395999999999
#
# number of rings (size 3 to 8) (size 9 to 14) (size 15 to 20)
#    0.000    2.600    0.000    5.400    0.000    1.600 
#    0.000    3.500    0.000    7.200    0.000    0.000 
#    0.000    0.000    0.000    0.000    0.000    0.000 
#
# Total GULP energy -111553.981554 kJ/mol
# GULP energy per Si atom -5577.699078 kJ/mol
# Density = 1.992594 g / cm^3
# Si number density = 19.971396 Si / 1000 Ang^3
#
#
#
# Elastic Constant Matrix: (Units=GPa)
#
#
# Indices 1 2 3 4 5 6 
#
# 1 97.4394 17.3377 85.5993 0.0000 0.0000 0.0000
# 2 17.3377 64.1442 45.1522 0.0000 0.0000 0.0000
# 3 85.5993 45.1522 248.9168 0.0000 0.0000 0.0000
# 4 0.0000 0.0000 0.0000 19.9900 0.0000 0.0000
# 5 0.0000 0.0000 0.0000 0.0000 45.7618 0.0000
# 6 0.0000 0.0000 0.0000 0.0000 0.0000 8.3028
#
#
#
# Elastic Compliance Matrix: (Units=1/GPa)
#
#
# Indices 1 2 3 4 5 6 
#
# 1 0.014718 -0.000476 -0.004975 0.000000 0.000000 0.000000
# 2 -0.000476 0.017887 -0.003081 0.000000 0.000000 0.000000
# 3 -0.004975 -0.003081 0.006287 0.000000 0.000000 0.000000
# 4 0.000000 0.000000 0.000000 0.050025 0.000000 0.000000
# 5 0.000000 0.000000 0.000000 0.000000 0.021852 0.000000
# 6 0.000000 0.000000 0.000000 0.000000 0.000000 0.120441
#
#
# Mechanical properties :
#
#
# Convention : Reuss Voigt Hill
#
# Bulk Modulus (GPa) = 45.81226 78.51988 62.16607
# Shear Modulus (GPa) = 19.56561 32.30501 25.93531
#
# Velocity S-wave (km/s) = 3.13338 4.02626 3.60755
# Velocity P-wave (km/s) = 6.00662 7.81126 6.96762
#
# Compressibility (1/GPa) = 0.02182822
#
# Stress axis : x y z
#
# Youngs Moduli (GPa) = 67.94431 55.90568 159.05641
#
# Poissons Ratio (x) = 0.02662 0.79129
# Poissons Ratio (y) = 0.03236 0.49004
# Poissons Ratio (z) = 0.33802 0.17224
#
# Static dielectric constant tensor:
#      x y z
#    x 1.696890 0.000000 0.000000 
#    y 0.000000 1.674590 0.000000 
#    z 0.000000 0.000000 1.743830 
# 
# From -- ./inp_files/14743.got.cif
#   From: 2010.05.17/outbox.cif.g08.bks.cpg/sg35_8_cif.got.tgz:14743.got - 2010.06.03 17:29:28.
