data_PCOD9350469
_publ_section_title
;
Structure prediction by ZEFSAII (Michael W. Deem and Ramdas Pophale) SiO2 
 PCOD9350469
Probable space group: C M C 21
;
_chemical_formula_sum "Si O2"
_cell_formula_units_Z 56
_cell_length_a 35.623193
_cell_length_b 5.213380
_cell_length_c 12.620404
_cell_angle_alpha 90.000000
_cell_angle_beta 90.000000
_cell_angle_gamma 90.000000
_cell_volume 2343.826623
_symmetry_space_group_name_H-M "C M C 21"
_symmetry_group_IT_number 36
_symmetry_cell_setting 'orthorhombic'
loop_
_space_group_symop_operation_xyz
x,y,z
-x,-y,1/2+z
x,-y,1/2+z
-x,y,z
1/2+x,1/2+y,z
1/2-x,1/2-y,1/2+z
1/2+x,1/2-y,1/2+z
1/2-x,1/2+y,z
loop_
_atom_site_type_symbol
_atom_site_label
_atom_site_fract_x
_atom_site_fract_y
_atom_site_fract_z
Si Si1 0.844437 0.419653 0.103820
Si Si2 0.265017 0.107874 0.045693
Si Si3 0.734922 0.387292 0.790087
Si Si4 0.078441 0.060561 0.852910
Si Si5 0.500000 0.558569 0.349971
Si Si6 0.921445 0.559323 0.989684
Si Si7 0.844340 0.919384 0.232245
Si Si8 0.000000 0.557640 0.494909
O O1 0.806328 0.488656 0.042621
O O2 0.844121 0.121352 0.134701
O O3 0.842462 0.620878 0.201542
O O4 0.883112 0.493465 0.048128
O O5 0.263931 0.396133 0.004214
O O6 0.249933 0.151609 0.167763
O O7 0.763561 0.599994 0.832028
O O8 0.693515 0.503509 0.792511
O O9 0.078918 0.850608 0.947883
O O10 0.116874 0.027859 0.790905
O O11 0.039502 0.994257 0.792838
O O12 0.076756 0.352068 0.894132
O O13 0.500000 0.343859 0.445358
O O14 0.500000 0.156803 0.899967
O O15 0.960409 0.500280 0.051556
#
# Coordination Sequence:
#
# PCOD9350469 Si02
#       8
#     8   8   8   8   4   8   8   4
#     4  12  21  33  56  86 107 136 184 230 265 310
#     4  10  16  30  49  75  96 137 183 215 241 316
#     4  10  16  30  49  75  96 137 183 215 241 316
#     4  10  21  38  57  80 110 144 178 219 268 323
#     4   8  16  34  58  74  98 148 188 198 246 344
#     4  10  21  38  57  80 110 144 178 219 268 323
#     4  12  21  33  56  86 107 136 184 230 265 310
#     4   8  16  34  58  74  98 148 188 198 246 344
#
# _framework density 23.892552999999999
#
# number of rings (size 3 to 8) (size 9 to 14) (size 15 to 20)
#    0.000    1.714    5.714    1.714    0.000    0.000 
#    0.000    1.429    0.000    5.143    0.000    0.000 
#    0.000    0.000    0.000    0.000    0.000    0.000 
#
# Total GULP energy -156320.119489 kJ/mol
# GULP energy per Si atom -5582.861410 kJ/mol
# Density = 2.383817 g / cm^3
# Si number density = 23.892553 Si / 1000 Ang^3
#
#
#
# Elastic Constant Matrix: (Units=GPa)
#
#
# Indices 1 2 3 4 5 6 
#
# 1 202.3166 -9.6441 9.9338 0.0000 0.0000 0.0000
# 2 -9.6441 115.8452 5.9599 0.0000 0.0000 0.0000
# 3 9.9338 5.9599 13.7058 0.0000 0.0000 0.0000
# 4 0.0000 0.0000 0.0000 30.0446 0.0000 0.0000
# 5 0.0000 0.0000 0.0000 0.0000 22.4315 0.0000
# 6 0.0000 0.0000 0.0000 0.0000 0.0000 9.9501
#
#
#
# Elastic Compliance Matrix: (Units=1/GPa)
#
#
# Indices 1 2 3 4 5 6 
#
# 1 0.005171 0.000638 -0.004025 0.000000 0.000000 0.000000
# 2 0.000638 0.008908 -0.004336 0.000000 0.000000 0.000000
# 3 -0.004025 -0.004336 0.077765 0.000000 0.000000 0.000000
# 4 0.000000 0.000000 0.000000 0.033284 0.000000 0.000000
# 5 0.000000 0.000000 0.000000 0.000000 0.044580 0.000000
# 6 0.000000 0.000000 0.000000 0.000000 0.000000 0.100501
#
#
# Mechanical properties :
#
#
# Convention : Reuss Voigt Hill
#
# Bulk Modulus (GPa) = 13.08946 38.26298 25.67622
# Shear Modulus (GPa) = 16.07089 34.19310 25.13200
#
# Velocity S-wave (km/s) = 2.59633 3.78712 3.24678
# Velocity P-wave (km/s) = 3.80503 5.93063 4.98250
#
# Compressibility (1/GPa) = 0.07639733
#
# Stress axis : x y z
#
# Youngs Moduli (GPa) = 193.39493 112.25430 12.85930
#
# Poissons Ratio (x) = -0.07157 0.05176
# Poissons Ratio (y) = -0.12330 0.05576
# Poissons Ratio (z) = 0.77841 0.48671
#
# Static dielectric constant tensor:
#      x y z
#    x 1.929750 0.000000 0.000000 
#    y 0.000000 1.940330 0.000000 
#    z 0.000000 0.000000 2.452590 
# 
# From -- ./inp_files/13196.got.cif
#   From: 2010.05.17/outbox.cif.g08.bks.cpg/sg36_7_cif.got.tgz:13196.got - 2010.06.03 17:41:39.
