data_PCOD9350899
_publ_section_title
;
Structure prediction by ZEFSAII (Michael W. Deem and Ramdas Pophale) SiO2 
 PCOD9350899
Probable space group: C M C 21
;
_chemical_formula_sum "Si O2"
_cell_formula_units_Z 64
_cell_length_a 7.445658
_cell_length_b 23.298499
_cell_length_c 16.898438
_cell_angle_alpha 90.000000
_cell_angle_beta 90.000000
_cell_angle_gamma 90.000000
_cell_volume 2931.416913
_symmetry_space_group_name_H-M "C M C 21"
_symmetry_group_IT_number 36
_symmetry_cell_setting 'orthorhombic'
loop_
_space_group_symop_operation_xyz
x,y,z
-x,-y,1/2+z
x,-y,1/2+z
-x,y,z
1/2+x,1/2+y,z
1/2-x,1/2-y,1/2+z
1/2+x,1/2-y,1/2+z
1/2-x,1/2+y,z
loop_
_atom_site_type_symbol
_atom_site_label
_atom_site_fract_x
_atom_site_fract_y
_atom_site_fract_z
Si Si1 0.298622 0.841240 0.580470
Si Si2 0.794085 0.028562 0.078082
Si Si3 0.220165 0.222557 0.622921
Si Si4 0.780460 0.009172 0.751231
Si Si5 0.711485 0.709128 0.914808
Si Si6 0.281076 0.359090 0.263485
Si Si7 0.715410 0.330005 0.955772
Si Si8 0.720046 0.540323 0.421877
O O1 0.500000 0.853409 0.608855
O O2 0.207545 0.902549 0.571569
O O3 0.218518 0.788624 0.631000
O O4 0.304372 0.810885 0.494934
O O5 0.000000 0.007778 0.081160
O O6 0.718216 0.014336 0.165547
O O7 0.720577 0.998578 0.997686
O O8 0.277564 0.181585 0.692867
O O9 0.278927 0.192525 0.541384
O O10 0.000000 0.224825 0.621833
O O11 0.726835 0.075562 0.754706
O O12 0.000000 0.005103 0.751409
O O13 0.722464 0.980388 0.834298
O O14 0.500000 0.698967 0.926420
O O15 0.777389 0.669621 0.844529
O O16 0.736936 0.776770 0.899142
O O17 0.500000 0.358897 0.263241
O O18 0.500000 0.333183 0.959035
O O19 0.777456 0.393724 0.935285
O O20 0.500000 0.538045 0.421185
#
# Coordination Sequence:
#
# PCOD9350899 Si02
#       8
#     8   8   8   8   8   8   8   8
#     4  10  20  34  51  71 100 135 167 201 250 307
#     4  10  19  32  53  77 100 131 172 213 249 290
#     4   8  15  28  46  67  90 123 163 198 238 294
#     4   9  17  28  46  74 101 126 164 212 253 292
#     4  10  19  31  51  76  99 125 163 211 252 292
#     4   9  16  28  48  73  98 124 162 210 252 292
#     4   9  17  31  50  70  97 132 166 200 247 306
#     4   9  17  30  49  74 103 134 167 205 251 303
#
# _framework density 21.832446000000001
#
# number of rings (size 3 to 8) (size 9 to 14) (size 15 to 20)
#    0.000    2.750    0.000    3.000    0.000    6.000 
#    0.000    0.625    0.000   10.500    0.000    0.000 
#    0.000    0.000    0.000    0.000    0.000    0.000 
#
# Total GULP energy -178467.138750 kJ/mol
# GULP energy per Si atom -5577.098086 kJ/mol
# Density = 2.178275 g / cm^3
# Si number density = 21.832446 Si / 1000 Ang^3
#
#
#
# Elastic Constant Matrix: (Units=GPa)
#
#
# Indices 1 2 3 4 5 6 
#
# 1 66.5036 -3.7693 1.4698 0.0000 0.0000 0.0000
# 2 -3.7693 172.1611 75.3014 0.0000 0.0000 0.0000
# 3 1.4698 75.3014 117.7753 0.0000 0.0000 0.0000
# 4 0.0000 0.0000 0.0000 38.8519 0.0000 0.0000
# 5 0.0000 0.0000 0.0000 0.0000 -0.7617 0.0000
# 6 0.0000 0.0000 0.0000 0.0000 0.0000 12.8380
#
#
#
# Elastic Compliance Matrix: (Units=1/GPa)
#
#
# Indices 1 2 3 4 5 6 
#
# 1 0.015082 0.000573 -0.000554 0.000000 0.000000 0.000000
# 2 0.000573 0.008085 -0.005177 0.000000 0.000000 0.000000
# 3 -0.000554 -0.005177 0.011807 0.000000 0.000000 0.000000
# 4 0.000000 0.000000 0.000000 0.025739 0.000000 0.000000
# 5 0.000000 0.000000 0.000000 0.000000 -1.312891 0.000000
# 6 0.000000 0.000000 0.000000 0.000000 0.000000 0.077894
#
#
# Mechanical properties :
#
#
# Convention : Reuss Voigt Hill
#
# Bulk Modulus (GPa) = 40.55543 55.82708 48.19126
# Shear Modulus (GPa) = -4.32620 29.08151 12.37765
#
# Velocity S-wave (km/s) = -1.40920 3.65366 2.38363
# Velocity P-wave (km/s) = 3.99603 6.58978 5.44947
#
# Compressibility (1/GPa) = 0.02465761
#
# Stress axis : x y z
#
# Youngs Moduli (GPa) = 66.30640 123.68247 84.69287
#
# Poissons Ratio (x) = -0.07083 0.04695
# Poissons Ratio (y) = -0.03797 0.43842
# Poissons Ratio (z) = 0.03676 0.64025
#
# Static dielectric constant tensor:
#      x y z
#    x 1.837120 0.000000 0.000000 
#    y 0.000000 1.761960 0.000000 
#    z 0.000000 0.000000 1.788080 
# 
# From -- ./inp_files/13880.got.cif
#   From: 2010.05.17/outbox.cif.g08.bks.cpg/sg36_7_cif.got.tgz:13880.got - 2010.06.03 17:41:39.
