data_PCOD9350335
_publ_section_title
;
Structure prediction by ZEFSAII (Michael W. Deem and Ramdas Pophale) SiO2 
 PCOD9350335
Probable space group: C M M 2
;
_chemical_formula_sum "Si O2"
_cell_formula_units_Z 64
_cell_length_a 29.631273
_cell_length_b 7.978568
_cell_length_c 16.231751
_cell_angle_alpha 90.000000
_cell_angle_beta 90.000000
_cell_angle_gamma 90.000000
_cell_volume 3837.431467
_symmetry_space_group_name_H-M "C M M 2"
_symmetry_group_IT_number 35
_symmetry_cell_setting 'orthorhombic'
loop_
_space_group_symop_operation_xyz
x,y,z
-x,-y,z
-x,y,z
x,-y,z
1/2+x,1/2+y,z
1/2-x,1/2-y,z
1/2-x,1/2+y,z
1/2+x,1/2-y,z
loop_
_atom_site_type_symbol
_atom_site_label
_atom_site_fract_x
_atom_site_fract_y
_atom_site_fract_z
Si Si1 0.947630 0.205852 0.461350
Si Si2 0.054867 0.193800 0.281234
Si Si3 0.947954 0.297034 0.781894
Si Si4 0.948653 0.798663 0.102794
Si Si5 0.700209 0.298028 0.690653
Si Si6 0.105570 0.698315 0.942995
Si Si7 0.892853 0.201468 0.619378
Si Si8 0.700247 0.300243 0.879951
O O1 0.932710 0.266326 0.370415
O O2 0.916530 0.264067 0.536258
O O3 0.000000 0.253358 0.475182
O O4 0.947099 0.000000 0.459409
O O5 0.067338 0.268332 0.192308
O O6 0.000000 0.191501 0.280913
O O7 0.070374 0.000000 0.281996
O O8 0.947614 0.500000 0.783074
O O9 0.920809 0.234446 0.862205
O O10 0.923259 0.241149 0.698841
O O11 0.000000 0.241470 0.783979
O O12 0.000000 0.737835 0.086398
O O13 0.951334 0.000000 0.111514
O O14 0.916490 0.761949 0.026825
O O15 0.698038 0.500000 0.693220
O O16 0.750000 0.250000 0.660861
O O17 0.657736 0.236091 0.638065
O O18 0.695568 0.235924 0.785366
O O19 0.099550 0.500000 0.942475
O O20 0.158217 0.737385 0.932389
O O21 0.890530 0.000000 0.612134
O O22 0.697900 0.500000 0.877212
O O23 0.750000 0.250000 0.909513
#
# Coordination Sequence:
#
# PCOD9350335 Si02
#       8
#     8   8   8   8   8   8   8   8
#     4   8  13  22  40  66  93 117 143 181 226 268
#     4   7  11  22  40  63  89 115 145 184 229 271
#     4  10  21  33  42  57  88 127 157 179 211 261
#     4   9  17  29  46  67  91 120 155 194 232 271
#     4   9  18  30  45  64  87 113 147 187 226 264
#     4  11  21  32  46  65  91 123 156 189 228 272
#     4  10  18  29  45  68  90 114 150 190 225 262
#     4  10  19  33  50  68  90 116 151 192 233 274
#
# _framework density 16.677821999999999
#
# number of rings (size 3 to 8) (size 9 to 14) (size 15 to 20)
#    0.000    2.750    1.250    3.000    0.000    3.000 
#    0.000    0.000    0.000    0.750    0.000    2.625 
#    0.000    2.000    0.000    0.000    0.000    0.000 
#
# Total GULP energy -178308.826082 kJ/mol
# GULP energy per Si atom -5572.150815 kJ/mol
# Density = 1.663986 g / cm^3
# Si number density = 16.677822 Si / 1000 Ang^3
#
#
#
# Elastic Constant Matrix: (Units=GPa)
#
#
# Indices 1 2 3 4 5 6 
#
# 1 120.8353 2.1236 83.7839 0.0000 0.0000 0.0000
# 2 2.1236 12.3604 7.0670 0.0000 0.0000 0.0000
# 3 83.7839 7.0670 159.1265 0.0000 0.0000 0.0000
# 4 0.0000 0.0000 0.0000 -3.9253 0.0000 0.0000
# 5 0.0000 0.0000 0.0000 0.0000 8.1832 0.0000
# 6 0.0000 0.0000 0.0000 0.0000 0.0000 13.5204
#
#
#
# Elastic Compliance Matrix: (Units=1/GPa)
#
#
# Indices 1 2 3 4 5 6 
#
# 1 0.013070 0.001733 -0.006959 0.000000 0.000000 0.000000
# 2 0.001733 0.083241 -0.004609 0.000000 0.000000 0.000000
# 3 -0.006959 -0.004609 0.010153 0.000000 0.000000 0.000000
# 4 0.000000 0.000000 0.000000 -0.254759 0.000000 0.000000
# 5 0.000000 0.000000 0.000000 0.000000 0.122202 0.000000
# 6 0.000000 0.000000 0.000000 0.000000 0.000000 0.073962
#
#
# Mechanical properties :
#
#
# Convention : Reuss Voigt Hill
#
# Bulk Modulus (GPa) = 11.52147 53.14126 32.33136
# Shear Modulus (GPa) = 51.82861 16.84551 34.33706
#
# Velocity S-wave (km/s) = 5.58067 3.18158 4.54237
# Velocity P-wave (km/s) = 6.96049 6.74012 6.85119
#
# Compressibility (1/GPa) = 0.08679451
#
# Stress axis : x y z
#
# Youngs Moduli (GPa) = 76.50929 12.01325 98.49313
#
# Poissons Ratio (x) = -0.02082 0.68539
# Poissons Ratio (y) = -0.13260 0.45399
# Poissons Ratio (z) = 0.53241 0.05537
#
# Static dielectric constant tensor:
#      x y z
#    x 1.542290 0.000000 0.000000 
#    y 0.000000 1.602390 0.000000 
#    z 0.000000 0.000000 1.586610 
# 
# From -- ./inp_files/16146.got.cif
#   From: 2010.05.17/outbox.cif.g08.bks.cpg/sg35_9_cif.got.tgz:16146.got - 2010.06.03 17:29:28.
