data_PCOD9350190
_publ_section_title
;
Structure prediction by ZEFSAII (Michael W. Deem and Ramdas Pophale) SiO2 
 PCOD9350190
Probable space group: C M M 2
;
_chemical_formula_sum "Si O2"
_cell_formula_units_Z 24
_cell_length_a 9.000000
_cell_length_b 15.000000
_cell_length_c 18.000000
_cell_angle_alpha 90.000000
_cell_angle_beta 90.000000
_cell_angle_gamma 90.000000
_cell_volume 2430.000000
_symmetry_space_group_name_H-M "C M M 2"
_symmetry_group_IT_number 35
_symmetry_cell_setting 'orthorhombic'
loop_
_space_group_symop_operation_xyz
x,y,z
-x,-y,z
-x,y,z
x,-y,z
1/2+x,1/2+y,z
1/2-x,1/2-y,z
1/2-x,1/2+y,z
1/2+x,1/2-y,z
loop_
_atom_site_type_symbol
_atom_site_label
_atom_site_fract_x
_atom_site_fract_y
_atom_site_fract_z
Si Si1 0.321359 0.160518 0.964790
Si Si2 0.171598 0.390818 0.287106
Si Si3 0.820125 0.159362 0.599721
Si Si4 0.172291 0.892277 0.436842
Si Si5 0.180548 0.603601 0.127428
Si Si6 0.819713 0.000000 0.704846
Si Si7 0.320715 0.500000 0.875687
O O1 0.500000 0.158631 0.960942
O O2 0.250000 0.250000 0.935401
O O3 0.249044 0.082780 0.918026
O O4 0.276224 0.150164 0.051479
O O5 0.176222 0.500000 0.285492
O O6 0.250456 0.361004 0.361815
O O7 0.236166 0.362053 0.207223
O O8 0.000000 0.364554 0.291356
O O9 0.750000 0.250000 0.625724
O O10 0.766991 0.141082 0.515412
O O11 0.000000 0.161108 0.597750
O O12 0.772365 0.084023 0.656717
O O13 0.000000 0.867547 0.432634
O O14 0.181135 0.000000 0.439071
O O15 0.223835 0.500000 0.120139
O O16 0.000000 0.605495 0.131632
O O17 0.773363 0.000000 0.789764
O O18 0.000000 0.000000 0.705402
O O19 0.500000 0.500000 0.880025
#
# Coordination Sequence:
#
# PCOD9350190 Si02
#       7
#     8   8   8   8   8   4   4
#     4  11  22  39  62  88 120 157 195 239 289 345
#     4   8  14  25  46  75 105 141 187 232 275 322
#     4  10  20  37  59  83 111 148 186 226 275 332
#     4   9  16  29  50  74 105 145 185 225 274 328
#     4   8  14  29  53  77 105 148 192 232 281 334
#     4   9  20  41  65  84 111 148 182 223 283 345
#     4  11  23  41  65  92 117 148 190 237 293 357
#
# _framework density 9.8765429999999999
#
# number of rings (size 3 to 8) (size 9 to 14) (size 15 to 20)
#    0.000    2.667    1.667    1.750    0.000    1.333 
#    0.000    6.250    0.000    4.000    0.000    0.000 
#    0.000    0.000    0.000    0.000    0.000    0.000 
#
# Total GULP energy -133774.652385 kJ/mol
# GULP energy per Si atom -5573.943849 kJ/mol
# Density = 0.985406 g / cm^3
# Si number density = 9.876543 Si / 1000 Ang^3
#
#
#
# Elastic Constant Matrix: (Units=GPa)
#
#
# Indices 1 2 3 4 5 6 
#
# 1 25.1624 35.3419 45.6554 0.0000 0.0000 0.0000
# 2 35.3419 120.8560 88.5847 0.0000 0.0000 0.0000
# 3 45.6554 88.5847 172.5980 0.0000 0.0000 0.0000
# 4 0.0000 0.0000 0.0000 -425.3882 0.0000 0.0000
# 5 0.0000 0.0000 0.0000 0.0000 460.6658 0.0000
# 6 0.0000 0.0000 0.0000 0.0000 0.0000 15.6441
#
#
#
# Elastic Compliance Matrix: (Units=1/GPa)
#
#
# Indices 1 2 3 4 5 6 
#
# 1 0.089252 -0.014099 -0.016372 0.000000 0.000000 0.000000
# 2 -0.014099 0.015492 -0.004221 0.000000 0.000000 0.000000
# 3 -0.016372 -0.004221 0.012291 0.000000 0.000000 0.000000
# 4 0.000000 0.000000 0.000000 -0.002351 0.000000 0.000000
# 5 0.000000 0.000000 0.000000 0.000000 0.002171 0.000000
# 6 0.000000 0.000000 0.000000 0.000000 0.000000 0.063922
#
#
# Mechanical properties :
#
#
# Convention : Reuss Voigt Hill
#
# Bulk Modulus (GPa) = 20.98713 73.08670 47.03691
# Shear Modulus (GPa) = 18.79380 20.11995 19.45687
#
# Velocity S-wave (km/s) = 3.08788 3.19497 3.14188
# Velocity P-wave (km/s) = 4.83334 7.11975 6.08490
#
# Compressibility (1/GPa) = 0.04764825
#
# Stress axis : x y z
#
# Youngs Moduli (GPa) = 11.20429 64.55127 81.35902
#
# Poissons Ratio (x) = 0.91013 1.33204
# Poissons Ratio (y) = 0.15797 0.34345
# Poissons Ratio (z) = 0.18344 0.27250
#
# Static dielectric constant tensor:
#      x y z
#    x 1.520640 0.000000 0.000000 
#    y 0.000000 1.792700 0.000000 
#    z 0.000000 0.000000 1.703240 
# 
# From -- ./inp_files/17844.got.cif
#   From: 2010.05.17/outbox.ucp.g08.bks.cvg/sg35_9_cif.got.tgz:17844.got - 2010.06.11 10:36:28.
