data_PCOD9350516
_publ_section_title
;
Structure prediction by ZEFSAII (Michael W. Deem and Ramdas Pophale) SiO2 
 PCOD9350516
Probable space group: C M C 21
;
_chemical_formula_sum "Si O2"
_cell_formula_units_Z 64
_cell_length_a 14.888369
_cell_length_b 11.858059
_cell_length_c 17.983276
_cell_angle_alpha 90.000000
_cell_angle_beta 90.000000
_cell_angle_gamma 90.000000
_cell_volume 3174.896270
_symmetry_space_group_name_H-M "C M C 21"
_symmetry_group_IT_number 36
_symmetry_cell_setting 'orthorhombic'
loop_
_space_group_symop_operation_xyz
x,y,z
-x,-y,1/2+z
x,-y,1/2+z
-x,y,z
1/2+x,1/2+y,z
1/2-x,1/2-y,1/2+z
1/2+x,1/2-y,1/2+z
1/2-x,1/2+y,z
loop_
_atom_site_type_symbol
_atom_site_label
_atom_site_fract_x
_atom_site_fract_y
_atom_site_fract_z
Si Si1 0.239482 0.763523 0.625000
Si Si2 0.191050 0.431600 0.501680
Si Si3 0.603602 0.156878 0.507420
Si Si4 0.760708 0.756814 0.385824
Si Si5 0.597287 0.612437 0.596716
Si Si6 0.401376 0.600179 0.817543
Si Si7 0.600246 0.592955 0.193358
Si Si8 0.646956 0.569850 0.439530
O O1 0.288502 0.858918 0.574577
O O2 0.160986 0.703484 0.576843
O O3 0.319195 0.674105 0.635143
O O4 0.183917 0.822663 0.690717
O O5 0.110104 0.520128 0.505442
O O6 0.201488 0.347626 0.431866
O O7 0.272949 0.515995 0.486940
O O8 0.500000 0.192270 0.509019
O O9 0.657975 0.210107 0.437980
O O10 0.815535 0.817724 0.320717
O O11 0.692102 0.653194 0.379478
O O12 0.500000 0.652186 0.625352
O O13 0.601820 0.479602 0.616621
O O14 0.597479 0.630924 0.507494
O O15 0.500000 0.654698 0.810066
O O16 0.392723 0.504606 0.754899
O O17 0.399720 0.530082 0.895225
O O18 0.500000 0.644765 0.200810
#
# Coordination Sequence:
#
# PCOD9350516 Si02
#       8
#     8   8   8   8   8   8   8   8
#     4  11  18  34  52  74 104 139 173 217 261 316
#     4   9  16  30  47  73 103 131 161 211 253 310
#     4  10  18  28  48  77 103 133 165 208 258 309
#     4   9  18  32  53  71 107 137 171 212 260 313
#     4  11  21  34  55  80 106 138 178 223 268 318
#     4  10  21  35  53  79 107 139 181 219 260 318
#     4  10  22  37  53  77 110 144 179 219 264 315
#     4  10  17  34  53  79 104 135 172 217 266 313
#
# _framework density 20.15814
#
# number of rings (size 3 to 8) (size 9 to 14) (size 15 to 20)
#    0.000    2.000    5.000    1.125    0.000    1.500 
#    0.000    0.000    0.000    0.000    0.000    1.750 
#    0.000    0.000    0.000    0.000    0.000    0.000 
#
# Total GULP energy -178175.546801 kJ/mol
# GULP energy per Si atom -5567.985838 kJ/mol
# Density = 2.011226 g / cm^3
# Si number density = 20.158140 Si / 1000 Ang^3
#
#
#
# Elastic Constant Matrix: (Units=GPa)
#
#
# Indices 1 2 3 4 5 6 
#
# 1 93.9926 24.6358 7.8891 0.0000 0.0000 0.0000
# 2 24.6358 62.3450 -3.6249 0.0000 0.0000 0.0000
# 3 7.8891 -3.6249 43.0837 0.0000 0.0000 0.0000
# 4 0.0000 0.0000 0.0000 21.9278 0.0000 0.0000
# 5 0.0000 0.0000 0.0000 0.0000 6.1014 0.0000
# 6 0.0000 0.0000 0.0000 0.0000 0.0000 23.0206
#
#
#
# Elastic Compliance Matrix: (Units=1/GPa)
#
#
# Indices 1 2 3 4 5 6 
#
# 1 0.012161 -0.004959 -0.002644 0.000000 0.000000 0.000000
# 2 -0.004959 0.018141 0.002434 0.000000 0.000000 0.000000
# 3 -0.002644 0.002434 0.023900 0.000000 0.000000 0.000000
# 4 0.000000 0.000000 0.000000 0.045604 0.000000 0.000000
# 5 0.000000 0.000000 0.000000 0.000000 0.163896 0.000000
# 6 0.000000 0.000000 0.000000 0.000000 0.000000 0.043439
#
#
# Mechanical properties :
#
#
# Convention : Reuss Voigt Hill
#
# Bulk Modulus (GPa) = 22.79786 28.58017 25.68901
# Shear Modulus (GPa) = 15.05572 21.57804 18.31688
#
# Velocity S-wave (km/s) = 2.73588 3.27530 3.01767
# Velocity P-wave (km/s) = 4.61672 5.33969 4.99131
#
# Compressibility (1/GPa) = 0.04386377
#
# Stress axis : x y z
#
# Youngs Moduli (GPa) = 82.23095 55.12399 41.84173
#
# Poissons Ratio (x) = 0.27337 0.11063
# Poissons Ratio (y) = 0.40779 -0.10186
# Poissons Ratio (z) = 0.21742 -0.13419
#
# Static dielectric constant tensor:
#      x y z
#    x 1.749800 0.000000 0.000000 
#    y 0.000000 1.759040 0.000000 
#    z 0.000000 0.000000 1.766250 
# 
# From -- ./inp_files/14710.got.cif
#   From: 2010.05.17/outbox.cif.g08.bks.cpg/sg36_8_cif.got.tgz:14710.got - 2010.06.03 17:41:39.
