data_PCOD9350153
_publ_section_title
;
Structure prediction by ZEFSAII (Michael W. Deem and Ramdas Pophale) SiO2 
 PCOD9350153
Probable space group: C M M 2
;
_chemical_formula_sum "Si O2"
_cell_formula_units_Z 24
_cell_length_a 21.000000
_cell_length_b 9.000000
_cell_length_c 15.000000
_cell_angle_alpha 90.000000
_cell_angle_beta 90.000000
_cell_angle_gamma 90.000000
_cell_volume 2835.000000
_symmetry_space_group_name_H-M "C M M 2"
_symmetry_group_IT_number 35
_symmetry_cell_setting 'orthorhombic'
loop_
_space_group_symop_operation_xyz
x,y,z
-x,-y,z
-x,y,z
x,-y,z
1/2+x,1/2+y,z
1/2-x,1/2-y,z
1/2-x,1/2+y,z
1/2+x,1/2-y,z
loop_
_atom_site_type_symbol
_atom_site_label
_atom_site_fract_x
_atom_site_fract_y
_atom_site_fract_z
Si Si1 0.180408 0.823075 0.806060
Si Si2 0.179399 0.177747 0.255283
Si Si3 0.927617 0.676151 0.137127
Si Si4 0.929079 0.174172 0.948297
Si Si5 0.820311 0.677989 0.434750
Si Si6 0.179715 0.322707 0.628625
O O1 0.250000 0.750000 0.822353
O O2 0.129619 0.795648 0.883475
O O3 0.151543 0.753110 0.715682
O O4 0.188974 0.000000 0.795556
O O5 0.250000 0.250000 0.241904
O O6 0.128578 0.232663 0.183426
O O7 0.152149 0.241324 0.348885
O O8 0.185743 0.000000 0.257290
O O9 0.917596 0.500000 0.149375
O O10 0.000000 0.711941 0.168921
O O11 0.925943 0.720809 0.033630
O O12 0.000000 0.192031 0.907191
O O13 0.924562 0.000000 0.976136
O O14 0.815789 0.500000 0.421034
O O15 0.750000 0.750000 0.439912
O O16 0.850866 0.704366 0.531715
O O17 0.185179 0.500000 0.640060
O O18 0.250000 0.250000 0.625132
#
# Coordination Sequence:
#
# PCOD9350153 Si02
#       6
#     8   8   8   8   8   8
#     4  10  19  30  48  73 100 128 159 201 247 289
#     4  11  21  33  52  77 105 134 166 207 251 295
#     4  10  21  37  56  76  99 130 167 206 250 302
#     4   9  19  36  54  71  94 128 168 204 242 292
#     4   9  16  27  44  68  98 130 164 201 243 290
#     4   9  16  26  43  67  97 130 162 198 239 287
#
# _framework density 8.4656079999999996
#
# number of rings (size 3 to 8) (size 9 to 14) (size 15 to 20)
#    0.000    2.333    0.000    5.500    0.000    5.000 
#    0.000    1.667    0.000    1.000    0.000    4.667 
#    0.000    0.000    0.000    0.000    0.000    0.000 
#
# Total GULP energy -133611.952039 kJ/mol
# GULP energy per Si atom -5567.164668 kJ/mol
# Density = 0.844634 g / cm^3
# Si number density = 8.465608 Si / 1000 Ang^3
#
#
#
# Elastic Constant Matrix: (Units=GPa)
#
#
# Indices 1 2 3 4 5 6 
#
# 1 71.6396 46.7514 47.8571 0.0000 0.0000 0.0000
# 2 46.7514 110.6011 47.1998 0.0000 0.0000 0.0000
# 3 47.8571 47.1998 80.5746 0.0000 0.0000 0.0000
# 4 0.0000 0.0000 0.0000 30.3695 0.0000 0.0000
# 5 0.0000 0.0000 0.0000 0.0000 -14.6078 0.0000
# 6 0.0000 0.0000 0.0000 0.0000 0.0000 20.6104
#
#
#
# Elastic Compliance Matrix: (Units=1/GPa)
#
#
# Indices 1 2 3 4 5 6 
#
# 1 0.025646 -0.005787 -0.011843 0.000000 0.000000 0.000000
# 2 -0.005787 0.013361 -0.004390 0.000000 0.000000 0.000000
# 3 -0.011843 -0.004390 0.022016 0.000000 0.000000 0.000000
# 4 0.000000 0.000000 0.000000 0.032928 0.000000 0.000000
# 5 0.000000 0.000000 0.000000 0.000000 -0.068457 0.000000
# 6 0.000000 0.000000 0.000000 0.000000 0.000000 0.048519
#
#
# Mechanical properties :
#
#
# Convention : Reuss Voigt Hill
#
# Bulk Modulus (GPa) = 58.87493 60.71464 59.79479
# Shear Modulus (GPa) = 40.41569 15.34154 27.87862
#
# Velocity S-wave (km/s) = 4.89105 3.01343 4.06221
# Velocity P-wave (km/s) = 8.16976 6.93146 7.57595
#
# Compressibility (1/GPa) = 0.01698516
#
# Stress axis : x y z
#
# Youngs Moduli (GPa) = 38.99168 74.84514 45.42093
#
# Poissons Ratio (x) = 0.43312 0.53791
# Poissons Ratio (y) = 0.22564 0.19938
# Poissons Ratio (z) = 0.46177 0.32854
#
# Static dielectric constant tensor:
#      x y z
#    x 1.544440 0.000000 0.000000 
#    y 0.000000 1.562910 0.000000 
#    z 0.000000 0.000000 1.642000 
# 
# From -- ./inp_files/15382.got.cif
#   From: 2010.05.17/outbox.ucp.g08.bks.cvg/sg35_8_cif.got.tgz:15382.got - 2010.06.11 10:36:28.
