data_PCOD9350580
_publ_section_title
;
Structure prediction by ZEFSAII (Michael W. Deem and Ramdas Pophale) SiO2 
 PCOD9350580
Probable space group: C M C 21
;
_chemical_formula_sum "Si O2"
_cell_formula_units_Z 64
_cell_length_a 26.789597
_cell_length_b 22.900818
_cell_length_c 5.233172
_cell_angle_alpha 90.000000
_cell_angle_beta 90.000000
_cell_angle_gamma 90.000000
_cell_volume 3210.570307
_symmetry_space_group_name_H-M "C M C 21"
_symmetry_group_IT_number 36
_symmetry_cell_setting 'orthorhombic'
loop_
_space_group_symop_operation_xyz
x,y,z
-x,-y,1/2+z
x,-y,1/2+z
-x,y,z
1/2+x,1/2+y,z
1/2-x,1/2-y,1/2+z
1/2+x,1/2-y,1/2+z
1/2-x,1/2+y,z
loop_
_atom_site_type_symbol
_atom_site_label
_atom_site_fract_x
_atom_site_fract_y
_atom_site_fract_z
Si Si1 0.354330 0.796742 0.893640
Si Si2 0.439093 0.466494 0.860141
Si Si3 0.440911 0.269867 0.202258
Si Si4 0.941418 0.435626 0.760047
Si Si5 0.940032 0.161843 0.211210
Si Si6 0.814831 0.642006 0.894129
Si Si7 0.897447 0.566512 0.762323
Si Si8 0.769194 0.219013 0.788544
O O1 0.410247 0.784449 0.808358
O O2 0.328437 0.838691 0.681509
O O3 0.326013 0.734056 0.852826
O O4 0.342861 0.817799 0.180311
O O5 0.423917 0.511782 0.639321
O O6 0.500000 0.465194 0.859772
O O7 0.421063 0.402193 0.783740
O O8 0.500000 0.257605 0.191946
O O9 0.432722 0.319536 0.419057
O O10 0.422899 0.291488 0.924163
O O11 0.914921 0.499373 0.734720
O O12 0.930927 0.407119 0.488450
O O13 0.000000 0.443108 0.810391
O O14 0.913267 0.406392 0.993883
O O15 0.000000 0.159865 0.245268
O O16 0.840430 0.579572 0.836004
O O17 0.756913 0.656685 0.839880
O O18 0.758835 0.239136 0.497707
#
# Coordination Sequence:
#
# PCOD9350580 Si02
#       8
#     8   8   8   8   8   8   8   8
#     4  10  19  33  49  67  94 126 154 195 239 283
#     4   9  15  23  37  58  81  99 128 175 221 255
#     4  10  19  31  43  59  88 125 158 183 210 265
#     4  10  19  33  48  67  98 137 169 196 239 287
#     4   9  17  28  42  58  83 116 146 179 214 253
#     4  10  19  32  49  72  94 116 152 203 249 278
#     4  10  18  30  49  69  94 123 162 206 238 282
#     4   8  16  30  49  68  90 116 141 185 248 283
#
# _framework density 19.934151
#
# number of rings (size 3 to 8) (size 9 to 14) (size 15 to 20)
#    0.000    2.500    0.000    4.125    0.000    3.000 
#    0.000    5.000    0.000    0.000    0.000    0.000 
#   22.500    0.000    0.000    0.000    0.000    0.000 
#
# Total GULP energy -178161.444349 kJ/mol
# GULP energy per Si atom -5567.545136 kJ/mol
# Density = 1.988878 g / cm^3
# Si number density = 19.934151 Si / 1000 Ang^3
#
#
#
# Elastic Constant Matrix: (Units=GPa)
#
#
# Indices 1 2 3 4 5 6 
#
# 1 37.3714 8.2352 -3.5002 0.0000 0.0000 0.0000
# 2 8.2352 27.9657 -11.3075 0.0000 0.0000 0.0000
# 3 -3.5002 -11.3075 96.1014 0.0000 0.0000 0.0000
# 4 0.0000 0.0000 0.0000 18.5048 0.0000 0.0000
# 5 0.0000 0.0000 0.0000 0.0000 18.4661 0.0000
# 6 0.0000 0.0000 0.0000 0.0000 0.0000 42.1278
#
#
#
# Elastic Compliance Matrix: (Units=1/GPa)
#
#
# Indices 1 2 3 4 5 6 
#
# 1 0.028616 -0.008405 0.000053 0.000000 0.000000 0.000000
# 2 -0.008405 0.040013 0.004402 0.000000 0.000000 0.000000
# 3 0.000053 0.004402 0.010926 0.000000 0.000000 0.000000
# 4 0.000000 0.000000 0.000000 0.054040 0.000000 0.000000
# 5 0.000000 0.000000 0.000000 0.000000 0.054153 0.000000
# 6 0.000000 0.000000 0.000000 0.000000 0.000000 0.023737
#
#
# Mechanical properties :
#
#
# Convention : Reuss Voigt Hill
#
# Bulk Modulus (GPa) = 13.95588 16.47706 15.21647
# Shear Modulus (GPa) = 20.55338 27.02048 23.78693
#
# Velocity S-wave (km/s) = 3.21450 3.68569 3.45813
# Velocity P-wave (km/s) = 4.55999 5.13771 4.85745
#
# Compressibility (1/GPa) = 0.07165441
#
# Stress axis : x y z
#
# Youngs Moduli (GPa) = 34.94605 24.99191 91.52859
#
# Poissons Ratio (x) = 0.21006 -0.00488
# Poissons Ratio (y) = 0.29372 -0.40290
# Poissons Ratio (z) = -0.00186 -0.11001
#
# Static dielectric constant tensor:
#      x y z
#    x 1.735790 0.000000 0.000000 
#    y 0.000000 1.540710 0.000000 
#    z 0.000000 0.000000 1.765430 
# 
# From -- ./inp_files/1825.got.cif
#   From: 2010.05.17/outbox.cif.g08.bks.cpg/sg36_1_cif.got.tgz:1825.got - 2010.06.03 17:41:39.
