data_PCOD9350699
_publ_section_title
;
Structure prediction by ZEFSAII (Michael W. Deem and Ramdas Pophale) SiO2 
 PCOD9350699
Probable space group: C M C 21
;
_chemical_formula_sum "Si O2"
_cell_formula_units_Z 56
_cell_length_a 10.992641
_cell_length_b 14.946445
_cell_length_c 16.676643
_cell_angle_alpha 90.000000
_cell_angle_beta 90.000000
_cell_angle_gamma 90.000000
_cell_volume 2739.987522
_symmetry_space_group_name_H-M "C M C 21"
_symmetry_group_IT_number 36
_symmetry_cell_setting 'orthorhombic'
loop_
_space_group_symop_operation_xyz
x,y,z
-x,-y,1/2+z
x,-y,1/2+z
-x,y,z
1/2+x,1/2+y,z
1/2-x,1/2-y,1/2+z
1/2+x,1/2-y,1/2+z
1/2-x,1/2+y,z
loop_
_atom_site_type_symbol
_atom_site_label
_atom_site_fract_x
_atom_site_fract_y
_atom_site_fract_z
Si Si1 0.129907 0.217968 0.477390
Si Si2 0.356091 0.976766 0.863466
Si Si3 0.133103 0.114276 0.133061
Si Si4 0.633849 0.179782 0.570553
Si Si5 0.358195 0.073534 0.025956
Si Si6 0.297274 0.678461 0.302899
Si Si7 0.355434 0.865564 0.246515
O O1 0.248214 0.174075 0.516197
O O2 0.141341 0.325214 0.489725
O O3 0.128625 0.194070 0.384060
O O4 0.000000 0.191080 0.514240
O O5 0.500000 0.980764 0.862251
O O6 0.314231 0.880635 0.833400
O O7 0.321838 0.008511 0.952813
O O8 0.314070 0.051437 0.799425
O O9 0.130667 0.216761 0.100219
O O10 0.144559 0.124792 0.228865
O O11 0.000000 0.074282 0.112805
O O12 0.253783 0.072008 0.093689
O O13 0.500000 0.160587 0.534250
O O14 0.649320 0.122068 0.651113
O O15 0.500000 0.056730 0.051144
O O16 0.277835 0.778124 0.269186
O O17 0.500000 0.846160 0.263591
#
# Coordination Sequence:
#
# PCOD9350699 Si02
#       7
#     8   8   8   8   8   8   8
#     4  10  18  32  58  85 113 150 192 237 289 347
#     4  10  21  37  59  87 115 149 200 246 287 346
#     4   9  18  34  56  83 117 155 192 236 294 352
#     4   8  16  31  56  85 111 147 194 237 284 344
#     4   9  18  36  61  85 112 153 200 242 286 346
#     4  11  20  33  59  86 115 148 197 238 291 344
#     4   9  17  37  63  81 108 154 198 236 284 351
#
# _framework density 20.43805
#
# number of rings (size 3 to 8) (size 9 to 14) (size 15 to 20)
#    0.000    2.571    1.429    2.143    0.000    1.143 
#    2.571    4.286    0.000    5.143    0.000    0.000 
#    0.000    0.000    0.000    0.000    0.000    0.000 
#
# Total GULP energy -156093.501304 kJ/mol
# GULP energy per Si atom -5574.767904 kJ/mol
# Density = 2.039153 g / cm^3
# Si number density = 20.438050 Si / 1000 Ang^3
#
#
#
# Elastic Constant Matrix: (Units=GPa)
#
#
# Indices 1 2 3 4 5 6 
#
# 1 115.8076 30.5547 77.6468 0.0000 0.0000 0.0000
# 2 30.5547 80.5367 19.1344 0.0000 0.0000 0.0000
# 3 77.6468 19.1344 93.8954 0.0000 0.0000 0.0000
# 4 0.0000 0.0000 0.0000 7.8441 0.0000 0.0000
# 5 0.0000 0.0000 0.0000 0.0000 22.5452 0.0000
# 6 0.0000 0.0000 0.0000 0.0000 0.0000 13.0340
#
#
#
# Elastic Compliance Matrix: (Units=1/GPa)
#
#
# Indices 1 2 3 4 5 6 
#
# 1 0.020506 -0.003942 -0.016154 0.000000 0.000000 0.000000
# 2 -0.003942 0.013806 0.000446 0.000000 0.000000 0.000000
# 3 -0.016154 0.000446 0.023918 0.000000 0.000000 0.000000
# 4 0.000000 0.000000 0.000000 0.127484 0.000000 0.000000
# 5 0.000000 0.000000 0.000000 0.000000 0.044355 0.000000
# 6 0.000000 0.000000 0.000000 0.000000 0.000000 0.076722
#
#
# Mechanical properties :
#
#
# Convention : Reuss Voigt Hill
#
# Bulk Modulus (GPa) = 52.82469 60.54571 56.68520
# Shear Modulus (GPa) = 14.18836 19.54494 16.86665
#
# Velocity S-wave (km/s) = 2.63765 3.09577 2.87585
# Velocity P-wave (km/s) = 5.93116 6.51665 6.23078
#
# Compressibility (1/GPa) = 0.01893054
#
# Stress axis : x y z
#
# Youngs Moduli (GPa) = 48.76587 72.43150 41.80951
#
# Poissons Ratio (x) = 0.28551 0.67540
# Poissons Ratio (y) = 0.19222 -0.01865
# Poissons Ratio (z) = 0.78778 -0.03232
#
# Static dielectric constant tensor:
#      x y z
#    x 1.725670 0.000000 0.000000 
#    y 0.000000 1.741680 0.000000 
#    z 0.000000 0.000000 1.752880 
# 
# From -- ./inp_files/11585.got.cif
#   From: 2010.05.17/outbox.cif.g08.bks.cpg/sg36_6_cif.got.tgz:11585.got - 2010.06.03 17:41:39.
