data_PCOD9350663
_publ_section_title
;
Structure prediction by ZEFSAII (Michael W. Deem and Ramdas Pophale) SiO2 
 PCOD9350663
Probable space group: C M C 21
;
_chemical_formula_sum "Si O2"
_cell_formula_units_Z 64
_cell_length_a 7.379712
_cell_length_b 24.831769
_cell_length_c 15.972561
_cell_angle_alpha 90.000000
_cell_angle_beta 90.000000
_cell_angle_gamma 90.000000
_cell_volume 2926.992626
_symmetry_space_group_name_H-M "C M C 21"
_symmetry_group_IT_number 36
_symmetry_cell_setting 'orthorhombic'
loop_
_space_group_symop_operation_xyz
x,y,z
-x,-y,1/2+z
x,-y,1/2+z
-x,y,z
1/2+x,1/2+y,z
1/2-x,1/2-y,1/2+z
1/2+x,1/2-y,1/2+z
1/2-x,1/2+y,z
loop_
_atom_site_type_symbol
_atom_site_label
_atom_site_fract_x
_atom_site_fract_y
_atom_site_fract_z
Si Si1 0.721520 0.449962 0.368700
Si Si2 0.721394 0.479576 0.028758
Si Si3 0.792356 0.752556 0.210557
Si Si4 0.721173 0.520774 0.208522
Si Si5 0.781330 0.134325 0.270090
Si Si6 0.780177 0.132613 0.460950
Si Si7 0.781596 0.249246 0.520688
Si Si8 0.284587 0.673842 0.863432
O O1 0.500000 0.449636 0.369050
O O2 0.777691 0.481759 0.452493
O O3 0.777622 0.483827 0.286783
O O4 0.782533 0.387737 0.366565
O O5 0.500000 0.479872 0.027763
O O6 0.780163 0.498953 0.119335
O O7 0.780304 0.418298 0.013996
O O8 0.791673 0.692027 0.244910
O O9 0.713970 0.747590 0.116609
O O10 0.713639 0.791151 0.283797
O O11 0.000000 0.771104 0.198920
O O12 0.500000 0.520584 0.210384
O O13 0.777564 0.582753 0.217795
O O14 0.731638 0.122247 0.365355
O O15 0.000000 0.138353 0.265239
O O16 0.717677 0.191414 0.487215
O O17 0.000000 0.133930 0.465374
O O18 0.738765 0.294657 0.451500
O O19 0.000000 0.249491 0.523908
O O20 0.500000 0.670342 0.851364
#
# Coordination Sequence:
#
# PCOD9350663 Si02
#       8
#     8   8   8   8   8   8   8   8
#     4   9  17  29  43  68 104 130 154 199 255 302
#     4   9  16  26  43  70 101 128 156 200 255 299
#     4  10  22  36  50  74 106 139 172 208 255 305
#     4   9  17  27  45  74 102 127 160 207 257 300
#     4  10  18  32  54  77  99 129 172 214 250 296
#     4   9  16  29  49  71  97 130 169 208 244 294
#     4  10  21  36  53  74 102 140 178 208 249 307
#     4  10  21  35  52  76 107 137 169 212 259 303
#
# _framework density 21.865445999999999
#
# number of rings (size 3 to 8) (size 9 to 14) (size 15 to 20)
#    0.000    2.500    2.500    0.000    3.500    0.500 
#    0.000    0.000    0.000    0.750    0.000    1.750 
#    0.000    0.000    0.000    0.000    0.000    0.000 
#
# Total GULP energy -178646.066475 kJ/mol
# GULP energy per Si atom -5582.689577 kJ/mol
# Density = 2.181568 g / cm^3
# Si number density = 21.865446 Si / 1000 Ang^3
#
#
#
# Elastic Constant Matrix: (Units=GPa)
#
#
# Indices 1 2 3 4 5 6 
#
# 1 74.5227 -4.5703 -1.1209 0.0000 0.0000 0.0000
# 2 -4.5703 118.3646 21.0253 0.0000 0.0000 0.0000
# 3 -1.1209 21.0253 100.9001 0.0000 0.0000 0.0000
# 4 0.0000 0.0000 0.0000 42.4524 0.0000 0.0000
# 5 0.0000 0.0000 0.0000 0.0000 0.5468 0.0000
# 6 0.0000 0.0000 0.0000 0.0000 0.0000 14.6743
#
#
#
# Elastic Compliance Matrix: (Units=1/GPa)
#
#
# Indices 1 2 3 4 5 6 
#
# 1 0.013451 0.000512 0.000043 0.000000 0.000000 0.000000
# 2 0.000512 0.008793 -0.001827 0.000000 0.000000 0.000000
# 3 0.000043 -0.001827 0.010292 0.000000 0.000000 0.000000
# 4 0.000000 0.000000 0.000000 0.023556 0.000000 0.000000
# 5 0.000000 0.000000 0.000000 0.000000 1.828985 0.000000
# 6 0.000000 0.000000 0.000000 0.000000 0.000000 0.068146
#
#
# Mechanical properties :
#
#
# Convention : Reuss Voigt Hill
#
# Bulk Modulus (GPa) = 33.34290 36.05061 34.69676
# Shear Modulus (GPa) = 2.54354 30.09824 16.32089
#
# Velocity S-wave (km/s) = 1.07972 3.71417 2.73504
# Velocity P-wave (km/s) = 4.10325 5.90904 5.08691
#
# Compressibility (1/GPa) = 0.02999139
#
# Stress axis : x y z
#
# Youngs Moduli (GPa) = 74.34525 113.73098 97.16408
#
# Poissons Ratio (x) = -0.05820 -0.00416
# Poissons Ratio (y) = -0.03805 0.17747
# Poissons Ratio (z) = -0.00318 0.20773
#
# Static dielectric constant tensor:
#      x y z
#    x 1.878730 0.000000 0.000000 
#    y 0.000000 1.778670 0.000000 
#    z 0.000000 0.000000 1.775060 
# 
# From -- ./inp_files/10879.got.cif
#   From: 2010.05.17/outbox.cif.g08.bks.cpg/sg36_6_cif.got.tgz:10879.got - 2010.06.03 17:41:39.
