data_PCOD9350407
_publ_section_title
;
Structure prediction by ZEFSAII (Michael W. Deem and Ramdas Pophale) SiO2 
 PCOD9350407
Probable space group: C M M 2
;
_chemical_formula_sum "Si O2"
_cell_formula_units_Z 64
_cell_length_a 30.204037
_cell_length_b 8.628262
_cell_length_c 12.656640
_cell_angle_alpha 90.000000
_cell_angle_beta 90.000000
_cell_angle_gamma 90.000000
_cell_volume 3298.426000
_symmetry_space_group_name_H-M "C M M 2"
_symmetry_group_IT_number 35
_symmetry_cell_setting 'orthorhombic'
loop_
_space_group_symop_operation_xyz
x,y,z
-x,-y,z
-x,y,z
x,-y,z
1/2+x,1/2+y,z
1/2-x,1/2-y,z
1/2-x,1/2+y,z
1/2+x,1/2-y,z
loop_
_atom_site_type_symbol
_atom_site_label
_atom_site_fract_x
_atom_site_fract_y
_atom_site_fract_z
Si Si1 0.048597 0.685383 0.144540
Si Si2 0.294695 0.184344 0.520475
Si Si3 0.162418 0.314274 0.313901
Si Si4 0.068470 0.184026 0.371501
Si Si5 0.950812 0.186810 0.612240
Si Si6 0.361868 0.814274 0.694696
Si Si7 0.699721 0.314132 0.881499
Si Si8 0.355557 0.314476 0.091961
O O1 0.052584 0.500000 0.137384
O O2 0.048588 0.733423 0.268339
O O3 0.093038 0.757907 0.093490
O O4 0.000000 0.731596 0.100769
O O5 0.250000 0.250000 0.567735
O O6 0.299881 0.225673 0.397792
O O7 0.336962 0.235566 0.587008
O O8 0.292836 0.000000 0.527504
O O9 0.154624 0.500000 0.317476
O O10 0.119835 0.224342 0.357782
O O11 0.167471 0.261464 0.194173
O O12 0.054052 0.235386 0.488574
O O13 0.060210 0.000000 0.362872
O O14 0.911624 0.253069 0.683696
O O15 0.000000 0.231269 0.648307
O O16 0.947493 0.000000 0.612674
O O17 0.331220 0.750215 0.787944
O O18 0.362762 0.000000 0.700820
O O19 0.702183 0.500000 0.873313
O O20 0.750000 0.250000 0.879631
O O21 0.673027 0.274497 0.988996
O O22 0.356164 0.500000 0.103917
#
# Coordination Sequence:
#
# PCOD9350407 Si02
#       8
#     8   8   8   8   8   8   8   8
#     4  10  20  33  53  84 121 160 200 242 290 345
#     4  10  22  36  54  83 117 152 190 234 288 351
#     4  10  19  34  54  81 120 157 192 238 291 347
#     4  10  18  30  52  81 116 160 202 240 284 341
#     4  10  21  36  56  85 121 161 202 244 294 352
#     4  11  23  41  63  88 119 154 198 248 299 354
#     4  11  25  45  68  92 116 149 197 250 303 358
#     4  10  22  39  60  87 117 151 196 244 294 351
#
# _framework density 19.403195
#
# number of rings (size 3 to 8) (size 9 to 14) (size 15 to 20)
#    0.000    1.750    1.250    4.500    0.000    7.750 
#    0.000    3.125    0.000    0.750    0.000    0.000 
#    0.000    0.000    0.000    0.000    0.000    0.000 
#
# Total GULP energy -178547.809096 kJ/mol
# GULP energy per Si atom -5579.619034 kJ/mol
# Density = 1.935903 g / cm^3
# Si number density = 19.403195 Si / 1000 Ang^3
#
#
#
# Elastic Constant Matrix: (Units=GPa)
#
#
# Indices 1 2 3 4 5 6 
#
# 1 159.5298 37.6712 68.0940 0.0000 0.0000 0.0000
# 2 37.6712 39.5639 36.4963 0.0000 0.0000 0.0000
# 3 68.0940 36.4963 102.3865 0.0000 0.0000 0.0000
# 4 0.0000 0.0000 0.0000 22.5504 0.0000 0.0000
# 5 0.0000 0.0000 0.0000 0.0000 24.7046 0.0000
# 6 0.0000 0.0000 0.0000 0.0000 0.0000 17.1549
#
#
#
# Elastic Compliance Matrix: (Units=1/GPa)
#
#
# Indices 1 2 3 4 5 6 
#
# 1 0.009304 -0.004694 -0.004514 0.000000 0.000000 0.000000
# 2 -0.004694 0.040027 -0.011146 0.000000 0.000000 0.000000
# 3 -0.004514 -0.011146 0.016742 0.000000 0.000000 0.000000
# 4 0.000000 0.000000 0.000000 0.044345 0.000000 0.000000
# 5 0.000000 0.000000 0.000000 0.000000 0.040478 0.000000
# 6 0.000000 0.000000 0.000000 0.000000 0.000000 0.058292
#
#
# Mechanical properties :
#
#
# Convention : Reuss Voigt Hill
#
# Bulk Modulus (GPa) = 39.42594 65.11146 52.26870
# Shear Modulus (GPa) = 19.35340 23.49657 21.42499
#
# Velocity S-wave (km/s) = 3.16164 3.48367 3.32655
# Velocity P-wave (km/s) = 5.80443 7.05770 6.46152
#
# Compressibility (1/GPa) = 0.02536401
#
# Stress axis : x y z
#
# Youngs Moduli (GPa) = 107.48212 24.98314 59.72925
#
# Poissons Ratio (x) = 0.11728 0.26964
# Poissons Ratio (y) = 0.50457 0.66573
# Poissons Ratio (z) = 0.48521 0.27846
#
# Static dielectric constant tensor:
#      x y z
#    x 1.609810 0.000000 0.000000 
#    y 0.000000 1.656790 0.000000 
#    z 0.000000 0.000000 1.685950 
# 
# From -- ./inp_files/14581.got.cif
#   From: 2010.05.17/outbox.cif.g08.bks.cpg/sg35_8_cif.got.tgz:14581.got - 2010.06.03 17:29:28.
