data_PCOD9350123
_publ_section_title
;
Structure prediction by ZEFSAII (Michael W. Deem and Ramdas Pophale) SiO2 
 PCOD9350123
Probable space group: C M M 2
;
_chemical_formula_sum "Si O2"
_cell_formula_units_Z 48
_cell_length_a 10.081471
_cell_length_b 18.069092
_cell_length_c 14.097110
_cell_angle_alpha 90.000000
_cell_angle_beta 90.000000
_cell_angle_gamma 90.000000
_cell_volume 2567.972229
_symmetry_space_group_name_H-M "C M M 2"
_symmetry_group_IT_number 35
_symmetry_cell_setting 'orthorhombic'
loop_
_space_group_symop_operation_xyz
x,y,z
-x,-y,z
-x,y,z
x,-y,z
1/2+x,1/2+y,z
1/2-x,1/2-y,z
1/2-x,1/2+y,z
1/2+x,1/2-y,z
loop_
_atom_site_type_symbol
_atom_site_label
_atom_site_fract_x
_atom_site_fract_y
_atom_site_fract_z
Si Si1 0.236185 0.335633 0.644080
Si Si2 0.156390 0.410534 0.045552
Si Si3 0.000000 0.586920 0.311449
Si Si4 0.000000 0.827278 0.370792
Si Si5 0.659126 0.916559 0.836321
Si Si6 0.258256 0.663738 0.223880
Si Si7 0.000000 0.088301 0.562243
Si Si8 0.500000 0.828886 0.492554
O O1 0.250000 0.250000 0.667971
O O2 0.194450 0.375138 0.740735
O O3 0.370147 0.373629 0.607053
O O4 0.127440 0.335007 0.560160
O O5 0.157258 0.500000 0.046055
O O6 0.256449 0.380358 0.124797
O O7 0.000000 0.389050 0.064158
O O8 0.196786 0.385200 0.939686
O O9 0.128470 0.629226 0.272927
O O10 0.000000 0.500000 0.286106
O O11 0.000000 0.601252 0.423123
O O12 0.125164 0.838182 0.301468
O O13 0.000000 0.889062 0.451908
O O14 0.000000 0.747381 0.428092
O O15 0.500000 0.920785 0.840911
O O16 0.712922 0.000000 0.829767
O O17 0.250000 0.750000 0.199298
O O18 0.000000 0.000000 0.575306
#
# Coordination Sequence:
#
# PCOD9350123 Si02
#       8
#     8   8   4   4   8   8   4   4
#     4  12  23  41  69  94 131 178 223 273 333 410
#     4   9  19  39  66  96 131 169 219 282 336 389
#     4  12  26  42  67  97 125 171 232 276 318 396
#     4  12  26  44  61  95 138 177 214 279 351 384
#     4   9  19  38  65  97 130 167 220 281 332 388
#     4  12  23  40  67  94 131 174 216 272 335 403
#     4  12  28  44  63  97 139 177 216 282 352 394
#     4  12  24  44  65  95 128 175 232 275 331 386
#
# _framework density 18.691793000000001
#
# number of rings (size 3 to 8) (size 9 to 14) (size 15 to 20)
#    0.000    1.000    5.000    3.000    0.000    4.667 
#    0.000    0.833    0.000    2.000    0.000    0.000 
#    0.000    0.000    0.000    0.000    0.000    0.000 
#
# Total GULP energy -133878.184122 kJ/mol
# GULP energy per Si atom -5578.257672 kJ/mol
# Density = 1.864925 g / cm^3
# Si number density = 18.691793 Si / 1000 Ang^3
#
#
#
# Elastic Constant Matrix: (Units=GPa)
#
#
# Indices 1 2 3 4 5 6 
#
# 1 106.6442 44.3398 61.4207 0.0000 0.0000 0.0000
# 2 44.3398 101.7470 48.8476 0.0000 0.0000 0.0000
# 3 61.4207 48.8476 172.8093 0.0000 0.0000 0.0000
# 4 0.0000 0.0000 0.0000 36.8711 0.0000 0.0000
# 5 0.0000 0.0000 0.0000 0.0000 16.2322 0.0000
# 6 0.0000 0.0000 0.0000 0.0000 0.0000 26.7356
#
#
#
# Elastic Compliance Matrix: (Units=1/GPa)
#
#
# Indices 1 2 3 4 5 6 
#
# 1 0.013066 -0.004008 -0.003511 0.000000 0.000000 0.000000
# 2 -0.004008 0.012601 -0.002137 0.000000 0.000000 0.000000
# 3 -0.003511 -0.002137 0.007639 0.000000 0.000000 0.000000
# 4 0.000000 0.000000 0.000000 0.027122 0.000000 0.000000
# 5 0.000000 0.000000 0.000000 0.000000 0.061606 0.000000
# 6 0.000000 0.000000 0.000000 0.000000 0.000000 0.037403
#
#
# Mechanical properties :
#
#
# Convention : Reuss Voigt Hill
#
# Bulk Modulus (GPa) = 71.46619 76.71297 74.08958
# Shear Modulus (GPa) = 27.26087 31.07394 29.16741
#
# Velocity S-wave (km/s) = 3.82310 4.08172 3.95452
# Velocity P-wave (km/s) = 7.60297 7.95890 7.78297
#
# Compressibility (1/GPa) = 0.01399263
#
# Stress axis : x y z
#
# Youngs Moduli (GPa) = 76.53738 79.35795 130.91233
#
# Poissons Ratio (x) = 0.31809 0.45961
# Poissons Ratio (y) = 0.30678 0.27980
# Poissons Ratio (z) = 0.26871 0.16961
#
# Static dielectric constant tensor:
#      x y z
#    x 1.647520 0.000000 0.000000 
#    y 0.000000 1.626050 0.000000 
#    z 0.000000 0.000000 1.692340 
# 
# From -- ./inp_files/15324.got.cif
#   From: 2010.05.17/outbox.cif.g08.bks.cpg/sg35_8_cif.got.tgz:15324.got - 2010.06.03 17:29:28.
