data_PCOD9350405
_publ_section_title
;
Structure prediction by ZEFSAII (Michael W. Deem and Ramdas Pophale) SiO2 
 PCOD9350405
Probable space group: C M M 2
;
_chemical_formula_sum "Si O2"
_cell_formula_units_Z 48
_cell_length_a 18.572921
_cell_length_b 16.118918
_cell_length_c 9.109473
_cell_angle_alpha 90.000000
_cell_angle_beta 90.000000
_cell_angle_gamma 90.000000
_cell_volume 2727.152038
_symmetry_space_group_name_H-M "C M M 2"
_symmetry_group_IT_number 35
_symmetry_cell_setting 'orthorhombic'
loop_
_space_group_symop_operation_xyz
x,y,z
-x,-y,z
-x,y,z
x,-y,z
1/2+x,1/2+y,z
1/2-x,1/2-y,z
1/2-x,1/2+y,z
1/2+x,1/2-y,z
loop_
_atom_site_type_symbol
_atom_site_label
_atom_site_fract_x
_atom_site_fract_y
_atom_site_fract_z
Si Si1 0.580647 0.243179 0.835250
Si Si2 0.658194 0.095597 0.983311
Si Si3 0.082182 0.739285 0.482808
Si Si4 0.214021 0.161223 0.786346
Si Si5 0.337246 0.593363 0.478535
Si Si6 0.708974 0.836291 0.292547
O O1 0.500000 0.271464 0.866871
O O2 0.586479 0.228100 0.659315
O O3 0.641771 0.310856 0.870845
O O4 0.599383 0.159161 0.920084
O O5 0.678194 0.121029 0.148234
O O6 0.637017 0.000000 0.973013
O O7 0.729246 0.113255 0.885353
O O8 0.103882 0.834988 0.452020
O O9 0.143179 0.685709 0.401924
O O10 0.000000 0.721707 0.437273
O O11 0.250000 0.250000 0.741923
O O12 0.192156 0.111085 0.642552
O O13 0.364309 0.500000 0.465077
O O14 0.269374 0.608952 0.372515
O O15 0.750000 0.750000 0.254560
#
# Coordination Sequence:
#
# PCOD9350405 Si02
#       6
#     8   8   8   8   8   8
#     4   9  18  34  53  72  97 129 164 198 237 291
#     4  11  21  32  50  75 101 126 160 208 249 282
#     4   9  19  35  53  72  97 131 166 197 236 291
#     4   9  17  32  51  73  97 130 167 195 235 291
#     4  10  18  30  52  78 102 125 156 202 246 285
#     4  10  19  33  51  72  98 131 167 198 237 290
#
# _framework density 17.60078
#
# number of rings (size 3 to 8) (size 9 to 14) (size 15 to 20)
#    0.000    2.333    0.000    6.000    0.000    1.333 
#    0.000    0.833    0.000    5.000    0.000    0.000 
#    0.000    0.000    0.000    0.000    0.000    0.000 
#
# Total GULP energy -133867.577082 kJ/mol
# GULP energy per Si atom -5577.815712 kJ/mol
# Density = 1.756072 g / cm^3
# Si number density = 17.600780 Si / 1000 Ang^3
#
#
#
# Elastic Constant Matrix: (Units=GPa)
#
#
# Indices 1 2 3 4 5 6 
#
# 1 66.1756 -15.7623 -6.9896 0.0000 0.0000 0.0000
# 2 -15.7623 47.3168 7.2775 0.0000 0.0000 0.0000
# 3 -6.9896 7.2775 26.4936 0.0000 0.0000 0.0000
# 4 0.0000 0.0000 0.0000 15.8596 0.0000 0.0000
# 5 0.0000 0.0000 0.0000 0.0000 3.9725 0.0000
# 6 0.0000 0.0000 0.0000 0.0000 0.0000 6.9904
#
#
#
# Elastic Compliance Matrix: (Units=1/GPa)
#
#
# Indices 1 2 3 4 5 6 
#
# 1 0.016638 0.005082 0.002993 0.000000 0.000000 0.000000
# 2 0.005082 0.023619 -0.005147 0.000000 0.000000 0.000000
# 3 0.002993 -0.005147 0.039948 0.000000 0.000000 0.000000
# 4 0.000000 0.000000 0.000000 0.063053 0.000000 0.000000
# 5 0.000000 0.000000 0.000000 0.000000 0.251731 0.000000
# 6 0.000000 0.000000 0.000000 0.000000 0.000000 0.143053
#
#
# Mechanical properties :
#
#
# Convention : Reuss Voigt Hill
#
# Bulk Modulus (GPa) = 11.61949 12.11525 11.86737
# Shear Modulus (GPa) = 8.91469 15.72853 12.32161
#
# Velocity S-wave (km/s) = 2.25298 2.99260 2.64874
# Velocity P-wave (km/s) = 3.65841 4.34041 4.01392
#
# Compressibility (1/GPa) = 0.08606226
#
# Stress axis : x y z
#
# Youngs Moduli (GPa) = 60.10347 42.33929 25.03223
#
# Poissons Ratio (x) = -0.21517 -0.07493
# Poissons Ratio (y) = -0.30545 0.12884
# Poissons Ratio (z) = -0.17992 0.21792
#
# Static dielectric constant tensor:
#      x y z
#    x 1.602640 0.000000 0.000000 
#    y 0.000000 1.589680 0.000000 
#    z 0.000000 0.000000 1.592280 
# 
# From -- ./inp_files/7329.got.cif
#   From: 2010.05.17/outbox.cif.g08.bks.cpg/sg35_4_cif.got.tgz:7329.got - 2010.06.03 17:29:28.
