data_PCOD9350690
_publ_section_title
;
Structure prediction by ZEFSAII (Michael W. Deem and Ramdas Pophale) SiO2 
 PCOD9350690
Probable space group: C M C 21
;
_chemical_formula_sum "Si O2"
_cell_formula_units_Z 64
_cell_length_a 7.665819
_cell_length_b 22.107669
_cell_length_c 14.458060
_cell_angle_alpha 90.000000
_cell_angle_beta 90.000000
_cell_angle_gamma 90.000000
_cell_volume 2450.256428
_symmetry_space_group_name_H-M "C M C 21"
_symmetry_group_IT_number 36
_symmetry_cell_setting 'orthorhombic'
loop_
_space_group_symop_operation_xyz
x,y,z
-x,-y,1/2+z
x,-y,1/2+z
-x,y,z
1/2+x,1/2+y,z
1/2-x,1/2-y,1/2+z
1/2+x,1/2-y,1/2+z
1/2-x,1/2+y,z
loop_
_atom_site_type_symbol
_atom_site_label
_atom_site_fract_x
_atom_site_fract_y
_atom_site_fract_z
Si Si1 0.703074 0.599780 0.579400
Si Si2 0.200015 0.208877 0.795180
Si Si3 0.203789 0.352345 0.470007
Si Si4 0.204345 0.969177 0.254712
Si Si5 0.296560 0.675895 0.413423
Si Si6 0.710623 0.778732 0.628806
Si Si7 0.796085 0.482448 0.467319
Si Si8 0.708653 0.899663 0.744425
O O1 0.500000 0.615376 0.593632
O O2 0.773970 0.579340 0.679694
O O3 0.773928 0.652890 0.512370
O O4 0.709964 0.539387 0.516067
O O5 0.206691 0.271295 0.854564
O O6 0.279090 0.226530 0.696137
O O7 0.000000 0.190975 0.784296
O O8 0.284726 0.160134 0.861505
O O9 0.273084 0.294322 0.526193
O O10 0.280666 0.417068 0.495039
O O11 0.000000 0.356245 0.494156
O O12 0.287716 0.978696 0.355516
O O13 0.000000 0.956665 0.269631
O O14 0.223401 0.036079 0.210617
O O15 0.500000 0.693880 0.424342
O O16 0.285820 0.618683 0.343934
O O17 0.500000 0.769294 0.628525
O O18 0.747102 0.842802 0.678941
O O19 0.000000 0.486179 0.493531
O O20 0.500000 0.903462 0.753011
#
# Coordination Sequence:
#
# PCOD9350690 Si02
#       8
#     8   8   8   8   8   8   8   8
#     4  10  22  38  58  85 118 156 198 238 288 353
#     4  10  21  38  60  87 114 146 191 245 293 343
#     4  10  21  40  61  83 115 155 194 236 291 353
#     4  11  22  36  54  82 120 160 195 232 289 357
#     4  10  19  35  58  82 111 148 189 238 289 342
#     4   8  17  35  59  84 111 146 191 236 287 344
#     4  11  23  38  60  88 119 156 195 245 301 350
#     4  10  18  32  56  85 114 147 191 242 286 336
#
# _framework density 26.119713999999998
#
# number of rings (size 3 to 8) (size 9 to 14) (size 15 to 20)
#    0.000    2.000    1.250    3.375    0.000    3.500 
#    2.250    3.750    0.000    0.000    0.000    0.000 
#    0.000    0.000    0.000    0.000    0.000    0.000 
#
# Total GULP energy -178929.949135 kJ/mol
# GULP energy per Si atom -5591.560910 kJ/mol
# Density = 2.606026 g / cm^3
# Si number density = 26.119714 Si / 1000 Ang^3
#
#
#
# Elastic Constant Matrix: (Units=GPa)
#
#
# Indices 1 2 3 4 5 6 
#
# 1 59.3243 -3.2323 -5.9677 0.0000 0.0000 0.0000
# 2 -3.2323 104.4011 26.0609 0.0000 0.0000 0.0000
# 3 -5.9677 26.0609 150.4904 0.0000 0.0000 0.0000
# 4 0.0000 0.0000 0.0000 58.0876 0.0000 0.0000
# 5 0.0000 0.0000 0.0000 0.0000 8.5152 0.0000
# 6 0.0000 0.0000 0.0000 0.0000 0.0000 19.6078
#
#
#
# Elastic Compliance Matrix: (Units=1/GPa)
#
#
# Indices 1 2 3 4 5 6 
#
# 1 0.016938 0.000373 0.000607 0.000000 0.000000 0.000000
# 2 0.000373 0.010019 -0.001720 0.000000 0.000000 0.000000
# 3 0.000607 -0.001720 0.006967 0.000000 0.000000 0.000000
# 4 0.000000 0.000000 0.000000 0.017215 0.000000 0.000000
# 5 0.000000 0.000000 0.000000 0.000000 0.117437 0.000000
# 6 0.000000 0.000000 0.000000 0.000000 0.000000 0.051000
#
#
# Mechanical properties :
#
#
# Convention : Reuss Voigt Hill
#
# Bulk Modulus (GPa) = 30.82280 38.65974 34.74127
# Shear Modulus (GPa) = 21.56364 37.06579 29.31471
#
# Velocity S-wave (km/s) = 2.87639 3.77115 3.35374
# Velocity P-wave (km/s) = 4.78097 5.81336 5.32226
#
# Compressibility (1/GPa) = 0.03244351
#
# Stress axis : x y z
#
# Youngs Moduli (GPa) = 59.03929 99.80624 143.53528
#
# Poissons Ratio (x) = -0.03721 -0.08714
# Poissons Ratio (y) = -0.02201 0.24692
# Poissons Ratio (z) = -0.03584 0.17170
#
# Static dielectric constant tensor:
#      x y z
#    x 1.953590 0.000000 0.000000 
#    y 0.000000 2.093640 0.000000 
#    z 0.000000 0.000000 2.119520 
# 
# From -- ./inp_files/10867.got.cif
#   From: 2010.05.17/outbox.cif.g08.bks.cpg/sg36_6_cif.got.tgz:10867.got - 2010.06.03 17:41:39.
