data_PCOD9350313
_publ_section_title
;
Structure prediction by ZEFSAII (Michael W. Deem and Ramdas Pophale) SiO2 
 PCOD9350313
Probable space group: C M M 2
;
_chemical_formula_sum "Si O2"
_cell_formula_units_Z 64
_cell_length_a 8.601562
_cell_length_b 29.389283
_cell_length_c 16.128602
_cell_angle_alpha 90.000000
_cell_angle_beta 90.000000
_cell_angle_gamma 90.000000
_cell_volume 4077.209618
_symmetry_space_group_name_H-M "C M M 2"
_symmetry_group_IT_number 35
_symmetry_cell_setting 'orthorhombic'
loop_
_space_group_symop_operation_xyz
x,y,z
-x,-y,z
-x,y,z
x,-y,z
1/2+x,1/2+y,z
1/2-x,1/2-y,z
1/2-x,1/2+y,z
1/2+x,1/2-y,z
loop_
_atom_site_type_symbol
_atom_site_label
_atom_site_fract_x
_atom_site_fract_y
_atom_site_fract_z
Si Si1 0.313380 0.801562 0.931000
Si Si2 0.187831 0.698965 0.602980
Si Si3 0.186257 0.358007 0.440630
Si Si4 0.189442 0.355106 0.767921
Si Si5 0.313608 0.698478 0.287092
Si Si6 0.186086 0.198496 0.103236
Si Si7 0.688020 0.051006 0.695767
Si Si8 0.813897 0.051660 0.509746
O O1 0.500000 0.799337 0.931517
O O2 0.250000 0.750000 0.922502
O O3 0.259808 0.831457 0.852846
O O4 0.256623 0.821505 0.019094
O O5 0.250000 0.750000 0.599310
O O6 0.237392 0.670386 0.522295
O O7 0.238488 0.674013 0.687530
O O8 0.000000 0.700061 0.603174
O O9 0.248105 0.332871 0.359425
O O10 0.247586 0.409062 0.451705
O O11 0.000000 0.358339 0.439586
O O12 0.238961 0.407211 0.753309
O O13 0.000000 0.354767 0.768681
O O14 0.500000 0.700523 0.292414
O O15 0.250000 0.750000 0.295780
O O16 0.272300 0.680373 0.194625
O O17 0.250000 0.250000 0.104466
O O18 0.000000 0.199208 0.095963
O O19 0.500000 0.051776 0.692405
O O20 0.748727 0.059029 0.602639
O O21 0.736668 0.000000 0.721290
O O22 0.000000 0.054532 0.512123
O O23 0.770173 0.000000 0.485403
#
# Coordination Sequence:
#
# PCOD9350313 Si02
#       8
#     8   8   8   8   8   8   8   8
#     4  10  18  28  45  65  92 123 154 193 230 273
#     4  10  20  32  43  60  91 126 159 188 221 267
#     4  11  21  33  50  69  93 127 162 198 234 278
#     4   9  17  30  44  65  93 120 154 193 231 275
#     4  10  20  33  49  70  97 127 158 197 239 283
#     4   9  17  30  47  66  91 120 154 194 235 278
#     4   9  16  30  51  68  87 119 157 196 238 282
#     4  10  20  33  49  70  95 121 154 199 244 284
#
# _framework density 15.697010000000001
#
# number of rings (size 3 to 8) (size 9 to 14) (size 15 to 20)
#    0.000    2.250    1.250    3.375    0.000    4.250 
#    0.000    1.875    0.000    0.000    0.000    0.875 
#    0.000    3.000    0.000    0.000    0.000    0.000 
#
# Total GULP energy -178408.653064 kJ/mol
# GULP energy per Si atom -5575.270408 kJ/mol
# Density = 1.566128 g / cm^3
# Si number density = 15.697010 Si / 1000 Ang^3
#
#
#
# Elastic Constant Matrix: (Units=GPa)
#
#
# Indices 1 2 3 4 5 6 
#
# 1 29.8296 25.4576 33.1835 0.0000 0.0000 0.0000
# 2 25.4576 113.7353 75.9771 0.0000 0.0000 0.0000
# 3 33.1835 75.9771 150.7345 0.0000 0.0000 0.0000
# 4 0.0000 0.0000 0.0000 9.8293 0.0000 0.0000
# 5 0.0000 0.0000 0.0000 0.0000 21.0906 0.0000
# 6 0.0000 0.0000 0.0000 0.0000 0.0000 18.1992
#
#
#
# Elastic Compliance Matrix: (Units=1/GPa)
#
#
# Indices 1 2 3 4 5 6 
#
# 1 0.046482 -0.005380 -0.007521 0.000000 0.000000 0.000000
# 2 -0.005380 0.013878 -0.005811 0.000000 0.000000 0.000000
# 3 -0.007521 -0.005811 0.011219 0.000000 0.000000 0.000000
# 4 0.000000 0.000000 0.000000 0.101737 0.000000 0.000000
# 5 0.000000 0.000000 0.000000 0.000000 0.047414 0.000000
# 6 0.000000 0.000000 0.000000 0.000000 0.000000 0.054947
#
#
# Mechanical properties :
#
#
# Convention : Reuss Voigt Hill
#
# Bulk Modulus (GPa) = 29.27812 62.61509 45.94660
# Shear Modulus (GPa) = 15.40896 20.46925 17.93910
#
# Velocity S-wave (km/s) = 3.13653 3.61504 3.38425
# Velocity P-wave (km/s) = 5.64000 7.57635 6.67872
#
# Compressibility (1/GPa) = 0.03415520
#
# Stress axis : x y z
#
# Youngs Moduli (GPa) = 21.51383 72.05462 89.13541
#
# Poissons Ratio (x) = 0.38765 0.67039
# Poissons Ratio (y) = 0.11574 0.51796
# Poissons Ratio (z) = 0.16181 0.41871
#
# Static dielectric constant tensor:
#      x y z
#    x 1.534460 0.000000 0.000000 
#    y 0.000000 1.512560 0.000000 
#    z 0.000000 0.000000 1.535060 
# 
# From -- ./inp_files/16212.got.cif
#   From: 2010.05.17/outbox.cif.g08.bks.cpg/sg35_9_cif.got.tgz:16212.got - 2010.06.03 17:29:28.
