data_PCOD9350017
_publ_section_title
;
Structure prediction by ZEFSAII (Michael W. Deem and Ramdas Pophale) SiO2 
 PCOD9350017
Probable space group: C M M 2
;
_chemical_formula_sum "Si O2"
_cell_formula_units_Z 40
_cell_length_a 26.993416
_cell_length_b 7.623695
_cell_length_c 10.371405
_cell_angle_alpha 90.000000
_cell_angle_beta 90.000000
_cell_angle_gamma 90.000000
_cell_volume 2134.326981
_symmetry_space_group_name_H-M "C M M 2"
_symmetry_group_IT_number 35
_symmetry_cell_setting 'orthorhombic'
loop_
_space_group_symop_operation_xyz
x,y,z
-x,-y,z
-x,y,z
x,-y,z
1/2+x,1/2+y,z
1/2-x,1/2-y,z
1/2-x,1/2+y,z
1/2+x,1/2-y,z
loop_
_atom_site_type_symbol
_atom_site_label
_atom_site_fract_x
_atom_site_fract_y
_atom_site_fract_z
Si Si1 0.558573 0.500000 0.851851
Si Si2 0.807753 0.209320 0.007411
Si Si3 0.630674 0.203174 0.757661
Si Si4 0.191593 0.709847 0.507412
Si Si5 0.058573 0.000000 0.162974
Si Si6 0.869326 0.296826 0.257161
O O1 0.500000 0.500000 0.828827
O O2 0.585193 0.330306 0.790898
O O3 0.566495 0.500000 0.007412
O O4 0.750000 0.250000 0.007410
O O5 0.833420 0.286184 0.133894
O O6 0.814992 0.000000 0.007410
O O7 0.833420 0.286184 0.880928
O O8 0.662297 0.268895 0.634887
O O9 0.615835 0.000000 0.737371
O O10 0.188634 0.500000 0.507412
O O11 0.250000 0.750000 0.507413
O O12 0.162298 0.768895 0.379935
O O13 0.085193 0.830306 0.223926
O O14 0.000000 0.000000 0.185998
O O15 0.884164 0.500000 0.277451
#
# Coordination Sequence:
#
# PCOD9350017 Si02
#       6
#     4   8   8   8   4   8
#     4  11  24  43  67  95 123 163 217 271 320 365
#     4  12  22  36  58  90 123 163 210 252 308 381
#     4  11  22  41  61  90 127 161 206 263 310 369
#     4  10  24  38  60  93 127 170 208 244 309 382
#     4  11  24  43  67  95 123 163 217 271 320 365
#     4  11  22  41  61  90 127 161 206 263 310 369
#
# _framework density 18.741271000000001
#
# number of rings (size 3 to 8) (size 9 to 14) (size 15 to 20)
#    0.000    1.000    4.000    3.000    2.800    4.000 
#    0.000    4.000    0.000    3.600    0.000    0.000 
#    0.000    0.000    0.000    0.000    0.000    0.000 
#
# Total GULP energy -111778.495118 kJ/mol
# GULP energy per Si atom -5588.924756 kJ/mol
# Density = 1.869861 g / cm^3
# Si number density = 18.741271 Si / 1000 Ang^3
#
#
#
# Elastic Constant Matrix: (Units=GPa)
#
#
# Indices 1 2 3 4 5 6 
#
# 1 188.4202 61.9489 80.5264 0.0000 0.0000 0.0000
# 2 61.9489 118.2789 29.6097 0.0000 0.0000 0.0000
# 3 80.5264 29.6097 163.5055 0.0000 0.0000 0.0000
# 4 0.0000 0.0000 0.0000 36.8258 0.0000 0.0000
# 5 0.0000 0.0000 0.0000 0.0000 19.2088 0.0000
# 6 0.0000 0.0000 0.0000 0.0000 0.0000 32.5013
#
#
#
# Elastic Compliance Matrix: (Units=1/GPa)
#
#
# Indices 1 2 3 4 5 6 
#
# 1 0.007758 -0.003254 -0.003232 0.000000 0.000000 0.000000
# 2 -0.003254 0.010221 -0.000248 0.000000 0.000000 0.000000
# 3 -0.003232 -0.000248 0.007753 0.000000 0.000000 0.000000
# 4 0.000000 0.000000 0.000000 0.027155 0.000000 0.000000
# 5 0.000000 0.000000 0.000000 0.000000 0.052059 0.000000
# 6 0.000000 0.000000 0.000000 0.000000 0.000000 0.030768
#
#
# Mechanical properties :
#
#
# Convention : Reuss Voigt Hill
#
# Bulk Modulus (GPa) = 81.54208 90.48606 86.01407
# Shear Modulus (GPa) = 32.62193 37.58181 35.10187
#
# Velocity S-wave (km/s) = 4.17663 4.48291 4.33248
# Velocity P-wave (km/s) = 8.17697 8.67075 8.42748
#
# Compressibility (1/GPa) = 0.01226361
#
# Stress axis : x y z
#
# Youngs Moduli (GPa) = 128.89189 97.83518 128.99000
#
# Poissons Ratio (x) = 0.31840 0.41685
# Poissons Ratio (y) = 0.41948 0.03201
# Poissons Ratio (z) = 0.41654 0.02428
#
# Static dielectric constant tensor:
#      x y z
#    x 1.608360 0.000000 0.000000 
#    y 0.000000 1.686220 0.000000 
#    z 0.000000 0.000000 1.650530 
# 
# From -- ./inp_files/10093.got.cif
#   From: 2010.05.17/outbox.cif.g08.bks.cpg/sg35_6_cif.got.tgz:10093.got - 2010.06.03 17:29:28.
