data_PCOD9350208
_publ_section_title
;
Structure prediction by ZEFSAII (Michael W. Deem and Ramdas Pophale) SiO2 
 PCOD9350208
Probable space group: C M M 2
;
_chemical_formula_sum "Si O2"
_cell_formula_units_Z 48
_cell_length_a 8.759800
_cell_length_b 18.412776
_cell_length_c 16.365703
_cell_angle_alpha 90.000000
_cell_angle_beta 90.000000
_cell_angle_gamma 90.000000
_cell_volume 2639.660818
_symmetry_space_group_name_H-M "C M M 2"
_symmetry_group_IT_number 35
_symmetry_cell_setting 'orthorhombic'
loop_
_space_group_symop_operation_xyz
x,y,z
-x,-y,z
-x,y,z
x,-y,z
1/2+x,1/2+y,z
1/2-x,1/2-y,z
1/2-x,1/2+y,z
1/2+x,1/2-y,z
loop_
_atom_site_type_symbol
_atom_site_label
_atom_site_fract_x
_atom_site_fract_y
_atom_site_fract_z
Si Si1 0.182799 0.831750 0.536020
Si Si2 0.681831 0.085253 0.201319
Si Si3 0.817389 0.168764 0.355038
Si Si4 0.817389 0.168764 0.047601
Si Si5 0.682223 0.832485 0.701319
Si Si6 0.817201 0.831750 0.866618
O O1 0.250000 0.750000 0.532411
O O2 0.217605 0.862386 0.445894
O O3 0.256624 0.866449 0.616809
O O4 0.000000 0.828485 0.546237
O O5 0.500000 0.095750 0.201320
O O6 0.750629 0.121953 0.281908
O O7 0.750627 0.121954 0.120731
O O8 0.715794 0.000000 0.201319
O O9 0.750000 0.250000 0.349546
O O10 0.000000 0.173378 0.348100
O O11 0.750000 0.250000 0.053093
O O12 0.000000 0.173378 0.054539
O O13 0.782396 0.137614 0.956745
O O14 0.500000 0.829047 0.701319
O O15 0.750000 0.750000 0.701319
O O16 0.743375 0.866449 0.785829
O O17 0.750000 0.750000 0.870228
O O18 0.000000 0.828484 0.856401
#
# Coordination Sequence:
#
# PCOD9350208 Si02
#       6
#     8   8   8   8   8   8
#     4   9  16  26  41  64  94 127 161 197 239 285
#     4  11  24  39  54  73  99 131 166 207 254 303
#     4  10  20  34  54  77 102 133 168 208 250 296
#     4  10  20  34  54  77 102 133 168 208 250 296
#     4  10  16  22  36  60  93 130 161 194 237 283
#     4   9  16  26  41  64  94 127 161 197 239 285
#
# _framework density 18.184153999999999
#
# number of rings (size 3 to 8) (size 9 to 14) (size 15 to 20)
#    0.000    2.167    0.000    6.500    0.000    5.333 
#    0.000    0.000    0.000    0.000    0.000    1.167 
#    0.000    9.333    0.000    0.000    0.000    0.000 
#
# Total GULP energy -133792.563407 kJ/mol
# GULP energy per Si atom -5574.690142 kJ/mol
# Density = 1.814277 g / cm^3
# Si number density = 18.184154 Si / 1000 Ang^3
#
#
#
# Elastic Constant Matrix: (Units=GPa)
#
#
# Indices 1 2 3 4 5 6 
#
# 1 100.2676 39.9749 94.5456 0.0000 0.0000 0.0000
# 2 39.9749 29.5819 58.8521 0.0000 0.0000 0.0000
# 3 94.5456 58.8521 241.7237 0.0000 0.0000 0.0000
# 4 0.0000 0.0000 0.0000 -5.9384 0.0000 0.0000
# 5 0.0000 0.0000 0.0000 0.0000 43.4570 0.0000
# 6 0.0000 0.0000 0.0000 0.0000 0.0000 14.7331
#
#
#
# Elastic Compliance Matrix: (Units=1/GPa)
#
#
# Indices 1 2 3 4 5 6 
#
# 1 0.022503 -0.025015 -0.002711 0.000000 0.000000 0.000000
# 2 -0.025015 0.093366 -0.012948 0.000000 0.000000 0.000000
# 3 -0.002711 -0.012948 0.008350 0.000000 0.000000 0.000000
# 4 0.000000 0.000000 0.000000 -0.168397 0.000000 0.000000
# 5 0.000000 0.000000 0.000000 0.000000 0.023011 0.000000
# 6 0.000000 0.000000 0.000000 0.000000 0.000000 0.067874
#
#
# Mechanical properties :
#
#
# Convention : Reuss Voigt Hill
#
# Bulk Modulus (GPa) = 23.32546 84.25761 53.79153
# Shear Modulus (GPa) = 35.12577 22.33038 28.72808
#
# Velocity S-wave (km/s) = 4.39984 3.50810 3.97903
# Velocity P-wave (km/s) = 6.21826 7.92751 7.12433
#
# Compressibility (1/GPa) = 0.04287161
#
# Stress axis : x y z
#
# Youngs Moduli (GPa) = 44.43916 10.71050 119.76364
#
# Poissons Ratio (x) = 0.26792 0.32471
# Poissons Ratio (y) = 1.11163 1.55067
# Poissons Ratio (z) = 0.12049 0.13868
#
# Static dielectric constant tensor:
#      x y z
#    x 1.603580 0.000000 0.000000 
#    y 0.000000 1.571540 0.000000 
#    z 0.000000 0.000000 1.705370 
# 
# From -- ./inp_files/17988.got.cif
#   From: 2010.05.17/outbox.cif.g08.bks.cpg/sg35_9_cif.got.tgz:17988.got - 2010.06.03 17:29:28.
