data_PCOD9350889
_publ_section_title
;
Structure prediction by ZEFSAII (Michael W. Deem and Ramdas Pophale) SiO2 
 PCOD9350889
Probable space group: C M C 21
;
_chemical_formula_sum "Si O2"
_cell_formula_units_Z 64
_cell_length_a 13.844300
_cell_length_b 25.584746
_cell_length_c 9.644341
_cell_angle_alpha 90.000000
_cell_angle_beta 90.000000
_cell_angle_gamma 90.000000
_cell_volume 3416.053542
_symmetry_space_group_name_H-M "C M C 21"
_symmetry_group_IT_number 36
_symmetry_cell_setting 'orthorhombic'
loop_
_space_group_symop_operation_xyz
x,y,z
-x,-y,1/2+z
x,-y,1/2+z
-x,y,z
1/2+x,1/2+y,z
1/2-x,1/2-y,1/2+z
1/2+x,1/2-y,1/2+z
1/2-x,1/2+y,z
loop_
_atom_site_type_symbol
_atom_site_label
_atom_site_fract_x
_atom_site_fract_y
_atom_site_fract_z
Si Si1 0.616099 0.563326 0.246050
Si Si2 0.392183 0.217870 0.244202
Si Si3 0.811287 0.776405 0.841747
Si Si4 0.609729 0.667916 0.598278
Si Si5 0.115471 0.168786 0.094104
Si Si6 0.113089 0.665978 0.954164
Si Si7 0.116697 0.988482 0.468163
Si Si8 0.793132 0.884372 0.342478
O O1 0.500000 0.568319 0.252229
O O2 0.649625 0.617507 0.180538
O O3 0.648129 0.541945 0.394334
O O4 0.639110 0.519681 0.129396
O O5 0.500000 0.211188 0.302772
O O6 0.303589 0.216770 0.349239
O O7 0.389425 0.274736 0.170330
O O8 0.377289 0.175747 0.119988
O O9 0.839995 0.784310 0.681170
O O10 0.849403 0.720247 0.888128
O O11 0.861852 0.819126 0.940671
O O12 0.500000 0.647116 0.604719
O O13 0.680955 0.631512 0.686176
O O14 0.000000 0.171989 0.094369
O O15 0.151555 0.158378 0.939821
O O16 0.182577 0.622191 0.889954
O O17 0.000000 0.658688 0.925137
O O18 0.163132 0.939789 0.386661
O O19 0.000000 0.983893 0.455257
#
# Coordination Sequence:
#
# PCOD9350889 Si02
#       8
#     8   8   8   8   8   8   8   8
#     4   8  16  29  44  68 100 126 156 201 246 294
#     4   9  18  33  50  67  95 135 170 208 249 286
#     4  11  19  33  50  71  98 137 173 208 246 292
#     4  10  20  32  46  69 102 130 163 207 248 288
#     4  10  19  31  50  74  98 131 174 209 239 297
#     4  10  20  34  50  71 101 134 171 214 249 287
#     4   9  17  30  49  72  99 129 161 198 246 304
#     4  11  19  32  50  72 101 136 169 201 248 304
#
# _framework density 18.735068999999999
#
# number of rings (size 3 to 8) (size 9 to 14) (size 15 to 20)
#    0.000    2.250    2.500    3.750    0.000    1.000 
#    0.000    3.125    0.000    0.000    0.000    4.375 
#    0.000    0.000    0.000    0.000    0.000    0.000 
#
# Total GULP energy -178495.030856 kJ/mol
# GULP energy per Si atom -5577.969714 kJ/mol
# Density = 1.869243 g / cm^3
# Si number density = 18.735069 Si / 1000 Ang^3
#
#
#
# Elastic Constant Matrix: (Units=GPa)
#
#
# Indices 1 2 3 4 5 6 
#
# 1 103.8962 -0.1996 8.4742 0.0000 0.0000 0.0000
# 2 -0.1996 14.1523 6.7834 0.0000 0.0000 0.0000
# 3 8.4742 6.7834 40.8454 0.0000 0.0000 0.0000
# 4 0.0000 0.0000 0.0000 20.9469 0.0000 0.0000
# 5 0.0000 0.0000 0.0000 0.0000 25.8633 0.0000
# 6 0.0000 0.0000 0.0000 0.0000 0.0000 13.0619
#
#
#
# Elastic Compliance Matrix: (Units=1/GPa)
#
#
# Indices 1 2 3 4 5 6 
#
# 1 0.009810 0.001210 -0.002236 0.000000 0.000000 0.000000
# 2 0.001210 0.076920 -0.013026 0.000000 0.000000 0.000000
# 3 -0.002236 -0.013026 0.027110 0.000000 0.000000 0.000000
# 4 0.000000 0.000000 0.000000 0.047740 0.000000 0.000000
# 5 0.000000 0.000000 0.000000 0.000000 0.038665 0.000000
# 6 0.000000 0.000000 0.000000 0.000000 0.000000 0.076559
#
#
# Mechanical properties :
#
#
# Convention : Reuss Voigt Hill
#
# Bulk Modulus (GPa) = 11.66364 21.00110 16.33237
# Shear Modulus (GPa) = 14.99317 21.56348 18.27833
#
# Velocity S-wave (km/s) = 2.83198 3.39627 3.12688
# Velocity P-wave (km/s) = 4.11492 5.15882 4.66615
#
# Compressibility (1/GPa) = 0.08573656
#
# Stress axis : x y z
#
# Youngs Moduli (GPa) = 101.93976 13.00045 36.88714
#
# Poissons Ratio (x) = -0.01573 0.08249
# Poissons Ratio (y) = -0.12337 0.48048
# Poissons Ratio (z) = 0.22796 0.16934
#
# Static dielectric constant tensor:
#      x y z
#    x 1.655860 0.000000 0.000000 
#    y 0.000000 1.676160 0.000000 
#    z 0.000000 0.000000 1.679840 
# 
# From -- ./inp_files/4445.got.cif
#   From: 2010.05.17/outbox.cif.g08.bks.cpg/sg36_3_cif.got.tgz:4445.got - 2010.06.03 17:41:39.
