data_PCOD9350010
_publ_section_title
;
Structure prediction by ZEFSAII (Michael W. Deem and Ramdas Pophale) SiO2 
 PCOD9350010
Probable space group: C M M 2
;
_chemical_formula_sum "Si O2"
_cell_formula_units_Z 40
_cell_length_a 17.699532
_cell_length_b 18.304775
_cell_length_c 5.245054
_cell_angle_alpha 90.000000
_cell_angle_beta 90.000000
_cell_angle_gamma 90.000000
_cell_volume 1699.323808
_symmetry_space_group_name_H-M "C M M 2"
_symmetry_group_IT_number 35
_symmetry_cell_setting 'orthorhombic'
loop_
_space_group_symop_operation_xyz
x,y,z
-x,-y,z
-x,y,z
x,-y,z
1/2+x,1/2+y,z
1/2-x,1/2-y,z
1/2-x,1/2+y,z
1/2+x,1/2-y,z
loop_
_atom_site_type_symbol
_atom_site_label
_atom_site_fract_x
_atom_site_fract_y
_atom_site_fract_z
Si Si1 0.312575 0.300249 0.795960
Si Si2 0.776302 0.079098 0.430849
Si Si3 0.087800 0.327496 0.607333
Si Si4 0.911137 0.917536 0.092687
Si Si5 0.364930 0.915157 0.108562
O O1 0.250000 0.250000 0.939718
O O2 0.265291 0.354158 0.615939
O O3 0.363248 0.245808 0.628126
O O4 0.370010 0.351601 0.948429
O O5 0.863901 0.079255 0.354269
O O6 0.724620 0.086554 0.178905
O O7 0.755466 0.000000 0.544355
O O8 0.099741 0.370508 0.343848
O O9 0.000000 0.308924 0.634753
O O10 0.111647 0.378612 0.845122
O O11 0.000000 0.905295 0.122880
O O12 0.901039 0.000000 0.978532
O O13 0.387927 0.000000 0.112289
#
# Coordination Sequence:
#
# PCOD9350010 Si02
#       5
#     8   8   8   8   8
#     4  12  24  42  67  99 141 188 230 293 360 426
#     4  10  23  43  71 101 136 186 241 292 351 430
#     4  12  27  45  71 109 145 188 240 298 362 426
#     4  10  23  43  69 100 136 182 238 298 362 428
#     4  11  25  48  75 105 143 192 243 293 354 433
#
# _framework density 23.538774
#
# number of rings (size 3 to 8) (size 9 to 14) (size 15 to 20)
#    0.000    1.000    2.000    3.600    2.800    4.800 
#    0.000    2.000    0.000    0.000    0.000    0.000 
#    0.000    0.000    0.000    0.000    0.000    0.000 
#
# Total GULP energy -111914.449137 kJ/mol
# GULP energy per Si atom -5595.722457 kJ/mol
# Density = 2.348520 g / cm^3
# Si number density = 23.538774 Si / 1000 Ang^3
#
#
#
# Elastic Constant Matrix: (Units=GPa)
#
#
# Indices 1 2 3 4 5 6 
#
# 1 143.2986 43.0105 13.3666 0.0000 0.0000 0.0000
# 2 43.0105 162.8506 41.1406 0.0000 0.0000 0.0000
# 3 13.3666 41.1406 71.2961 0.0000 0.0000 0.0000
# 4 0.0000 0.0000 0.0000 19.0336 0.0000 0.0000
# 5 0.0000 0.0000 0.0000 0.0000 25.1695 0.0000
# 6 0.0000 0.0000 0.0000 0.0000 0.0000 23.4752
#
#
#
# Elastic Compliance Matrix: (Units=1/GPa)
#
#
# Indices 1 2 3 4 5 6 
#
# 1 0.007585 -0.001925 -0.000311 0.000000 0.000000 0.000000
# 2 -0.001925 0.007677 -0.004069 0.000000 0.000000 0.000000
# 3 -0.000311 -0.004069 0.016432 0.000000 0.000000 0.000000
# 4 0.000000 0.000000 0.000000 0.052539 0.000000 0.000000
# 5 0.000000 0.000000 0.000000 0.000000 0.039731 0.000000
# 6 0.000000 0.000000 0.000000 0.000000 0.000000 0.042598
#
#
# Mechanical properties :
#
#
# Convention : Reuss Voigt Hill
#
# Bulk Modulus (GPa) = 52.39950 63.60898 58.00424
# Shear Modulus (GPa) = 26.94932 32.19750 29.57341
#
# Velocity S-wave (km/s) = 3.38729 3.70246 3.54838
# Velocity P-wave (km/s) = 6.13250 6.73493 6.44077
#
# Compressibility (1/GPa) = 0.01908415
#
# Stress axis : x y z
#
# Youngs Moduli (GPa) = 131.83638 130.26160 60.85543
#
# Poissons Ratio (x) = 0.25071 0.01896
# Poissons Ratio (y) = 0.25374 0.24762
# Poissons Ratio (z) = 0.04107 0.53004
#
# Static dielectric constant tensor:
#      x y z
#    x 1.902730 0.000000 0.000000 
#    y 0.000000 1.891290 0.000000 
#    z 0.000000 0.000000 1.883560 
# 
# From -- ./inp_files/2347.got.cif
#   From: 2010.05.17/outbox.cif.g08.bks.cpg/sg35_2_cif.got.tgz:2347.got - 2010.06.03 17:29:28.
