data_PCOD9350563
_publ_section_title
;
Structure prediction by ZEFSAII (Michael W. Deem and Ramdas Pophale) SiO2 
 PCOD9350563
Probable space group: C M C 21
;
_chemical_formula_sum "Si O2"
_cell_formula_units_Z 64
_cell_length_a 8.671635
_cell_length_b 21.409690
_cell_length_c 18.311224
_cell_angle_alpha 90.000000
_cell_angle_beta 90.000000
_cell_angle_gamma 90.000000
_cell_volume 3399.607228
_symmetry_space_group_name_H-M "C M C 21"
_symmetry_group_IT_number 36
_symmetry_cell_setting 'orthorhombic'
loop_
_space_group_symop_operation_xyz
x,y,z
-x,-y,1/2+z
x,-y,1/2+z
-x,y,z
1/2+x,1/2+y,z
1/2-x,1/2-y,1/2+z
1/2+x,1/2-y,1/2+z
1/2-x,1/2+y,z
loop_
_atom_site_type_symbol
_atom_site_label
_atom_site_fract_x
_atom_site_fract_y
_atom_site_fract_z
Si Si1 0.184351 0.498136 0.958070
Si Si2 0.686527 0.109974 0.565150
Si Si3 0.184901 0.881095 0.530135
Si Si4 0.315278 0.128303 0.733410
Si Si5 0.185922 0.253917 0.055004
Si Si6 0.315559 0.504792 0.801017
Si Si7 0.817425 0.741301 0.218333
Si Si8 0.685230 0.389163 0.702319
O O1 0.261365 0.484412 0.880796
O O2 0.000000 0.492952 0.951641
O O3 0.241312 0.449079 0.019366
O O4 0.229727 0.567399 0.983262
O O5 0.500000 0.106230 0.567237
O O6 0.737237 0.113011 0.649690
O O7 0.725836 0.176753 0.528154
O O8 0.224318 0.808997 0.511525
O O9 0.224627 0.890485 0.616081
O O10 0.000000 0.889089 0.522361
O O11 0.500000 0.130753 0.733573
O O12 0.256296 0.071834 0.782450
O O13 0.252214 0.196566 0.754817
O O14 0.264614 0.247663 0.133856
O O15 0.000000 0.252230 0.066801
O O16 0.500000 0.509738 0.798260
O O17 0.265533 0.452426 0.742406
O O18 0.754570 0.673008 0.239159
O O19 0.000000 0.742464 0.224748
O O20 0.500000 0.384227 0.706326
#
# Coordination Sequence:
#
# PCOD9350563 Si02
#       8
#     8   8   8   8   8   8   8   8
#     4  11  22  35  51  74 106 141 175 214 263 316
#     4   8  16  32  55  79 101 131 171 211 255 310
#     4   9  17  32  55  79 102 132 170 214 265 316
#     4  10  19  35  58  81 107 138 174 219 269 317
#     4   8  15  31  53  76 103 135 172 217 267 310
#     4  11  23  38  54  75 105 141 182 223 264 313
#     4  10  18  29  51  83 112 136 170 216 262 316
#     4   9  19  36  57  79 106 140 176 220 271 316
#
# _framework density 18.825704000000002
#
# number of rings (size 3 to 8) (size 9 to 14) (size 15 to 20)
#    0.000    2.500    0.000    4.500    0.000    3.000 
#    0.000    6.875    0.000    4.500    0.000    0.000 
#    0.000    0.000    0.000    0.000    0.000    0.000 
#
# Total GULP energy -178414.072404 kJ/mol
# GULP energy per Si atom -5575.439763 kJ/mol
# Density = 1.878286 g / cm^3
# Si number density = 18.825704 Si / 1000 Ang^3
#
#
#
# Elastic Constant Matrix: (Units=GPa)
#
#
# Indices 1 2 3 4 5 6 
#
# 1 28.5517 15.1505 -1.3353 0.0000 0.0000 0.0000
# 2 15.1505 60.7651 -8.1122 0.0000 0.0000 0.0000
# 3 -1.3353 -8.1122 16.1959 0.0000 0.0000 0.0000
# 4 0.0000 0.0000 0.0000 0.8680 0.0000 0.0000
# 5 0.0000 0.0000 0.0000 0.0000 10.9875 0.0000
# 6 0.0000 0.0000 0.0000 0.0000 0.0000 25.5320
#
#
#
# Elastic Compliance Matrix: (Units=1/GPa)
#
#
# Indices 1 2 3 4 5 6 
#
# 1 0.040416 -0.010322 -0.001838 0.000000 0.000000 0.000000
# 2 -0.010322 0.020272 0.009303 0.000000 0.000000 0.000000
# 3 -0.001838 0.009303 0.066252 0.000000 0.000000 0.000000
# 4 0.000000 0.000000 0.000000 1.152059 0.000000 0.000000
# 5 0.000000 0.000000 0.000000 0.000000 0.091012 0.000000
# 6 0.000000 0.000000 0.000000 0.000000 0.000000 0.039167
#
#
# Mechanical properties :
#
#
# Convention : Reuss Voigt Hill
#
# Bulk Modulus (GPa) = 8.24909 12.99098 10.62004
# Shear Modulus (GPa) = 3.43572 14.13148 8.78360
#
# Velocity S-wave (km/s) = 1.35240 2.74277 2.16238
# Velocity P-wave (km/s) = 2.61342 4.11655 3.44790
#
# Compressibility (1/GPa) = 0.12122551
#
# Stress axis : x y z
#
# Youngs Moduli (GPa) = 24.74296 49.32820 15.09389
#
# Poissons Ratio (x) = 0.50917 0.02774
# Poissons Ratio (y) = 0.25540 -0.14042
# Poissons Ratio (z) = 0.04548 -0.45890
#
# Static dielectric constant tensor:
#      x y z
#    x 1.630940 0.000000 0.000000 
#    y 0.000000 1.685980 0.000000 
#    z 0.000000 0.000000 1.641500 
# 
# From -- ./inp_files/13933.got.cif
#   From: 2010.05.17/outbox.cif.g08.bks.cpg/sg36_7_cif.got.tgz:13933.got - 2010.06.03 17:41:39.
