data_PCOD9350936
_publ_section_title
;
Structure prediction by ZEFSAII (Michael W. Deem and Ramdas Pophale) SiO2 
 PCOD9350936
Probable space group: C M C 21
;
_chemical_formula_sum "Si O2"
_cell_formula_units_Z 64
_cell_length_a 7.388465
_cell_length_b 26.051893
_cell_length_c 12.978679
_cell_angle_alpha 90.000000
_cell_angle_beta 90.000000
_cell_angle_gamma 90.000000
_cell_volume 2498.181554
_symmetry_space_group_name_H-M "C M C 21"
_symmetry_group_IT_number 36
_symmetry_cell_setting 'orthorhombic'
loop_
_space_group_symop_operation_xyz
x,y,z
-x,-y,1/2+z
x,-y,1/2+z
-x,y,z
1/2+x,1/2+y,z
1/2-x,1/2-y,1/2+z
1/2+x,1/2-y,1/2+z
1/2-x,1/2+y,z
loop_
_atom_site_type_symbol
_atom_site_label
_atom_site_fract_x
_atom_site_fract_y
_atom_site_fract_z
Si Si1 0.290310 0.712985 0.583440
Si Si2 0.796264 0.311660 0.859179
Si Si3 0.220219 0.451957 0.110108
Si Si4 0.297423 0.197257 0.809765
Si Si5 0.721331 0.174643 0.036764
Si Si6 0.219874 0.534678 0.827123
Si Si7 0.280438 0.065478 0.053665
Si Si8 0.278362 0.920992 0.885844
O O1 0.500000 0.713560 0.553797
O O2 0.194418 0.689080 0.484441
O O3 0.275647 0.688192 0.695501
O O4 0.225518 0.772227 0.589694
O O5 0.702628 0.259114 0.826521
O O6 0.718372 0.367697 0.835910
O O7 0.000000 0.308149 0.815735
O O8 0.279768 0.436629 0.224052
O O9 0.000000 0.449464 0.106703
O O10 0.275470 0.511899 0.102613
O O11 0.281187 0.424931 0.005607
O O12 0.500000 0.176350 0.807379
O O13 0.215744 0.177597 0.917268
O O14 0.500000 0.174275 0.034771
O O15 0.779868 0.121567 0.088026
O O16 0.271459 0.560383 0.933794
O O17 0.274817 0.474714 0.834014
O O18 0.000000 0.533980 0.826020
O O19 0.500000 0.064832 0.061435
O O20 0.500000 0.919583 0.883750
#
# Coordination Sequence:
#
# PCOD9350936 Si02
#       8
#     8   8   8   8   8   8   8   8
#     4  10  20  34  50  70  97 126 162 204 245 289
#     4  10  19  32  50  71  99 132 163 196 238 289
#     4   8  13  21  34  55  87 121 148 181 227 278
#     4  10  20  34  50  70  97 126 162 204 245 289
#     4   8  16  29  44  64  91 122 153 190 236 287
#     4   8  13  21  34  55  87 121 148 181 227 278
#     4   8  13  22  36  55  83 118 149 177 223 281
#     4   8  15  25  37  60  91 122 155 187 227 283
#
# _framework density 25.618635000000001
#
# number of rings (size 3 to 8) (size 9 to 14) (size 15 to 20)
#    0.000    3.250    0.000    3.375    0.000    2.000 
#    0.000    7.500    0.000    0.000    0.000    0.000 
#    0.000   76.000    0.000    0.000    0.000    0.000 
#
# Total GULP energy -178703.880062 kJ/mol
# GULP energy per Si atom -5584.496252 kJ/mol
# Density = 2.556033 g / cm^3
# Si number density = 25.618635 Si / 1000 Ang^3
#
#
#
# Elastic Constant Matrix: (Units=GPa)
#
#
# Indices 1 2 3 4 5 6 
#
# 1 85.9837 -10.1105 -8.1172 0.0000 0.0000 0.0000
# 2 -10.1105 105.8451 -18.6284 0.0000 0.0000 0.0000
# 3 -8.1172 -18.6284 117.1568 0.0000 0.0000 0.0000
# 4 0.0000 0.0000 0.0000 -16.1058 0.0000 0.0000
# 5 0.0000 0.0000 0.0000 0.0000 1.7872 0.0000
# 6 0.0000 0.0000 0.0000 0.0000 0.0000 -63.2065
#
#
#
# Elastic Compliance Matrix: (Units=1/GPa)
#
#
# Indices 1 2 3 4 5 6 
#
# 1 0.011882 0.001317 0.001033 0.000000 0.000000 0.000000
# 2 0.001317 0.009866 0.001660 0.000000 0.000000 0.000000
# 3 0.001033 0.001660 0.008871 0.000000 0.000000 0.000000
# 4 0.000000 0.000000 0.000000 -0.062090 0.000000 0.000000
# 5 0.000000 0.000000 0.000000 0.000000 0.559538 0.000000
# 6 0.000000 0.000000 0.000000 0.000000 0.000000 -0.015821
#
#
# Mechanical properties :
#
#
# Convention : Reuss Voigt Hill
#
# Bulk Modulus (GPa) = 25.88137 26.14149 26.01143
# Shear Modulus (GPa) = 9.66918 7.55110 8.61014
#
# Velocity S-wave (km/s) = 1.94486 1.71869 1.83526
# Velocity P-wave (km/s) = 3.89458 3.76361 3.82966
#
# Compressibility (1/GPa) = 0.03863783
#
# Stress axis : x y z
#
# Youngs Moduli (GPa) = 84.15785 101.36140 112.72624
#
# Poissons Ratio (x) = -0.13347 -0.11641
# Poissons Ratio (y) = -0.11082 -0.18712
# Poissons Ratio (z) = -0.08691 -0.16825
#
# Static dielectric constant tensor:
#      x y z
#    x 1.991380 0.000000 0.000000 
#    y 0.000000 1.994340 0.000000 
#    z 0.000000 0.000000 1.996250 
# 
# From -- ./inp_files/11205.got.cif
#   From: 2010.05.17/outbox.cif.g08.bks.cpg/sg36_6_cif.got.tgz:11205.got - 2010.06.03 17:41:39.
