data_PCOD9350229
_publ_section_title
;
Structure prediction by ZEFSAII (Michael W. Deem and Ramdas Pophale) SiO2 
 PCOD9350229
Probable space group: C M M 2
;
_chemical_formula_sum "Si O2"
_cell_formula_units_Z 64
_cell_length_a 19.096108
_cell_length_b 21.160067
_cell_length_c 9.372806
_cell_angle_alpha 90.000000
_cell_angle_beta 90.000000
_cell_angle_gamma 90.000000
_cell_volume 3787.315879
_symmetry_space_group_name_H-M "C M M 2"
_symmetry_group_IT_number 35
_symmetry_cell_setting 'orthorhombic'
loop_
_space_group_symop_operation_xyz
x,y,z
-x,-y,z
-x,y,z
x,-y,z
1/2+x,1/2+y,z
1/2-x,1/2-y,z
1/2-x,1/2+y,z
1/2+x,1/2-y,z
loop_
_atom_site_type_symbol
_atom_site_label
_atom_site_fract_x
_atom_site_fract_y
_atom_site_fract_z
Si Si1 0.669479 0.926449 0.742150
Si Si2 0.422674 0.073974 0.003648
Si Si3 0.918658 0.644767 0.543111
Si Si4 0.580885 0.264338 0.083478
Si Si5 0.219926 0.178716 0.098236
Si Si6 0.778276 0.177828 0.761601
Si Si7 0.644336 0.858240 0.238063
Si Si8 0.579649 0.731329 0.741378
O O1 0.606708 0.915891 0.630969
O O2 0.730140 0.877243 0.697870
O O3 0.690778 0.000000 0.750694
O O4 0.635663 0.903369 0.892161
O O5 0.500000 0.103134 0.982032
O O6 0.395682 0.084084 0.163325
O O7 0.428321 0.000000 0.973841
O O8 0.871290 0.649732 0.403205
O O9 0.910728 0.705351 0.647962
O O10 0.000000 0.641202 0.501994
O O11 0.500000 0.277665 0.116602
O O12 0.637484 0.316805 0.132378
O O13 0.607015 0.200586 0.157898
O O14 0.587185 0.255645 0.911663
O O15 0.250000 0.250000 0.110910
O O16 0.273950 0.139761 0.194418
O O17 0.223223 0.163054 0.930907
O O18 0.750000 0.250000 0.742987
O O19 0.858148 0.182461 0.708336
O O20 0.500000 0.708990 0.717805
#
# Coordination Sequence:
#
# PCOD9350229 Si02
#       8
#     8   8   8   8   8   8   8   8
#     4  11  22  36  53  74 101 137 179 221 259 304
#     4  10  20  33  50  70  94 134 183 215 244 297
#     4  11  22  33  47  74 109 144 174 210 259 311
#     4   9  16  29  50  72  97 133 168 208 255 306
#     4   8  16  28  47  72  98 126 166 210 253 299
#     4  10  16  33  56  77  99 132 172 217 258 300
#     4  11  19  32  47  69 104 137 170 209 251 301
#     4   9  18  32  53  78 106 136 173 213 259 311
#
# _framework density 16.898512
#
# number of rings (size 3 to 8) (size 9 to 14) (size 15 to 20)
#    0.000    2.125    2.500    3.000    0.000    2.250 
#    6.750    0.000    0.000    0.375    0.000    0.000 
#    0.000    0.500    0.000    0.000    0.000    0.000 
#
# Total GULP energy -178192.381872 kJ/mol
# GULP energy per Si atom -5568.511934 kJ/mol
# Density = 1.686005 g / cm^3
# Si number density = 16.898512 Si / 1000 Ang^3
#
#
#
# Elastic Constant Matrix: (Units=GPa)
#
#
# Indices 1 2 3 4 5 6 
#
# 1 137.1262 33.9714 28.8807 0.0000 0.0000 0.0000
# 2 33.9714 40.2258 7.3671 0.0000 0.0000 0.0000
# 3 28.8807 7.3671 48.4416 0.0000 0.0000 0.0000
# 4 0.0000 0.0000 0.0000 5.2239 0.0000 0.0000
# 5 0.0000 0.0000 0.0000 0.0000 18.5146 0.0000
# 6 0.0000 0.0000 0.0000 0.0000 0.0000 19.9990
#
#
#
# Elastic Compliance Matrix: (Units=1/GPa)
#
#
# Indices 1 2 3 4 5 6 
#
# 1 0.010253 -0.007755 -0.004933 0.000000 0.000000 0.000000
# 2 -0.007755 0.031438 -0.000158 0.000000 0.000000 0.000000
# 3 -0.004933 -0.000158 0.023609 0.000000 0.000000 0.000000
# 4 0.000000 0.000000 0.000000 0.191427 0.000000 0.000000
# 5 0.000000 0.000000 0.000000 0.000000 0.054011 0.000000
# 6 0.000000 0.000000 0.000000 0.000000 0.000000 0.050003
#
#
# Mechanical properties :
#
#
# Convention : Reuss Voigt Hill
#
# Bulk Modulus (GPa) = 25.24785 40.69244 32.97015
# Shear Modulus (GPa) = 12.51142 19.11912 15.81527
#
# Velocity S-wave (km/s) = 2.72396 3.36729 3.06256
# Velocity P-wave (km/s) = 4.98664 6.26506 5.66205
#
# Compressibility (1/GPa) = 0.03960733
#
# Stress axis : x y z
#
# Youngs Moduli (GPa) = 97.53406 31.80876 42.35748
#
# Poissons Ratio (x) = 0.24668 0.20896
# Poissons Ratio (y) = 0.75640 0.00667
# Poissons Ratio (z) = 0.48116 0.00501
#
# Static dielectric constant tensor:
#      x y z
#    x 1.644170 0.000000 0.000000 
#    y 0.000000 1.589130 0.000000 
#    z 0.000000 0.000000 1.587830 
# 
# From -- ./inp_files/9526.got.cif
#   From: 2010.05.17/outbox.cif.g08.bks.cpg/sg35_5_cif.got.tgz:9526.got - 2010.06.03 17:29:28.
