data_PCOD9350557
_publ_section_title
;
Structure prediction by ZEFSAII (Michael W. Deem and Ramdas Pophale) SiO2 
 PCOD9350557
Probable space group: C M C 21
;
_chemical_formula_sum "Si O2"
_cell_formula_units_Z 40
_cell_length_a 13.230782
_cell_length_b 24.164900
_cell_length_c 7.564418
_cell_angle_alpha 90.000000
_cell_angle_beta 90.000000
_cell_angle_gamma 90.000000
_cell_volume 2418.499686
_symmetry_space_group_name_H-M "C M C 21"
_symmetry_group_IT_number 36
_symmetry_cell_setting 'orthorhombic'
loop_
_space_group_symop_operation_xyz
x,y,z
-x,-y,1/2+z
x,-y,1/2+z
-x,y,z
1/2+x,1/2+y,z
1/2-x,1/2-y,1/2+z
1/2+x,1/2-y,1/2+z
1/2-x,1/2+y,z
loop_
_atom_site_type_symbol
_atom_site_label
_atom_site_fract_x
_atom_site_fract_y
_atom_site_fract_z
Si Si1 0.121039 0.244545 0.604500
Si Si2 0.291175 0.689781 0.946435
Si Si3 0.382090 0.424099 0.326875
Si Si4 0.879638 0.841860 0.805463
Si Si5 0.383371 0.455866 0.916611
O O1 0.177834 0.294482 0.504629
O O2 0.165549 0.231483 0.798329
O O3 0.147390 0.191555 0.481658
O O4 0.000000 0.250453 0.612199
O O5 0.314677 0.628398 0.875194
O O6 0.350367 0.691732 0.132175
O O7 0.500000 0.413140 0.382967
O O8 0.342697 0.482010 0.407012
O O9 0.384118 0.434584 0.117045
O O10 0.837942 0.904806 0.806014
O O11 0.000000 0.847557 0.810571
O O12 0.500000 0.463540 0.855471
#
# Coordination Sequence:
#
# PCOD9350557 Si02
#       5
#     8   8   8   8   8
#     4  11  23  37  53  78 108 142 187 229 263 318
#     4  12  21  36  55  76 107 149 182 219 272 318
#     4  10  18  29  49  78 111 142 174 216 268 333
#     4  10  19  33  53  77 110 142 174 220 271 323
#     4   9  17  29  47  79 114 139 170 214 271 334
#
# _framework density 16.539180000000002
#
# number of rings (size 3 to 8) (size 9 to 14) (size 15 to 20)
#    0.000    1.600    4.000    3.000    0.000    3.200 
#    0.000    0.000    0.000    0.000    0.000    5.600 
#    0.000    0.000    0.000    0.000    0.000    0.000 
#
# Total GULP energy -111413.911039 kJ/mol
# GULP energy per Si atom -5570.695552 kJ/mol
# Density = 1.650154 g / cm^3
# Si number density = 16.539180 Si / 1000 Ang^3
#
#
#
# Elastic Constant Matrix: (Units=GPa)
#
#
# Indices 1 2 3 4 5 6 
#
# 1 49.6399 45.5456 27.2579 0.0000 0.0000 0.0000
# 2 45.5456 93.9997 27.1389 0.0000 0.0000 0.0000
# 3 27.2579 27.1389 86.9509 0.0000 0.0000 0.0000
# 4 0.0000 0.0000 0.0000 31.8550 0.0000 0.0000
# 5 0.0000 0.0000 0.0000 0.0000 19.4785 0.0000
# 6 0.0000 0.0000 0.0000 0.0000 0.0000 20.5438
#
#
#
# Elastic Compliance Matrix: (Units=1/GPa)
#
#
# Indices 1 2 3 4 5 6 
#
# 1 0.039911 -0.017283 -0.007117 0.000000 0.000000 0.000000
# 2 -0.017283 0.019176 -0.000567 0.000000 0.000000 0.000000
# 3 -0.007117 -0.000567 0.013909 0.000000 0.000000 0.000000
# 4 0.000000 0.000000 0.000000 0.031392 0.000000 0.000000
# 5 0.000000 0.000000 0.000000 0.000000 0.051339 0.000000
# 6 0.000000 0.000000 0.000000 0.000000 0.000000 0.048677
#
#
# Mechanical properties :
#
#
# Convention : Reuss Voigt Hill
#
# Bulk Modulus (GPa) = 43.36322 47.83058 45.59690
# Shear Modulus (GPa) = 19.08214 23.08533 21.08373
#
# Velocity S-wave (km/s) = 3.40038 3.74009 3.57427
# Velocity P-wave (km/s) = 6.45695 6.90169 6.68302
#
# Compressibility (1/GPa) = 0.02306102
#
# Stress axis : x y z
#
# Youngs Moduli (GPa) = 25.05592 52.14777 71.89646
#
# Poissons Ratio (x) = 0.90128 0.51169
# Poissons Ratio (y) = 0.43304 0.04078
# Poissons Ratio (z) = 0.17833 0.02958
#
# Static dielectric constant tensor:
#      x y z
#    x 1.532050 0.000000 0.000000 
#    y 0.000000 1.627090 0.000000 
#    z 0.000000 0.000000 1.607340 
# 
# From -- ./inp_files/3369.got.cif
#   From: 2010.05.17/outbox.cif.g08.bks.cpg/sg36_2_cif.got.tgz:3369.got - 2010.06.03 17:41:39.
