data_PCOD9350487
_publ_section_title
;
Structure prediction by ZEFSAII (Michael W. Deem and Ramdas Pophale) SiO2 
 PCOD9350487
Probable space group: C M C 21
;
_chemical_formula_sum "Si O2"
_cell_formula_units_Z 48
_cell_length_a 26.340720
_cell_length_b 13.277883
_cell_length_c 5.364150
_cell_angle_alpha 90.000000
_cell_angle_beta 90.000000
_cell_angle_gamma 90.000000
_cell_volume 1876.106089
_symmetry_space_group_name_H-M "C M C 21"
_symmetry_group_IT_number 36
_symmetry_cell_setting 'orthorhombic'
loop_
_space_group_symop_operation_xyz
x,y,z
-x,-y,1/2+z
x,-y,1/2+z
-x,y,z
1/2+x,1/2+y,z
1/2-x,1/2-y,1/2+z
1/2+x,1/2-y,1/2+z
1/2-x,1/2+y,z
loop_
_atom_site_type_symbol
_atom_site_label
_atom_site_fract_x
_atom_site_fract_y
_atom_site_fract_z
Si Si1 0.000000 0.863078 0.480480
Si Si2 0.500000 0.773814 0.480795
Si Si3 0.778479 0.884303 0.556522
Si Si4 0.862753 0.763163 0.059524
Si Si5 0.609310 0.372161 0.557848
Si Si6 0.408019 0.933684 0.502169
Si Si7 0.747436 0.840112 0.057500
O O1 0.946177 0.921464 0.516429
O O2 0.000000 0.781558 0.710477
O O3 0.000000 0.805208 0.212737
O O4 0.453209 0.851410 0.504596
O O5 0.835676 0.929483 0.551248
O O6 0.745622 0.898590 0.802408
O O7 0.785674 0.760589 0.559504
O O8 0.746104 0.899933 0.310418
O O9 0.886801 0.795586 0.323640
O O10 0.889889 0.817994 0.826157
O O11 0.861743 0.644058 0.021081
O O12 0.806130 0.804868 0.059238
O O13 0.409832 0.004166 0.745617
#
# Coordination Sequence:
#
# PCOD9350487 Si02
#       7
#     4   4   8   8   8   8   8
#     4  12  18  29  42  52  68  92 116 142 172 213
#     4  12  22  33  40  48  62  90 122 152 184 205
#     4   8  14  23  37  56  68  82  98 128 160 202
#     4  10  18  30  40  51  65  86 107 142 177 210
#     4  10  17  27  40  52  70  86 110 135 168 202
#     4  12  22  32  40  50  64  85 118 155 184 210
#     4   8  14  24  39  53  68  80 100 125 168 206
#
# _framework density 25.584907999999999
#
# number of rings (size 3 to 8) (size 9 to 14) (size 15 to 20)
#    0.000    2.000    3.333    2.500    0.000    0.000 
#    0.000    0.000    0.000    0.000    0.000    0.000 
#    0.000    0.000    0.000    0.000    0.000    0.000 
#
# Total GULP energy -134024.691624 kJ/mol
# GULP energy per Si atom -5584.362151 kJ/mol
# Density = 2.552668 g / cm^3
# Si number density = 25.584908 Si / 1000 Ang^3
#
#
#
# Elastic Constant Matrix: (Units=GPa)
#
#
# Indices 1 2 3 4 5 6 
#
# 1 106.0564 -4.9241 -15.9011 0.0000 0.0000 0.0000
# 2 -4.9241 72.8030 29.5860 0.0000 0.0000 0.0000
# 3 -15.9011 29.5860 230.2426 0.0000 0.0000 0.0000
# 4 0.0000 0.0000 0.0000 7.5805 0.0000 0.0000
# 5 0.0000 0.0000 0.0000 0.0000 12.5394 0.0000
# 6 0.0000 0.0000 0.0000 0.0000 0.0000 -59.3768
#
#
#
# Elastic Compliance Matrix: (Units=1/GPa)
#
#
# Indices 1 2 3 4 5 6 
#
# 1 0.009539 0.000398 0.000608 0.000000 0.000000 0.000000
# 2 0.000398 0.014509 -0.001837 0.000000 0.000000 0.000000
# 3 0.000608 -0.001837 0.004621 0.000000 0.000000 0.000000
# 4 0.000000 0.000000 0.000000 0.131918 0.000000 0.000000
# 5 0.000000 0.000000 0.000000 0.000000 0.079749 0.000000
# 6 0.000000 0.000000 0.000000 0.000000 0.000000 -0.016842
#
#
# Mechanical properties :
#
#
# Convention : Reuss Voigt Hill
#
# Bulk Modulus (GPa) = 37.02780 47.40260 42.21520
# Shear Modulus (GPa) = 21.35307 18.83803 20.09555
#
# Velocity S-wave (km/s) = 2.89207 2.71642 2.80562
# Velocity P-wave (km/s) = 5.06518 5.32976 5.19915
#
# Compressibility (1/GPa) = 0.02700673
#
# Stress axis : x y z
#
# Youngs Moduli (GPa) = 104.83795 68.92211 216.39181
#
# Poissons Ratio (x) = -0.02745 -0.13148
# Poissons Ratio (y) = -0.04175 0.39749
# Poissons Ratio (z) = -0.06370 0.12660
#
# Static dielectric constant tensor:
#      x y z
#    x 2.136260 0.000000 0.000000 
#    y 0.000000 2.072370 0.000000 
#    z 0.000000 0.000000 2.157590 
# 
# From -- ./inp_files/909.got.cif
#   From: 2010.05.17/outbox.cif.g08.bks.cpg/sg36_1_cif.got.tgz:909.got - 2010.06.03 17:41:39.
