data_PCOD9350406
_publ_section_title
;
Structure prediction by ZEFSAII (Michael W. Deem and Ramdas Pophale) SiO2 
 PCOD9350406
Probable space group: C M M 2
;
_chemical_formula_sum "Si O2"
_cell_formula_units_Z 64
_cell_length_a 30.076203
_cell_length_b 8.835915
_cell_length_c 12.639508
_cell_angle_alpha 90.000000
_cell_angle_beta 90.000000
_cell_angle_gamma 90.000000
_cell_volume 3358.959024
_symmetry_space_group_name_H-M "C M M 2"
_symmetry_group_IT_number 35
_symmetry_cell_setting 'orthorhombic'
loop_
_space_group_symop_operation_xyz
x,y,z
-x,-y,z
-x,y,z
x,-y,z
1/2+x,1/2+y,z
1/2-x,1/2-y,z
1/2-x,1/2+y,z
1/2+x,1/2-y,z
loop_
_atom_site_type_symbol
_atom_site_label
_atom_site_fract_x
_atom_site_fract_y
_atom_site_fract_z
Si Si1 0.704638 0.823206 0.969260
Si Si2 0.571685 0.680003 0.823427
Si Si3 0.148044 0.816918 0.535530
Si Si4 0.799453 0.817460 0.322222
Si Si5 0.048002 0.183282 0.585759
Si Si6 0.336761 0.822246 0.754027
Si Si7 0.450233 0.180489 0.049466
Si Si8 0.862157 0.819133 0.126761
O O1 0.750000 0.750000 0.008449
O O2 0.700933 0.808780 0.842596
O O3 0.702755 0.000000 0.995876
O O4 0.663790 0.739678 0.023968
O O5 0.567741 0.500000 0.838476
O O6 0.549206 0.719901 0.711159
O O7 0.622091 0.728922 0.801448
O O8 0.554846 0.760872 0.928754
O O9 0.174960 0.776187 0.430452
O O10 0.095664 0.767906 0.537307
O O11 0.171056 0.744090 0.638220
O O12 0.148333 0.000000 0.546051
O O13 0.750000 0.750000 0.315661
O O14 0.831658 0.771084 0.225691
O O15 0.795625 0.000000 0.318940
O O16 0.000000 0.236751 0.542362
O O17 0.048199 0.000000 0.577995
O O18 0.348518 0.000000 0.746435
O O19 0.500000 0.218962 0.086153
O O20 0.411480 0.252431 0.119996
O O21 0.445000 0.000000 0.048742
O O22 0.864829 0.000000 0.126059
#
# Coordination Sequence:
#
# PCOD9350406 Si02
#       8
#     8   8   8   8   8   8   8   8
#     4  11  23  37  56  83 117 152 190 237 294 358
#     4  10  18  30  52  80 114 156 198 239 282 337
#     4   9  19  36  57  82 114 147 189 240 291 347
#     4  10  23  42  63  88 112 144 194 250 302 354
#     4   8  14  26  48  79 111 145 184 225 273 330
#     4  10  20  34  53  81 118 155 192 235 290 349
#     4  11  23  37  55  83 120 159 197 238 288 347
#     4  11  23  40  62  85 114 150 196 248 298 353
#
# _framework density 19.053522000000001
#
# number of rings (size 3 to 8) (size 9 to 14) (size 15 to 20)
#    0.000    2.000    1.250    3.375    0.000    6.000 
#    0.000    3.125    0.000    5.625    0.000    0.000 
#    0.000    0.000    0.000    0.000    0.000    0.000 
#
# Total GULP energy -178514.797838 kJ/mol
# GULP energy per Si atom -5578.587432 kJ/mol
# Density = 1.901016 g / cm^3
# Si number density = 19.053522 Si / 1000 Ang^3
#
#
#
# Elastic Constant Matrix: (Units=GPa)
#
#
# Indices 1 2 3 4 5 6 
#
# 1 139.4570 48.2443 60.8978 0.0000 0.0000 0.0000
# 2 48.2443 36.5796 32.9526 0.0000 0.0000 0.0000
# 3 60.8978 32.9526 109.6822 0.0000 0.0000 0.0000
# 4 0.0000 0.0000 0.0000 13.8263 0.0000 0.0000
# 5 0.0000 0.0000 0.0000 0.0000 12.3672 0.0000
# 6 0.0000 0.0000 0.0000 0.0000 0.0000 25.3942
#
#
#
# Elastic Compliance Matrix: (Units=1/GPa)
#
#
# Indices 1 2 3 4 5 6 
#
# 1 0.013884 -0.015585 -0.003026 0.000000 0.000000 0.000000
# 2 -0.015585 0.054976 -0.007864 0.000000 0.000000 0.000000
# 3 -0.003026 -0.007864 0.013160 0.000000 0.000000 0.000000
# 4 0.000000 0.000000 0.000000 0.072326 0.000000 0.000000
# 5 0.000000 0.000000 0.000000 0.000000 0.080859 0.000000
# 6 0.000000 0.000000 0.000000 0.000000 0.000000 0.039379
#
#
# Mechanical properties :
#
#
# Convention : Reuss Voigt Hill
#
# Bulk Modulus (GPa) = 34.39950 63.32314 48.86132
# Shear Modulus (GPa) = 14.82696 19.89251 17.35974
#
# Velocity S-wave (km/s) = 2.79260 3.23466 3.02172
# Velocity P-wave (km/s) = 5.33775 6.87438 6.15421
#
# Compressibility (1/GPa) = 0.02907019
#
# Stress axis : x y z
#
# Youngs Moduli (GPa) = 72.02747 18.18965 75.98732
#
# Poissons Ratio (x) = 0.28348 0.22995
# Poissons Ratio (y) = 1.12253 0.59756
# Poissons Ratio (z) = 0.21797 0.14304
#
# Static dielectric constant tensor:
#      x y z
#    x 1.703540 0.000000 0.000000 
#    y 0.000000 1.641280 0.000000 
#    z 0.000000 0.000000 1.665520 
# 
# From -- ./inp_files/14576.got.cif
#   From: 2010.05.17/outbox.cif.g08.bks.cpg/sg35_8_cif.got.tgz:14576.got - 2010.06.03 17:29:28.
