data_PCOD9350055
_publ_section_title
;
Structure prediction by ZEFSAII (Michael W. Deem and Ramdas Pophale) SiO2 
 PCOD9350055
Probable space group: C M M 2
;
_chemical_formula_sum "Si O2"
_cell_formula_units_Z 56
_cell_length_a 17.446257
_cell_length_b 14.957841
_cell_length_c 9.285891
_cell_angle_alpha 90.000000
_cell_angle_beta 90.000000
_cell_angle_gamma 90.000000
_cell_volume 2423.230685
_symmetry_space_group_name_H-M "C M M 2"
_symmetry_group_IT_number 35
_symmetry_cell_setting 'orthorhombic'
loop_
_space_group_symop_operation_xyz
x,y,z
-x,-y,z
-x,y,z
x,-y,z
1/2+x,1/2+y,z
1/2-x,1/2-y,z
1/2-x,1/2+y,z
1/2+x,1/2-y,z
loop_
_atom_site_type_symbol
_atom_site_label
_atom_site_fract_x
_atom_site_fract_y
_atom_site_fract_z
Si Si1 0.607766 0.903428 0.770490
Si Si2 0.868045 0.900140 0.173046
Si Si3 0.673094 0.689879 0.462922
Si Si4 0.913684 0.636280 0.442931
Si Si5 0.184293 0.598568 0.160640
Si Si6 0.120393 0.245096 0.961109
Si Si7 0.791004 0.102318 0.765491
O O1 0.591545 0.906163 0.600452
O O2 0.699886 0.897176 0.785550
O O3 0.582842 0.000000 0.828466
O O4 0.579973 0.814180 0.851434
O O5 0.861326 0.870617 0.337657
O O6 0.775975 0.899720 0.142184
O O7 0.911182 0.828918 0.072877
O O8 0.897187 0.000000 0.153955
O O9 0.750000 0.750000 0.427643
O O10 0.607399 0.762640 0.483390
O O11 0.692645 0.631195 0.601459
O O12 0.851899 0.606145 0.322062
O O13 0.000000 0.625181 0.385186
O O14 0.159827 0.500000 0.109252
O O15 0.156768 0.683846 0.072388
O O16 0.172328 0.180419 0.861669
O O17 0.817829 0.000000 0.795203
#
# Coordination Sequence:
#
# PCOD9350055 Si02
#       7
#     8   8   8   8   8   8   8
#     4  11  22  37  60  92 128 167 206 251 311 380
#     4  11  21  34  61  97 127 159 206 259 317 375
#     4  12  19  39  65  90 122 165 212 266 320 368
#     4  12  25  42  65  91 125 171 218 261 313 375
#     4  11  22  37  60  92 128 167 206 251 311 380
#     4  12  21  36  59  95 136 163 202 262 316 368
#     4  11  21  34  61  97 127 159 206 259 317 375
#
# _framework density 23.109642000000001
#
# number of rings (size 3 to 8) (size 9 to 14) (size 15 to 20)
#    0.000    0.571    5.714    4.286    0.000    5.714 
#    0.000    0.714    0.000    3.429    0.000    2.000 
#    0.000    0.000    0.000    0.000    0.000    0.000 
#
# Total GULP energy -156262.878965 kJ/mol
# GULP energy per Si atom -5580.817106 kJ/mol
# Density = 2.305704 g / cm^3
# Si number density = 23.109642 Si / 1000 Ang^3
#
#
#
# Elastic Constant Matrix: (Units=GPa)
#
#
# Indices 1 2 3 4 5 6 
#
# 1 75.8998 40.2334 26.8244 0.0000 0.0000 0.0000
# 2 40.2334 232.6473 66.3658 0.0000 0.0000 0.0000
# 3 26.8244 66.3658 129.0433 0.0000 0.0000 0.0000
# 4 0.0000 0.0000 0.0000 -29.6060 0.0000 0.0000
# 5 0.0000 0.0000 0.0000 0.0000 -39.6400 0.0000
# 6 0.0000 0.0000 0.0000 0.0000 0.0000 -39.0235
#
#
#
# Elastic Compliance Matrix: (Units=1/GPa)
#
#
# Indices 1 2 3 4 5 6 
#
# 1 0.014969 -0.001994 -0.002086 0.000000 0.000000 0.000000
# 2 -0.001994 0.005303 -0.002313 0.000000 0.000000 0.000000
# 3 -0.002086 -0.002313 0.009372 0.000000 0.000000 0.000000
# 4 0.000000 0.000000 0.000000 -0.033777 0.000000 0.000000
# 5 0.000000 0.000000 0.000000 0.000000 -0.025227 0.000000
# 6 0.000000 0.000000 0.000000 0.000000 0.000000 -0.025626
#
#
# Mechanical properties :
#
#
# Convention : Reuss Voigt Hill
#
# Bulk Modulus (GPa) = 59.31498 78.27083 68.79290
# Shear Modulus (GPa) = -136.68887 -1.37610 -69.03249
#
# Velocity S-wave (km/s) = -7.69912 -0.77250 -5.47143
# Velocity P-wave (km/s) = 7.30155 5.75736 3.17534
#
# Compressibility (1/GPa) = 0.01685915
#
# Stress axis : x y z
#
# Youngs Moduli (GPa) = 66.80284 188.57680 106.69516
#
# Poissons Ratio (x) = 0.37595 0.22261
# Poissons Ratio (y) = 0.13318 0.24677
# Poissons Ratio (z) = 0.13938 0.43614
#
# Static dielectric constant tensor:
#      x y z
#    x 1.880900 0.000000 0.000000 
#    y 0.000000 1.876090 0.000000 
#    z 0.000000 0.000000 1.935200 
# 
# From -- ./inp_files/9303.got.cif
#   From: 2010.05.17/outbox.cif.g08.bks.cpg/sg35_5_cif.got.tgz:9303.got - 2010.06.03 17:29:28.
