data_PCOD9350662
_publ_section_title
;
Structure prediction by ZEFSAII (Michael W. Deem and Ramdas Pophale) SiO2 
 PCOD9350662
Probable space group: C M C 21
;
_chemical_formula_sum "Si O2"
_cell_formula_units_Z 64
_cell_length_a 7.678252
_cell_length_b 21.287186
_cell_length_c 19.944006
_cell_angle_alpha 90.000000
_cell_angle_beta 90.000000
_cell_angle_gamma 90.000000
_cell_volume 3259.815441
_symmetry_space_group_name_H-M "C M C 21"
_symmetry_group_IT_number 36
_symmetry_cell_setting 'orthorhombic'
loop_
_space_group_symop_operation_xyz
x,y,z
-x,-y,1/2+z
x,-y,1/2+z
-x,y,z
1/2+x,1/2+y,z
1/2-x,1/2-y,1/2+z
1/2+x,1/2-y,1/2+z
1/2-x,1/2+y,z
loop_
_atom_site_type_symbol
_atom_site_label
_atom_site_fract_x
_atom_site_fract_y
_atom_site_fract_z
Si Si1 0.209432 0.989290 0.998560
Si Si2 0.793947 0.511492 0.348679
Si Si3 0.797022 0.942124 0.710019
Si Si4 0.295270 0.806861 0.214260
Si Si5 0.711695 0.432599 0.136686
Si Si6 0.790771 0.866238 0.498432
Si Si7 0.785769 0.816033 0.638364
Si Si8 0.791234 0.367651 0.348278
O O1 0.259500 0.967321 0.924483
O O2 0.273030 0.061488 0.006581
O O3 0.000000 0.991728 0.001622
O O4 0.266878 0.946564 0.060408
O O5 0.717922 0.553735 0.289834
O O6 0.724065 0.439663 0.342881
O O7 0.000000 0.509603 0.338110
O O8 0.726739 0.878551 0.677785
O O9 0.000000 0.942522 0.690820
O O10 0.725801 0.007131 0.679674
O O11 0.500000 0.793865 0.224562
O O12 0.277910 0.868513 0.168409
O O13 0.222853 0.746305 0.175926
O O14 0.221961 0.825602 0.287349
O O15 0.500000 0.429974 0.139330
O O16 0.730893 0.824601 0.560999
O O17 0.744395 0.844875 0.423590
O O18 0.000000 0.868777 0.501804
O O19 0.000000 0.814422 0.638486
O O20 0.000000 0.371485 0.341008
#
# Coordination Sequence:
#
# PCOD9350662 Si02
#       8
#     8   8   8   8   8   8   8   8
#     4   9  17  31  51  76 102 130 169 217 260 300
#     4  10  19  31  48  76 108 134 168 212 258 309
#     4  10  18  32  54  77 100 131 171 213 255 299
#     4  10  20  35  53  74 106 141 171 205 254 314
#     4  10  19  32  53  78 103 129 168 217 256 298
#     4   9  16  30  53  76  95 124 171 216 250 293
#     4   9  18  34  55  77 101 135 176 212 253 306
#     4   9  18  31  47  72 103 134 166 202 252 309
#
# _framework density 19.633013999999999
#
# number of rings (size 3 to 8) (size 9 to 14) (size 15 to 20)
#    0.000    2.500    2.500    0.375    0.000    1.500 
#    0.000    3.125    0.000    4.500    0.000    0.000 
#    0.000    0.000    0.000    0.000    0.000    0.000 
#
# Total GULP energy -178495.176412 kJ/mol
# GULP energy per Si atom -5577.974263 kJ/mol
# Density = 1.958833 g / cm^3
# Si number density = 19.633014 Si / 1000 Ang^3
#
#
#
# Elastic Constant Matrix: (Units=GPa)
#
#
# Indices 1 2 3 4 5 6 
#
# 1 29.1344 -3.8578 -9.3960 0.0000 0.0000 0.0000
# 2 -3.8578 101.8639 76.1219 0.0000 0.0000 0.0000
# 3 -9.3960 76.1219 172.6707 0.0000 0.0000 0.0000
# 4 0.0000 0.0000 0.0000 27.1682 0.0000 0.0000
# 5 0.0000 0.0000 0.0000 0.0000 5.8897 0.0000
# 6 0.0000 0.0000 0.0000 0.0000 0.0000 9.9021
#
#
#
# Elastic Compliance Matrix: (Units=1/GPa)
#
#
# Indices 1 2 3 4 5 6 
#
# 1 0.034938 -0.000145 0.001965 0.000000 0.000000 0.000000
# 2 -0.000145 0.014641 -0.006462 0.000000 0.000000 0.000000
# 3 0.001965 -0.006462 0.008747 0.000000 0.000000 0.000000
# 4 0.000000 0.000000 0.000000 0.036808 0.000000 0.000000
# 5 0.000000 0.000000 0.000000 0.000000 0.169789 0.000000
# 6 0.000000 0.000000 0.000000 0.000000 0.000000 0.100988
#
#
# Mechanical properties :
#
#
# Convention : Reuss Voigt Hill
#
# Bulk Modulus (GPa) = 20.39095 47.71169 34.05132
# Shear Modulus (GPa) = 12.76998 24.64540 18.70769
#
# Velocity S-wave (km/s) = 2.55313 3.54687 3.09021
# Velocity P-wave (km/s) = 4.37034 6.41313 5.48763
#
# Compressibility (1/GPa) = 0.04904136
#
# Stress axis : x y z
#
# Youngs Moduli (GPa) = 28.62188 68.30272 114.32218
#
# Poissons Ratio (x) = 0.00994 -0.22468
# Poissons Ratio (y) = 0.00416 0.73878
# Poissons Ratio (z) = -0.05625 0.44139
#
# Static dielectric constant tensor:
#      x y z
#    x 1.757560 0.000000 0.000000 
#    y 0.000000 1.665950 0.000000 
#    z 0.000000 0.000000 1.701070 
# 
# From -- ./inp_files/13934.got.cif
#   From: 2010.05.17/outbox.cif.g08.bks.cpg/sg36_7_cif.got.tgz:13934.got - 2010.06.03 17:41:39.
