data_PCOD9350182
_publ_section_title
;
Structure prediction by ZEFSAII (Michael W. Deem and Ramdas Pophale) SiO2 
 PCOD9350182
Probable space group: C M M 2
;
_chemical_formula_sum "Si O2"
_cell_formula_units_Z 28
_cell_length_a 15.000000
_cell_length_b 15.000000
_cell_length_c 12.000000
_cell_angle_alpha 90.000000
_cell_angle_beta 90.000000
_cell_angle_gamma 90.000000
_cell_volume 2700.000000
_symmetry_space_group_name_H-M "C M M 2"
_symmetry_group_IT_number 35
_symmetry_cell_setting 'orthorhombic'
loop_
_space_group_symop_operation_xyz
x,y,z
-x,-y,z
-x,y,z
x,-y,z
1/2+x,1/2+y,z
1/2-x,1/2-y,z
1/2-x,1/2+y,z
1/2+x,1/2-y,z
loop_
_atom_site_type_symbol
_atom_site_label
_atom_site_fract_x
_atom_site_fract_y
_atom_site_fract_z
Si Si1 0.607310 0.602238 0.173510
Si Si2 0.604503 0.657277 0.429555
Si Si3 0.397708 0.891889 0.801492
Si Si4 0.745136 0.098715 0.609149
Si Si5 0.345489 0.234588 0.004658
Si Si6 0.103000 0.599346 0.171653
Si Si7 0.399125 0.129362 0.425486
O O1 0.500000 0.601129 0.180124
O O2 0.638376 0.500000 0.148713
O O3 0.634754 0.625478 0.303676
O O4 0.625730 0.674836 0.073098
O O5 0.500000 0.627556 0.446472
O O6 0.670070 0.636467 0.535774
O O7 0.603640 0.763867 0.422828
O O8 0.500000 0.883047 0.754564
O O9 0.315885 0.866915 0.715452
O O10 0.387838 0.000000 0.827122
O O11 0.395703 0.824416 0.908969
O O12 0.669850 0.096094 0.514626
O O13 0.774180 0.000000 0.644063
O O14 0.250000 0.250000 0.951696
O O15 0.335290 0.165579 0.106312
O O16 0.107686 0.500000 0.126068
O O17 0.122944 0.598293 0.301494
O O18 0.000000 0.631696 0.159948
O O19 0.500000 0.101680 0.450888
#
# Coordination Sequence:
#
# PCOD9350182 Si02
#       7
#     8   8   8   8   8   8   8
#     4  10  21  39  62  90 130 177 220 263 318 385
#     4  10  21  38  61  92 136 182 221 263 320 391
#     4  10  23  46  72  95 126 173 225 280 343 402
#     4  11  23  38  63  96 133 168 214 271 327 400
#     4  12  25  38  62  94 130 172 214 274 326 397
#     4  10  20  36  60  90 125 165 212 270 334 394
#     4  10  20  35  58  89 129 170 213 269 327 385
#
# _framework density 10.370369999999999
#
# number of rings (size 3 to 8) (size 9 to 14) (size 15 to 20)
#    0.000    1.571    1.429    3.429    2.000    5.714 
#    0.000    0.000    0.000    1.714    0.000    0.000 
#    0.000    0.000    0.000    0.000    0.000    0.000 
#
# Total GULP energy -155875.015966 kJ/mol
# GULP energy per Si atom -5566.964856 kJ/mol
# Density = 1.034677 g / cm^3
# Si number density = 10.370370 Si / 1000 Ang^3
#
#
#
# Elastic Constant Matrix: (Units=GPa)
#
#
# Indices 1 2 3 4 5 6 
#
# 1 85.2404 27.9020 43.0336 0.0000 0.0000 0.0000
# 2 27.9020 115.6998 38.9084 0.0000 0.0000 0.0000
# 3 43.0336 38.9084 98.0709 0.0000 0.0000 0.0000
# 4 0.0000 0.0000 0.0000 32.9212 0.0000 0.0000
# 5 0.0000 0.0000 0.0000 0.0000 40.4802 0.0000
# 6 0.0000 0.0000 0.0000 0.0000 0.0000 6.5080
#
#
#
# Elastic Compliance Matrix: (Units=1/GPa)
#
#
# Indices 1 2 3 4 5 6 
#
# 1 0.015340 -0.001657 -0.006074 0.000000 0.000000 0.000000
# 2 -0.001657 0.010153 -0.003301 0.000000 0.000000 0.000000
# 3 -0.006074 -0.003301 0.014172 0.000000 0.000000 0.000000
# 4 0.000000 0.000000 0.000000 0.030376 0.000000 0.000000
# 5 0.000000 0.000000 0.000000 0.000000 0.024703 0.000000
# 6 0.000000 0.000000 0.000000 0.000000 0.000000 0.153658
#
#
# Mechanical properties :
#
#
# Convention : Reuss Voigt Hill
#
# Bulk Modulus (GPa) = 56.81485 57.63324 57.22405
# Shear Modulus (GPa) = 18.09415 28.59299 23.34357
#
# Velocity S-wave (km/s) = 2.95684 3.71697 3.35848
# Velocity P-wave (km/s) = 6.25376 6.80212 6.53370
#
# Compressibility (1/GPa) = 0.01760103
#
# Stress axis : x y z
#
# Youngs Moduli (GPa) = 65.18762 98.49614 70.56366
#
# Poissons Ratio (x) = 0.16319 0.42861
# Poissons Ratio (y) = 0.10801 0.23293
# Poissons Ratio (z) = 0.39595 0.32513
#
# Static dielectric constant tensor:
#      x y z
#    x 1.806640 0.000000 0.000000 
#    y 0.000000 1.790800 0.000000 
#    z 0.000000 0.000000 1.733650 
# 
# From -- ./inp_files/12984.got.cif
#   From: 2010.05.17/outbox.ucp.g08.bks.cvg/sg35_7_cif.got.tgz:12984.got - 2010.06.11 10:36:28.
