data_PCOD9350485
_publ_section_title
;
Structure prediction by ZEFSAII (Michael W. Deem and Ramdas Pophale) SiO2 
 PCOD9350485
Probable space group: C M C 21
;
_chemical_formula_sum "Si O2"
_cell_formula_units_Z 64
_cell_length_a 30.543913
_cell_length_b 8.915090
_cell_length_c 11.186471
_cell_angle_alpha 90.000000
_cell_angle_beta 90.000000
_cell_angle_gamma 90.000000
_cell_volume 3046.095443
_symmetry_space_group_name_H-M "C M C 21"
_symmetry_group_IT_number 36
_symmetry_cell_setting 'orthorhombic'
loop_
_space_group_symop_operation_xyz
x,y,z
-x,-y,1/2+z
x,-y,1/2+z
-x,y,z
1/2+x,1/2+y,z
1/2-x,1/2-y,1/2+z
1/2+x,1/2-y,1/2+z
1/2-x,1/2+y,z
loop_
_atom_site_type_symbol
_atom_site_label
_atom_site_fract_x
_atom_site_fract_y
_atom_site_fract_z
Si Si1 0.413298 0.807849 0.433880
Si Si2 0.948214 0.649035 0.691203
Si Si3 0.551786 0.850964 0.933840
Si Si4 0.224365 0.106713 0.195832
Si Si5 0.680754 0.829487 0.349140
Si Si6 0.913297 0.307848 0.691163
Si Si7 0.680755 0.170510 0.275900
Si Si8 0.224366 0.893283 0.429208
O O1 0.434764 0.760183 0.308805
O O2 0.361738 0.777838 0.419687
O O3 0.429128 0.749514 0.562522
O O4 0.423727 0.987602 0.435682
O O5 0.939071 0.722283 0.562522
O O6 0.923727 0.487601 0.689361
O O7 0.000000 0.616981 0.697910
O O8 0.500000 0.883015 0.927131
O O9 0.565237 0.760182 0.816239
O O10 0.190112 0.236563 0.228497
O O11 0.273669 0.172536 0.203582
O O12 0.217680 0.044330 0.062519
O O13 0.221107 0.999997 0.312519
O O14 0.726330 0.827462 0.421459
O O15 0.672729 0.999998 0.312519
O O16 0.861737 0.277838 0.705354
O O17 0.690113 0.263431 0.396545
#
# Coordination Sequence:
#
# PCOD9350485 Si02
#       8
#     8   8   8   8   8   8   8   8
#     4  10  17  26  44  69  96 130 170 212 254 306
#     4   9  17  28  41  64 104 144 169 201 260 324
#     4   9  17  28  41  64 104 144 169 201 260 324
#     4  10  23  39  55  75 105 144 183 230 282 330
#     4  10  20  34  54  78 105 136 180 226 273 323
#     4  10  17  26  44  69  96 130 170 212 254 306
#     4  10  20  34  54  78 105 136 180 226 273 323
#     4  10  23  39  55  75 105 144 183 230 282 330
#
# _framework density 21.010503
#
# number of rings (size 3 to 8) (size 9 to 14) (size 15 to 20)
#    0.000    2.250    2.500    2.250    0.000   13.500 
#    0.000    0.000    0.000    0.000    0.000    0.000 
#    0.000    4.000    0.000   11.000    0.000    2.500 
#
# Total GULP energy -178202.840086 kJ/mol
# GULP energy per Si atom -5568.838753 kJ/mol
# Density = 2.096268 g / cm^3
# Si number density = 21.010503 Si / 1000 Ang^3
#
#
#
# Elastic Constant Matrix: (Units=GPa)
#
#
# Indices 1 2 3 4 5 6 
#
# 1 85.3680 9.2132 39.1417 0.0000 0.0000 0.0000
# 2 9.2132 19.9913 22.1227 0.0000 0.0000 0.0000
# 3 39.1417 22.1227 239.5941 0.0000 0.0000 0.0000
# 4 0.0000 0.0000 0.0000 12.1352 0.0000 0.0000
# 5 0.0000 0.0000 0.0000 0.0000 12.7847 0.0000
# 6 0.0000 0.0000 0.0000 0.0000 0.0000 17.1352
#
#
#
# Elastic Compliance Matrix: (Units=1/GPa)
#
#
# Indices 1 2 3 4 5 6 
#
# 1 0.012949 -0.004039 -0.001742 0.000000 0.000000 0.000000
# 2 -0.004039 0.056975 -0.004601 0.000000 0.000000 0.000000
# 3 -0.001742 -0.004601 0.004883 0.000000 0.000000 0.000000
# 4 0.000000 0.000000 0.000000 0.082405 0.000000 0.000000
# 5 0.000000 0.000000 0.000000 0.000000 0.078218 0.000000
# 6 0.000000 0.000000 0.000000 0.000000 0.000000 0.058359
#
#
# Mechanical properties :
#
#
# Convention : Reuss Voigt Hill
#
# Bulk Modulus (GPa) = 18.50434 53.98986 36.24710
# Shear Modulus (GPa) = 15.03450 26.70942 20.87196
#
# Velocity S-wave (km/s) = 2.67792 3.56931 3.15525
# Velocity P-wave (km/s) = 4.28812 6.53751 5.52843
#
# Compressibility (1/GPa) = 0.05404137
#
# Stress axis : x y z
#
# Youngs Moduli (GPa) = 77.22691 17.55168 204.78417
#
# Poissons Ratio (x) = 0.07090 0.35682
# Poissons Ratio (y) = 0.31195 0.94217
# Poissons Ratio (z) = 0.13456 0.08075
#
# Static dielectric constant tensor:
#      x y z
#    x 1.743620 0.000000 0.000000 
#    y 0.000000 1.757060 0.000000 
#    z 0.000000 0.000000 1.842810 
# 
# From -- ./inp_files/9667.got.cif
#   From: 2010.05.17/outbox.cif.g08.bks.cpg/sg36_5_cif.got.tgz:9667.got - 2010.06.03 17:41:39.
