data_PCOD9350896
_publ_section_title
;
Structure prediction by ZEFSAII (Michael W. Deem and Ramdas Pophale) SiO2 
 PCOD9350896
Probable space group: C M C 21
;
_chemical_formula_sum "Si O2"
_cell_formula_units_Z 64
_cell_length_a 7.344121
_cell_length_b 25.837944
_cell_length_c 14.078054
_cell_angle_alpha 90.000000
_cell_angle_beta 90.000000
_cell_angle_gamma 90.000000
_cell_volume 2671.409112
_symmetry_space_group_name_H-M "C M C 21"
_symmetry_group_IT_number 36
_symmetry_cell_setting 'orthorhombic'
loop_
_space_group_symop_operation_xyz
x,y,z
-x,-y,1/2+z
x,-y,1/2+z
-x,y,z
1/2+x,1/2+y,z
1/2-x,1/2-y,1/2+z
1/2+x,1/2-y,1/2+z
1/2-x,1/2+y,z
loop_
_atom_site_type_symbol
_atom_site_label
_atom_site_fract_x
_atom_site_fract_y
_atom_site_fract_z
Si Si1 0.723606 0.287794 0.990830
Si Si2 0.779511 0.462671 0.029957
Si Si3 0.711047 0.546392 0.305735
Si Si4 0.784316 0.314894 0.586463
Si Si5 0.794917 0.863860 0.151784
Si Si6 0.777786 0.932775 0.312728
Si Si7 0.789869 0.425209 0.534642
Si Si8 0.718393 0.661848 0.292260
O O1 0.500000 0.289458 0.990127
O O2 0.782715 0.312147 0.890545
O O3 0.782598 0.229794 0.016491
O O4 0.786594 0.322344 0.080213
O O5 0.700959 0.416505 0.090799
O O6 0.713658 0.519113 0.063557
O O7 0.000000 0.460953 0.033500
O O8 0.723050 0.454862 0.920641
O O9 0.500000 0.546663 0.277030
O O10 0.786535 0.489758 0.277792
O O11 0.788823 0.602667 0.278379
O O12 0.704985 0.371810 0.568328
O O13 0.759588 0.304922 0.698512
O O14 0.000000 0.317968 0.568314
O O15 0.712360 0.884823 0.249299
O O16 0.000000 0.845780 0.173248
O O17 0.718008 0.925935 0.420574
O O18 0.000000 0.933485 0.310466
O O19 0.000000 0.425886 0.565649
O O20 0.500000 0.657799 0.300568
#
# Coordination Sequence:
#
# PCOD9350896 Si02
#       8
#     8   8   8   8   8   8   8   8
#     4   9  19  38  59  77 106 147 184 220 270 326
#     4  10  19  31  50  78 109 142 178 220 269 322
#     4   9  17  33  53  77 109 143 179 221 272 323
#     4  10  22  39  58  80 108 148 187 222 274 330
#     4  10  19  34  55  80 109 144 182 223 272 326
#     4   9  19  32  53  83 111 144 185 224 269 324
#     4   9  20  37  52  74 112 148 178 218 274 329
#     4  10  20  36  58  83 108 140 183 230 274 322
#
# _framework density 23.957391999999999
#
# number of rings (size 3 to 8) (size 9 to 14) (size 15 to 20)
#    0.000    2.500    1.250    0.375    1.750    3.000 
#    0.000    1.250    0.000    0.000    0.000    0.000 
#    0.000    0.000    0.000    0.000    0.000    0.000 
#
# Total GULP energy -178715.240566 kJ/mol
# GULP energy per Si atom -5584.851268 kJ/mol
# Density = 2.390286 g / cm^3
# Si number density = 23.957392 Si / 1000 Ang^3
#
#
#
# Elastic Constant Matrix: (Units=GPa)
#
#
# Indices 1 2 3 4 5 6 
#
# 1 104.4061 4.9718 -11.2219 0.0000 0.0000 0.0000
# 2 4.9718 106.9285 24.5765 0.0000 0.0000 0.0000
# 3 -11.2219 24.5765 78.9007 0.0000 0.0000 0.0000
# 4 0.0000 0.0000 0.0000 31.4630 0.0000 0.0000
# 5 0.0000 0.0000 0.0000 0.0000 18.4102 0.0000
# 6 0.0000 0.0000 0.0000 0.0000 0.0000 -15.1596
#
#
#
# Elastic Compliance Matrix: (Units=1/GPa)
#
#
# Indices 1 2 3 4 5 6 
#
# 1 0.009795 -0.000835 0.001653 0.000000 0.000000 0.000000
# 2 -0.000835 0.010144 -0.003279 0.000000 0.000000 0.000000
# 3 0.001653 -0.003279 0.013931 0.000000 0.000000 0.000000
# 4 0.000000 0.000000 0.000000 0.031783 0.000000 0.000000
# 5 0.000000 0.000000 0.000000 0.000000 0.054318 0.000000
# 6 0.000000 0.000000 0.000000 0.000000 0.000000 -0.065965
#
#
# Mechanical properties :
#
#
# Convention : Reuss Voigt Hill
#
# Bulk Modulus (GPa) = 34.54343 36.32090 35.43217
# Shear Modulus (GPa) = 72.90986 25.06999 48.98992
#
# Velocity S-wave (km/s) = 5.52261 3.23838 4.52694
# Velocity P-wave (km/s) = 7.42399 5.40152 6.49199
#
# Compressibility (1/GPa) = 0.02894906
#
# Stress axis : x y z
#
# Youngs Moduli (GPa) = 102.08787 98.57591 71.78448
#
# Poissons Ratio (x) = 0.08236 -0.11869
# Poissons Ratio (y) = 0.08529 0.23536
# Poissons Ratio (z) = -0.16880 0.32320
#
# Static dielectric constant tensor:
#      x y z
#    x 1.887680 0.000000 0.000000 
#    y 0.000000 1.918920 0.000000 
#    z 0.000000 0.000000 1.897570 
# 
# From -- ./inp_files/10936.got.cif
#   From: 2010.05.17/outbox.cif.g08.bks.cpg/sg36_6_cif.got.tgz:10936.got - 2010.06.03 17:41:39.
