data_PCOD9350685
_publ_section_title
;
Structure prediction by ZEFSAII (Michael W. Deem and Ramdas Pophale) SiO2 
 PCOD9350685
Probable space group: C M C 21
;
_chemical_formula_sum "Si O2"
_cell_formula_units_Z 52
_cell_length_a 8.446518
_cell_length_b 19.135063
_cell_length_c 12.837513
_cell_angle_alpha 90.000000
_cell_angle_beta 90.000000
_cell_angle_gamma 90.000000
_cell_volume 2074.858598
_symmetry_space_group_name_H-M "C M C 21"
_symmetry_group_IT_number 36
_symmetry_cell_setting 'orthorhombic'
loop_
_space_group_symop_operation_xyz
x,y,z
-x,-y,1/2+z
x,-y,1/2+z
-x,y,z
1/2+x,1/2+y,z
1/2-x,1/2-y,1/2+z
1/2+x,1/2-y,1/2+z
1/2-x,1/2+y,z
loop_
_atom_site_type_symbol
_atom_site_label
_atom_site_fract_x
_atom_site_fract_y
_atom_site_fract_z
Si Si1 0.172234 0.162378 0.319040
Si Si2 0.332057 0.551684 0.140680
Si Si3 0.000000 0.548572 0.120430
Si Si4 0.319620 0.271421 0.166737
Si Si5 0.674985 0.691375 0.000128
Si Si6 0.000000 0.457234 0.388327
Si Si7 0.183919 0.892620 0.297464
Si Si8 0.500000 0.883233 0.849603
O O1 0.165224 0.089674 0.252553
O O2 0.200655 0.223154 0.233672
O O3 0.338132 0.155753 0.378116
O O4 0.000000 0.170829 0.369013
O O5 0.500000 0.515557 0.121956
O O6 0.320963 0.616550 0.060376
O O7 0.168889 0.510815 0.128607
O O8 0.000000 0.600973 0.221370
O O9 0.000000 0.578353 0.002684
O O10 0.500000 0.257667 0.200665
O O11 0.298736 0.243170 0.050644
O O12 0.293209 0.352856 0.188523
O O13 0.500000 0.720232 0.018482
O O14 0.692282 0.670907 0.880947
O O15 0.164244 0.437911 0.330438
O O16 0.000000 0.540426 0.400087
O O17 0.000000 0.920095 0.306401
#
# Coordination Sequence:
#
# PCOD9350685 Si02
#       8
#     8   8   4   8   8   4   8   4
#     4   9  17  31  53  79 109 142 186 235 283 328
#     4   8  14  25  45  75 101 127 170 229 272 306
#     4  10  18  32  56  78 102 142 188 242 275 319
#     4  10  19  32  56  87 121 150 188 245 290 347
#     4   9  17  30  49  77 112 148 189 234 283 334
#     4  12  24  36  64  84 114 158 197 239 292 364
#     4  10  23  37  53  88 124 151 191 240 298 348
#     4  10  22  38  56  88 112 146 201 245 287 333
#
# _framework density 25.061948000000001
#
# number of rings (size 3 to 8) (size 9 to 14) (size 15 to 20)
#    0.000    2.462    2.308    1.385    6.462    0.615 
#    0.000    0.000    3.385    0.000    0.000    0.000 
#    0.000    0.000    0.000    0.000    0.000    0.000 
#
# Total GULP energy -145065.203408 kJ/mol
# GULP energy per Si atom -5579.430900 kJ/mol
# Density = 2.500491 g / cm^3
# Si number density = 25.061948 Si / 1000 Ang^3
#
#
#
# Elastic Constant Matrix: (Units=GPa)
#
#
# Indices 1 2 3 4 5 6 
#
# 1 264.6382 47.7000 16.6488 0.0000 0.0000 0.0000
# 2 47.7000 49.5412 29.1642 0.0000 0.0000 0.0000
# 3 16.6488 29.1642 62.2948 0.0000 0.0000 0.0000
# 4 0.0000 0.0000 0.0000 30.9146 0.0000 0.0000
# 5 0.0000 0.0000 0.0000 0.0000 9.6987 0.0000
# 6 0.0000 0.0000 0.0000 0.0000 0.0000 -64.7525
#
#
#
# Elastic Compliance Matrix: (Units=1/GPa)
#
#
# Indices 1 2 3 4 5 6 
#
# 1 0.004634 -0.005152 0.001174 0.000000 0.000000 0.000000
# 2 -0.005152 0.033594 -0.014350 0.000000 0.000000 0.000000
# 3 0.001174 -0.014350 0.022457 0.000000 0.000000 0.000000
# 4 0.000000 0.000000 0.000000 0.032347 0.000000 0.000000
# 5 0.000000 0.000000 0.000000 0.000000 0.103107 0.000000
# 6 0.000000 0.000000 0.000000 0.000000 0.000000 -0.015443
#
#
# Mechanical properties :
#
#
# Convention : Reuss Voigt Hill
#
# Bulk Modulus (GPa) = 41.62013 62.61114 52.11563
# Shear Modulus (GPa) = 22.18649 14.03625 18.11137
#
# Velocity S-wave (km/s) = 2.97857 2.36913 2.69116
# Velocity P-wave (km/s) = 5.33593 5.70267 5.52235
#
# Compressibility (1/GPa) = 0.02402684
#
# Stress axis : x y z
#
# Youngs Moduli (GPa) = 215.81507 29.76722 44.52883
#
# Poissons Ratio (x) = 0.15337 -0.05227
# Poissons Ratio (y) = 1.11196 0.63901
# Poissons Ratio (z) = -0.25332 0.42717
#
# Static dielectric constant tensor:
#      x y z
#    x 2.003020 0.000000 0.000000 
#    y 0.000000 1.965850 0.000000 
#    z 0.000000 0.000000 2.017750 
# 
# From -- ./inp_files/10815.got.cif
#   From: 2010.05.17/outbox.cif.g08.bks.cpg/sg36_6_cif.got.tgz:10815.got - 2010.06.03 17:41:39.
