data_PCOD9350239
_publ_section_title
;
Structure prediction by ZEFSAII (Michael W. Deem and Ramdas Pophale) SiO2 
 PCOD9350239
Probable space group: C M M 2
;
_chemical_formula_sum "Si O2"
_cell_formula_units_Z 64
_cell_length_a 7.589084
_cell_length_b 29.107893
_cell_length_c 16.465142
_cell_angle_alpha 90.000000
_cell_angle_beta 90.000000
_cell_angle_gamma 90.000000
_cell_volume 3637.186833
_symmetry_space_group_name_H-M "C M M 2"
_symmetry_group_IT_number 35
_symmetry_cell_setting 'orthorhombic'
loop_
_space_group_symop_operation_xyz
x,y,z
-x,-y,z
-x,y,z
x,-y,z
1/2+x,1/2+y,z
1/2-x,1/2-y,z
1/2-x,1/2+y,z
1/2+x,1/2-y,z
loop_
_atom_site_type_symbol
_atom_site_label
_atom_site_fract_x
_atom_site_fract_y
_atom_site_fract_z
Si Si1 0.793195 0.396786 0.051450
Si Si2 0.206805 0.603214 0.726433
Si Si3 0.284244 0.946583 0.888942
Si Si4 0.794825 0.555823 0.388942
Si Si5 0.709201 0.698032 0.981448
Si Si6 0.216027 0.553523 0.211805
Si Si7 0.783973 0.446477 0.566079
Si Si8 0.709201 0.698032 0.796436
O O1 0.776666 0.342471 0.038221
O O2 0.721697 0.416394 0.135906
O O3 0.000000 0.408460 0.052826
O O4 0.720626 0.421241 0.970404
O O5 0.279373 0.578759 0.807479
O O6 0.278303 0.583606 0.641977
O O7 0.223334 0.657529 0.739662
O O8 0.000000 0.591540 0.725057
O O9 0.500000 0.944260 0.888942
O O10 0.235964 0.000000 0.888942
O O11 0.792106 0.500000 0.388942
O O12 0.720176 0.569224 0.301078
O O13 0.720176 0.569224 0.476805
O O14 0.000000 0.570052 0.388942
O O15 0.500000 0.693271 0.977667
O O16 0.750000 0.750000 0.007210
O O17 0.780324 0.692174 0.888942
O O18 0.263470 0.500000 0.199305
O O19 0.000000 0.554747 0.215034
O O20 0.736530 0.500000 0.578579
O O21 0.000000 0.445253 0.562850
O O22 0.500000 0.693271 0.800217
O O23 0.750000 0.750000 0.770674
#
# Coordination Sequence:
#
# PCOD9350239 Si02
#       8
#     8   8   8   8   8   8   8   8
#     4  10  17  26  42  64  88 114 145 177 211 249
#     4  10  17  26  42  64  88 114 145 177 211 249
#     4   9  16  24  36  57  86 117 146 173 198 233
#     4   7  10  18  32  54  86 117 144 179 216 241
#     4  10  20  33  48  63  82 108 141 179 219 259
#     4   8  13  21  36  60  89 119 149 179 209 244
#     4   8  13  21  36  60  89 119 149 179 209 244
#     4  10  20  33  48  63  82 108 141 179 219 259
#
# _framework density 17.596015000000001
#
# number of rings (size 3 to 8) (size 9 to 14) (size 15 to 20)
#    0.000    3.000    1.250    3.000    0.000    4.000 
#    0.000    0.000    0.000    3.750    0.000    1.750 
#    0.000    3.000    0.000    0.000    0.000    0.000 
#
# Total GULP energy -178316.793098 kJ/mol
# GULP energy per Si atom -5572.399784 kJ/mol
# Density = 1.755597 g / cm^3
# Si number density = 17.596015 Si / 1000 Ang^3
#
#
#
# Elastic Constant Matrix: (Units=GPa)
#
#
# Indices 1 2 3 4 5 6 
#
# 1 37.3784 -10.0453 8.2133 0.0000 0.0000 0.0000
# 2 -10.0453 96.3734 88.6249 0.0000 0.0000 0.0000
# 3 8.2133 88.6249 188.7853 0.0000 0.0000 0.0000
# 4 0.0000 0.0000 0.0000 12.9582 0.0000 0.0000
# 5 0.0000 0.0000 0.0000 0.0000 -4.1677 0.0000
# 6 0.0000 0.0000 0.0000 0.0000 0.0000 7.0093
#
#
#
# Elastic Compliance Matrix: (Units=1/GPa)
#
#
# Indices 1 2 3 4 5 6 
#
# 1 0.029857 0.007578 -0.004856 0.000000 0.000000 0.000000
# 2 0.007578 0.020182 -0.009804 0.000000 0.000000 0.000000
# 3 -0.004856 -0.009804 0.010111 0.000000 0.000000 0.000000
# 4 0.000000 0.000000 0.000000 0.077171 0.000000 0.000000
# 5 0.000000 0.000000 0.000000 0.000000 -0.239938 0.000000
# 6 0.000000 0.000000 0.000000 0.000000 0.000000 0.142667
#
#
# Mechanical properties :
#
#
# Convention : Reuss Voigt Hill
#
# Bulk Modulus (GPa) = 21.74620 55.12475 38.43548
# Shear Modulus (GPa) = 71.89752 18.87624 45.38688
#
# Velocity S-wave (km/s) = 6.39913 3.27885 5.08427
# Velocity P-wave (km/s) = 8.18437 6.76243 7.50714
#
# Compressibility (1/GPa) = 0.04598504
#
# Stress axis : x y z
#
# Youngs Moduli (GPa) = 33.49285 49.54897 98.90381
#
# Poissons Ratio (x) = -0.37549 0.48033
# Poissons Ratio (y) = -0.25381 0.96966
# Poissons Ratio (z) = 0.16266 0.48578
#
# Static dielectric constant tensor:
#      x y z
#    x 1.662720 0.000000 0.000000 
#    y 0.000000 1.569530 0.000000 
#    z 0.000000 0.000000 1.638860 
# 
# From -- ./inp_files/16237.got.cif
#   From: 2010.05.17/outbox.cif.g08.bks.cpg/sg35_9_cif.got.tgz:16237.got - 2010.06.03 17:29:28.
