data_PCOD9350505
_publ_section_title
;
Structure prediction by ZEFSAII (Michael W. Deem and Ramdas Pophale) SiO2 
 PCOD9350505
Probable space group: C M C 21
;
_chemical_formula_sum "Si O2"
_cell_formula_units_Z 64
_cell_length_a 16.467980
_cell_length_b 11.686165
_cell_length_c 15.708518
_cell_angle_alpha 90.000000
_cell_angle_beta 90.000000
_cell_angle_gamma 90.000000
_cell_volume 3023.065513
_symmetry_space_group_name_H-M "C M C 21"
_symmetry_group_IT_number 36
_symmetry_cell_setting 'orthorhombic'
loop_
_space_group_symop_operation_xyz
x,y,z
-x,-y,1/2+z
x,-y,1/2+z
-x,y,z
1/2+x,1/2+y,z
1/2-x,1/2-y,1/2+z
1/2+x,1/2-y,1/2+z
1/2-x,1/2+y,z
loop_
_atom_site_type_symbol
_atom_site_label
_atom_site_fract_x
_atom_site_fract_y
_atom_site_fract_z
Si Si1 0.409384 0.951609 0.645170
Si Si2 0.406031 0.079249 0.462779
Si Si3 0.185174 0.781067 0.546794
Si Si4 0.710568 0.757781 0.249255
Si Si5 0.630207 0.752834 0.536557
Si Si6 0.910649 0.367508 0.366481
Si Si7 0.097332 0.001505 0.598344
Si Si8 0.739470 0.501813 0.239041
O O1 0.500000 0.969980 0.681067
O O2 0.408116 0.012495 0.553067
O O3 0.399138 0.817949 0.621507
O O4 0.328727 0.992836 0.693438
O O5 0.500000 0.108463 0.442513
O O6 0.371914 0.989920 0.393131
O O7 0.352548 0.187626 0.484554
O O8 0.196277 0.744340 0.646849
O O9 0.278176 0.796262 0.521151
O O10 0.127753 0.891353 0.545785
O O11 0.628217 0.788925 0.296187
O O12 0.736554 0.630441 0.278502
O O13 0.762955 0.871117 0.274632
O O14 0.585589 0.795939 0.453280
O O15 0.619191 0.618966 0.550369
O O16 0.000000 0.397471 0.339372
O O17 0.159779 0.997353 0.678066
O O18 0.000000 0.996787 0.615791
#
# Coordination Sequence:
#
# PCOD9350505 Si02
#       8
#     8   8   8   8   8   8   8   8
#     4  10  17  31  58  87 118 157 211 271 317 366
#     4   9  18  34  57  86 117 157 211 264 314 379
#     4  11  21  36  65  93 127 163 221 274 325 381
#     4  11  23  39  63  87 136 167 210 274 333 394
#     4  11  20  38  61  90 127 169 214 272 318 401
#     4  10  24  41  62  92 127 170 216 268 340 410
#     4  11  21  35  61  96 132 165 210 272 332 389
#     4  11  21  40  58  97 124 168 217 269 327 394
#
# _framework density 21.170563999999999
#
# number of rings (size 3 to 8) (size 9 to 14) (size 15 to 20)
#    0.000    1.500    5.000    2.250    1.750    4.000 
#    0.000    0.000    0.000    0.000    0.000    0.000 
#    0.000    0.000    0.000    0.000    0.000    0.000 
#
# Total GULP energy -178246.340576 kJ/mol
# GULP energy per Si atom -5570.198143 kJ/mol
# Density = 2.112238 g / cm^3
# Si number density = 21.170564 Si / 1000 Ang^3
#
#
#
# Elastic Constant Matrix: (Units=GPa)
#
#
# Indices 1 2 3 4 5 6 
#
# 1 134.7590 24.5953 14.6383 0.0000 0.0000 0.0000
# 2 24.5953 149.8024 12.9403 0.0000 0.0000 0.0000
# 3 14.6383 12.9403 24.9933 0.0000 0.0000 0.0000
# 4 0.0000 0.0000 0.0000 24.5509 0.0000 0.0000
# 5 0.0000 0.0000 0.0000 0.0000 22.8432 0.0000
# 6 0.0000 0.0000 0.0000 0.0000 0.0000 13.1852
#
#
#
# Elastic Compliance Matrix: (Units=1/GPa)
#
#
# Indices 1 2 3 4 5 6 
#
# 1 0.008054 -0.000958 -0.004221 0.000000 0.000000 0.000000
# 2 -0.000958 0.007102 -0.003116 0.000000 0.000000 0.000000
# 3 -0.004221 -0.003116 0.044096 0.000000 0.000000 0.000000
# 4 0.000000 0.000000 0.000000 0.040732 0.000000 0.000000
# 5 0.000000 0.000000 0.000000 0.000000 0.043777 0.000000
# 6 0.000000 0.000000 0.000000 0.000000 0.000000 0.075843
#
#
# Mechanical properties :
#
#
# Convention : Reuss Voigt Hill
#
# Bulk Modulus (GPa) = 23.44000 45.98919 34.71459
# Shear Modulus (GPa) = 19.96693 29.27458 24.62076
#
# Velocity S-wave (km/s) = 3.07440 3.72263 3.41394
# Velocity P-wave (km/s) = 4.86812 6.34410 5.65448
#
# Compressibility (1/GPa) = 0.04266212
#
# Stress axis : x y z
#
# Youngs Moduli (GPa) = 124.16201 140.80779 22.67757
#
# Poissons Ratio (x) = 0.13485 0.09573
# Poissons Ratio (y) = 0.11891 0.07067
# Poissons Ratio (z) = 0.52412 0.43877
#
# Static dielectric constant tensor:
#      x y z
#    x 1.771960 0.000000 0.000000 
#    y 0.000000 1.825770 0.000000 
#    z 0.000000 0.000000 1.789090 
# 
# From -- ./inp_files/14716.got.cif
#   From: 2010.05.17/outbox.cif.g08.bks.cpg/sg36_8_cif.got.tgz:14716.got - 2010.06.03 17:41:39.
