data_PCOD9350426
_publ_section_title
;
Structure prediction by ZEFSAII (Michael W. Deem and Ramdas Pophale) SiO2 
 PCOD9350426
Probable space group: C M M 2
;
_chemical_formula_sum "Si O2"
_cell_formula_units_Z 40
_cell_length_a 14.727001
_cell_length_b 19.122882
_cell_length_c 8.030236
_cell_angle_alpha 90.000000
_cell_angle_beta 90.000000
_cell_angle_gamma 90.000000
_cell_volume 2261.496763
_symmetry_space_group_name_H-M "C M M 2"
_symmetry_group_IT_number 35
_symmetry_cell_setting 'orthorhombic'
loop_
_space_group_symop_operation_xyz
x,y,z
-x,-y,z
-x,y,z
x,-y,z
1/2+x,1/2+y,z
1/2-x,1/2-y,z
1/2-x,1/2+y,z
1/2+x,1/2-y,z
loop_
_atom_site_type_symbol
_atom_site_label
_atom_site_fract_x
_atom_site_fract_y
_atom_site_fract_z
Si Si1 0.892757 0.691792 0.861630
Si Si2 0.223842 0.331363 0.538673
Si Si3 0.897560 0.851614 0.981122
Si Si4 0.275383 0.832420 0.172544
Si Si5 0.898952 0.918567 0.633714
O O1 0.843276 0.663991 0.695976
O O2 0.879007 0.775990 0.890818
O O3 0.000000 0.680195 0.853169
O O4 0.846595 0.657827 0.023899
O O5 0.250000 0.250000 0.534383
O O6 0.188579 0.351433 0.354881
O O7 0.315659 0.375026 0.563342
O O8 0.894968 0.907323 0.832999
O O9 0.000000 0.847753 0.050222
O O10 0.820216 0.865908 0.116129
O O11 0.250000 0.750000 0.178094
O O12 0.000000 0.893219 0.581836
O O13 0.891258 0.000000 0.592581
#
# Coordination Sequence:
#
# PCOD9350426 Si02
#       5
#     8   8   8   8   8
#     4  10  18  31  51  77 107 135 173 226 272 310
#     4  11  19  32  55  79 106 143 183 222 270 317
#     4   9  16  31  51  73 106 141 173 215 267 319
#     4   9  18  30  48  77 107 135 176 225 269 318
#     4  10  20  34  54  81 113 146 178 215 266 329
#
# _framework density 17.6874
#
# number of rings (size 3 to 8) (size 9 to 14) (size 15 to 20)
#    0.000    2.200    4.000    0.600    0.000    1.600 
#    0.000    5.000    0.000    3.000    0.000    0.000 
#    0.000    0.000    0.000    0.000    0.000    0.000 
#
# Total GULP energy -111391.572652 kJ/mol
# GULP energy per Si atom -5569.578633 kJ/mol
# Density = 1.764714 g / cm^3
# Si number density = 17.687400 Si / 1000 Ang^3
#
#
#
# Elastic Constant Matrix: (Units=GPa)
#
#
# Indices 1 2 3 4 5 6 
#
# 1 115.3381 29.6289 77.1136 0.0000 0.0000 0.0000
# 2 29.6289 31.8783 9.2914 0.0000 0.0000 0.0000
# 3 77.1136 9.2914 153.0477 0.0000 0.0000 0.0000
# 4 0.0000 0.0000 0.0000 -10.8690 0.0000 0.0000
# 5 0.0000 0.0000 0.0000 0.0000 5.9286 0.0000
# 6 0.0000 0.0000 0.0000 0.0000 0.0000 17.9036
#
#
#
# Elastic Compliance Matrix: (Units=1/GPa)
#
#
# Indices 1 2 3 4 5 6 
#
# 1 0.017665 -0.014073 -0.008046 0.000000 0.000000 0.000000
# 2 -0.014073 0.043146 0.004472 0.000000 0.000000 0.000000
# 3 -0.008046 0.004472 0.010317 0.000000 0.000000 0.000000
# 4 0.000000 0.000000 0.000000 -0.092005 0.000000 0.000000
# 5 0.000000 0.000000 0.000000 0.000000 0.168674 0.000000
# 6 0.000000 0.000000 0.000000 0.000000 0.000000 0.055855
#
#
# Mechanical properties :
#
#
# Convention : Reuss Voigt Hill
#
# Bulk Modulus (GPa) = 27.90816 59.14798 43.52807
# Shear Modulus (GPa) = 19.92894 14.87466 17.40180
#
# Velocity S-wave (km/s) = 3.36032 2.90310 3.14005
# Velocity P-wave (km/s) = 5.55594 6.68960 6.14895
#
# Compressibility (1/GPa) = 0.03583181
#
# Stress axis : x y z
#
# Youngs Moduli (GPa) = 56.60909 23.17699 96.93164
#
# Poissons Ratio (x) = 0.32618 0.77993
# Poissons Ratio (y) = 0.79668 -0.43343
# Poissons Ratio (z) = 0.45549 -0.10364
#
# Static dielectric constant tensor:
#      x y z
#    x 1.614470 0.000000 0.000000 
#    y 0.000000 1.601550 0.000000 
#    z 0.000000 0.000000 1.644520 
# 
# From -- ./inp_files/6081.got.cif
#   From: 2010.05.17/outbox.cif.g08.bks.cpg/sg35_4_cif.got.tgz:6081.got - 2010.06.03 17:29:28.
