data_PCOD9350526
_publ_section_title
;
Structure prediction by ZEFSAII (Michael W. Deem and Ramdas Pophale) SiO2 
 PCOD9350526
Probable space group: C M C 21
;
_chemical_formula_sum "Si O2"
_cell_formula_units_Z 40
_cell_length_a 18.872755
_cell_length_b 14.912274
_cell_length_c 5.630114
_cell_angle_alpha 90.000000
_cell_angle_beta 90.000000
_cell_angle_gamma 90.000000
_cell_volume 1584.515039
_symmetry_space_group_name_H-M "C M C 21"
_symmetry_group_IT_number 36
_symmetry_cell_setting 'orthorhombic'
loop_
_space_group_symop_operation_xyz
x,y,z
-x,-y,1/2+z
x,-y,1/2+z
-x,y,z
1/2+x,1/2+y,z
1/2-x,1/2-y,1/2+z
1/2+x,1/2-y,1/2+z
1/2-x,1/2+y,z
loop_
_atom_site_type_symbol
_atom_site_label
_atom_site_fract_x
_atom_site_fract_y
_atom_site_fract_z
Si Si1 0.841902 0.450985 0.111170
Si Si2 0.419083 0.240301 0.611171
Si Si3 0.815396 0.014655 0.111170
Si Si4 0.919346 0.254980 0.611171
Si Si5 0.233843 0.299504 0.611170
O O1 0.862564 0.500000 0.361170
O O2 0.873132 0.350485 0.111170
O O3 0.755622 0.450974 0.111170
O O4 0.500000 0.208196 0.611171
O O5 0.410887 0.292892 0.364543
O O6 0.410887 0.292892 0.857799
O O7 0.779932 0.112002 0.111170
O O8 0.853278 0.000000 0.361170
O O9 0.850476 0.318247 0.611170
O O10 0.000000 0.292423 0.611171
O O11 0.250000 0.250000 0.361170
#
# Coordination Sequence:
#
# PCOD9350526 Si02
#       5
#     8   8   8   8   8
#     4  10  18  27  42  63  93 133 178 218 258 293
#     4  10  19  31  49  74 104 142 188 226 256 302
#     4  10  19  34  54  76 109 151 188 229 277 331
#     4  10  20  36  55  75 107 149 188 225 270 331
#     4  12  24  38  58  86 119 151 193 242 287 335
#
# _framework density 25.244315
#
# number of rings (size 3 to 8) (size 9 to 14) (size 15 to 20)
#    0.000    1.600    0.000    8.400    0.000    0.800 
#    0.000    1.000    0.000    1.200    0.000    0.000 
#    0.000   16.000    0.000    0.000    0.000    0.000 
#
# Total GULP energy -111529.847292 kJ/mol
# GULP energy per Si atom -5576.492365 kJ/mol
# Density = 2.518686 g / cm^3
# Si number density = 25.244315 Si / 1000 Ang^3
#
#
#
# Elastic Constant Matrix: (Units=GPa)
#
#
# Indices 1 2 3 4 5 6 
#
# 1 115.6469 13.4182 6.4465 0.0000 0.0000 0.0000
# 2 13.4182 76.1869 52.8906 0.0000 0.0000 0.0000
# 3 6.4465 52.8906 366.6851 0.0000 0.0000 0.0000
# 4 0.0000 0.0000 0.0000 33.7767 0.0000 0.0000
# 5 0.0000 0.0000 0.0000 0.0000 20.1884 0.0000
# 6 0.0000 0.0000 0.0000 0.0000 0.0000 14.7943
#
#
#
# Elastic Compliance Matrix: (Units=1/GPa)
#
#
# Indices 1 2 3 4 5 6 
#
# 1 0.008829 -0.001608 0.000077 0.000000 0.000000 0.000000
# 2 -0.001608 0.014879 -0.002118 0.000000 0.000000 0.000000
# 3 0.000077 -0.002118 0.003031 0.000000 0.000000 0.000000
# 4 0.000000 0.000000 0.000000 0.029606 0.000000 0.000000
# 5 0.000000 0.000000 0.000000 0.000000 0.049533 0.000000
# 6 0.000000 0.000000 0.000000 0.000000 0.000000 0.067593
#
#
# Mechanical properties :
#
#
# Convention : Reuss Voigt Hill
#
# Bulk Modulus (GPa) = 51.43808 78.22549 64.83178
# Shear Modulus (GPa) = 26.70199 46.13612 36.41906
#
# Velocity S-wave (km/s) = 3.25582 4.27966 3.80236
# Velocity P-wave (km/s) = 5.87828 7.44818 6.70930
#
# Compressibility (1/GPa) = 0.01944085
#
# Stress axis : x y z
#
# Youngs Moduli (GPa) = 113.25868 67.20804 329.89465
#
# Poissons Ratio (x) = 0.10809 -0.02532
# Poissons Ratio (y) = 0.18216 0.69868
# Poissons Ratio (z) = -0.00869 0.14234
#
# Static dielectric constant tensor:
#      x y z
#    x 2.004400 0.000000 0.000000 
#    y 0.000000 1.970440 0.000000 
#    z 0.000000 0.000000 2.150910 
# 
# From -- ./inp_files/1304.got.cif
#   From: 2010.05.17/outbox.cif.g08.bks.cpg/sg36_1_cif.got.tgz:1304.got - 2010.06.03 17:41:39.
