data_PCOD9350960
_publ_section_title
;
Structure prediction by ZEFSAII (Michael W. Deem and Ramdas Pophale) SiO2 
 PCOD9350960
Probable space group: C M C 21
;
_chemical_formula_sum "Si O2"
_cell_formula_units_Z 64
_cell_length_a 17.897724
_cell_length_b 7.356803
_cell_length_c 21.475199
_cell_angle_alpha 90.000000
_cell_angle_beta 90.000000
_cell_angle_gamma 90.000000
_cell_volume 2827.640088
_symmetry_space_group_name_H-M "C M C 21"
_symmetry_group_IT_number 36
_symmetry_cell_setting 'orthorhombic'
loop_
_space_group_symop_operation_xyz
x,y,z
-x,-y,1/2+z
x,-y,1/2+z
-x,y,z
1/2+x,1/2+y,z
1/2-x,1/2-y,1/2+z
1/2+x,1/2-y,1/2+z
1/2-x,1/2+y,z
loop_
_atom_site_type_symbol
_atom_site_label
_atom_site_fract_x
_atom_site_fract_y
_atom_site_fract_z
Si Si1 0.675973 0.114403 0.148830
Si Si2 0.682564 0.653907 0.367817
Si Si3 0.150277 0.956272 0.627540
Si Si4 0.580228 0.141469 0.260757
Si Si5 0.164283 0.053001 0.497561
Si Si6 0.146128 0.429243 0.889641
Si Si7 0.581723 0.574980 0.252238
Si Si8 0.658650 0.983123 0.518633
O O1 0.653096 0.324221 0.137498
O O2 0.645329 0.062709 0.216764
O O3 0.643879 0.992545 0.091958
O O4 0.765172 0.107347 0.141710
O O5 0.651973 0.523537 0.423730
O O6 0.772247 0.650885 0.372505
O O7 0.658425 0.855748 0.384215
O O8 0.647444 0.617318 0.300781
O O9 0.129978 0.937936 0.554479
O O10 0.099335 0.872465 0.681223
O O11 0.500000 0.067042 0.240517
O O12 0.579004 0.357000 0.251611
O O13 0.591884 0.117965 0.333894
O O14 0.146940 0.266362 0.508747
O O15 0.253184 0.024385 0.508113
O O16 0.122670 0.404956 0.961709
O O17 0.500000 0.642688 0.273117
#
# Coordination Sequence:
#
# PCOD9350960 Si02
#       8
#     8   8   8   8   8   8   8   8
#     4   9  17  31  51  73  95 122 158 198 240 286
#     4  10  19  32  52  76 100 127 160 199 242 288
#     4   9  17  31  51  73  95 122 158 198 240 286
#     4  10  21  35  49  68  98 134 167 200 240 285
#     4   8  15  28  47  72  97 120 152 195 240 284
#     4  10  19  32  52  76 100 127 160 199 242 288
#     4  10  21  35  49  68  98 134 167 200 240 285
#     4   8  15  28  47  72  97 120 152 195 240 284
#
# _framework density 22.633716
#
# number of rings (size 3 to 8) (size 9 to 14) (size 15 to 20)
#    0.000    2.750    0.000    1.500    0.000    4.500 
#    0.000    1.250    0.000    4.500    0.000    0.000 
#    0.000    0.000    0.000    0.000    0.000    0.000 
#
# Total GULP energy -178381.040746 kJ/mol
# GULP energy per Si atom -5574.407523 kJ/mol
# Density = 2.258220 g / cm^3
# Si number density = 22.633716 Si / 1000 Ang^3
#
#
#
# Elastic Constant Matrix: (Units=GPa)
#
#
# Indices 1 2 3 4 5 6 
#
# 1 30.1930 -0.6171 21.4700 0.0000 0.0000 0.0000
# 2 -0.6171 43.4834 6.9795 0.0000 0.0000 0.0000
# 3 21.4700 6.9795 136.3516 0.0000 0.0000 0.0000
# 4 0.0000 0.0000 0.0000 26.8509 0.0000 0.0000
# 5 0.0000 0.0000 0.0000 0.0000 6.5006 0.0000
# 6 0.0000 0.0000 0.0000 0.0000 0.0000 0.5075
#
#
#
# Elastic Compliance Matrix: (Units=1/GPa)
#
#
# Indices 1 2 3 4 5 6 
#
# 1 0.037392 0.001488 -0.005964 0.000000 0.000000 0.000000
# 2 0.001488 0.023247 -0.001424 0.000000 0.000000 0.000000
# 3 -0.005964 -0.001424 0.008346 0.000000 0.000000 0.000000
# 4 0.000000 0.000000 0.000000 0.037243 0.000000 0.000000
# 5 0.000000 0.000000 0.000000 0.000000 0.153831 0.000000
# 6 0.000000 0.000000 0.000000 0.000000 0.000000 1.970602
#
#
# Mechanical properties :
#
#
# Convention : Reuss Voigt Hill
#
# Bulk Modulus (GPa) = 17.48738 29.52145 23.50441
# Shear Modulus (GPa) = 2.21090 18.91817 10.56453
#
# Velocity S-wave (km/s) = 0.98941 2.89423 2.16281
# Velocity P-wave (km/s) = 3.00804 4.92343 4.07973
#
# Compressibility (1/GPa) = 0.05718408
#
# Stress axis : x y z
#
# Youngs Moduli (GPa) = 26.74398 43.01630 119.81845
#
# Poissons Ratio (x) = -0.06400 0.71458
# Poissons Ratio (y) = -0.03979 0.17065
# Poissons Ratio (z) = 0.15950 0.06127
#
# Static dielectric constant tensor:
#      x y z
#    x 1.793220 0.000000 0.000000 
#    y 0.000000 1.919550 0.000000 
#    z 0.000000 0.000000 1.973930 
# 
# From -- ./inp_files/15817.got.cif
#   From: 2010.05.17/outbox.cif.g08.bks.cpg/sg36_8_cif.got.tgz:15817.got - 2010.06.03 17:41:39.
