data_PCOD9350209
_publ_section_title
;
Structure prediction by ZEFSAII (Michael W. Deem and Ramdas Pophale) SiO2 
 PCOD9350209
Probable space group: C M M 2
;
_chemical_formula_sum "Si O2"
_cell_formula_units_Z 56
_cell_length_a 8.610136
_cell_length_b 19.048954
_cell_length_c 19.137332
_cell_angle_alpha 90.000000
_cell_angle_beta 90.000000
_cell_angle_gamma 90.000000
_cell_volume 3138.791990
_symmetry_space_group_name_H-M "C M M 2"
_symmetry_group_IT_number 35
_symmetry_cell_setting 'orthorhombic'
loop_
_space_group_symop_operation_xyz
x,y,z
-x,-y,z
-x,y,z
x,-y,z
1/2+x,1/2+y,z
1/2-x,1/2-y,z
1/2-x,1/2+y,z
1/2+x,1/2-y,z
loop_
_atom_site_type_symbol
_atom_site_label
_atom_site_fract_x
_atom_site_fract_y
_atom_site_fract_z
Si Si1 0.812458 0.828922 0.274800
Si Si2 0.683870 0.171276 0.860068
Si Si3 0.189417 0.919160 0.143443
Si Si4 0.814963 0.829915 0.715183
Si Si5 0.814714 0.083963 0.987232
Si Si6 0.815046 0.330187 0.571544
Si Si7 0.313703 0.329891 0.428170
O O1 0.750000 0.750000 0.270122
O O2 0.756646 0.873278 0.208604
O O3 0.771760 0.859570 0.351632
O O4 0.000000 0.826369 0.272665
O O5 0.500000 0.175949 0.850684
O O6 0.750000 0.250000 0.869876
O O7 0.757877 0.139889 0.788942
O O8 0.727819 0.125128 0.926748
O O9 0.235320 0.894589 0.065788
O O10 0.000000 0.918663 0.143673
O O11 0.237591 0.000000 0.151734
O O12 0.750000 0.750000 0.716694
O O13 0.749009 0.862449 0.643585
O O14 0.000000 0.828186 0.712269
O O15 0.000000 0.096859 0.980576
O O16 0.791495 0.000000 0.981833
O O17 0.750000 0.250000 0.570834
O O18 0.757094 0.362681 0.498471
O O19 0.000000 0.327610 0.573238
O O20 0.500000 0.328289 0.435039
O O21 0.250000 0.250000 0.425610
#
# Coordination Sequence:
#
# PCOD9350209 Si02
#       7
#     8   8   8   8   8   8   8
#     4   9  17  28  44  67  94 122 153 191 234 276
#     4  11  21  33  49  71 100 129 160 198 241 287
#     4   8  15  30  51  71  91 119 156 194 231 276
#     4  10  17  27  42  62  90 121 154 191 233 279
#     4   9  18  34  54  73  95 125 161 199 240 288
#     4  10  16  23  36  56  84 118 153 186 225 273
#     4   9  15  23  35  55  84 116 149 185 225 270
#
# _framework density 17.841259000000001
#
# number of rings (size 3 to 8) (size 9 to 14) (size 15 to 20)
#    0.000    2.571    0.000    7.714    0.000    1.429 
#    0.000    2.143    0.000    1.286    0.000    1.000 
#    0.000    5.714    0.000    0.000    0.000    0.000 
#
# Total GULP energy -155974.201665 kJ/mol
# GULP energy per Si atom -5570.507202 kJ/mol
# Density = 1.780065 g / cm^3
# Si number density = 17.841259 Si / 1000 Ang^3
#
#
#
# Elastic Constant Matrix: (Units=GPa)
#
#
# Indices 1 2 3 4 5 6 
#
# 1 103.4112 15.4853 61.9218 0.0000 0.0000 0.0000
# 2 15.4853 16.1257 43.1944 0.0000 0.0000 0.0000
# 3 61.9218 43.1944 211.2801 0.0000 0.0000 0.0000
# 4 0.0000 0.0000 0.0000 -10.0403 0.0000 0.0000
# 5 0.0000 0.0000 0.0000 0.0000 24.9995 0.0000
# 6 0.0000 0.0000 0.0000 0.0000 0.0000 11.8155
#
#
#
# Elastic Compliance Matrix: (Units=1/GPa)
#
#
# Indices 1 2 3 4 5 6 
#
# 1 0.011881 -0.004602 -0.002541 0.000000 0.000000 0.000000
# 2 -0.004602 0.138863 -0.027041 0.000000 0.000000 0.000000
# 3 -0.002541 -0.027041 0.011006 0.000000 0.000000 0.000000
# 4 0.000000 0.000000 0.000000 -0.099598 0.000000 0.000000
# 5 0.000000 0.000000 0.000000 0.000000 0.040001 0.000000
# 6 0.000000 0.000000 0.000000 0.000000 0.000000 0.084634
#
#
# Mechanical properties :
#
#
# Convention : Reuss Voigt Hill
#
# Bulk Modulus (GPa) = 10.70869 63.55777 37.13323
# Shear Modulus (GPa) = 17.46530 19.36932 18.41731
#
# Velocity S-wave (km/s) = 3.13218 3.29849 3.21641
# Velocity P-wave (km/s) = 4.36989 7.08577 5.88660
#
# Compressibility (1/GPa) = 0.09338206
#
# Stress axis : x y z
#
# Youngs Moduli (GPa) = 84.16855 7.20134 90.85943
#
# Poissons Ratio (x) = 0.03314 0.23089
# Poissons Ratio (y) = 0.38737 2.45689
# Poissons Ratio (z) = 0.21388 0.19473
#
# Static dielectric constant tensor:
#      x y z
#    x 1.593610 0.000000 0.000000 
#    y 0.000000 1.576420 0.000000 
#    z 0.000000 0.000000 1.690820 
# 
# From -- ./inp_files/18274.got.cif
#   From: 2010.05.17/outbox.cif.g08.bks.cpg/sg35_10_cif.got.tgz:18274.got - 2010.06.03 17:29:28.
