data_PCOD9350030
_publ_section_title
;
Structure prediction by ZEFSAII (Michael W. Deem and Ramdas Pophale) SiO2 
 PCOD9350030
Probable space group: C M M 2
;
_chemical_formula_sum "Si O2"
_cell_formula_units_Z 40
_cell_length_a 18.807593
_cell_length_b 20.756728
_cell_length_c 4.992190
_cell_angle_alpha 90.000000
_cell_angle_beta 90.000000
_cell_angle_gamma 90.000000
_cell_volume 1948.871561
_symmetry_space_group_name_H-M "C M M 2"
_symmetry_group_IT_number 35
_symmetry_cell_setting 'orthorhombic'
loop_
_space_group_symop_operation_xyz
x,y,z
-x,-y,z
-x,y,z
x,-y,z
1/2+x,1/2+y,z
1/2-x,1/2-y,z
1/2-x,1/2+y,z
1/2+x,1/2-y,z
loop_
_atom_site_type_symbol
_atom_site_label
_atom_site_fract_x
_atom_site_fract_y
_atom_site_fract_z
Si Si1 0.109854 0.000000 0.601011
Si Si2 0.120823 0.612775 0.605075
Si Si3 0.282952 0.614407 0.702688
Si Si4 0.808768 0.197184 0.202555
Si Si5 0.416022 0.804028 0.105853
Si Si6 0.500000 0.000000 0.636324
Si Si7 0.000000 0.000000 0.101490
O O1 0.161272 0.938575 0.612640
O O2 0.061777 0.000000 0.337529
O O3 0.061273 0.000000 0.864671
O O4 0.201345 0.592323 0.670044
O O5 0.116860 0.643679 0.310206
O O6 0.062696 0.556576 0.633548
O O7 0.101350 0.670141 0.810615
O O8 0.294858 0.674776 0.503945
O O9 0.298900 0.637744 0.002751
O O10 0.750000 0.250000 0.126476
O O11 0.882553 0.234478 0.162881
O O12 0.500000 0.803481 0.147019
#
# Coordination Sequence:
#
# PCOD9350030 Si02
#       7
#     4   8   8   8   8   2   2
#     4  11  25  48  75 101 140 170 234 285 365 434
#     4  12  24  41  69  94 142 180 234 275 333 403
#     4  12  24  45  72 105 131 184 232 294 336 429
#     4  12  23  42  73  97 139 178 233 281 353 398
#     4  12  24  44  62  97 139 182 221 292 337 399
#     4  12  26  42  66 102 136 192 220 264 342 410
#     4  10  24  50  72  90 136 176 196 302 368 412
#
# _framework density 20.524698000000001
#
# number of rings (size 3 to 8) (size 9 to 14) (size 15 to 20)
#    0.000    0.200    6.000    3.600    0.000    1.600 
#   10.800    4.000    0.000    0.000    0.000    0.000 
#    0.000    0.000    0.000    0.000    0.000    0.000 
#
# Total GULP energy -111362.468443 kJ/mol
# GULP energy per Si atom -5568.123422 kJ/mol
# Density = 2.047798 g / cm^3
# Si number density = 20.524698 Si / 1000 Ang^3
#
#
#
# Elastic Constant Matrix: (Units=GPa)
#
#
# Indices 1 2 3 4 5 6 
#
# 1 167.8060 41.5895 14.2053 0.0000 0.0000 0.0000
# 2 41.5895 60.2570 -2.5121 0.0000 0.0000 0.0000
# 3 14.2053 -2.5121 86.5286 0.0000 0.0000 0.0000
# 4 0.0000 0.0000 0.0000 -0.1115 0.0000 0.0000
# 5 0.0000 0.0000 0.0000 0.0000 12.5771 0.0000
# 6 0.0000 0.0000 0.0000 0.0000 0.0000 12.1370
#
#
#
# Elastic Compliance Matrix: (Units=1/GPa)
#
#
# Indices 1 2 3 4 5 6 
#
# 1 0.007344 -0.005125 -0.001355 0.000000 0.000000 0.000000
# 2 -0.005125 0.020193 0.001428 0.000000 0.000000 0.000000
# 3 -0.001355 0.001428 0.011821 0.000000 0.000000 0.000000
# 4 0.000000 0.000000 0.000000 -8.972053 0.000000 0.000000
# 5 0.000000 0.000000 0.000000 0.000000 0.079510 0.000000
# 6 0.000000 0.000000 0.000000 0.000000 0.000000 0.082392
#
#
# Mechanical properties :
#
#
# Convention : Reuss Voigt Hill
#
# Bulk Modulus (GPa) = 34.18444 46.79521 40.48983
# Shear Modulus (GPa) = -0.57137 22.34113 10.88488
#
# Velocity S-wave (km/s) = -0.52819 3.30282 2.30539
# Velocity P-wave (km/s) = 4.03973 6.11505 5.18234
#
# Compressibility (1/GPa) = 0.02925307
#
# Stress axis : x y z
#
# Youngs Moduli (GPa) = 136.16126 49.52281 84.59742
#
# Poissons Ratio (x) = 0.25383 0.11459
# Poissons Ratio (y) = 0.69789 -0.12078
# Poissons Ratio (z) = 0.18443 -0.07070
#
# Static dielectric constant tensor:
#      x y z
#    x 1.728490 0.000000 0.000000 
#    y 0.000000 1.780880 0.000000 
#    z 0.000000 0.000000 1.693320 
# 
# From -- ./inp_files/2492.got.cif
#   From: 2010.05.17/outbox.cif.g08.bks.cpg/sg35_2_cif.got.tgz:2492.got - 2010.06.03 17:29:28.
