data_PCOD9350800
_publ_section_title
;
Structure prediction by ZEFSAII (Michael W. Deem and Ramdas Pophale) SiO2 
 PCOD9350800
Probable space group: C M C 21
;
_chemical_formula_sum "Si O2"
_cell_formula_units_Z 56
_cell_length_a 11.386314
_cell_length_b 23.345291
_cell_length_c 11.476352
_cell_angle_alpha 90.000000
_cell_angle_beta 90.000000
_cell_angle_gamma 90.000000
_cell_volume 3050.607322
_symmetry_space_group_name_H-M "C M C 21"
_symmetry_group_IT_number 36
_symmetry_cell_setting 'orthorhombic'
loop_
_space_group_symop_operation_xyz
x,y,z
-x,-y,1/2+z
x,-y,1/2+z
-x,y,z
1/2+x,1/2+y,z
1/2-x,1/2-y,1/2+z
1/2+x,1/2-y,1/2+z
1/2-x,1/2+y,z
loop_
_atom_site_type_symbol
_atom_site_label
_atom_site_fract_x
_atom_site_fract_y
_atom_site_fract_z
Si Si1 0.365385 0.683582 0.773910
Si Si2 0.363024 0.529801 0.389585
Si Si3 0.361747 0.352531 0.007012
Si Si4 0.500000 0.953581 0.379784
Si Si5 0.500000 0.995307 0.623416
Si Si6 0.290386 0.088020 0.190800
Si Si7 0.749508 0.906755 0.439820
Si Si8 0.364050 0.812506 0.857874
O O1 0.500000 0.671024 0.803682
O O2 0.349875 0.667728 0.639148
O O3 0.291065 0.642095 0.853898
O O4 0.346165 0.750236 0.801074
O O5 0.500000 0.523585 0.365078
O O6 0.348798 0.578706 0.489052
O O7 0.297433 0.556321 0.278183
O O8 0.311273 0.468225 0.420755
O O9 0.500000 0.339684 0.969981
O O10 0.250312 0.325056 0.938953
O O11 0.500000 0.005697 0.480523
O O12 0.614246 0.917986 0.411024
O O13 0.500000 0.965114 0.240307
O O14 0.615425 0.957899 0.646633
O O15 0.354387 0.138269 0.260425
O O16 0.230870 0.110912 0.073637
O O17 0.500000 0.814472 0.906149
#
# Coordination Sequence:
#
# PCOD9350800 Si02
#       8
#     8   8   8   4   4   8   8   8
#     4  10  23  41  63  87 121 159 202 247 298 359
#     4  10  21  36  60  88 118 156 196 241 303 358
#     4   9  21  42  63  91 121 160 202 249 303 365
#     4  10  22  36  58  88 124 152 200 243 307 364
#     4  10  18  38  58  88 116 156 192 247 293 368
#     4  10  21  37  61  84 118 155 197 242 301 358
#     4  11  23  38  58  90 119 157 196 247 299 363
#     4  10  21  41  65  90 117 159 205 251 305 354
#
# _framework density 18.356999999999999
#
# number of rings (size 3 to 8) (size 9 to 14) (size 15 to 20)
#    0.000    2.000    2.143    0.429    4.000    1.143 
#    2.571    0.000    0.000    0.000    0.000    0.000 
#    0.000    0.000    0.000    0.000    0.000    0.000 
#
# Total GULP energy -155920.549770 kJ/mol
# GULP energy per Si atom -5568.591063 kJ/mol
# Density = 1.831522 g / cm^3
# Si number density = 18.357000 Si / 1000 Ang^3
#
#
#
# Elastic Constant Matrix: (Units=GPa)
#
#
# Indices 1 2 3 4 5 6 
#
# 1 99.1067 29.6373 21.8267 0.0000 0.0000 0.0000
# 2 29.6373 30.3754 -5.2017 0.0000 0.0000 0.0000
# 3 21.8267 -5.2017 42.7342 0.0000 0.0000 0.0000
# 4 0.0000 0.0000 0.0000 15.1444 0.0000 0.0000
# 5 0.0000 0.0000 0.0000 0.0000 21.7011 0.0000
# 6 0.0000 0.0000 0.0000 0.0000 0.0000 26.3535
#
#
#
# Elastic Compliance Matrix: (Units=1/GPa)
#
#
# Indices 1 2 3 4 5 6 
#
# 1 0.018906 -0.020528 -0.012155 0.000000 0.000000 0.000000
# 2 -0.020528 0.055912 0.017290 0.000000 0.000000 0.000000
# 3 -0.012155 0.017290 0.031713 0.000000 0.000000 0.000000
# 4 0.000000 0.000000 0.000000 0.066031 0.000000 0.000000
# 5 0.000000 0.000000 0.000000 0.000000 0.046081 0.000000
# 6 0.000000 0.000000 0.000000 0.000000 0.000000 0.037946
#
#
# Mechanical properties :
#
#
# Convention : Reuss Voigt Hill
#
# Bulk Modulus (GPa) = 13.20207 29.41564 21.30886
# Shear Modulus (GPa) = 15.99380 21.03675 18.51528
#
# Velocity S-wave (km/s) = 2.95492 3.38891 3.17933
# Velocity P-wave (km/s) = 4.34161 5.60106 5.01106
#
# Compressibility (1/GPa) = 0.07574568
#
# Stress axis : x y z
#
# Youngs Moduli (GPa) = 52.89375 17.88540 31.53253
#
# Poissons Ratio (x) = 0.36715 0.38328
# Poissons Ratio (y) = 1.08580 -0.54521
# Poissons Ratio (z) = 0.64292 -0.30925
#
# Static dielectric constant tensor:
#      x y z
#    x 1.645440 0.000000 0.000000 
#    y 0.000000 1.625400 0.000000 
#    z 0.000000 0.000000 1.677500 
# 
# From -- ./inp_files/7882.got.cif
#   From: 2010.05.17/outbox.cif.g08.bks.cpg/sg36_4_cif.got.tgz:7882.got - 2010.06.03 17:41:39.
