data_PCOD9350307
_publ_section_title
;
Structure prediction by ZEFSAII (Michael W. Deem and Ramdas Pophale) SiO2 
 PCOD9350307
Probable space group: C M M 2
;
_chemical_formula_sum "Si O2"
_cell_formula_units_Z 64
_cell_length_a 21.634363
_cell_length_b 28.742576
_cell_length_c 7.808695
_cell_angle_alpha 90.000000
_cell_angle_beta 90.000000
_cell_angle_gamma 90.000000
_cell_volume 4855.659906
_symmetry_space_group_name_H-M "C M M 2"
_symmetry_group_IT_number 35
_symmetry_cell_setting 'orthorhombic'
loop_
_space_group_symop_operation_xyz
x,y,z
-x,-y,z
-x,y,z
x,-y,z
1/2+x,1/2+y,z
1/2-x,1/2-y,z
1/2-x,1/2+y,z
1/2+x,1/2-y,z
loop_
_atom_site_type_symbol
_atom_site_label
_atom_site_fract_x
_atom_site_fract_y
_atom_site_fract_z
Si Si1 0.846543 0.360861 0.028470
Si Si2 0.927025 0.268384 0.022883
Si Si3 0.429093 0.053518 0.515156
Si Si4 0.269522 0.826088 0.722484
Si Si5 0.427025 0.768384 0.422085
Si Si6 0.346543 0.139139 0.416499
Si Si7 0.429093 0.053518 0.929812
Si Si8 0.349647 0.730550 0.722484
O O1 0.896655 0.319489 0.000380
O O2 0.823574 0.356441 0.222484
O O3 0.793134 0.353243 0.889637
O O4 0.881913 0.409278 0.003429
O O5 0.918171 0.255390 0.222484
O O6 0.000000 0.270292 0.987299
O O7 0.892016 0.234867 0.890837
O O8 0.500000 0.064079 0.463742
O O9 0.381913 0.090722 0.441540
O O10 0.426733 0.056286 0.722484
O O11 0.416015 0.000000 0.467015
O O12 0.293134 0.853243 0.555332
O O13 0.307421 0.777295 0.722484
O O14 0.197882 0.812154 0.722484
O O15 0.500000 0.770292 0.457669
O O16 0.396655 0.819489 0.444589
O O17 0.392016 0.734867 0.554131
O O18 0.500000 0.064079 0.981227
O O19 0.416015 0.000000 0.977954
#
# Coordination Sequence:
#
# PCOD9350307 Si02
#       8
#     8   8   8   8   8   8   8   8
#     4  10  18  28  42  57  76 103 133 165 199 232
#     4   9  17  27  40  60  80  98 126 162 198 236
#     4   9  17  28  41  57  78 103 131 167 206 236
#     4   9  18  30  39  55  74  96 132 167 195 230
#     4   9  17  27  40  60  80  98 126 162 198 236
#     4  10  18  28  42  57  76 103 133 165 199 232
#     4   9  17  28  41  57  78 103 131 167 206 236
#     4   9  17  28  42  54  73 101 127 158 201 236
#
# _framework density 13.180496
#
# number of rings (size 3 to 8) (size 9 to 14) (size 15 to 20)
#    0.000    2.750    1.250    1.875    0.000    3.000 
#    0.000    6.250    0.000    0.000    0.000    0.000 
#    0.000    0.000    0.000    0.000    0.000   10.000 
#
# Total GULP energy -178289.892832 kJ/mol
# GULP energy per Si atom -5571.559151 kJ/mol
# Density = 1.315050 g / cm^3
# Si number density = 13.180496 Si / 1000 Ang^3
#
#
#
# Elastic Constant Matrix: (Units=GPa)
#
#
# Indices 1 2 3 4 5 6 
#
# 1 65.7076 36.1546 53.3645 0.0000 0.0000 0.0000
# 2 36.1546 50.3722 36.1829 0.0000 0.0000 0.0000
# 3 53.3645 36.1829 82.4349 0.0000 0.0000 0.0000
# 4 0.0000 0.0000 0.0000 9.8433 0.0000 0.0000
# 5 0.0000 0.0000 0.0000 0.0000 6.2718 0.0000
# 6 0.0000 0.0000 0.0000 0.0000 0.0000 23.5144
#
#
#
# Elastic Compliance Matrix: (Units=1/GPa)
#
#
# Indices 1 2 3 4 5 6 
#
# 1 0.037789 -0.013949 -0.018340 0.000000 0.000000 0.000000
# 2 -0.013949 0.034142 -0.005956 0.000000 0.000000 0.000000
# 3 -0.018340 -0.005956 0.026618 0.000000 0.000000 0.000000
# 4 0.000000 0.000000 0.000000 0.101591 0.000000 0.000000
# 5 0.000000 0.000000 0.000000 0.000000 0.159445 0.000000
# 6 0.000000 0.000000 0.000000 0.000000 0.000000 0.042527
#
#
# Mechanical properties :
#
#
# Convention : Reuss Voigt Hill
#
# Bulk Modulus (GPa) = 45.33412 49.99097 47.66254
# Shear Modulus (GPa) = 10.28897 12.78009 11.53453
#
# Velocity S-wave (km/s) = 2.79699 3.11725 2.96145
# Velocity P-wave (km/s) = 6.70078 7.13910 6.92341
#
# Compressibility (1/GPa) = 0.02205844
#
# Stress axis : x y z
#
# Youngs Moduli (GPa) = 26.46240 29.28902 37.56885
#
# Poissons Ratio (x) = 0.40856 0.68903
# Poissons Ratio (y) = 0.36913 0.22376
# Poissons Ratio (z) = 0.48533 0.17445
#
# Static dielectric constant tensor:
#      x y z
#    x 1.406590 0.000000 0.000000 
#    y 0.000000 1.409620 0.000000 
#    z 0.000000 0.000000 1.463860 
# 
# From -- ./inp_files/8863.got.cif
#   From: 2010.05.17/outbox.cif.g08.bks.cpg/sg35_5_cif.got.tgz:8863.got - 2010.06.03 17:29:28.
