data_PCOD9350261
_publ_section_title
;
Structure prediction by ZEFSAII (Michael W. Deem and Ramdas Pophale) SiO2 
 PCOD9350261
Probable space group: C M M 2
;
_chemical_formula_sum "Si O2"
_cell_formula_units_Z 40
_cell_length_a 8.542495
_cell_length_b 27.333607
_cell_length_c 9.311297
_cell_angle_alpha 90.000000
_cell_angle_beta 90.000000
_cell_angle_gamma 90.000000
_cell_volume 2174.161788
_symmetry_space_group_name_H-M "C M M 2"
_symmetry_group_IT_number 35
_symmetry_cell_setting 'orthorhombic'
loop_
_space_group_symop_operation_xyz
x,y,z
-x,-y,z
-x,y,z
x,-y,z
1/2+x,1/2+y,z
1/2-x,1/2-y,z
1/2-x,1/2+y,z
1/2+x,1/2-y,z
loop_
_atom_site_type_symbol
_atom_site_label
_atom_site_fract_x
_atom_site_fract_y
_atom_site_fract_z
Si Si1 0.311796 0.095444 0.051820
Si Si2 0.809258 0.500000 0.567569
Si Si3 0.809928 0.593659 0.386488
Si Si4 0.187327 0.700054 0.383972
Si Si5 0.686666 0.300830 0.055850
Si Si6 0.313482 0.500000 0.890099
O O1 0.500000 0.097493 0.048080
O O2 0.262263 0.089629 0.219432
O O3 0.246328 0.147374 0.995155
O O4 0.252763 0.048611 0.966048
O O5 0.757566 0.548164 0.480673
O O6 0.742163 0.500000 0.726174
O O7 0.000000 0.500000 0.574132
O O8 0.763392 0.647268 0.444736
O O9 0.000000 0.592655 0.385892
O O10 0.250000 0.750000 0.452297
O O11 0.248355 0.699049 0.219636
O O12 0.000000 0.702361 0.380259
O O13 0.500000 0.299606 0.057986
O O14 0.750000 0.250000 0.989619
O O15 0.500000 0.500000 0.899732
#
# Coordination Sequence:
#
# PCOD9350261 Si02
#       6
#     8   4   8   8   8   4
#     4  10  19  35  57  80 103 135 174 216 260 307
#     4  10  19  36  56  72  94 132 171 210 258 310
#     4   8  16  30  53  79 100 124 168 215 252 299
#     4   9  15  25  42  70 103 134 166 205 249 301
#     4  10  17  27  45  74 108 139 168 207 253 303
#     4  12  25  38  50  74 106 136 171 216 262 314
#
# _framework density 18.397894999999998
#
# number of rings (size 3 to 8) (size 9 to 14) (size 15 to 20)
#    0.000    2.400    0.000    6.900    0.000    1.600 
#    0.000    7.000    0.000    1.200    0.000    5.600 
#    0.000    0.000    0.000    0.000    0.000    0.000 
#
# Total GULP energy -111476.803665 kJ/mol
# GULP energy per Si atom -5573.840183 kJ/mol
# Density = 1.835602 g / cm^3
# Si number density = 18.397895 Si / 1000 Ang^3
#
#
#
# Elastic Constant Matrix: (Units=GPa)
#
#
# Indices 1 2 3 4 5 6 
#
# 1 86.4339 58.1528 17.0629 0.0000 0.0000 0.0000
# 2 58.1528 245.0687 67.4055 0.0000 0.0000 0.0000
# 3 17.0629 67.4055 52.6619 0.0000 0.0000 0.0000
# 4 0.0000 0.0000 0.0000 -5.1566 0.0000 0.0000
# 5 0.0000 0.0000 0.0000 0.0000 11.3944 0.0000
# 6 0.0000 0.0000 0.0000 0.0000 0.0000 55.9964
#
#
#
# Elastic Compliance Matrix: (Units=1/GPa)
#
#
# Indices 1 2 3 4 5 6 
#
# 1 0.013774 -0.003150 -0.000431 0.000000 0.000000 0.000000
# 2 -0.003150 0.007018 -0.007962 0.000000 0.000000 0.000000
# 3 -0.000431 -0.007962 0.029320 0.000000 0.000000 0.000000
# 4 0.000000 0.000000 0.000000 -0.193926 0.000000 0.000000
# 5 0.000000 0.000000 0.000000 0.000000 0.087763 0.000000
# 6 0.000000 0.000000 0.000000 0.000000 0.000000 0.017858
#
#
# Mechanical properties :
#
#
# Convention : Reuss Voigt Hill
#
# Bulk Modulus (GPa) = 37.00199 74.37854 55.69027
# Shear Modulus (GPa) = -819.77863 28.54973 -395.61445
#
# Velocity S-wave (km/s) = -21.13173 3.94355 -14.67989
# Velocity P-wave (km/s) = 23.98425 7.82630 16.03112
#
# Compressibility (1/GPa) = 0.02702557
#
# Stress axis : x y z
#
# Youngs Moduli (GPa) = 72.60129 142.49339 34.10645
#
# Poissons Ratio (x) = 0.44883 0.01470
# Poissons Ratio (y) = 0.22868 0.27156
# Poissons Ratio (z) = 0.03130 1.13454
#
# Static dielectric constant tensor:
#      x y z
#    x 1.620760 0.000000 0.000000 
#    y 0.000000 1.690280 0.000000 
#    z 0.000000 0.000000 1.593020 
# 
# From -- ./inp_files/5044.got.cif
#   From: 2010.05.17/outbox.cif.g08.bks.cpg/sg35_3_cif.got.tgz:5044.got - 2010.06.03 17:29:28.
