data_PCOD9350715
_publ_section_title
;
Structure prediction by ZEFSAII (Michael W. Deem and Ramdas Pophale) SiO2 
 PCOD9350715
Probable space group: C M C 21
;
_chemical_formula_sum "Si O2"
_cell_formula_units_Z 64
_cell_length_a 8.390518
_cell_length_b 20.767327
_cell_length_c 20.379890
_cell_angle_alpha 90.000000
_cell_angle_beta 90.000000
_cell_angle_gamma 90.000000
_cell_volume 3551.167933
_symmetry_space_group_name_H-M "C M C 21"
_symmetry_group_IT_number 36
_symmetry_cell_setting 'orthorhombic'
loop_
_space_group_symop_operation_xyz
x,y,z
-x,-y,1/2+z
x,-y,1/2+z
-x,y,z
1/2+x,1/2+y,z
1/2-x,1/2-y,1/2+z
1/2+x,1/2-y,1/2+z
1/2-x,1/2+y,z
loop_
_atom_site_type_symbol
_atom_site_label
_atom_site_fract_x
_atom_site_fract_y
_atom_site_fract_z
Si Si1 0.809073 0.540999 0.971390
Si Si2 0.691502 0.326539 0.243512
Si Si3 0.806799 0.278127 0.639170
Si Si4 0.689085 0.406346 0.009291
Si Si5 0.309525 0.060127 0.654559
Si Si6 0.808808 0.267339 0.996587
Si Si7 0.193760 0.578789 0.118934
Si Si8 0.307115 0.340158 0.391880
O O1 0.751560 0.590684 0.916909
O O2 0.000000 0.536840 0.971087
O O3 0.739663 0.469183 0.968348
O O4 0.758869 0.569490 0.042740
O O5 0.500000 0.321395 0.245432
O O6 0.750828 0.268641 0.197003
O O7 0.735150 0.393063 0.207951
O O8 0.749240 0.325336 0.318264
O O9 0.753492 0.251610 0.568613
O O10 0.752129 0.352176 0.644878
O O11 0.000000 0.277720 0.639853
O O12 0.500000 0.404730 0.016909
O O13 0.765321 0.415073 0.081689
O O14 0.748739 0.338900 0.980725
O O15 0.500000 0.061799 0.660980
O O16 0.254587 0.985640 0.656718
O O17 0.754388 0.214298 0.943734
O O18 0.000000 0.267506 0.997937
O O19 0.000000 0.578849 0.119900
O O20 0.500000 0.340604 0.392072
#
# Coordination Sequence:
#
# PCOD9350715 Si02
#       8
#     8   8   8   8   8   8   8   8
#     4  10  19  34  56  82 109 141 184 235 281 331
#     4  10  21  36  55  79 112 153 189 226 282 347
#     4  10  18  33  56  80 106 144 188 230 280 336
#     4  11  21  34  55  82 112 146 182 228 285 338
#     4  10  19  33  53  81 112 142 183 235 278 327
#     4  11  21  34  54  82 114 147 189 240 278 328
#     4   8  16  30  51  79 107 132 174 229 276 321
#     4  10  22  38  54  79 116 155 191 229 282 344
#
# _framework density 18.022238999999999
#
# number of rings (size 3 to 8) (size 9 to 14) (size 15 to 20)
#    0.000    2.000    2.500    3.000    0.000    1.000 
#    0.000    1.875    0.000    3.000    0.000    0.000 
#    0.000    0.000    0.000    0.000    0.000    0.000 
#
# Total GULP energy -178586.439575 kJ/mol
# GULP energy per Si atom -5580.826237 kJ/mol
# Density = 1.798122 g / cm^3
# Si number density = 18.022239 Si / 1000 Ang^3
#
#
#
# Elastic Constant Matrix: (Units=GPa)
#
#
# Indices 1 2 3 4 5 6 
#
# 1 6.7010 1.5229 -1.7572 0.0000 0.0000 0.0000
# 2 1.5229 139.4176 44.5709 0.0000 0.0000 0.0000
# 3 -1.7572 44.5709 77.1868 0.0000 0.0000 0.0000
# 4 0.0000 0.0000 0.0000 23.4742 0.0000 0.0000
# 5 0.0000 0.0000 0.0000 0.0000 17.9962 0.0000
# 6 0.0000 0.0000 0.0000 0.0000 0.0000 25.0033
#
#
#
# Elastic Compliance Matrix: (Units=1/GPa)
#
#
# Indices 1 2 3 4 5 6 
#
# 1 0.151415 -0.003380 0.005399 0.000000 0.000000 0.000000
# 2 -0.003380 0.008872 -0.005200 0.000000 0.000000 0.000000
# 3 0.005399 -0.005200 0.016081 0.000000 0.000000 0.000000
# 4 0.000000 0.000000 0.000000 0.042600 0.000000 0.000000
# 5 0.000000 0.000000 0.000000 0.000000 0.055567 0.000000
# 6 0.000000 0.000000 0.000000 0.000000 0.000000 0.039995
#
#
# Mechanical properties :
#
#
# Convention : Reuss Voigt Hill
#
# Bulk Modulus (GPa) = 5.88215 34.66427 20.27321
# Shear Modulus (GPa) = 13.24291 25.22601 19.23446
#
# Velocity S-wave (km/s) = 2.71368 3.74534 3.27044
# Velocity P-wave (km/s) = 3.61796 6.16274 5.05316
#
# Compressibility (1/GPa) = 0.17000574
#
# Stress axis : x y z
#
# Youngs Moduli (GPa) = 6.60438 112.71382 62.18438
#
# Poissons Ratio (x) = 0.38096 -0.33572
# Poissons Ratio (y) = 0.02232 0.32336
# Poissons Ratio (z) = -0.03566 0.58611
#
# Static dielectric constant tensor:
#      x y z
#    x 1.620740 0.000000 0.000000 
#    y 0.000000 1.632110 0.000000 
#    z 0.000000 0.000000 1.594550 
# 
# From -- ./inp_files/15803.got.cif
#   From: 2010.05.17/outbox.cif.g08.bks.cpg/sg36_8_cif.got.tgz:15803.got - 2010.06.03 17:41:39.
