data_PCOD9350740
_publ_section_title
;
Structure prediction by ZEFSAII (Michael W. Deem and Ramdas Pophale) SiO2 
 PCOD9350740
Probable space group: C M C 21
;
_chemical_formula_sum "Si O2"
_cell_formula_units_Z 64
_cell_length_a 7.588783
_cell_length_b 27.022028
_cell_length_c 13.434690
_cell_angle_alpha 90.000000
_cell_angle_beta 90.000000
_cell_angle_gamma 90.000000
_cell_volume 2754.975391
_symmetry_space_group_name_H-M "C M C 21"
_symmetry_group_IT_number 36
_symmetry_cell_setting 'orthorhombic'
loop_
_space_group_symop_operation_xyz
x,y,z
-x,-y,1/2+z
x,-y,1/2+z
-x,y,z
1/2+x,1/2+y,z
1/2-x,1/2-y,1/2+z
1/2+x,1/2-y,1/2+z
1/2-x,1/2+y,z
loop_
_atom_site_type_symbol
_atom_site_label
_atom_site_fract_x
_atom_site_fract_y
_atom_site_fract_z
Si Si1 0.798914 0.211741 0.304440
Si Si2 0.783902 0.907930 0.486808
Si Si3 0.792595 0.055766 0.201900
Si Si4 0.787199 0.628505 0.617234
Si Si5 0.300882 0.115071 0.398252
Si Si6 0.287827 0.298600 0.424160
Si Si7 0.785240 0.740820 0.619154
Si Si8 0.710873 0.547298 0.782892
O O1 0.699398 0.173886 0.374974
O O2 0.792949 0.269849 0.331837
O O3 0.723994 0.216053 0.194064
O O4 0.000000 0.194324 0.304774
O O5 0.722405 0.922404 0.597587
O O6 0.729024 0.853130 0.452209
O O7 0.726934 0.943323 0.395866
O O8 0.000000 0.907011 0.488676
O O9 0.778239 0.090072 0.299775
O O10 0.000000 0.048777 0.182855
O O11 0.716944 0.002379 0.232317
O O12 0.722299 0.608675 0.508994
O O13 0.721869 0.684727 0.631577
O O14 0.743029 0.593510 0.709672
O O15 0.000000 0.631003 0.609633
O O16 0.500000 0.096400 0.402659
O O17 0.500000 0.299424 0.411768
O O18 0.239798 0.261100 0.511749
O O19 0.000000 0.740780 0.626700
O O20 0.500000 0.541729 0.791098
#
# Coordination Sequence:
#
# PCOD9350740 Si02
#       8
#     8   8   8   8   8   8   8   8
#     4  11  21  34  57  87 117 152 196 240 287 344
#     4   9  19  37  59  87 121 158 196 242 305 360
#     4  10  22  40  64  88 118 157 197 249 305 356
#     4  10  21  39  60  84 120 161 199 242 297 353
#     4  11  23  40  61  87 122 161 201 243 295 355
#     4  10  18  34  56  76 112 157 191 226 282 351
#     4   9  18  34  55  79 112 158 194 225 285 350
#     4  10  22  38  62  92 118 152 200 251 302 355
#
# _framework density 23.230699999999999
#
# number of rings (size 3 to 8) (size 9 to 14) (size 15 to 20)
#    0.000    2.000    1.250    2.250    1.750    3.500 
#    0.000    4.375    0.000    0.000    0.000    0.000 
#    0.000    0.000    0.000    0.000    0.000    0.000 
#
# Total GULP energy -178629.522881 kJ/mol
# GULP energy per Si atom -5582.172590 kJ/mol
# Density = 2.317783 g / cm^3
# Si number density = 23.230700 Si / 1000 Ang^3
#
#
#
# Elastic Constant Matrix: (Units=GPa)
#
#
# Indices 1 2 3 4 5 6 
#
# 1 47.6270 -1.2363 -4.3230 0.0000 0.0000 0.0000
# 2 -1.2363 82.5198 20.9919 0.0000 0.0000 0.0000
# 3 -4.3230 20.9919 117.7681 0.0000 0.0000 0.0000
# 4 0.0000 0.0000 0.0000 28.4341 0.0000 0.0000
# 5 0.0000 0.0000 0.0000 0.0000 10.0909 0.0000
# 6 0.0000 0.0000 0.0000 0.0000 0.0000 2.2212
#
#
#
# Elastic Compliance Matrix: (Units=1/GPa)
#
#
# Indices 1 2 3 4 5 6 
#
# 1 0.021068 0.000125 0.000751 0.000000 0.000000 0.000000
# 2 0.000125 0.012695 -0.002258 0.000000 0.000000 0.000000
# 3 0.000751 -0.002258 0.008921 0.000000 0.000000 0.000000
# 4 0.000000 0.000000 0.000000 0.035169 0.000000 0.000000
# 5 0.000000 0.000000 0.000000 0.000000 0.099099 0.000000
# 6 0.000000 0.000000 0.000000 0.000000 0.000000 0.450209
#
#
# Mechanical properties :
#
#
# Convention : Reuss Voigt Hill
#
# Bulk Modulus (GPa) = 25.05079 30.97555 28.01317
# Shear Modulus (GPa) = 7.77323 23.64805 15.71064
#
# Velocity S-wave (km/s) = 1.83122 3.19402 2.60337
# Velocity P-wave (km/s) = 3.90871 5.19280 4.59583
#
# Compressibility (1/GPa) = 0.03991891
#
# Stress axis : x y z
#
# Youngs Moduli (GPa) = 47.46553 78.77349 112.09057
#
# Poissons Ratio (x) = -0.00981 -0.08420
# Poissons Ratio (y) = -0.00591 0.25312
# Poissons Ratio (z) = -0.03565 0.17789
#
# Static dielectric constant tensor:
#      x y z
#    x 1.868890 0.000000 0.000000 
#    y 0.000000 1.875290 0.000000 
#    z 0.000000 0.000000 1.890030 
# 
# From -- ./inp_files/7097.got.cif
#   From: 2010.05.17/outbox.cif.g08.bks.cpg/sg36_4_cif.got.tgz:7097.got - 2010.06.03 17:41:39.
