data_PCOD9350171
_publ_section_title
;
Structure prediction by ZEFSAII (Michael W. Deem and Ramdas Pophale) SiO2 
 PCOD9350171
Probable space group: C M M 2
;
_chemical_formula_sum "Si O2"
_cell_formula_units_Z 28
_cell_length_a 9.000000
_cell_length_b 21.000000
_cell_length_c 18.000000
_cell_angle_alpha 90.000000
_cell_angle_beta 90.000000
_cell_angle_gamma 90.000000
_cell_volume 3402.000000
_symmetry_space_group_name_H-M "C M M 2"
_symmetry_group_IT_number 35
_symmetry_cell_setting 'orthorhombic'
loop_
_space_group_symop_operation_xyz
x,y,z
-x,-y,z
-x,y,z
x,-y,z
1/2+x,1/2+y,z
1/2-x,1/2-y,z
1/2-x,1/2+y,z
1/2+x,1/2-y,z
loop_
_atom_site_type_symbol
_atom_site_label
_atom_site_fract_x
_atom_site_fract_y
_atom_site_fract_z
Si Si1 0.177751 0.682744 0.783510
Si Si2 0.331957 0.077158 0.530789
Si Si3 0.670131 0.577733 0.382276
Si Si4 0.670887 0.922563 0.233024
Si Si5 0.677176 0.574541 0.684118
Si Si6 0.178255 0.316411 0.958086
Si Si7 0.681445 0.072952 0.067975
O O1 0.250000 0.750000 0.759687
O O2 0.243331 0.623249 0.739127
O O3 0.212801 0.674575 0.871053
O O4 0.000000 0.685745 0.774843
O O5 0.500000 0.099735 0.543008
O O6 0.266794 0.099405 0.452361
O O7 0.228748 0.091839 0.600762
O O8 0.336448 0.000000 0.526716
O O9 0.500000 0.596786 0.391684
O O10 0.674212 0.500000 0.381971
O O11 0.734619 0.598973 0.303264
O O12 0.500000 0.901727 0.241407
O O13 0.727325 0.905876 0.150882
O O14 0.669254 0.000000 0.233662
O O15 0.500000 0.579496 0.690691
O O16 0.718539 0.500000 0.697128
O O17 0.250000 0.250000 0.982691
O O18 0.000000 0.311599 0.964802
O O19 0.228945 0.376472 0.006626
O O20 0.500000 0.071621 0.069023
O O21 0.729823 0.000000 0.054243
#
# Coordination Sequence:
#
# PCOD9350171 Si02
#       7
#     8   8   8   8   8   8   8
#     4  10  20  34  52  72  95 125 162 201 240 286
#     4   9  16  26  41  62  89 121 157 193 229 274
#     4   9  15  22  34  55  86 121 152 183 225 275
#     4   8  13  22  37  57  82 113 149 187 225 267
#     4  10  20  33  49  71 100 129 157 195 243 289
#     4   9  18  32  50  70  92 120 154 193 234 278
#     4   8  14  26  45  68  92 119 154 194 232 271
#
# _framework density 8.2304530000000007
#
# number of rings (size 3 to 8) (size 9 to 14) (size 15 to 20)
#    0.000    3.000    0.000    2.571    0.000    5.429 
#    0.000    2.143    0.000    1.286    0.000    1.000 
#    0.000    2.286    0.000    0.000    0.000    0.000 
#
# Total GULP energy -155913.735741 kJ/mol
# GULP energy per Si atom -5568.347705 kJ/mol
# Density = 0.821172 g / cm^3
# Si number density = 8.230453 Si / 1000 Ang^3
#
#
#
# Elastic Constant Matrix: (Units=GPa)
#
#
# Indices 1 2 3 4 5 6 
#
# 1 48.1086 29.4844 36.4694 0.0000 0.0000 0.0000
# 2 29.4844 70.3966 61.4727 0.0000 0.0000 0.0000
# 3 36.4694 61.4727 98.0988 0.0000 0.0000 0.0000
# 4 0.0000 0.0000 0.0000 -5.4178 0.0000 0.0000
# 5 0.0000 0.0000 0.0000 0.0000 16.6749 0.0000
# 6 0.0000 0.0000 0.0000 0.0000 0.0000 19.2589
#
#
#
# Elastic Compliance Matrix: (Units=1/GPa)
#
#
# Indices 1 2 3 4 5 6 
#
# 1 0.030147 -0.006272 -0.007277 0.000000 0.000000 0.000000
# 2 -0.006272 0.032677 -0.018145 0.000000 0.000000 0.000000
# 3 -0.007277 -0.018145 0.024270 0.000000 0.000000 0.000000
# 4 0.000000 0.000000 0.000000 -0.184577 0.000000 0.000000
# 5 0.000000 0.000000 0.000000 0.000000 0.059970 0.000000
# 6 0.000000 0.000000 0.000000 0.000000 0.000000 0.051924
#
#
# Mechanical properties :
#
#
# Convention : Reuss Voigt Hill
#
# Bulk Modulus (GPa) = 42.18493 52.38412 47.28452
# Shear Modulus (GPa) = 58.34279 12.04838 35.19559
#
# Velocity S-wave (km/s) = 5.95988 2.70837 4.62901
# Velocity P-wave (km/s) = 8.54653 6.45545 7.57351
#
# Compressibility (1/GPa) = 0.02370515
#
# Stress axis : x y z
#
# Youngs Moduli (GPa) = 33.17120 30.60260 41.20355
#
# Poissons Ratio (x) = 0.19193 0.29985
# Poissons Ratio (y) = 0.20804 0.74765
# Poissons Ratio (z) = 0.24140 0.55529
#
# Static dielectric constant tensor:
#      x y z
#    x 1.556690 0.000000 0.000000 
#    y 0.000000 1.526670 0.000000 
#    z 0.000000 0.000000 1.562340 
# 
# From -- ./inp_files/18224.got.cif
#   From: 2010.05.17/outbox.ucp.g08.bks.cvg/sg35_10_cif.got.tgz:18224.got - 2010.06.11 10:36:28.
