data_PCOD9350791
_publ_section_title
;
Structure prediction by ZEFSAII (Michael W. Deem and Ramdas Pophale) SiO2 
 PCOD9350791
Probable space group: C M C 21
;
_chemical_formula_sum "Si O2"
_cell_formula_units_Z 64
_cell_length_a 8.496797
_cell_length_b 15.948105
_cell_length_c 24.458001
_cell_angle_alpha 90.000000
_cell_angle_beta 90.000000
_cell_angle_gamma 90.000000
_cell_volume 3314.250170
_symmetry_space_group_name_H-M "C M C 21"
_symmetry_group_IT_number 36
_symmetry_cell_setting 'orthorhombic'
loop_
_space_group_symop_operation_xyz
x,y,z
-x,-y,1/2+z
x,-y,1/2+z
-x,y,z
1/2+x,1/2+y,z
1/2-x,1/2-y,1/2+z
1/2+x,1/2-y,1/2+z
1/2-x,1/2+y,z
loop_
_atom_site_type_symbol
_atom_site_label
_atom_site_fract_x
_atom_site_fract_y
_atom_site_fract_z
Si Si1 0.809869 0.914416 0.168770
Si Si2 0.690371 0.346023 0.051476
Si Si3 0.311581 0.655979 0.048757
Si Si4 0.309603 0.404044 0.428287
Si Si5 0.312002 0.906316 0.662599
Si Si6 0.311488 0.251787 0.859018
Si Si7 0.309681 0.749085 0.736032
Si Si8 0.691921 0.408250 0.932746
O O1 0.759204 0.892606 0.106716
O O2 0.759584 0.837707 0.207348
O O3 0.000000 0.917835 0.169377
O O4 0.744830 0.004609 0.184970
O O5 0.500000 0.344150 0.051814
O O6 0.749795 0.250862 0.052226
O O7 0.741267 0.389664 0.995168
O O8 0.500000 0.655754 0.050164
O O9 0.250532 0.606146 0.101203
O O10 0.262110 0.617125 0.990676
O O11 0.500000 0.401083 0.425846
O O12 0.244333 0.332727 0.388807
O O13 0.258449 0.498847 0.414961
O O14 0.500000 0.904099 0.661221
O O15 0.256742 0.828024 0.699419
O O16 0.500000 0.253344 0.858911
O O17 0.250313 0.255357 0.797456
O O18 0.255206 0.332453 0.893991
O O19 0.500000 0.749524 0.736382
O O20 0.500000 0.407804 0.932665
#
# Coordination Sequence:
#
# PCOD9350791 Si02
#       8
#     8   8   8   8   8   8   8   8
#     4  10  21  39  63  88 116 156 197 237 295 360
#     4  10  18  36  62  86 120 157 193 238 295 358
#     4  11  21  34  59  92 123 155 195 241 293 354
#     4  10  21  39  61  86 118 157 196 236 291 358
#     4  11  23  40  62  89 121 157 196 243 297 351
#     4  11  23  39  61  87 114 150 200 253 294 338
#     4  10  23  43  62  81 115 160 198 239 297 355
#     4   9  19  36  60  85 115 154 191 233 290 352
#
# _framework density 19.310551
#
# number of rings (size 3 to 8) (size 9 to 14) (size 15 to 20)
#    0.000    1.750    2.500    1.875    0.000    5.500 
#    0.000    5.625    0.000    0.000    0.000    0.000 
#    0.000    0.000    0.000    0.000    0.000    0.000 
#
# Total GULP energy -178792.559938 kJ/mol
# GULP energy per Si atom -5587.267498 kJ/mol
# Density = 1.926660 g / cm^3
# Si number density = 19.310551 Si / 1000 Ang^3
#
#
#
# Elastic Constant Matrix: (Units=GPa)
#
#
# Indices 1 2 3 4 5 6 
#
# 1 8.8802 13.6111 15.7545 0.0000 0.0000 0.0000
# 2 13.6111 136.0128 39.5274 0.0000 0.0000 0.0000
# 3 15.7545 39.5274 113.9478 0.0000 0.0000 0.0000
# 4 0.0000 0.0000 0.0000 2.6774 0.0000 0.0000
# 5 0.0000 0.0000 0.0000 0.0000 29.0851 0.0000
# 6 0.0000 0.0000 0.0000 0.0000 0.0000 22.0421
#
#
#
# Elastic Compliance Matrix: (Units=1/GPa)
#
#
# Indices 1 2 3 4 5 6 
#
# 1 0.162353 -0.010814 -0.018696 0.000000 0.000000 0.000000
# 2 -0.010814 0.008897 -0.001591 0.000000 0.000000 0.000000
# 3 -0.018696 -0.001591 0.011913 0.000000 0.000000 0.000000
# 4 0.000000 0.000000 0.000000 0.373499 0.000000 0.000000
# 5 0.000000 0.000000 0.000000 0.000000 0.034382 0.000000
# 6 0.000000 0.000000 0.000000 0.000000 0.000000 0.045368
#
#
# Mechanical properties :
#
#
# Convention : Reuss Voigt Hill
#
# Bulk Modulus (GPa) = 8.26714 44.06967 26.16841
# Shear Modulus (GPa) = 6.76652 23.42410 15.09531
#
# Velocity S-wave (km/s) = 1.87394 3.48662 2.79895
# Velocity P-wave (km/s) = 2.99544 6.25138 4.90166
#
# Compressibility (1/GPa) = 0.12096082
#
# Stress axis : x y z
#
# Youngs Moduli (GPa) = 6.15944 112.39991 83.94343
#
# Poissons Ratio (x) = 1.21546 1.56939
# Poissons Ratio (y) = 0.06661 0.13356
# Poissons Ratio (z) = 0.11516 0.17884
#
# Static dielectric constant tensor:
#      x y z
#    x 1.665880 0.000000 0.000000 
#    y 0.000000 1.667390 0.000000 
#    z 0.000000 0.000000 1.650400 
# 
# From -- ./inp_files/16620.got.cif
#   From: 2010.05.17/outbox.cif.g08.bks.cpg/sg36_9_cif.got.tgz:16620.got - 2010.06.03 17:41:39.
