data_PCOD9350329
_publ_section_title
;
Structure prediction by ZEFSAII (Michael W. Deem and Ramdas Pophale) SiO2 
 PCOD9350329
Probable space group: C M M 2
;
_chemical_formula_sum "Si O2"
_cell_formula_units_Z 64
_cell_length_a 17.011919
_cell_length_b 25.702232
_cell_length_c 10.209795
_cell_angle_alpha 90.000000
_cell_angle_beta 90.000000
_cell_angle_gamma 90.000000
_cell_volume 4464.174555
_symmetry_space_group_name_H-M "C M M 2"
_symmetry_group_IT_number 35
_symmetry_cell_setting 'orthorhombic'
loop_
_space_group_symop_operation_xyz
x,y,z
-x,-y,z
-x,y,z
x,-y,z
1/2+x,1/2+y,z
1/2-x,1/2-y,z
1/2-x,1/2+y,z
1/2+x,1/2-y,z
loop_
_atom_site_type_symbol
_atom_site_label
_atom_site_fract_x
_atom_site_fract_y
_atom_site_fract_z
Si Si1 0.175839 0.137271 0.278880
Si Si2 0.092278 0.851209 0.550703
Si Si3 0.407677 0.771886 0.616069
Si Si4 0.593906 0.630314 0.837164
Si Si5 0.592136 0.438012 0.088149
Si Si6 0.656834 0.744390 0.891678
Si Si7 0.687747 0.798253 0.378909
Si Si8 0.592580 0.740458 0.170122
O O1 0.137274 0.132179 0.421825
O O2 0.151912 0.088594 0.189883
O O3 0.264798 0.154673 0.311902
O O4 0.135504 0.186271 0.204700
O O5 0.102551 0.788915 0.572435
O O6 0.117023 0.878878 0.686076
O O7 0.000000 0.860303 0.530219
O O8 0.500000 0.784419 0.601850
O O9 0.381874 0.772810 0.767326
O O10 0.350490 0.804730 0.521885
O O11 0.500000 0.640842 0.834380
O O12 0.634581 0.683590 0.880396
O O13 0.607566 0.585962 0.943982
O O14 0.500000 0.424785 0.120809
O O15 0.598916 0.500000 0.087485
O O16 0.750000 0.750000 0.887184
O O17 0.623386 0.761387 0.031601
O O18 0.750000 0.750000 0.386995
O O19 0.618205 0.779273 0.284609
O O20 0.500000 0.731796 0.166078
#
# Coordination Sequence:
#
# PCOD9350329 Si02
#       8
#     8   8   8   8   8   8   8   8
#     4  11  19  29  46  66  93 119 156 197 237 274
#     4   9  16  26  43  63  86 122 155 182 220 268
#     4  10  18  29  42  61  92 129 159 182 214 266
#     4   9  18  31  45  62  89 123 159 189 230 276
#     4  10  20  34  51  67  86 119 161 204 245 283
#     4  11  20  27  43  66  93 123 159 195 222 265
#     4  10  19  28  41  64  91 123 157 186 224 268
#     4  11  19  29  42  62  93 128 157 187 223 274
#
# _framework density 14.336358000000001
#
# number of rings (size 3 to 8) (size 9 to 14) (size 15 to 20)
#    0.000    1.875    3.750    4.875    1.750    0.000 
#    0.000    0.625    0.000    2.250    0.000    0.000 
#    0.000    2.000    0.000    0.250    0.000    0.000 
#
# Total GULP energy -178352.969663 kJ/mol
# GULP energy per Si atom -5573.530302 kJ/mol
# Density = 1.430373 g / cm^3
# Si number density = 14.336358 Si / 1000 Ang^3
#
#
#
# Elastic Constant Matrix: (Units=GPa)
#
#
# Indices 1 2 3 4 5 6 
#
# 1 55.7935 11.3984 26.2813 0.0000 0.0000 0.0000
# 2 11.3984 35.2116 19.6483 0.0000 0.0000 0.0000
# 3 26.2813 19.6483 98.8590 0.0000 0.0000 0.0000
# 4 0.0000 0.0000 0.0000 9.4689 0.0000 0.0000
# 5 0.0000 0.0000 0.0000 0.0000 22.4460 0.0000
# 6 0.0000 0.0000 0.0000 0.0000 0.0000 13.4720
#
#
#
# Elastic Compliance Matrix: (Units=1/GPa)
#
#
# Indices 1 2 3 4 5 6 
#
# 1 0.021013 -0.004145 -0.004763 0.000000 0.000000 0.000000
# 2 -0.004145 0.032760 -0.005409 0.000000 0.000000 0.000000
# 3 -0.004763 -0.005409 0.012457 0.000000 0.000000 0.000000
# 4 0.000000 0.000000 0.000000 0.105609 0.000000 0.000000
# 5 0.000000 0.000000 0.000000 0.000000 0.044551 0.000000
# 6 0.000000 0.000000 0.000000 0.000000 0.000000 0.074228
#
#
# Mechanical properties :
#
#
# Convention : Reuss Voigt Hill
#
# Bulk Modulus (GPa) = 26.59798 33.83556 30.21677
# Shear Modulus (GPa) = 15.07006 17.91312 16.49159
#
# Velocity S-wave (km/s) = 3.24570 3.53865 3.39534
# Velocity P-wave (km/s) = 5.71307 6.35205 6.04101
#
# Compressibility (1/GPa) = 0.03759684
#
# Stress axis : x y z
#
# Youngs Moduli (GPa) = 47.58880 30.52527 80.27867
#
# Poissons Ratio (x) = 0.12652 0.38233
# Poissons Ratio (y) = 0.19724 0.43424
# Poissons Ratio (z) = 0.22664 0.16512
#
# Static dielectric constant tensor:
#      x y z
#    x 1.485000 0.000000 0.000000 
#    y 0.000000 1.449400 0.000000 
#    z 0.000000 0.000000 1.511110 
# 
# From -- ./inp_files/8862.got.cif
#   From: 2010.05.17/outbox.cif.g08.bks.cpg/sg35_5_cif.got.tgz:8862.got - 2010.06.03 17:29:28.
