data_PCOD9350458
_publ_section_title
;
Structure prediction by ZEFSAII (Michael W. Deem and Ramdas Pophale) SiO2 
 PCOD9350458
Probable space group: C M C 21
;
_chemical_formula_sum "Si O2"
_cell_formula_units_Z 64
_cell_length_a 23.691547
_cell_length_b 24.233955
_cell_length_c 5.247553
_cell_angle_alpha 90.000000
_cell_angle_beta 90.000000
_cell_angle_gamma 90.000000
_cell_volume 3012.829470
_symmetry_space_group_name_H-M "C M C 21"
_symmetry_group_IT_number 36
_symmetry_cell_setting 'orthorhombic'
loop_
_space_group_symop_operation_xyz
x,y,z
-x,-y,1/2+z
x,-y,1/2+z
-x,y,z
1/2+x,1/2+y,z
1/2-x,1/2-y,1/2+z
1/2+x,1/2-y,1/2+z
1/2-x,1/2+y,z
loop_
_atom_site_type_symbol
_atom_site_label
_atom_site_fract_x
_atom_site_fract_y
_atom_site_fract_z
Si Si1 0.166158 0.138705 0.605760
Si Si2 0.431048 0.033388 0.106514
Si Si3 0.094810 0.846702 0.602927
Si Si4 0.902856 0.273954 0.163491
Si Si5 0.581793 0.531347 0.082972
Si Si6 0.208143 0.985321 0.108008
Si Si7 0.721139 0.735701 0.338674
Si Si8 0.566253 0.839941 0.668220
O O1 0.118312 0.141813 0.387210
O O2 0.187741 0.076890 0.624586
O O3 0.213247 0.178245 0.488695
O O4 0.141818 0.157650 0.877766
O O5 0.500000 0.034680 0.103983
O O6 0.413149 0.097139 0.134829
O O7 0.413510 0.995943 0.345281
O O8 0.068136 0.786002 0.615340
O O9 0.066061 0.905203 0.538498
O O10 0.839496 0.258630 0.251907
O O11 0.928046 0.307761 0.400280
O O12 0.904033 0.307945 0.901088
O O13 0.563035 0.506658 0.350458
O O14 0.650864 0.523602 0.093541
O O15 0.241089 0.003740 0.353125
O O16 0.745519 0.771549 0.573769
O O17 0.500000 0.841657 0.738122
#
# Coordination Sequence:
#
# PCOD9350458 Si02
#       8
#     8   8   8   8   8   8   8   8
#     4  11  18  29  48  70  99 139 174 235 288 334
#     4   9  17  31  55  88 122 147 182 236 293 339
#     4  11  18  29  46  73 111 142 176 231 273 345
#     4  11  23  37  57  86 119 160 200 237 292 362
#     4  10  15  24  40  66 103 134 163 223 298 338
#     4  10  15  24  40  68  97 126 162 216 309 349
#     4  11  23  39  55  78 110 153 208 249 290 334
#     4  11  22  39  61  91 128 157 188 243 304 361
#
# _framework density 21.242491000000001
#
# number of rings (size 3 to 8) (size 9 to 14) (size 15 to 20)
#    0.000    1.500    5.000    4.875    0.000    2.000 
#    0.000    0.000    0.000    0.000    0.000   17.500 
#    0.000   10.000    0.000    0.000    0.000    0.000 
#
# Total GULP energy -178479.128090 kJ/mol
# GULP energy per Si atom -5577.472753 kJ/mol
# Density = 2.119414 g / cm^3
# Si number density = 21.242491 Si / 1000 Ang^3
#
#
#
# Elastic Constant Matrix: (Units=GPa)
#
#
# Indices 1 2 3 4 5 6 
#
# 1 28.5871 8.5499 6.4189 0.0000 0.0000 0.0000
# 2 8.5499 153.8717 47.4180 0.0000 0.0000 0.0000
# 3 6.4189 47.4180 159.7020 0.0000 0.0000 0.0000
# 4 0.0000 0.0000 0.0000 43.3382 0.0000 0.0000
# 5 0.0000 0.0000 0.0000 0.0000 13.4749 0.0000
# 6 0.0000 0.0000 0.0000 0.0000 0.0000 1.4024
#
#
#
# Elastic Compliance Matrix: (Units=1/GPa)
#
#
# Indices 1 2 3 4 5 6 
#
# 1 0.035697 -0.001697 -0.000931 0.000000 0.000000 0.000000
# 2 -0.001697 0.007234 -0.002080 0.000000 0.000000 0.000000
# 3 -0.000931 -0.002080 0.006917 0.000000 0.000000 0.000000
# 4 0.000000 0.000000 0.000000 0.023074 0.000000 0.000000
# 5 0.000000 0.000000 0.000000 0.000000 0.074212 0.000000
# 6 0.000000 0.000000 0.000000 0.000000 0.000000 0.713076
#
#
# Mechanical properties :
#
#
# Convention : Reuss Voigt Hill
#
# Bulk Modulus (GPa) = 24.73212 51.88159 38.30685
# Shear Modulus (GPa) = 5.66186 30.29471 17.97828
#
# Velocity S-wave (km/s) = 1.63436 3.78052 2.91234
# Velocity P-wave (km/s) = 3.90250 6.59795 5.42045
#
# Compressibility (1/GPa) = 0.04043326
#
# Stress axis : x y z
#
# Youngs Moduli (GPa) = 28.01334 138.23433 144.58003
#
# Poissons Ratio (x) = 0.23453 0.13461
# Poissons Ratio (y) = 0.04753 0.30069
# Poissons Ratio (z) = 0.02608 0.28749
#
# Static dielectric constant tensor:
#      x y z
#    x 1.843120 0.000000 0.000000 
#    y 0.000000 1.790670 0.000000 
#    z 0.000000 0.000000 1.793540 
# 
# From -- ./inp_files/1831.got.cif
#   From: 2010.05.17/outbox.cif.g08.bks.cpg/sg36_1_cif.got.tgz:1831.got - 2010.06.03 17:41:39.
