data_PCOD9350775
_publ_section_title
;
Structure prediction by ZEFSAII (Michael W. Deem and Ramdas Pophale) SiO2 
 PCOD9350775
Probable space group: C M C 21
;
_chemical_formula_sum "Si O2"
_cell_formula_units_Z 64
_cell_length_a 7.471328
_cell_length_b 20.115672
_cell_length_c 16.897383
_cell_angle_alpha 90.000000
_cell_angle_beta 90.000000
_cell_angle_gamma 90.000000
_cell_volume 2539.520929
_symmetry_space_group_name_H-M "C M C 21"
_symmetry_group_IT_number 36
_symmetry_cell_setting 'orthorhombic'
loop_
_space_group_symop_operation_xyz
x,y,z
-x,-y,1/2+z
x,-y,1/2+z
-x,y,z
1/2+x,1/2+y,z
1/2-x,1/2-y,1/2+z
1/2+x,1/2-y,1/2+z
1/2-x,1/2+y,z
loop_
_atom_site_type_symbol
_atom_site_label
_atom_site_fract_x
_atom_site_fract_y
_atom_site_fract_z
Si Si1 0.215893 0.917208 0.444330
Si Si2 0.787903 0.332570 0.602675
Si Si3 0.701856 0.698039 0.532423
Si Si4 0.782017 0.036201 0.688619
Si Si5 0.296159 0.406046 0.763572
Si Si6 0.717114 0.656639 0.783491
Si Si7 0.282406 0.549785 0.512688
Si Si8 0.295322 0.783712 0.861143
O O1 0.263959 0.875594 0.522775
O O2 0.271459 0.880202 0.364645
O O3 0.000000 0.919208 0.441931
O O4 0.278827 0.993714 0.451587
O O5 0.719526 0.257657 0.584575
O O6 0.706330 0.369052 0.678442
O O7 0.000000 0.327296 0.618867
O O8 0.500000 0.686545 0.563716
O O9 0.785321 0.625361 0.518232
O O10 0.693129 0.724886 0.442712
O O11 0.720620 0.109563 0.712929
O O12 0.737507 0.020321 0.598839
O O13 0.000000 0.034636 0.692669
O O14 0.717709 0.978591 0.746903
O O15 0.500000 0.414495 0.790908
O O16 0.210114 0.357420 0.826831
O O17 0.500000 0.765882 0.879973
O O18 0.771995 0.732719 0.794146
O O19 0.500000 0.554520 0.504290
O O20 0.000000 0.156846 0.777593
#
# Coordination Sequence:
#
# PCOD9350775 Si02
#       8
#     8   8   8   8   8   8   8   8
#     4  10  18  35  60  85 109 146 194 240 284 334
#     4  11  22  37  59  86 118 151 187 234 290 347
#     4  10  22  38  60  87 115 151 195 242 283 338
#     4   9  18  34  58  85 108 143 196 247 281 325
#     4  11  23  39  62  86 114 151 195 240 284 343
#     4   9  19  33  56  84 113 148 192 239 286 337
#     4   9  18  33  58  86 111 142 196 248 279 324
#     4  11  23  39  59  85 120 154 187 236 293 350
#
# _framework density 25.201605000000001
#
# number of rings (size 3 to 8) (size 9 to 14) (size 15 to 20)
#    0.000    2.000    2.500    1.125    3.500    0.500 
#    0.000    0.625    0.000    3.000    0.000    0.000 
#    0.000    0.000    0.000    0.000    0.000    0.000 
#
# Total GULP energy -178895.796049 kJ/mol
# GULP energy per Si atom -5590.493627 kJ/mol
# Density = 2.514425 g / cm^3
# Si number density = 25.201605 Si / 1000 Ang^3
#
#
#
# Elastic Constant Matrix: (Units=GPa)
#
#
# Indices 1 2 3 4 5 6 
#
# 1 77.1016 -2.6603 -7.9503 0.0000 0.0000 0.0000
# 2 -2.6603 127.8576 -15.2959 0.0000 0.0000 0.0000
# 3 -7.9503 -15.2959 47.2514 0.0000 0.0000 0.0000
# 4 0.0000 0.0000 0.0000 44.5410 0.0000 0.0000
# 5 0.0000 0.0000 0.0000 0.0000 11.4146 0.0000
# 6 0.0000 0.0000 0.0000 0.0000 0.0000 -30.3254
#
#
#
# Elastic Compliance Matrix: (Units=1/GPa)
#
#
# Indices 1 2 3 4 5 6 
#
# 1 0.013238 0.000564 0.002410 0.000000 0.000000 0.000000
# 2 0.000564 0.008160 0.002736 0.000000 0.000000 0.000000
# 3 0.002410 0.002736 0.022455 0.000000 0.000000 0.000000
# 4 0.000000 0.000000 0.000000 0.022451 0.000000 0.000000
# 5 0.000000 0.000000 0.000000 0.000000 0.087607 0.000000
# 6 0.000000 0.000000 0.000000 0.000000 0.000000 -0.032976
#
#
# Mechanical properties :
#
#
# Convention : Reuss Voigt Hill
#
# Bulk Modulus (GPa) = 18.09209 22.26641 20.17925
# Shear Modulus (GPa) = 39.08082 23.66718 31.37400
#
# Velocity S-wave (km/s) = 3.94220 3.06782 3.53217
# Velocity P-wave (km/s) = 5.28354 4.62636 4.96583
#
# Compressibility (1/GPa) = 0.05527276
#
# Stress axis : x y z
#
# Youngs Moduli (GPa) = 75.54106 122.54449 44.53417
#
# Poissons Ratio (x) = -0.06908 -0.10732
# Poissons Ratio (y) = -0.04258 -0.12187
# Poissons Ratio (z) = -0.18204 -0.33534
#
# Static dielectric constant tensor:
#      x y z
#    x 1.972520 0.000000 0.000000 
#    y 0.000000 2.013860 0.000000 
#    z 0.000000 0.000000 1.956610 
# 
# From -- ./inp_files/13838.got.cif
#   From: 2010.05.17/outbox.cif.g08.bks.cpg/sg36_7_cif.got.tgz:13838.got - 2010.06.03 17:41:39.
