data_PCOD9350242
_publ_section_title
;
Structure prediction by ZEFSAII (Michael W. Deem and Ramdas Pophale) SiO2 
 PCOD9350242
Probable space group: C M M 2
;
_chemical_formula_sum "Si O2"
_cell_formula_units_Z 40
_cell_length_a 18.746202
_cell_length_b 8.530132
_cell_length_c 13.696076
_cell_angle_alpha 90.000000
_cell_angle_beta 90.000000
_cell_angle_gamma 90.000000
_cell_volume 2190.106335
_symmetry_space_group_name_H-M "C M M 2"
_symmetry_group_IT_number 35
_symmetry_cell_setting 'orthorhombic'
loop_
_space_group_symop_operation_xyz
x,y,z
-x,-y,z
-x,y,z
x,-y,z
1/2+x,1/2+y,z
1/2-x,1/2-y,z
1/2-x,1/2+y,z
1/2+x,1/2-y,z
loop_
_atom_site_type_symbol
_atom_site_label
_atom_site_fract_x
_atom_site_fract_y
_atom_site_fract_z
Si Si1 0.168395 0.186352 0.009920
Si Si2 0.418227 0.191484 0.614543
Si Si3 0.830894 0.311842 0.805542
Si Si4 0.168512 0.687840 0.211100
Si Si5 0.830828 0.310649 0.425653
O O1 0.250000 0.250000 0.010392
O O2 0.135153 0.243933 0.112055
O O3 0.170213 0.000000 0.008114
O O4 0.137902 0.250620 0.908319
O O5 0.500000 0.243006 0.616030
O O6 0.376234 0.239398 0.711900
O O7 0.377800 0.243945 0.516644
O O8 0.417966 0.000000 0.613540
O O9 0.828685 0.500000 0.808999
O O10 0.750000 0.250000 0.795653
O O11 0.169402 0.500000 0.203097
O O12 0.250000 0.750000 0.213637
O O13 0.139402 0.732950 0.318060
O O14 0.828225 0.500000 0.427858
O O15 0.750000 0.250000 0.435057
#
# Coordination Sequence:
#
# PCOD9350242 Si02
#       5
#     8   8   8   8   8
#     4  10  17  26  42  65  94 123 151 187 229 272
#     4   9  18  32  49  69  93 122 156 193 232 272
#     4  10  18  29  48  71  95 122 153 191 230 272
#     4   9  15  24  40  65  94 120 148 184 227 272
#     4   9  17  29  48  72  96 122 152 189 229 271
#
# _framework density 18.263953000000001
#
# number of rings (size 3 to 8) (size 9 to 14) (size 15 to 20)
#    0.000    2.600    0.000    6.000    0.000    0.800 
#    0.000    1.000    0.000    6.600    0.000    5.600 
#    0.000    0.000    0.000    0.000    0.000    0.000 
#
# Total GULP energy -111431.100919 kJ/mol
# GULP energy per Si atom -5571.555046 kJ/mol
# Density = 1.822238 g / cm^3
# Si number density = 18.263953 Si / 1000 Ang^3
#
#
#
# Elastic Constant Matrix: (Units=GPa)
#
#
# Indices 1 2 3 4 5 6 
#
# 1 55.1750 12.7145 70.4535 0.0000 0.0000 0.0000
# 2 12.7145 61.5878 48.0543 0.0000 0.0000 0.0000
# 3 70.4535 48.0543 243.4365 0.0000 0.0000 0.0000
# 4 0.0000 0.0000 0.0000 21.7128 0.0000 0.0000
# 5 0.0000 0.0000 0.0000 0.0000 -4.6345 0.0000
# 6 0.0000 0.0000 0.0000 0.0000 0.0000 9.8778
#
#
#
# Elastic Compliance Matrix: (Units=1/GPa)
#
#
# Indices 1 2 3 4 5 6 
#
# 1 0.028771 0.000659 -0.008457 0.000000 0.000000 0.000000
# 2 0.000659 0.019208 -0.003982 0.000000 0.000000 0.000000
# 3 -0.008457 -0.003982 0.007341 0.000000 0.000000 0.000000
# 4 0.000000 0.000000 0.000000 0.046056 0.000000 0.000000
# 5 0.000000 0.000000 0.000000 0.000000 -0.215775 0.000000
# 6 0.000000 0.000000 0.000000 0.000000 0.000000 0.101237
#
#
# Mechanical properties :
#
#
# Convention : Reuss Voigt Hill
#
# Bulk Modulus (GPa) = 31.48617 69.18263 50.33440
# Shear Modulus (GPa) = 238.26373 20.65636 129.46005
#
# Velocity S-wave (km/s) = 11.43411 3.36667 8.42833
# Velocity P-wave (km/s) = 13.84180 7.28520 11.06051
#
# Compressibility (1/GPa) = 0.03175998
#
# Stress axis : x y z
#
# Youngs Moduli (GPa) = 34.75755 52.06093 136.21334
#
# Poissons Ratio (x) = -0.03430 1.15191
# Poissons Ratio (y) = -0.02290 0.54245
# Poissons Ratio (z) = 0.29393 0.20733
#
# Static dielectric constant tensor:
#      x y z
#    x 1.585690 0.000000 0.000000 
#    y 0.000000 1.695600 0.000000 
#    z 0.000000 0.000000 1.703000 
# 
# From -- ./inp_files/14704.got.cif
#   From: 2010.05.17/outbox.cif.g08.bks.cpg/sg35_8_cif.got.tgz:14704.got - 2010.06.03 17:29:28.
