data_PCOD9350792
_publ_section_title
;
Structure prediction by ZEFSAII (Michael W. Deem and Ramdas Pophale) SiO2 
 PCOD9350792
Probable space group: C M C 21
;
_chemical_formula_sum "Si O2"
_cell_formula_units_Z 64
_cell_length_a 7.667219
_cell_length_b 24.288678
_cell_length_c 15.728676
_cell_angle_alpha 90.000000
_cell_angle_beta 90.000000
_cell_angle_gamma 90.000000
_cell_volume 2929.098065
_symmetry_space_group_name_H-M "C M C 21"
_symmetry_group_IT_number 36
_symmetry_cell_setting 'orthorhombic'
loop_
_space_group_symop_operation_xyz
x,y,z
-x,-y,1/2+z
x,-y,1/2+z
-x,y,z
1/2+x,1/2+y,z
1/2-x,1/2-y,1/2+z
1/2+x,1/2-y,1/2+z
1/2-x,1/2+y,z
loop_
_atom_site_type_symbol
_atom_site_label
_atom_site_fract_x
_atom_site_fract_y
_atom_site_fract_z
Si Si1 0.209322 0.252375 0.480910
Si Si2 0.205109 0.359924 0.060544
Si Si3 0.794471 0.247513 0.786800
Si Si4 0.214053 0.638358 0.219058
Si Si5 0.211588 0.375959 0.530529
Si Si6 0.201999 0.583459 0.391324
Si Si7 0.296755 0.372905 0.249405
Si Si8 0.796980 0.959249 0.382479
O O1 0.269918 0.205215 0.545346
O O2 0.273890 0.238455 0.386142
O O3 0.266374 0.314190 0.503664
O O4 0.000000 0.251839 0.480922
O O5 0.286585 0.379313 0.148672
O O6 0.000000 0.371916 0.067375
O O7 0.279365 0.389713 0.976504
O O8 0.726951 0.298492 0.731940
O O9 0.717458 0.186958 0.771305
O O10 0.000000 0.243862 0.766342
O O11 0.267363 0.615287 0.127870
O O12 0.274802 0.604973 0.301729
O O13 0.000000 0.638308 0.218256
O O14 0.280480 0.420731 0.464988
O O15 0.000000 0.377689 0.526556
O O16 0.208857 0.517891 0.394835
O O17 0.000000 0.601768 0.391350
O O18 0.500000 0.370473 0.275784
O O19 0.222427 0.422915 0.304496
O O20 0.000000 0.971647 0.366345
#
# Coordination Sequence:
#
# PCOD9350792 Si02
#       8
#     8   8   8   8   8   8   8   8
#     4  11  21  34  58  92 126 156 192 241 296 350
#     4  11  23  39  62  89 119 159 204 244 291 355
#     4  10  18  36  62  86 120 158 192 234 295 361
#     4   9  18  36  62  86 112 152 195 236 285 344
#     4  10  21  38  62  89 119 156 197 237 288 355
#     4  10  22  41  62  83 112 155 204 247 291 349
#     4  10  22  39  61  88 121 157 193 243 307 356
#     4  11  24  41  61  85 117 155 195 248 305 350
#
# _framework density 21.849727999999999
#
# number of rings (size 3 to 8) (size 9 to 14) (size 15 to 20)
#    0.000    1.750    2.500    1.875    0.000    6.000 
#    0.000    5.000    0.000    0.000    0.000    0.000 
#    0.000    0.000    0.000    0.000    0.000    0.000 
#
# Total GULP energy -178837.250901 kJ/mol
# GULP energy per Si atom -5588.664091 kJ/mol
# Density = 2.180000 g / cm^3
# Si number density = 21.849728 Si / 1000 Ang^3
#
#
#
# Elastic Constant Matrix: (Units=GPa)
#
#
# Indices 1 2 3 4 5 6 
#
# 1 38.1648 -6.4185 -12.9339 0.0000 0.0000 0.0000
# 2 -6.4185 91.1813 39.2296 0.0000 0.0000 0.0000
# 3 -12.9339 39.2296 106.9479 0.0000 0.0000 0.0000
# 4 0.0000 0.0000 0.0000 -11.2952 0.0000 0.0000
# 5 0.0000 0.0000 0.0000 0.0000 17.9830 0.0000
# 6 0.0000 0.0000 0.0000 0.0000 0.0000 10.6620
#
#
#
# Elastic Compliance Matrix: (Units=1/GPa)
#
#
# Indices 1 2 3 4 5 6 
#
# 1 0.027349 0.000596 0.003089 0.000000 0.000000 0.000000
# 2 0.000596 0.013035 -0.004709 0.000000 0.000000 0.000000
# 3 0.003089 -0.004709 0.011451 0.000000 0.000000 0.000000
# 4 0.000000 0.000000 0.000000 -0.088533 0.000000 0.000000
# 5 0.000000 0.000000 0.000000 0.000000 0.055608 0.000000
# 6 0.000000 0.000000 0.000000 0.000000 0.000000 0.093791
#
#
# Mechanical properties :
#
#
# Convention : Reuss Voigt Hill
#
# Bulk Modulus (GPa) = 20.08546 30.67205 25.37876
# Shear Modulus (GPa) = 38.06740 17.89774 27.98257
#
# Velocity S-wave (km/s) = 4.17854 2.86515 3.58255
# Velocity P-wave (km/s) = 5.70024 5.00136 5.36220
#
# Compressibility (1/GPa) = 0.04978725
#
# Stress axis : x y z
#
# Youngs Moduli (GPa) = 36.56410 76.71484 87.32596
#
# Poissons Ratio (x) = -0.04574 -0.26973
# Poissons Ratio (y) = -0.02180 0.41125
# Poissons Ratio (z) = -0.11294 0.36128
#
# Static dielectric constant tensor:
#      x y z
#    x 1.830730 0.000000 0.000000 
#    y 0.000000 1.781470 0.000000 
#    z 0.000000 0.000000 1.788790 
# 
# From -- ./inp_files/10939.got.cif
#   From: 2010.05.17/outbox.cif.g08.bks.cpg/sg36_6_cif.got.tgz:10939.got - 2010.06.03 17:41:39.
