data_PCOD9350021
_publ_section_title
;
Structure prediction by ZEFSAII (Michael W. Deem and Ramdas Pophale) SiO2 
 PCOD9350021
Probable space group: C M M 2
;
_chemical_formula_sum "Si O2"
_cell_formula_units_Z 34
_cell_length_a 19.885753
_cell_length_b 7.694879
_cell_length_c 10.240805
_cell_angle_alpha 90.000000
_cell_angle_beta 90.000000
_cell_angle_gamma 90.000000
_cell_volume 1567.032243
_symmetry_space_group_name_H-M "C M M 2"
_symmetry_group_IT_number 35
_symmetry_cell_setting 'orthorhombic'
loop_
_space_group_symop_operation_xyz
x,y,z
-x,-y,z
-x,y,z
x,-y,z
1/2+x,1/2+y,z
1/2-x,1/2-y,z
1/2-x,1/2+y,z
1/2+x,1/2-y,z
loop_
_atom_site_type_symbol
_atom_site_label
_atom_site_fract_x
_atom_site_fract_y
_atom_site_fract_z
Si Si1 0.575504 0.704785 0.086380
Si Si2 0.824190 0.208156 0.306178
Si Si3 0.672939 0.794845 0.854429
Si Si4 0.500000 0.500000 0.547429
Si Si5 0.884454 0.702241 0.572874
O O1 0.500000 0.777390 0.074126
O O2 0.568608 0.500000 0.113132
O O3 0.619106 0.776149 0.206512
O O4 0.619257 0.719437 0.955683
O O5 0.750000 0.250000 0.255247
O O6 0.835740 0.287912 0.448187
O O7 0.829998 0.000000 0.316483
O O8 0.750000 0.750000 0.884206
O O9 0.653621 0.747413 0.706498
O O10 0.666364 0.000000 0.866024
O O11 0.441842 0.345132 0.549276
O O12 0.907763 0.500000 0.586027
#
# Coordination Sequence:
#
# PCOD9350021 Si02
#       5
#     8   8   8   2   8
#     4  10  24  42  67  97 135 179 227 278 344 409
#     4  11  23  42  69 100 136 181 232 285 342 409
#     4  11  25  43  67  98 133 176 231 282 338 410
#     4  12  26  44  72 100 152 176 216 282 356 394
#     4  11  26  44  71 106 137 180 231 278 338 411
#
# _framework density 21.697064000000001
#
# number of rings (size 3 to 8) (size 9 to 14) (size 15 to 20)
#    0.000    1.176    1.176    3.176    6.588    6.118 
#    0.000    0.000    0.000    0.000    0.000    0.000 
#    0.000    0.000    0.000    0.000    0.000    0.000 
#
# Total GULP energy -94766.557254 kJ/mol
# GULP energy per Si atom -5574.503368 kJ/mol
# Density = 2.164768 g / cm^3
# Si number density = 21.697064 Si / 1000 Ang^3
#
#
#
# Elastic Constant Matrix: (Units=GPa)
#
#
# Indices 1 2 3 4 5 6 
#
# 1 180.5243 21.1015 60.7591 0.0000 0.0000 0.0000
# 2 21.1015 87.0783 -1.9494 0.0000 0.0000 0.0000
# 3 60.7591 -1.9494 132.9851 0.0000 0.0000 0.0000
# 4 0.0000 0.0000 0.0000 10.6894 0.0000 0.0000
# 5 0.0000 0.0000 0.0000 0.0000 221.5373 0.0000
# 6 0.0000 0.0000 0.0000 0.0000 0.0000 38.2432
#
#
#
# Elastic Compliance Matrix: (Units=1/GPa)
#
#
# Indices 1 2 3 4 5 6 
#
# 1 0.006793 -0.001716 -0.003129 0.000000 0.000000 0.000000
# 2 -0.001716 0.011921 0.000959 0.000000 0.000000 0.000000
# 3 -0.003129 0.000959 0.008963 0.000000 0.000000 0.000000
# 4 0.000000 0.000000 0.000000 0.093550 0.000000 0.000000
# 5 0.000000 0.000000 0.000000 0.000000 0.004514 0.000000
# 6 0.000000 0.000000 0.000000 0.000000 0.000000 0.026148
#
#
# Mechanical properties :
#
#
# Convention : Reuss Voigt Hill
#
# Bulk Modulus (GPa) = 50.23805 62.26779 56.25292
# Shear Modulus (GPa) = 30.06656 75.47243 52.76949
#
# Velocity S-wave (km/s) = 3.72660 5.90425 4.93699
# Velocity P-wave (km/s) = 6.45920 8.67417 7.64730
#
# Compressibility (1/GPa) = 0.01990523
#
# Stress axis : x y z
#
# Youngs Moduli (GPa) = 147.20818 83.88372 111.56705
#
# Poissons Ratio (x) = 0.14396 0.34907
# Poissons Ratio (y) = 0.25264 -0.10698
# Poissons Ratio (z) = 0.46059 -0.08043
#
# Static dielectric constant tensor:
#      x y z
#    x 1.747900 0.000000 0.000000 
#    y 0.000000 1.792950 0.000000 
#    z 0.000000 0.000000 1.789210 
# 
# From -- ./inp_files/4653.got.cif
#   From: 2010.05.17/outbox.cif.g08.bks.cpg/sg35_3_cif.got.tgz:4653.got - 2010.06.03 17:29:28.
