data_PCOD9350087
_publ_section_title
;
Structure prediction by ZEFSAII (Michael W. Deem and Ramdas Pophale) SiO2 
 PCOD9350087
Probable space group: C M M 2
;
_chemical_formula_sum "Si O2"
_cell_formula_units_Z 48
_cell_length_a 14.866079
_cell_length_b 8.231148
_cell_length_c 18.727180
_cell_angle_alpha 90.000000
_cell_angle_beta 90.000000
_cell_angle_gamma 90.000000
_cell_volume 2291.549441
_symmetry_space_group_name_H-M "C M M 2"
_symmetry_group_IT_number 35
_symmetry_cell_setting 'orthorhombic'
loop_
_space_group_symop_operation_xyz
x,y,z
-x,-y,z
-x,y,z
x,-y,z
1/2+x,1/2+y,z
1/2-x,1/2-y,z
1/2-x,1/2+y,z
1/2+x,1/2-y,z
loop_
_atom_site_type_symbol
_atom_site_label
_atom_site_fract_x
_atom_site_fract_y
_atom_site_fract_z
Si Si1 0.645580 0.305382 0.938840
Si Si2 0.000000 0.806975 0.676326
Si Si3 0.145179 0.803152 0.092787
Si Si4 0.145467 0.803513 0.246407
Si Si5 0.852966 0.803713 0.402292
Si Si6 0.500000 0.699233 0.514187
Si Si7 0.647017 0.808186 0.786002
O O1 0.641521 0.500000 0.937414
O O2 0.750000 0.250000 0.938837
O O3 0.609034 0.244583 0.863505
O O4 0.607702 0.248904 0.015751
O O5 0.000000 0.742027 0.595446
O O6 0.086460 0.755784 0.721942
O O7 0.000000 0.000000 0.671571
O O8 0.250000 0.750000 0.092821
O O9 0.107508 0.747299 0.169630
O O10 0.140823 0.000000 0.092583
O O11 0.250000 0.750000 0.246401
O O12 0.111204 0.748856 0.323989
O O13 0.140020 0.000000 0.245856
O O14 0.750000 0.750000 0.409561
O O15 0.913922 0.748393 0.467838
O O16 0.855269 0.000000 0.401590
O O17 0.500000 0.500000 0.515437
O O18 0.750000 0.750000 0.780233
O O19 0.646869 0.000000 0.784255
#
# Coordination Sequence:
#
# PCOD9350087 Si02
#       7
#     8   4   8   8   8   4   8
#     4   9  15  25  43  69 102 139 178 218 262 309
#     4  11  23  41  61  82 109 140 178 227 281 333
#     4   8  13  20  34  61  96 132 171 213 252 295
#     4   8  13  22  39  64  96 132 170 210 250 295
#     4   9  17  32  53  77 105 138 174 212 257 309
#     4   9  20  37  57  80 105 134 168 211 267 325
#     4  11  22  38  59  84 112 144 183 224 273 330
#
# _framework density 20.946528000000001
#
# number of rings (size 3 to 8) (size 9 to 14) (size 15 to 20)
#    0.000    2.833    0.000    3.250    0.000    1.333 
#    0.000    3.750    0.000    1.000    0.000    4.667 
#    0.000    0.000    0.000    0.000    0.000    0.000 
#
# Total GULP energy -133750.420940 kJ/mol
# GULP energy per Si atom -5572.934206 kJ/mol
# Density = 2.089885 g / cm^3
# Si number density = 20.946528 Si / 1000 Ang^3
#
#
#
# Elastic Constant Matrix: (Units=GPa)
#
#
# Indices 1 2 3 4 5 6 
#
# 1 91.6894 6.7467 78.4704 0.0000 0.0000 0.0000
# 2 6.7467 38.9936 32.5610 0.0000 0.0000 0.0000
# 3 78.4704 32.5610 282.3707 0.0000 0.0000 0.0000
# 4 0.0000 0.0000 0.0000 17.8853 0.0000 0.0000
# 5 0.0000 0.0000 0.0000 0.0000 59.9985 0.0000
# 6 0.0000 0.0000 0.0000 0.0000 0.0000 10.2422
#
#
#
# Elastic Compliance Matrix: (Units=1/GPa)
#
#
# Indices 1 2 3 4 5 6 
#
# 1 0.014341 0.000937 -0.004093 0.000000 0.000000 0.000000
# 2 0.000937 0.028439 -0.003540 0.000000 0.000000 0.000000
# 3 -0.004093 -0.003540 0.005087 0.000000 0.000000 0.000000
# 4 0.000000 0.000000 0.000000 0.055912 0.000000 0.000000
# 5 0.000000 0.000000 0.000000 0.000000 0.016667 0.000000
# 6 0.000000 0.000000 0.000000 0.000000 0.000000 0.097635
#
#
# Mechanical properties :
#
#
# Convention : Reuss Voigt Hill
#
# Bulk Modulus (GPa) = 29.00708 72.06775 50.53742
# Shear Modulus (GPa) = 20.57914 37.31025 28.94470
#
# Velocity S-wave (km/s) = 3.13782 4.22502 3.72134
# Velocity P-wave (km/s) = 5.19674 7.63422 6.53022
#
# Compressibility (1/GPa) = 0.03447434
#
# Stress axis : x y z
#
# Youngs Moduli (GPa) = 69.73218 35.16304 196.57462
#
# Poissons Ratio (x) = -0.03294 0.80463
# Poissons Ratio (y) = -0.06533 0.69582
# Poissons Ratio (z) = 0.28543 0.12447
#
# Static dielectric constant tensor:
#      x y z
#    x 1.138480 0.000000 0.000000 
#    y 0.000000 1.713330 0.000000 
#    z 0.000000 0.000000 1.821290 
# 
# From -- ./inp_files/18796.got.cif
#   From: 2010.05.17/outbox.cif.g08.bks.cpg/sg35_10_cif.got.tgz:18796.got - 2010.06.03 17:29:28.
