data_PCOD9350686
_publ_section_title
;
Structure prediction by ZEFSAII (Michael W. Deem and Ramdas Pophale) SiO2 
 PCOD9350686
Probable space group: C M C 21
;
_chemical_formula_sum "Si O2"
_cell_formula_units_Z 64
_cell_length_a 7.480403
_cell_length_b 16.016112
_cell_length_c 24.514129
_cell_angle_alpha 90.000000
_cell_angle_beta 90.000000
_cell_angle_gamma 90.000000
_cell_volume 2936.963573
_symmetry_space_group_name_H-M "C M C 21"
_symmetry_group_IT_number 36
_symmetry_cell_setting 'orthorhombic'
loop_
_space_group_symop_operation_xyz
x,y,z
-x,-y,1/2+z
x,-y,1/2+z
-x,y,z
1/2+x,1/2+y,z
1/2-x,1/2-y,1/2+z
1/2+x,1/2-y,1/2+z
1/2-x,1/2+y,z
loop_
_atom_site_type_symbol
_atom_site_label
_atom_site_fract_x
_atom_site_fract_y
_atom_site_fract_z
Si Si1 0.787487 0.414978 0.643490
Si Si2 0.785679 0.594267 0.375134
Si Si3 0.787476 0.906462 0.367787
Si Si4 0.218019 0.655803 0.257751
Si Si5 0.715912 0.257174 0.567932
Si Si6 0.293354 0.905508 0.129694
Si Si7 0.780901 0.246084 0.943122
Si Si8 0.283569 0.350848 0.250695
O O1 0.717275 0.389943 0.703253
O O2 0.763241 0.338408 0.602734
O O3 0.713255 0.502667 0.621795
O O4 0.000000 0.427284 0.650575
O O5 0.743607 0.499177 0.389775
O O6 0.719976 0.614476 0.313951
O O7 0.723107 0.666801 0.415769
O O8 0.000000 0.601126 0.373628
O O9 0.720379 0.832013 0.406279
O O10 0.720461 0.897022 0.305577
O O11 0.000000 0.893821 0.364166
O O12 0.266689 0.753392 0.255636
O O13 0.000000 0.653665 0.257686
O O14 0.500000 0.253926 0.567494
O O15 0.784883 0.173900 0.598189
O O16 0.777049 0.261446 0.505567
O O17 0.500000 0.909350 0.111792
O O18 0.286930 0.887389 0.194305
O O19 0.000000 0.245476 0.943047
O O20 0.500000 0.355260 0.247735
#
# Coordination Sequence:
#
# PCOD9350686 Si02
#       8
#     8   8   8   8   8   8   8   8
#     4  10  20  35  55  78 108 141 172 213 266 318
#     4  10  19  35  59  82 105 139 177 212 262 322
#     4  10  20  35  55  80 107 136 174 218 261 309
#     4   9  16  30  54  79 103 137 173 204 253 322
#     4  10  21  37  55  77 105 139 181 223 260 303
#     4  10  21  35  53  80 110 137 172 222 268 306
#     4   9  19  37  57  74 103 146 180 210 260 322
#     4  10  18  32  56  80 105 141 177 208 256 324
#
# _framework density 21.791214
#
# number of rings (size 3 to 8) (size 9 to 14) (size 15 to 20)
#    0.000    2.250    2.500    0.750    0.000    3.000 
#    0.000    4.375    0.000    0.000    0.000    0.000 
#    0.000    0.000    0.000    0.000    0.000    0.000 
#
# Total GULP energy -178797.831228 kJ/mol
# GULP energy per Si atom -5587.432226 kJ/mol
# Density = 2.174162 g / cm^3
# Si number density = 21.791214 Si / 1000 Ang^3
#
#
#
# Elastic Constant Matrix: (Units=GPa)
#
#
# Indices 1 2 3 4 5 6 
#
# 1 58.3991 -10.2110 -11.8185 0.0000 0.0000 0.0000
# 2 -10.2110 157.1277 44.0442 0.0000 0.0000 0.0000
# 3 -11.8185 44.0442 110.7583 0.0000 0.0000 0.0000
# 4 0.0000 0.0000 0.0000 1.8832 0.0000 0.0000
# 5 0.0000 0.0000 0.0000 0.0000 13.7363 0.0000
# 6 0.0000 0.0000 0.0000 0.0000 0.0000 5.7863
#
#
#
# Elastic Compliance Matrix: (Units=1/GPa)
#
#
# Indices 1 2 3 4 5 6 
#
# 1 0.017568 0.000694 0.001599 0.000000 0.000000 0.000000
# 2 0.000694 0.007190 -0.002785 0.000000 0.000000 0.000000
# 3 0.001599 -0.002785 0.010307 0.000000 0.000000 0.000000
# 4 0.000000 0.000000 0.000000 0.531013 0.000000 0.000000
# 5 0.000000 0.000000 0.000000 0.000000 0.072800 0.000000
# 6 0.000000 0.000000 0.000000 0.000000 0.000000 0.172822
#
#
# Mechanical properties :
#
#
# Convention : Reuss Voigt Hill
#
# Bulk Modulus (GPa) = 29.34307 41.14606 35.24456
# Shear Modulus (GPa) = 6.06762 24.56584 15.31673
#
# Velocity S-wave (km/s) = 1.67047 3.36121 2.65408
# Velocity P-wave (km/s) = 4.14915 5.82980 5.05974
#
# Compressibility (1/GPa) = 0.03407960
#
# Stress axis : x y z
#
# Youngs Moduli (GPa) = 56.92045 139.08147 97.02300
#
# Poissons Ratio (x) = -0.09646 -0.15513
# Poissons Ratio (y) = -0.03948 0.27023
# Poissons Ratio (z) = -0.09101 0.38737
#
# Static dielectric constant tensor:
#      x y z
#    x 1.844860 0.000000 0.000000 
#    y 0.000000 1.784980 0.000000 
#    z 0.000000 0.000000 1.752400 
# 
# From -- ./inp_files/15689.got.cif
#   From: 2010.05.17/outbox.cif.g08.bks.cpg/sg36_8_cif.got.tgz:15689.got - 2010.06.03 17:41:39.
