data_PCOD9350440
_publ_section_title
;
Structure prediction by ZEFSAII (Michael W. Deem and Ramdas Pophale) SiO2 
 PCOD9350440
Probable space group: C M M 2
;
_chemical_formula_sum "Si O2"
_cell_formula_units_Z 48
_cell_length_a 8.703581
_cell_length_b 15.812985
_cell_length_c 17.697872
_cell_angle_alpha 90.000000
_cell_angle_beta 90.000000
_cell_angle_gamma 90.000000
_cell_volume 2435.750970
_symmetry_space_group_name_H-M "C M M 2"
_symmetry_group_IT_number 35
_symmetry_cell_setting 'orthorhombic'
loop_
_space_group_symop_operation_xyz
x,y,z
-x,-y,z
-x,y,z
x,-y,z
1/2+x,1/2+y,z
1/2-x,1/2-y,z
1/2-x,1/2+y,z
1/2+x,1/2-y,z
loop_
_atom_site_type_symbol
_atom_site_label
_atom_site_fract_x
_atom_site_fract_y
_atom_site_fract_z
Si Si1 0.683890 0.845906 0.712570
Si Si2 0.182021 0.337519 0.242181
Si Si3 0.815024 0.000000 0.980613
Si Si4 0.813912 0.500000 0.148569
Si Si5 0.679798 0.598697 0.392025
Si Si6 0.184690 0.154971 0.558453
Si Si7 0.184958 0.845399 0.871580
O O1 0.500000 0.844835 0.713710
O O2 0.750000 0.750000 0.710886
O O3 0.744372 0.885143 0.634323
O O4 0.750011 0.879150 0.791407
O O5 0.250000 0.250000 0.213835
O O6 0.239753 0.417074 0.193815
O O7 0.227614 0.350641 0.329524
O O8 0.000000 0.334834 0.236604
O O9 0.772665 0.085328 0.934671
O O10 0.000000 0.000000 0.986634
O O11 0.742906 0.000000 0.063208
O O12 0.000000 0.500000 0.149514
O O13 0.500000 0.622484 0.386126
O O14 0.695594 0.500000 0.374066
O O15 0.725613 0.612290 0.478972
O O16 0.250000 0.250000 0.552993
O O17 0.000000 0.156429 0.566099
O O18 0.250000 0.750000 0.884528
O O19 0.000000 0.839393 0.866825
#
# Coordination Sequence:
#
# PCOD9350440 Si02
#       7
#     8   8   4   4   8   8   8
#     4  10  18  31  53  80 111 151 196 242 291 342
#     4  11  23  41  64  92 121 158 199 243 296 355
#     4  10  24  42  64  91 120 155 194 235 292 357
#     4  10  24  44  64  89 124 155 190 241 296 351
#     4  10  21  37  57  83 116 157 201 247 298 350
#     4  10  19  32  51  77 111 150 197 246 292 344
#     4  10  20  38  61  88 119 155 196 241 292 349
#
# _framework density 19.706447000000001
#
# number of rings (size 3 to 8) (size 9 to 14) (size 15 to 20)
#    0.000    1.833    0.833    5.500    0.000    6.000 
#    1.500    3.333    0.000    0.000    0.000    0.000 
#    0.000    0.000    0.000    0.000    0.000    0.000 
#
# Total GULP energy -134011.439629 kJ/mol
# GULP energy per Si atom -5583.809985 kJ/mol
# Density = 1.966159 g / cm^3
# Si number density = 19.706447 Si / 1000 Ang^3
#
#
#
# Elastic Constant Matrix: (Units=GPa)
#
#
# Indices 1 2 3 4 5 6 
#
# 1 68.1407 43.3275 44.8173 0.0000 0.0000 0.0000
# 2 43.3275 103.0015 73.2571 0.0000 0.0000 0.0000
# 3 44.8173 73.2571 148.6673 0.0000 0.0000 0.0000
# 4 0.0000 0.0000 0.0000 30.2849 0.0000 0.0000
# 5 0.0000 0.0000 0.0000 0.0000 35.9183 0.0000
# 6 0.0000 0.0000 0.0000 0.0000 0.0000 22.2912
#
#
#
# Elastic Compliance Matrix: (Units=1/GPa)
#
#
# Indices 1 2 3 4 5 6 
#
# 1 0.020883 -0.006631 -0.003028 0.000000 0.000000 0.000000
# 2 -0.006631 0.017052 -0.006404 0.000000 0.000000 0.000000
# 3 -0.003028 -0.006404 0.010795 0.000000 0.000000 0.000000
# 4 0.000000 0.000000 0.000000 0.033020 0.000000 0.000000
# 5 0.000000 0.000000 0.000000 0.000000 0.027841 0.000000
# 6 0.000000 0.000000 0.000000 0.000000 0.000000 0.044861
#
#
# Mechanical properties :
#
#
# Convention : Reuss Voigt Hill
#
# Bulk Modulus (GPa) = 60.22260 71.40148 65.81204
# Shear Modulus (GPa) = 26.02637 28.25937 27.14287
#
# Velocity S-wave (km/s) = 3.63809 3.79095 3.71531
# Velocity P-wave (km/s) = 6.94793 7.44802 7.20232
#
# Compressibility (1/GPa) = 0.01660506
#
# Stress axis : x y z
#
# Youngs Moduli (GPa) = 47.88479 58.64270 92.63742
#
# Poissons Ratio (x) = 0.38886 0.28051
# Poissons Ratio (y) = 0.31752 0.59323
# Poissons Ratio (z) = 0.14500 0.37553
#
# Static dielectric constant tensor:
#      x y z
#    x 1.667690 0.000000 0.000000 
#    y 0.000000 1.711420 0.000000 
#    z 0.000000 0.000000 1.706890 
# 
# From -- ./inp_files/17883.got.cif
#   From: 2010.05.17/outbox.cif.g08.bks.cpg/sg35_9_cif.got.tgz:17883.got - 2010.06.03 17:29:28.
