data_PCOD9350500
_publ_section_title
;
Structure prediction by ZEFSAII (Michael W. Deem and Ramdas Pophale) SiO2 
 PCOD9350500
Probable space group: C M C 21
;
_chemical_formula_sum "Si O2"
_cell_formula_units_Z 64
_cell_length_a 13.964937
_cell_length_b 17.628699
_cell_length_c 15.364217
_cell_angle_alpha 90.000000
_cell_angle_beta 90.000000
_cell_angle_gamma 90.000000
_cell_volume 3782.419342
_symmetry_space_group_name_H-M "C M C 21"
_symmetry_group_IT_number 36
_symmetry_cell_setting 'orthorhombic'
loop_
_space_group_symop_operation_xyz
x,y,z
-x,-y,1/2+z
x,-y,1/2+z
-x,y,z
1/2+x,1/2+y,z
1/2-x,1/2-y,1/2+z
1/2+x,1/2-y,1/2+z
1/2-x,1/2+y,z
loop_
_atom_site_type_symbol
_atom_site_label
_atom_site_fract_x
_atom_site_fract_y
_atom_site_fract_z
Si Si1 0.391979 0.516398 0.006810
Si Si2 0.885710 0.717720 0.423805
Si Si3 0.252681 0.010189 0.775389
Si Si4 0.612837 0.065438 0.631646
Si Si5 0.609235 0.625749 0.838566
Si Si6 0.703891 0.940464 0.947999
Si Si7 0.886490 0.898037 0.691883
Si Si8 0.115186 0.739143 0.622979
O O1 0.500000 0.484994 0.006157
O O2 0.376709 0.557259 0.099686
O O3 0.387601 0.579839 0.930501
O O4 0.310638 0.455037 0.985387
O O5 0.870724 0.786406 0.357579
O O6 0.822764 0.642800 0.412766
O O7 0.862906 0.748264 0.520767
O O8 0.000000 0.698524 0.423052
O O9 0.326385 0.014619 0.696765
O O10 0.187075 0.085035 0.779362
O O11 0.305286 0.997514 0.867134
O O12 0.177608 0.941989 0.761141
O O13 0.500000 0.059156 0.647062
O O14 0.635881 0.047166 0.531195
O O15 0.643198 0.153576 0.646871
O O16 0.500000 0.617800 0.805537
O O17 0.851745 0.811826 0.676868
O O18 0.000000 0.898974 0.714001
O O19 0.000000 0.741388 0.629266
#
# Coordination Sequence:
#
# PCOD9350500 Si02
#       8
#     8   8   8   8   8   8   8   8
#     4   9  16  29  51  76 104 132 160 204 262 311
#     4   9  16  30  53  76  99 136 182 217 244 290
#     4  11  22  32  52  79 108 135 166 209 273 318
#     4  10  21  37  53  73 101 135 180 220 253 303
#     4   9  17  31  51  78 105 130 166 213 256 301
#     4  10  20  34  51  77 105 136 175 213 257 305
#     4  10  17  30  52  79 105 130 164 208 263 317
#     4   8  15  29  52  74  95 130 174 216 249 291
#
# _framework density 16.920387000000002
#
# number of rings (size 3 to 8) (size 9 to 14) (size 15 to 20)
#    0.000    2.500    2.500    1.500    0.000    2.500 
#    0.000    0.000    0.000    0.750    0.000    8.750 
#    0.000    0.000    0.000    0.000    0.000    0.000 
#
# Total GULP energy -178225.893105 kJ/mol
# GULP energy per Si atom -5569.559160 kJ/mol
# Density = 1.688188 g / cm^3
# Si number density = 16.920387 Si / 1000 Ang^3
#
#
#
# Elastic Constant Matrix: (Units=GPa)
#
#
# Indices 1 2 3 4 5 6 
#
# 1 62.8698 36.8751 19.5109 0.0000 0.0000 0.0000
# 2 36.8751 60.7369 7.6544 0.0000 0.0000 0.0000
# 3 19.5109 7.6544 43.2684 0.0000 0.0000 0.0000
# 4 0.0000 0.0000 0.0000 19.0259 0.0000 0.0000
# 5 0.0000 0.0000 0.0000 0.0000 15.9679 0.0000
# 6 0.0000 0.0000 0.0000 0.0000 0.0000 23.8495
#
#
#
# Elastic Compliance Matrix: (Units=1/GPa)
#
#
# Indices 1 2 3 4 5 6 
#
# 1 0.028361 -0.015963 -0.009965 0.000000 0.000000 0.000000
# 2 -0.015963 0.025825 0.002630 0.000000 0.000000 0.000000
# 3 -0.009965 0.002630 0.027140 0.000000 0.000000 0.000000
# 4 0.000000 0.000000 0.000000 0.052560 0.000000 0.000000
# 5 0.000000 0.000000 0.000000 0.000000 0.062626 0.000000
# 6 0.000000 0.000000 0.000000 0.000000 0.000000 0.041930
#
#
# Mechanical properties :
#
#
# Convention : Reuss Voigt Hill
#
# Bulk Modulus (GPa) = 28.79431 32.77287 30.78359
# Shear Modulus (GPa) = 16.85694 18.62430 17.74062
#
# Velocity S-wave (km/s) = 3.15977 3.32128 3.24153
# Velocity P-wave (km/s) = 5.51059 5.84113 5.67827
#
# Compressibility (1/GPa) = 0.03472909
#
# Stress axis : x y z
#
# Youngs Moduli (GPa) = 35.25941 38.72264 36.84629
#
# Poissons Ratio (x) = 0.61813 0.36717
# Poissons Ratio (y) = 0.56285 -0.09689
# Poissons Ratio (z) = 0.35136 -0.10183
#
# Static dielectric constant tensor:
#      x y z
#    x 1.564000 0.000000 0.000000 
#    y 0.000000 1.583500 0.000000 
#    z 0.000000 0.000000 1.575640 
# 
# From -- ./inp_files/11782.got.cif
#   From: 2010.05.17/outbox.cif.g08.bks.cpg/sg36_6_cif.got.tgz:11782.got - 2010.06.03 17:41:39.
