data_PCOD9350545
_publ_section_title
;
Structure prediction by ZEFSAII (Michael W. Deem and Ramdas Pophale) SiO2 
 PCOD9350545
Probable space group: C M C 21
;
_chemical_formula_sum "Si O2"
_cell_formula_units_Z 48
_cell_length_a 7.576318
_cell_length_b 28.990178
_cell_length_c 7.929518
_cell_angle_alpha 90.000000
_cell_angle_beta 90.000000
_cell_angle_gamma 90.000000
_cell_volume 1741.629877
_symmetry_space_group_name_H-M "C M C 21"
_symmetry_group_IT_number 36
_symmetry_cell_setting 'orthorhombic'
loop_
_space_group_symop_operation_xyz
x,y,z
-x,-y,1/2+z
x,-y,1/2+z
-x,y,z
1/2+x,1/2+y,z
1/2-x,1/2-y,1/2+z
1/2+x,1/2-y,1/2+z
1/2-x,1/2+y,z
loop_
_atom_site_type_symbol
_atom_site_label
_atom_site_fract_x
_atom_site_fract_y
_atom_site_fract_z
Si Si1 0.793090 0.987611 0.591830
Si Si2 0.281742 0.572573 0.775603
Si Si3 0.209801 0.822080 0.008392
Si Si4 0.295523 0.659746 0.957415
Si Si5 0.792763 0.401850 0.780612
Si Si6 0.211323 0.235917 0.191062
O O1 0.723787 0.957114 0.439316
O O2 0.775938 0.953619 0.753960
O O3 0.000000 0.993515 0.559969
O O4 0.719120 0.038134 0.629636
O O5 0.500000 0.574818 0.770125
O O6 0.221314 0.624441 0.817108
O O7 0.261737 0.873667 0.953573
O O8 0.283118 0.790167 0.854940
O O9 0.254568 0.790016 0.168231
O O10 0.000000 0.823095 0.003757
O O11 0.500000 0.668224 0.913473
O O12 0.214439 0.706822 0.030982
O O13 0.295112 0.628352 0.130135
O O14 0.000000 0.402434 0.749532
O O15 0.000000 0.230099 0.192073
#
# Coordination Sequence:
#
# PCOD9350545 Si02
#       6
#     8   8   8   8   8   8
#     4   9  16  29  47  68  92 120 155 192 231 276
#     4   8  14  26  47  68  89 119 154 189 224 270
#     4  10  20  34  52  73  98 128 162 200 241 287
#     4   8  15  30  49  69  94 124 158 194 231 279
#     4  10  18  29  47  69  93 124 160 195 234 282
#     4   9  18  32  50  73 100 127 159 200 241 284
#
# _framework density 27.560390999999999
#
# number of rings (size 3 to 8) (size 9 to 14) (size 15 to 20)
#    0.000    3.000    0.000    4.000    0.000    3.333 
#    0.000    5.000    0.000    4.000    0.000    0.000 
#    0.000    0.000    0.000    0.000    0.000    0.000 
#
# Total GULP energy -134157.280072 kJ/mol
# GULP energy per Si atom -5589.886670 kJ/mol
# Density = 2.749766 g / cm^3
# Si number density = 27.560391 Si / 1000 Ang^3
#
#
#
# Elastic Constant Matrix: (Units=GPa)
#
#
# Indices 1 2 3 4 5 6 
#
# 1 101.9587 -15.3514 -7.4709 0.0000 0.0000 0.0000
# 2 -15.3514 227.0726 9.5562 0.0000 0.0000 0.0000
# 3 -7.4709 9.5562 74.4520 0.0000 0.0000 0.0000
# 4 0.0000 0.0000 0.0000 55.3263 0.0000 0.0000
# 5 0.0000 0.0000 0.0000 0.0000 4.5940 0.0000
# 6 0.0000 0.0000 0.0000 0.0000 0.0000 16.2001
#
#
#
# Elastic Compliance Matrix: (Units=1/GPa)
#
#
# Indices 1 2 3 4 5 6 
#
# 1 0.009971 0.000635 0.000919 0.000000 0.000000 0.000000
# 2 0.000635 0.004468 -0.000510 0.000000 0.000000 0.000000
# 3 0.000919 -0.000510 0.013589 0.000000 0.000000 0.000000
# 4 0.000000 0.000000 0.000000 0.018075 0.000000 0.000000
# 5 0.000000 0.000000 0.000000 0.000000 0.217676 0.000000
# 6 0.000000 0.000000 0.000000 0.000000 0.000000 0.061728
#
#
# Mechanical properties :
#
#
# Convention : Reuss Voigt Hill
#
# Bulk Modulus (GPa) = 33.20321 41.88345 37.54333
# Shear Modulus (GPa) = 14.99446 43.00737 29.00092
#
# Velocity S-wave (km/s) = 2.33504 3.95457 3.24739
# Velocity P-wave (km/s) = 4.39812 6.00679 5.26426
#
# Compressibility (1/GPa) = 0.03011757
#
# Stress axis : x y z
#
# Youngs Moduli (GPa) = 100.29181 223.79934 73.58831
#
# Poissons Ratio (x) = -0.14221 -0.06763
# Poissons Ratio (y) = -0.06373 0.03751
# Poissons Ratio (z) = -0.09217 0.11408
#
# Static dielectric constant tensor:
#      x y z
#    x 2.001350 0.000000 0.000000 
#    y 0.000000 2.155440 0.000000 
#    z 0.000000 0.000000 2.336800 
# 
# From -- ./inp_files/6751.got.cif
#   From: 2010.05.17/outbox.cif.g08.bks.cpg/sg36_4_cif.got.tgz:6751.got - 2010.06.03 17:41:39.
