data_PCOD9350531
_publ_section_title
;
Structure prediction by ZEFSAII (Michael W. Deem and Ramdas Pophale) SiO2 
 PCOD9350531
Probable space group: C M C 21
;
_chemical_formula_sum "Si O2"
_cell_formula_units_Z 64
_cell_length_a 27.484044
_cell_length_b 18.835755
_cell_length_c 5.567037
_cell_angle_alpha 90.000000
_cell_angle_beta 90.000000
_cell_angle_gamma 90.000000
_cell_volume 2881.958852
_symmetry_space_group_name_H-M "C M C 21"
_symmetry_group_IT_number 36
_symmetry_cell_setting 'orthorhombic'
loop_
_space_group_symop_operation_xyz
x,y,z
-x,-y,1/2+z
x,-y,1/2+z
-x,y,z
1/2+x,1/2+y,z
1/2-x,1/2-y,1/2+z
1/2+x,1/2-y,1/2+z
1/2-x,1/2+y,z
loop_
_atom_site_type_symbol
_atom_site_label
_atom_site_fract_x
_atom_site_fract_y
_atom_site_fract_z
Si Si1 0.799843 0.341698 0.615230
Si Si2 0.685280 0.681540 0.115231
Si Si3 0.316549 0.670479 0.615231
Si Si4 0.442886 0.690062 0.615225
Si Si5 0.841824 0.654114 0.615230
Si Si6 0.894829 0.035980 0.615233
Si Si7 0.276055 0.465737 0.115232
Si Si8 0.057744 0.723290 0.615225
O O1 0.741233 0.343038 0.615230
O O2 0.808587 0.255130 0.615230
O O3 0.824038 0.373622 0.374587
O O4 0.824038 0.373622 0.855874
O O5 0.661774 0.654365 0.356395
O O6 0.680593 0.765753 0.115231
O O7 0.661774 0.654365 0.874067
O O8 0.269345 0.619547 0.615231
O O9 0.500000 0.676776 0.615227
O O10 0.416698 0.614813 0.615228
O O11 0.433062 0.733897 0.366662
O O12 0.433062 0.733898 0.863786
O O13 0.900368 0.663291 0.615228
O O14 0.835328 0.028508 0.615232
O O15 0.911044 0.000001 0.865234
O O16 0.258869 0.500000 0.365232
O O17 0.000000 0.703656 0.615224
#
# Coordination Sequence:
#
# PCOD9350531 Si02
#       8
#     8   8   8   8   8   8   8   8
#     4  10  19  31  44  73  91 102 136 170 216 278
#     4  10  19  29  46  71  91 104 134 172 214 280
#     4  10  18  29  46  61  83 120 130 163 225 251
#     4  10  21  34  47  59  77  97 129 184 221 267
#     4  10  18  28  46  61  84 118 124 163 217 251
#     4  10  21  33  45  60  75  97 127 180 225 267
#     4  10  21  33  42  60  85 106 147 184 203 252
#     4  10  21  33  45  65  83 104 143 176 203 254
#
# _framework density 22.207117
#
# number of rings (size 3 to 8) (size 9 to 14) (size 15 to 20)
#    0.000    2.000    0.000    6.000    7.000    0.500 
#    0.000    0.000    0.000    0.000    0.000    0.000 
#    0.000    0.000    0.000    0.000    0.000    0.000 
#
# Total GULP energy -178408.878452 kJ/mol
# GULP energy per Si atom -5575.277452 kJ/mol
# Density = 2.215657 g / cm^3
# Si number density = 22.207117 Si / 1000 Ang^3
#
#
#
# Elastic Constant Matrix: (Units=GPa)
#
#
# Indices 1 2 3 4 5 6 
#
# 1 125.9332 0.0308 27.2726 0.0000 0.0000 0.0000
# 2 0.0308 17.2461 18.5861 0.0000 0.0000 0.0000
# 3 27.2726 18.5861 235.3256 0.0000 0.0000 0.0000
# 4 0.0000 0.0000 0.0000 20.9269 0.0000 0.0000
# 5 0.0000 0.0000 0.0000 0.0000 11.3943 0.0000
# 6 0.0000 0.0000 0.0000 0.0000 0.0000 19.1687
#
#
#
# Elastic Compliance Matrix: (Units=1/GPa)
#
#
# Indices 1 2 3 4 5 6 
#
# 1 0.008164 0.001099 -0.001033 0.000000 0.000000 0.000000
# 2 0.001099 0.063526 -0.005145 0.000000 0.000000 0.000000
# 3 -0.001033 -0.005145 0.004775 0.000000 0.000000 0.000000
# 4 0.000000 0.000000 0.000000 0.047785 0.000000 0.000000
# 5 0.000000 0.000000 0.000000 0.000000 0.087763 0.000000
# 6 0.000000 0.000000 0.000000 0.000000 0.000000 0.052168
#
#
# Mechanical properties :
#
#
# Convention : Reuss Voigt Hill
#
# Bulk Modulus (GPa) = 15.08112 52.25375 33.66744
# Shear Modulus (GPa) = 16.86663 32.47234 24.66949
#
# Velocity S-wave (km/s) = 2.75892 3.82809 3.33661
# Velocity P-wave (km/s) = 4.11761 6.56660 5.48065
#
# Compressibility (1/GPa) = 0.06630807
#
# Stress axis : x y z
#
# Youngs Moduli (GPa) = 122.48676 15.74150 209.40357
#
# Poissons Ratio (x) = -0.01729 0.21630
# Poissons Ratio (y) = -0.13457 1.07731
# Poissons Ratio (z) = 0.12652 0.08098
#
# Static dielectric constant tensor:
#      x y z
#    x 1.852480 0.000000 0.000000 
#    y 0.000000 1.870370 0.000000 
#    z 0.000000 0.000000 1.926530 
# 
# From -- ./inp_files/1815.got.cif
#   From: 2010.05.17/outbox.cif.g08.bks.cpg/sg36_1_cif.got.tgz:1815.got - 2010.06.03 17:41:39.
