data_PCOD9350958
_publ_section_title
;
Structure prediction by ZEFSAII (Michael W. Deem and Ramdas Pophale) SiO2 
 PCOD9350958
Probable space group: C M C 21
;
_chemical_formula_sum "Si O2"
_cell_formula_units_Z 56
_cell_length_a 23.832890
_cell_length_b 23.066803
_cell_length_c 5.648030
_cell_angle_alpha 90.000000
_cell_angle_beta 90.000000
_cell_angle_gamma 90.000000
_cell_volume 3104.996464
_symmetry_space_group_name_H-M "C M C 21"
_symmetry_group_IT_number 36
_symmetry_cell_setting 'orthorhombic'
loop_
_space_group_symop_operation_xyz
x,y,z
-x,-y,1/2+z
x,-y,1/2+z
-x,y,z
1/2+x,1/2+y,z
1/2-x,1/2-y,1/2+z
1/2+x,1/2-y,1/2+z
1/2-x,1/2+y,z
loop_
_atom_site_type_symbol
_atom_site_label
_atom_site_fract_x
_atom_site_fract_y
_atom_site_fract_z
Si Si1 0.769901 0.470833 0.180410
Si Si2 0.095162 0.526448 0.638621
Si Si3 0.559989 0.127340 0.908490
Si Si4 0.234516 0.659826 0.583269
Si Si5 0.437380 0.243517 0.633485
Si Si6 0.630740 0.822191 0.758756
Si Si7 0.323848 0.263000 0.867723
O O1 0.750815 0.503492 0.422818
O O2 0.837590 0.475558 0.159700
O O3 0.755617 0.402335 0.201676
O O4 0.075360 0.502479 0.387026
O O5 0.074004 0.591556 0.675940
O O6 0.500000 0.109846 0.006403
O O7 0.558317 0.194219 0.834520
O O8 0.609494 0.125197 0.095854
O O9 0.179380 0.653394 0.422573
O O10 0.287416 0.681317 0.431888
O O11 0.216049 0.714646 0.744569
O O12 0.500000 0.270340 0.612010
O O13 0.420143 0.207675 0.399981
O O14 0.379739 0.275982 0.710952
O O15 0.656792 0.770301 0.603864
#
# Coordination Sequence:
#
# PCOD9350958 Si02
#       7
#     8   8   8   8   8   8   8
#     4  10  23  37  55  78 106 151 187 228 281 340
#     4  10  22  36  51  68  97 134 187 238 282 317
#     4  10  21  34  49  69  93 134 182 227 278 327
#     4  11  21  34  55  81 114 139 191 231 289 352
#     4   9  19  34  51  74 103 136 175 214 274 349
#     4  10  19  32  52  73 103 138 174 223 281 335
#     4  10  20  33  54  83 105 144 177 235 285 336
#
# _framework density 18.035446
#
# number of rings (size 3 to 8) (size 9 to 14) (size 15 to 20)
#    0.000    2.000    1.429    3.000   10.000    1.143 
#    0.000    0.000    0.000    0.000    0.000    0.000 
#    0.000    1.143    0.000    0.000    0.000    0.000 
#
# Total GULP energy -156040.659157 kJ/mol
# GULP energy per Si atom -5572.880684 kJ/mol
# Density = 1.799440 g / cm^3
# Si number density = 18.035446 Si / 1000 Ang^3
#
#
#
# Elastic Constant Matrix: (Units=GPa)
#
#
# Indices 1 2 3 4 5 6 
#
# 1 74.3864 27.1926 20.5914 0.0000 0.0000 0.0000
# 2 27.1926 44.5143 22.4540 0.0000 0.0000 0.0000
# 3 20.5914 22.4540 71.7663 0.0000 0.0000 0.0000
# 4 0.0000 0.0000 0.0000 27.6351 0.0000 0.0000
# 5 0.0000 0.0000 0.0000 0.0000 10.6169 0.0000
# 6 0.0000 0.0000 0.0000 0.0000 0.0000 12.4965
#
#
#
# Elastic Compliance Matrix: (Units=1/GPa)
#
#
# Indices 1 2 3 4 5 6 
#
# 1 0.017546 -0.009712 -0.001996 0.000000 0.000000 0.000000
# 2 -0.009712 0.032050 -0.007241 0.000000 0.000000 0.000000
# 3 -0.001996 -0.007241 0.016772 0.000000 0.000000 0.000000
# 4 0.000000 0.000000 0.000000 0.036186 0.000000 0.000000
# 5 0.000000 0.000000 0.000000 0.000000 0.094190 0.000000
# 6 0.000000 0.000000 0.000000 0.000000 0.000000 0.080023
#
#
# Mechanical properties :
#
#
# Convention : Reuss Voigt Hill
#
# Bulk Modulus (GPa) = 35.12347 36.79367 35.95857
# Shear Modulus (GPa) = 15.42478 18.17829 16.80154
#
# Velocity S-wave (km/s) = 2.92764 3.17822 3.05550
# Velocity P-wave (km/s) = 5.56283 5.82350 5.69465
#
# Compressibility (1/GPa) = 0.02847099
#
# Stress axis : x y z
#
# Youngs Moduli (GPa) = 56.99318 31.20137 59.62196
#
# Poissons Ratio (x) = 0.30302 0.11899
# Poissons Ratio (y) = 0.55350 0.43173
# Poissons Ratio (z) = 0.11375 0.22593
#
# Static dielectric constant tensor:
#      x y z
#    x 1.663550 0.000000 0.000000 
#    y 0.000000 1.649180 0.000000 
#    z 0.000000 0.000000 1.724630 
# 
# From -- ./inp_files/1646.got.cif
#   From: 2010.05.17/outbox.cif.g08.bks.cpg/sg36_1_cif.got.tgz:1646.got - 2010.06.03 17:41:39.
