data_PCOD9350023
_publ_section_title
;
Structure prediction by ZEFSAII (Michael W. Deem and Ramdas Pophale) SiO2 
 PCOD9350023
Probable space group: C M M 2
;
_chemical_formula_sum "Si O2"
_cell_formula_units_Z 64
_cell_length_a 15.406918
_cell_length_b 23.140774
_cell_length_c 8.442939
_cell_angle_alpha 90.000000
_cell_angle_beta 90.000000
_cell_angle_gamma 90.000000
_cell_volume 3010.144219
_symmetry_space_group_name_H-M "C M M 2"
_symmetry_group_IT_number 35
_symmetry_cell_setting 'orthorhombic'
loop_
_space_group_symop_operation_xyz
x,y,z
-x,-y,z
-x,y,z
x,-y,z
1/2+x,1/2+y,z
1/2-x,1/2-y,z
1/2-x,1/2+y,z
1/2+x,1/2-y,z
loop_
_atom_site_type_symbol
_atom_site_label
_atom_site_fract_x
_atom_site_fract_y
_atom_site_fract_z
Si Si1 0.901390 0.645653 0.396290
Si Si2 0.850234 0.122330 0.114628
Si Si3 0.656863 0.930032 0.104218
Si Si4 0.853977 0.745615 0.179312
Si Si5 0.264140 0.186239 0.625857
Si Si6 0.097253 0.336513 0.889797
Si Si7 0.900520 0.873732 0.762456
Si Si8 0.396729 0.561536 0.440551
O O1 0.889884 0.597768 0.258194
O O2 0.895290 0.711295 0.326578
O O3 0.811662 0.643948 0.499244
O O4 0.000000 0.638528 0.462705
O O5 0.750651 0.101721 0.098954
O O6 0.876453 0.189303 0.133351
O O7 0.874265 0.098719 0.287711
O O8 0.890085 0.104455 0.943369
O O9 0.661020 0.000000 0.106032
O O10 0.610586 0.902253 0.950239
O O11 0.750000 0.750000 0.194671
O O12 0.883414 0.704252 0.038324
O O13 0.250000 0.250000 0.557558
O O14 0.335546 0.183968 0.761075
O O15 0.174431 0.171268 0.715467
O O16 0.000000 0.328244 0.834795
O O17 0.881859 0.918847 0.620547
O O18 0.000000 0.853253 0.743386
O O19 0.500000 0.557019 0.431694
O O20 0.352765 0.500000 0.415802
#
# Coordination Sequence:
#
# PCOD9350023 Si02
#       8
#     8   8   8   8   8   8   8   8
#     4  11  25  42  67 102 141 188 236 291 359 430
#     4  12  22  41  71 102 137 183 234 290 358 427
#     4  11  23  42  69  98 133 184 240 291 352 420
#     4  11  20  39  63  94 134 174 218 279 354 414
#     4  12  25  43  65  98 142 182 224 287 359 435
#     4  11  23  42  66  96 136 179 229 287 348 428
#     4  11  25  44  68 101 138 182 236 290 355 423
#     4  10  24  43  62  92 135 179 229 289 343 408
#
# _framework density 21.261441000000001
#
# number of rings (size 3 to 8) (size 9 to 14) (size 15 to 20)
#    0.000    0.875    3.750    4.875    1.750    6.000 
#    0.000    1.875    0.000    1.500    0.000    0.000 
#    0.000    0.000    0.000    0.000    0.000    0.000 
#
# Total GULP energy -178234.798749 kJ/mol
# GULP energy per Si atom -5569.837461 kJ/mol
# Density = 2.121305 g / cm^3
# Si number density = 21.261441 Si / 1000 Ang^3
#
#
#
# Elastic Constant Matrix: (Units=GPa)
#
#
# Indices 1 2 3 4 5 6 
#
# 1 111.5157 25.9782 17.2299 0.0000 0.0000 0.0000
# 2 25.9782 105.4519 22.3576 0.0000 0.0000 0.0000
# 3 17.2299 22.3576 92.4135 0.0000 0.0000 0.0000
# 4 0.0000 0.0000 0.0000 6.4359 0.0000 0.0000
# 5 0.0000 0.0000 0.0000 0.0000 -61.5330 0.0000
# 6 0.0000 0.0000 0.0000 0.0000 0.0000 -34.0850
#
#
#
# Elastic Compliance Matrix: (Units=1/GPa)
#
#
# Indices 1 2 3 4 5 6 
#
# 1 0.009657 -0.002105 -0.001291 0.000000 0.000000 0.000000
# 2 -0.002105 0.010455 -0.002137 0.000000 0.000000 0.000000
# 3 -0.001291 -0.002137 0.011579 0.000000 0.000000 0.000000
# 4 0.000000 0.000000 0.000000 0.155378 0.000000 0.000000
# 5 0.000000 0.000000 0.000000 0.000000 -0.016251 0.000000
# 6 0.000000 0.000000 0.000000 0.000000 0.000000 -0.029338
#
#
# Mechanical properties :
#
#
# Convention : Reuss Voigt Hill
#
# Bulk Modulus (GPa) = 48.48723 48.94582 48.71653
# Shear Modulus (GPa) = 31.36366 -1.58207 14.89079
#
# Velocity S-wave (km/s) = 3.84493 -0.86355 2.64931
# Velocity P-wave (km/s) = 6.52426 4.69858 5.68518
#
# Compressibility (1/GPa) = 0.02062399
#
# Stress axis : x y z
#
# Youngs Moduli (GPa) = 103.54872 95.65091 86.36607
#
# Poissons Ratio (x) = 0.20138 0.11152
# Poissons Ratio (y) = 0.21800 0.18455
# Poissons Ratio (z) = 0.13370 0.20438
#
# Static dielectric constant tensor:
#      x y z
#    x 1.813690 0.000000 0.000000 
#    y 0.000000 1.816090 0.000000 
#    z 0.000000 0.000000 1.821800 
# 
# From -- ./inp_files/7827.got.cif
#   From: 2010.05.17/outbox.cif.g08.bks.cpg/sg35_4_cif.got.tgz:7827.got - 2010.06.03 17:29:28.
