data_PCOD9350668
_publ_section_title
;
Structure prediction by ZEFSAII (Michael W. Deem and Ramdas Pophale) SiO2 
 PCOD9350668
Probable space group: C M C 21
;
_chemical_formula_sum "Si O2"
_cell_formula_units_Z 48
_cell_length_a 9.101757
_cell_length_b 21.560754
_cell_length_c 9.924241
_cell_angle_alpha 90.000000
_cell_angle_beta 90.000000
_cell_angle_gamma 90.000000
_cell_volume 1947.540434
_symmetry_space_group_name_H-M "C M C 21"
_symmetry_group_IT_number 36
_symmetry_cell_setting 'orthorhombic'
loop_
_space_group_symop_operation_xyz
x,y,z
-x,-y,1/2+z
x,-y,1/2+z
-x,y,z
1/2+x,1/2+y,z
1/2-x,1/2-y,1/2+z
1/2+x,1/2-y,1/2+z
1/2-x,1/2+y,z
loop_
_atom_site_type_symbol
_atom_site_label
_atom_site_fract_x
_atom_site_fract_y
_atom_site_fract_z
Si Si1 0.342327 0.443702 0.849190
Si Si2 0.500000 0.073589 0.980598
Si Si3 0.755928 0.884973 0.120055
Si Si4 0.323074 0.319973 0.727995
Si Si5 0.329774 0.410599 0.405564
Si Si6 0.668247 0.239214 0.476873
Si Si7 0.000000 0.477888 0.200615
O O1 0.500000 0.449004 0.780292
O O2 0.265188 0.389958 0.760031
O O3 0.310302 0.515225 0.879050
O O4 0.346527 0.411096 0.994739
O O5 0.338648 0.104641 0.957869
O O6 0.500000 0.020762 0.861750
O O7 0.500000 0.042171 0.125301
O O8 0.836664 0.876719 0.261109
O O9 0.682024 0.822399 0.068480
O O10 0.637060 0.937946 0.150108
O O11 0.500000 0.319722 0.741915
O O12 0.289681 0.293717 0.580106
O O13 0.261524 0.274742 0.844016
O O14 0.500000 0.403678 0.465046
O O15 0.500000 0.248293 0.436356
#
# Coordination Sequence:
#
# PCOD9350668 Si02
#       7
#     8   4   8   8   8   8   4
#     4   9  17  32  53  78 110 148 193 237 287 348
#     4  10  20  34  54  82 118 148 198 236 283 351
#     4  10  18  32  54  81 113 152 194 238 288 355
#     4   9  20  37  60  85 117 153 197 250 298 356
#     4  10  20  33  54  83 116 149 191 239 288 346
#     4  10  20  37  61  87 116 153 199 248 300 356
#     4  10  18  32  54  80 112 150 188 242 287 341
#
# _framework density 24.646470999999998
#
# number of rings (size 3 to 8) (size 9 to 14) (size 15 to 20)
#    0.000    2.333    2.500    0.500    0.000    1.333 
#    0.000    1.667    0.000    4.000    0.000    0.000 
#    0.000    0.000    0.000    0.000    0.000    0.000 
#
# Total GULP energy -133736.920765 kJ/mol
# GULP energy per Si atom -5572.371699 kJ/mol
# Density = 2.459037 g / cm^3
# Si number density = 24.646471 Si / 1000 Ang^3
#
#
#
# Elastic Constant Matrix: (Units=GPa)
#
#
# Indices 1 2 3 4 5 6 
#
# 1 149.3963 48.2088 72.2953 0.0000 0.0000 0.0000
# 2 48.2088 85.4719 21.8965 0.0000 0.0000 0.0000
# 3 72.2953 21.8965 98.1788 0.0000 0.0000 0.0000
# 4 0.0000 0.0000 0.0000 45.5864 0.0000 0.0000
# 5 0.0000 0.0000 0.0000 0.0000 -70.2126 0.0000
# 6 0.0000 0.0000 0.0000 0.0000 0.0000 -14.7889
#
#
#
# Elastic Compliance Matrix: (Units=1/GPa)
#
#
# Indices 1 2 3 4 5 6 
#
# 1 0.011992 -0.004775 -0.007766 0.000000 0.000000 0.000000
# 2 -0.004775 0.014310 0.000324 0.000000 0.000000 0.000000
# 3 -0.007766 0.000324 0.015832 0.000000 0.000000 0.000000
# 4 0.000000 0.000000 0.000000 0.021936 0.000000 0.000000
# 5 0.000000 0.000000 0.000000 0.000000 -0.014242 0.000000
# 6 0.000000 0.000000 0.000000 0.000000 0.000000 -0.067619
#
#
# Mechanical properties :
#
#
# Convention : Reuss Voigt Hill
#
# Bulk Modulus (GPa) = 56.49222 68.64978 62.57100
# Shear Modulus (GPa) = 398.66991 4.82676 201.74833
#
# Velocity S-wave (km/s) = 12.73211 1.40095 9.05729
# Velocity P-wave (km/s) = 15.46327 5.52550 11.61129
#
# Compressibility (1/GPa) = 0.01770155
#
# Stress axis : x y z
#
# Youngs Moduli (GPa) = 83.38647 69.88286 63.16455
#
# Poissons Ratio (x) = 0.33366 0.49053
# Poissons Ratio (y) = 0.39813 -0.02049
# Poissons Ratio (z) = 0.64757 -0.02267
#
# Static dielectric constant tensor:
#      x y z
#    x 2.054120 0.000000 0.000000 
#    y 0.000000 1.985430 0.000000 
#    z 0.000000 0.000000 1.950820 
# 
# From -- ./inp_files/6771.got.cif
#   From: 2010.05.17/outbox.cif.g08.bks.cpg/sg36_4_cif.got.tgz:6771.got - 2010.06.03 17:41:39.
