data_PCOD9350149
_publ_section_title
;
Structure prediction by ZEFSAII (Michael W. Deem and Ramdas Pophale) SiO2 
 PCOD9350149
Probable space group: C M M 2
;
_chemical_formula_sum "Si O2"
_cell_formula_units_Z 20
_cell_length_a 27.000000
_cell_length_b 9.000000
_cell_length_c 9.000000
_cell_angle_alpha 90.000000
_cell_angle_beta 90.000000
_cell_angle_gamma 90.000000
_cell_volume 2187.000000
_symmetry_space_group_name_H-M "C M M 2"
_symmetry_group_IT_number 35
_symmetry_cell_setting 'orthorhombic'
loop_
_space_group_symop_operation_xyz
x,y,z
-x,-y,z
-x,y,z
x,-y,z
1/2+x,1/2+y,z
1/2-x,1/2-y,z
1/2-x,1/2+y,z
1/2+x,1/2-y,z
loop_
_atom_site_type_symbol
_atom_site_label
_atom_site_fract_x
_atom_site_fract_y
_atom_site_fract_z
Si Si1 0.699483 0.327307 0.832740
Si Si2 0.000000 0.678409 0.986477
Si Si3 0.700831 0.670670 0.469854
Si Si4 0.906419 0.819804 0.491370
Si Si5 0.598273 0.820542 0.817631
Si Si6 0.000000 0.678112 0.333344
O O1 0.697505 0.500000 0.874648
O O2 0.750000 0.250000 0.884095
O O3 0.700283 0.321769 0.651054
O O4 0.650165 0.240762 0.879773
O O5 0.000000 0.709231 0.159265
O O6 0.000000 0.500000 0.967717
O O7 0.949338 0.729732 0.910999
O O8 0.704391 0.500000 0.427381
O O9 0.750000 0.750000 0.416135
O O10 0.646814 0.726786 0.423350
O O11 0.908234 0.750616 0.655437
O O12 0.951868 0.752974 0.403243
O O13 0.907728 0.000000 0.499288
O O14 0.600084 0.000000 0.808199
O O15 0.000000 0.500000 0.358939
#
# Coordination Sequence:
#
# PCOD9350149 Si02
#       6
#     8   4   8   8   8   4
#     4   9  16  27  44  72 105 135 166 206 251 298
#     4   9  21  37  52  72 100 131 170 213 256 306
#     4   8  15  26  43  68 100 129 156 193 240 287
#     4  10  20  34  51  77 107 133 165 209 252 300
#     4  10  18  32  54  78 103 135 170 209 253 301
#     4  11  22  37  54  72  96 133 174 213 256 304
#
# _framework density 9.1449470000000002
#
# number of rings (size 3 to 8) (size 9 to 14) (size 15 to 20)
#    0.000    2.600    0.000    3.900    0.000    6.400 
#    0.000    5.500    0.000    1.200    0.000    2.800 
#    0.000    0.000    0.000    0.000    0.000    0.000 
#
# Total GULP energy -111453.517932 kJ/mol
# GULP energy per Si atom -5572.675897 kJ/mol
# Density = 0.912413 g / cm^3
# Si number density = 9.144947 Si / 1000 Ang^3
#
#
#
# Elastic Constant Matrix: (Units=GPa)
#
#
# Indices 1 2 3 4 5 6 
#
# 1 242.2917 86.6528 55.5126 0.0000 0.0000 0.0000
# 2 86.6528 89.5409 36.4486 0.0000 0.0000 0.0000
# 3 55.5126 36.4486 -2.9438 0.0000 0.0000 0.0000
# 4 0.0000 0.0000 0.0000 -1.3995 0.0000 0.0000
# 5 0.0000 0.0000 0.0000 0.0000 -20.4701 0.0000
# 6 0.0000 0.0000 0.0000 0.0000 0.0000 36.4370
#
#
#
# Elastic Compliance Matrix: (Units=1/GPa)
#
#
# Indices 1 2 3 4 5 6 
#
# 1 0.005510 -0.007886 0.006273 0.000000 0.000000 0.000000
# 2 -0.007886 0.013135 0.013917 0.000000 0.000000 0.000000
# 3 0.006273 0.013917 -0.049101 0.000000 0.000000 0.000000
# 4 0.000000 0.000000 0.000000 -0.714530 0.000000 0.000000
# 5 0.000000 0.000000 0.000000 0.000000 -0.048852 0.000000
# 6 0.000000 0.000000 0.000000 0.000000 0.000000 0.027445
#
#
# Mechanical properties :
#
#
# Convention : Reuss Voigt Hill
#
# Bulk Modulus (GPa) = -170.96650 76.23519 -47.36566
# Shear Modulus (GPa) = -6.30557 12.93180 3.31311
#
# Velocity S-wave (km/s) = -1.85878 2.66192 1.34736
# Velocity P-wave (km/s) = 9.91391 7.15680 4.85107
#
# Compressibility (1/GPa) = -0.00584910
#
# Stress axis : x y z
#
# Youngs Moduli (GPa) = 181.47284 76.13388 -20.36612
#
# Poissons Ratio (x) = 0.60040 0.12775
# Poissons Ratio (y) = 1.43110 0.28343
# Poissons Ratio (z) = -1.13831 -1.05955
#
# Static dielectric constant tensor:
#      x y z
#    x 1.668420 0.000000 0.000000 
#    y 0.000000 1.612750 0.000000 
#    z 0.000000 0.000000 1.618160 
# 
# From -- ./inp_files/10082.got.cif
#   From: 2010.05.17/outbox.ucp.g08.bks.cvg/sg35_6_cif.got.tgz:10082.got - 2010.06.11 10:36:28.
