data_PCOD9350305
_publ_section_title
;
Structure prediction by ZEFSAII (Michael W. Deem and Ramdas Pophale) SiO2 
 PCOD9350305
Probable space group: C M M 2
;
_chemical_formula_sum "Si O2"
_cell_formula_units_Z 64
_cell_length_a 29.732472
_cell_length_b 8.111369
_cell_length_c 16.230474
_cell_angle_alpha 90.000000
_cell_angle_beta 90.000000
_cell_angle_gamma 90.000000
_cell_volume 3914.320484
_symmetry_space_group_name_H-M "C M M 2"
_symmetry_group_IT_number 35
_symmetry_cell_setting 'orthorhombic'
loop_
_space_group_symop_operation_xyz
x,y,z
-x,-y,z
-x,y,z
x,-y,z
1/2+x,1/2+y,z
1/2-x,1/2-y,z
1/2-x,1/2+y,z
1/2+x,1/2-y,z
loop_
_atom_site_type_symbol
_atom_site_label
_atom_site_fract_x
_atom_site_fract_y
_atom_site_fract_z
Si Si1 0.801721 0.301131 0.500000
Si Si2 0.697896 0.195841 0.821821
Si Si3 0.697966 0.302927 0.179311
Si Si4 0.449992 0.200956 0.404379
Si Si5 0.302185 0.303226 0.999066
Si Si6 0.855841 0.297842 0.662806
Si Si7 0.356114 0.801238 0.339264
Si Si8 0.050041 0.700793 0.596696
O O1 0.803815 0.500000 0.499388
O O2 0.750000 0.250000 0.500743
O O3 0.827410 0.246099 0.582502
O O4 0.826789 0.241766 0.417435
O O5 0.750000 0.250000 0.814691
O O6 0.679132 0.241647 0.912096
O O7 0.668257 0.260631 0.745987
O O8 0.698239 0.000000 0.816575
O O9 0.697688 0.500000 0.177985
O O10 0.750000 0.250000 0.190739
O O11 0.667455 0.245398 0.254396
O O12 0.681369 0.243551 0.088757
O O13 0.500000 0.256791 0.379318
O O14 0.407377 0.257649 0.351695
O O15 0.443014 0.245680 0.500539
O O16 0.450388 0.000000 0.402154
O O17 0.304645 0.500000 0.997658
O O18 0.250000 0.250000 0.997868
O O19 0.855812 0.500000 0.663767
O O20 0.907354 0.244122 0.649694
O O21 0.356914 0.000000 0.343638
O O22 0.049797 0.500000 0.598639
O O23 0.000000 0.756347 0.621711
#
# Coordination Sequence:
#
# PCOD9350305 Si02
#       8
#     8   8   8   8   8   8   8   8
#     4  10  19  29  39  55  85 120 149 172 200 242
#     4  10  18  27  42  62  87 115 143 176 211 250
#     4  10  20  32  46  64  87 115 146 181 219 261
#     4   8  13  23  41  64  87 112 145 183 220 255
#     4   9  17  30  46  62  82 108 141 180 218 255
#     4   9  16  26  38  58  87 115 142 173 209 249
#     4  10  18  28  44  65  89 117 146 180 216 254
#     4   8  12  21  39  60  83 111 142 177 215 252
#
# _framework density 16.350218999999999
#
# number of rings (size 3 to 8) (size 9 to 14) (size 15 to 20)
#    0.000    2.750    1.250    3.375    0.000    3.000 
#    0.000    0.625    0.000    0.375    0.000    0.875 
#    0.000    9.500    0.000    0.000    0.000    0.000 
#
# Total GULP energy -178256.436155 kJ/mol
# GULP energy per Si atom -5570.513630 kJ/mol
# Density = 1.631301 g / cm^3
# Si number density = 16.350219 Si / 1000 Ang^3
#
#
#
# Elastic Constant Matrix: (Units=GPa)
#
#
# Indices 1 2 3 4 5 6 
#
# 1 133.0232 9.8349 87.7252 0.0000 0.0000 0.0000
# 2 9.8349 12.6729 13.1423 0.0000 0.0000 0.0000
# 3 87.7252 13.1423 158.8715 0.0000 0.0000 0.0000
# 4 0.0000 0.0000 0.0000 15.1802 0.0000 0.0000
# 5 0.0000 0.0000 0.0000 0.0000 9.6720 0.0000
# 6 0.0000 0.0000 0.0000 0.0000 0.0000 11.5325
#
#
#
# Elastic Compliance Matrix: (Units=1/GPa)
#
#
# Indices 1 2 3 4 5 6 
#
# 1 0.011903 -0.002649 -0.006354 0.000000 0.000000 0.000000
# 2 -0.002649 0.086903 -0.005726 0.000000 0.000000 0.000000
# 3 -0.006354 -0.005726 0.010276 0.000000 0.000000 0.000000
# 4 0.000000 0.000000 0.000000 0.065875 0.000000 0.000000
# 5 0.000000 0.000000 0.000000 0.000000 0.103391 0.000000
# 6 0.000000 0.000000 0.000000 0.000000 0.000000 0.086711
#
#
# Mechanical properties :
#
#
# Convention : Reuss Voigt Hill
#
# Bulk Modulus (GPa) = 12.55885 58.44137 35.50011
# Shear Modulus (GPa) = 11.87483 20.20130 16.03806
#
# Velocity S-wave (km/s) = 2.69788 3.51883 3.13534
# Velocity P-wave (km/s) = 4.17164 7.23399 5.90480
#
# Compressibility (1/GPa) = 0.07962514
#
# Stress axis : x y z
#
# Youngs Moduli (GPa) = 84.00975 11.50714 97.31000
#
# Poissons Ratio (x) = 0.03048 0.61828
# Poissons Ratio (y) = 0.22251 0.55723
# Poissons Ratio (z) = 0.53377 0.06589
#
# Static dielectric constant tensor:
#      x y z
#    x 1.546110 0.000000 0.000000 
#    y 0.000000 1.611080 0.000000 
#    z 0.000000 0.000000 1.569630 
# 
# From -- ./inp_files/16253.got.cif
#   From: 2010.05.17/outbox.cif.g08.bks.cpg/sg35_9_cif.got.tgz:16253.got - 2010.06.03 17:29:28.
