data_PCOD9350891
_publ_section_title
;
Structure prediction by ZEFSAII (Michael W. Deem and Ramdas Pophale) SiO2 
 PCOD9350891
Probable space group: C M C 21
;
_chemical_formula_sum "Si O2"
_cell_formula_units_Z 64
_cell_length_a 7.692133
_cell_length_b 14.644067
_cell_length_c 29.340174
_cell_angle_alpha 90.000000
_cell_angle_beta 90.000000
_cell_angle_gamma 90.000000
_cell_volume 3304.997818
_symmetry_space_group_name_H-M "C M C 21"
_symmetry_group_IT_number 36
_symmetry_cell_setting 'orthorhombic'
loop_
_space_group_symop_operation_xyz
x,y,z
-x,-y,1/2+z
x,-y,1/2+z
-x,y,z
1/2+x,1/2+y,z
1/2-x,1/2-y,1/2+z
1/2+x,1/2-y,1/2+z
1/2-x,1/2+y,z
loop_
_atom_site_type_symbol
_atom_site_label
_atom_site_fract_x
_atom_site_fract_y
_atom_site_fract_z
Si Si1 0.207267 0.765581 0.579530
Si Si2 0.791631 0.897021 0.254499
Si Si3 0.291631 0.397015 0.755962
Si Si4 0.790021 0.249417 0.182261
Si Si5 0.790021 0.750589 0.328200
Si Si6 0.207613 0.882744 0.005232
Si Si7 0.292730 0.734421 0.930932
Si Si8 0.786404 0.909042 0.505231
O O1 0.276460 0.757846 0.630722
O O2 0.237566 0.675416 0.549351
O O3 0.271566 0.850960 0.549336
O O4 0.000000 0.777491 0.583204
O O5 0.755537 0.843248 0.207802
O O6 0.725543 0.832482 0.295504
O O7 0.000000 0.901861 0.259821
O O8 0.723112 0.000003 0.255230
O O9 0.500000 0.401855 0.750641
O O10 0.225544 0.332476 0.714957
O O11 0.255534 0.343242 0.802659
O O12 0.000000 0.244379 0.181192
O O13 0.723540 0.757850 0.379739
O O14 0.000000 0.755629 0.329270
O O15 0.000000 0.886158 0.005234
O O16 0.272639 0.986578 0.005231
O O17 0.262418 0.824586 0.961110
O O18 0.500000 0.722518 0.927259
O O19 0.228436 0.649040 0.961125
O O20 0.000000 0.908725 0.505231
#
# Coordination Sequence:
#
# PCOD9350891 Si02
#       8
#     8   8   8   8   8   8   8   8
#     4   9  18  34  51  67  94 130 159 186 233 292
#     4   9  18  32  50  72  97 125 158 197 237 277
#     4   9  18  32  50  72  97 125 158 197 237 277
#     4   9  18  32  50  71  95 125 159 193 233 283
#     4   9  18  32  50  71  95 125 159 193 233 283
#     4  10  19  31  50  75  96 119 159 204 236 268
#     4   9  18  34  51  67  94 130 159 186 233 292
#     4   8  16  31  50  69  92 123 155 190 234 284
#
# _framework density 19.364611
#
# number of rings (size 3 to 8) (size 9 to 14) (size 15 to 20)
#    0.000    3.000    0.000    1.125    0.000    3.500 
#    0.000   10.000    0.000    0.000    0.000    0.000 
#    0.000    0.000    0.000    0.000    0.000    0.000 
#
# Total GULP energy -178435.195512 kJ/mol
# GULP energy per Si atom -5576.099860 kJ/mol
# Density = 1.932054 g / cm^3
# Si number density = 19.364611 Si / 1000 Ang^3
#
#
#
# Elastic Constant Matrix: (Units=GPa)
#
#
# Indices 1 2 3 4 5 6 
#
# 1 27.6006 -1.9461 -2.8993 0.0000 0.0000 0.0000
# 2 -1.9461 171.5390 77.8431 0.0000 0.0000 0.0000
# 3 -2.8993 77.8431 171.5977 0.0000 0.0000 0.0000
# 4 0.0000 0.0000 0.0000 10.8535 0.0000 0.0000
# 5 0.0000 0.0000 0.0000 0.0000 16.1247 0.0000
# 6 0.0000 0.0000 0.0000 0.0000 0.0000 16.6343
#
#
#
# Elastic Compliance Matrix: (Units=1/GPa)
#
#
# Indices 1 2 3 4 5 6 
#
# 1 0.036299 0.000168 0.000537 0.000000 0.000000 0.000000
# 2 0.000168 0.007341 -0.003328 0.000000 0.000000 0.000000
# 3 0.000537 -0.003328 0.007346 0.000000 0.000000 0.000000
# 4 0.000000 0.000000 0.000000 0.092136 0.000000 0.000000
# 5 0.000000 0.000000 0.000000 0.000000 0.062017 0.000000
# 6 0.000000 0.000000 0.000000 0.000000 0.000000 0.060117
#
#
# Mechanical properties :
#
#
# Convention : Reuss Voigt Hill
#
# Bulk Modulus (GPa) = 21.86160 57.41474 39.63817
# Shear Modulus (GPa) = 17.49787 28.57179 23.03483
#
# Velocity S-wave (km/s) = 3.00926 3.84534 3.45270
# Velocity P-wave (km/s) = 4.83613 7.03059 6.03396
#
# Compressibility (1/GPa) = 0.04574230
#
# Stress axis : x y z
#
# Youngs Moduli (GPa) = 27.54866 136.21196 136.12561
#
# Poissons Ratio (x) = -0.02290 -0.07311
# Poissons Ratio (y) = -0.00463 0.45296
# Poissons Ratio (z) = -0.01479 0.45325
#
# Static dielectric constant tensor:
#      x y z
#    x 1.715230 0.000000 0.000000 
#    y 0.000000 1.660560 0.000000 
#    z 0.000000 0.000000 1.646050 
# 
# From -- ./inp_files/17330.got.cif
#   From: 2010.05.17/outbox.cif.g08.bks.cpg/sg36_9_cif.got.tgz:17330.got - 2010.06.03 17:41:39.
