data_PCOD9350300
_publ_section_title
;
Structure prediction by ZEFSAII (Michael W. Deem and Ramdas Pophale) SiO2 
 PCOD9350300
Probable space group: C M M 2
;
_chemical_formula_sum "Si O2"
_cell_formula_units_Z 56
_cell_length_a 22.496142
_cell_length_b 16.856766
_cell_length_c 8.517645
_cell_angle_alpha 90.000000
_cell_angle_beta 90.000000
_cell_angle_gamma 90.000000
_cell_volume 3229.994913
_symmetry_space_group_name_H-M "C M M 2"
_symmetry_group_IT_number 35
_symmetry_cell_setting 'orthorhombic'
loop_
_space_group_symop_operation_xyz
x,y,z
-x,-y,z
-x,y,z
x,-y,z
1/2+x,1/2+y,z
1/2-x,1/2-y,z
1/2-x,1/2+y,z
1/2+x,1/2-y,z
loop_
_atom_site_type_symbol
_atom_site_label
_atom_site_fract_x
_atom_site_fract_y
_atom_site_fract_z
Si Si1 0.567599 0.709916 0.574290
Si Si2 0.663791 0.407819 0.425905
Si Si3 0.069866 0.591433 0.047934
Si Si4 0.724468 0.163089 0.572872
Si Si5 0.644664 0.219409 0.850737
Si Si6 0.114379 0.335797 0.353298
Si Si7 0.686338 0.708974 0.156021
O O1 0.500000 0.684238 0.596112
O O2 0.608674 0.643608 0.491535
O O3 0.600259 0.736011 0.733228
O O4 0.569956 0.789626 0.467925
O O5 0.649888 0.500000 0.414751
O O6 0.719468 0.393005 0.543691
O O7 0.683003 0.371711 0.255882
O O8 0.079857 0.500000 0.002985
O O9 0.086659 0.602849 0.231727
O O10 0.000000 0.610135 0.027890
O O11 0.109728 0.650732 0.944549
O O12 0.750000 0.250000 0.524138
O O13 0.696011 0.178796 0.743807
O O14 0.670068 0.137389 0.460240
O O15 0.669814 0.284048 0.973360
O O16 0.140517 0.266674 0.243286
O O17 0.750000 0.750000 0.170646
#
# Coordination Sequence:
#
# PCOD9350300 Si02
#       7
#     8   8   8   8   8   8   8
#     4  10  20  37  59  82 107 147 202 236 272 334
#     4  11  22  36  57  85 116 147 184 237 289 332
#     4  10  21  36  51  80 121 152 186 231 278 327
#     4  11  17  37  58  83 110 139 182 233 285 332
#     4  10  21  33  63  80 110 149 189 231 280 338
#     4   9  17  32  58  80 105 141 188 227 269 331
#     4  10  17  34  56  82 109 142 180 223 275 340
#
# _framework density 17.337489000000001
#
# number of rings (size 3 to 8) (size 9 to 14) (size 15 to 20)
#    0.000    1.857    5.714    1.286    0.000    1.429 
#    0.000    3.571    0.000    7.714    0.000    0.000 
#    0.000    0.000    0.000    0.000    0.000    0.000 
#
# Total GULP energy -155970.994286 kJ/mol
# GULP energy per Si atom -5570.392653 kJ/mol
# Density = 1.729803 g / cm^3
# Si number density = 17.337489 Si / 1000 Ang^3
#
#
#
# Elastic Constant Matrix: (Units=GPa)
#
#
# Indices 1 2 3 4 5 6 
#
# 1 103.5708 39.8835 53.1289 0.0000 0.0000 0.0000
# 2 39.8835 84.2876 36.9136 0.0000 0.0000 0.0000
# 3 53.1289 36.9136 122.2461 0.0000 0.0000 0.0000
# 4 0.0000 0.0000 0.0000 7.2540 0.0000 0.0000
# 5 0.0000 0.0000 0.0000 0.0000 48.6094 0.0000
# 6 0.0000 0.0000 0.0000 0.0000 0.0000 17.7400
#
#
#
# Elastic Compliance Matrix: (Units=1/GPa)
#
#
# Indices 1 2 3 4 5 6 
#
# 1 0.013753 -0.004483 -0.004624 0.000000 0.000000 0.000000
# 2 -0.004483 0.015133 -0.002621 0.000000 0.000000 0.000000
# 3 -0.004624 -0.002621 0.010981 0.000000 0.000000 0.000000
# 4 0.000000 0.000000 0.000000 0.137856 0.000000 0.000000
# 5 0.000000 0.000000 0.000000 0.000000 0.020572 0.000000
# 6 0.000000 0.000000 0.000000 0.000000 0.000000 0.056370
#
#
# Mechanical properties :
#
#
# Convention : Reuss Voigt Hill
#
# Bulk Modulus (GPa) = 60.93069 63.32851 62.12960
# Shear Modulus (GPa) = 17.63095 26.73256 22.18176
#
# Velocity S-wave (km/s) = 3.19239 3.93096 3.58076
# Velocity P-wave (km/s) = 6.98632 7.56369 7.28073
#
# Compressibility (1/GPa) = 0.01641209
#
# Stress axis : x y z
#
# Youngs Moduli (GPa) = 72.70978 66.07887 91.06458
#
# Poissons Ratio (x) = 0.29623 0.42105
# Poissons Ratio (y) = 0.32595 0.23872
# Poissons Ratio (z) = 0.33618 0.17322
#
# Static dielectric constant tensor:
#      x y z
#    x 1.539430 0.000000 0.000000 
#    y 0.000000 1.572380 0.000000 
#    z 0.000000 0.000000 1.637900 
# 
# From -- ./inp_files/9398.got.cif
#   From: 2010.05.17/outbox.cif.g08.bks.cpg/sg35_5_cif.got.tgz:9398.got - 2010.06.03 17:29:28.
