data_PCOD9350388
_publ_section_title
;
Structure prediction by ZEFSAII (Michael W. Deem and Ramdas Pophale) SiO2 
 PCOD9350388
Probable space group: C M M 2
;
_chemical_formula_sum "Si O2"
_cell_formula_units_Z 64
_cell_length_a 30.295340
_cell_length_b 8.119747
_cell_length_c 12.689453
_cell_angle_alpha 90.000000
_cell_angle_beta 90.000000
_cell_angle_gamma 90.000000
_cell_volume 3121.484838
_symmetry_space_group_name_H-M "C M M 2"
_symmetry_group_IT_number 35
_symmetry_cell_setting 'orthorhombic'
loop_
_space_group_symop_operation_xyz
x,y,z
-x,-y,z
-x,y,z
x,-y,z
1/2+x,1/2+y,z
1/2-x,1/2-y,z
1/2-x,1/2+y,z
1/2+x,1/2-y,z
loop_
_atom_site_type_symbol
_atom_site_label
_atom_site_fract_x
_atom_site_fract_y
_atom_site_fract_z
Si Si1 0.801065 0.800428 0.291350
Si Si2 0.077087 0.304485 0.780415
Si Si3 0.452016 0.197167 0.546716
Si Si4 0.646213 0.698152 0.498112
Si Si5 0.862274 0.808086 0.102583
Si Si6 0.202678 0.689067 0.937338
Si Si7 0.327868 0.309711 0.726284
Si Si8 0.451588 0.300307 0.009566
O O1 0.750000 0.750000 0.285892
O O2 0.825854 0.744918 0.397902
O O3 0.830748 0.738170 0.193532
O O4 0.801496 0.000000 0.289683
O O5 0.087436 0.500000 0.781124
O O6 0.051001 0.269530 0.672558
O O7 0.122176 0.204018 0.769046
O O8 0.054103 0.259882 0.889504
O O9 0.500000 0.259725 0.508099
O O10 0.405913 0.258953 0.497647
O O11 0.451774 0.000000 0.534211
O O12 0.648450 0.500000 0.501890
O O13 0.668212 0.757857 0.607620
O O14 0.868642 0.000000 0.128862
O O15 0.835055 0.792448 0.994485
O O16 0.910667 0.737112 0.079335
O O17 0.195720 0.500000 0.964578
O O18 0.250000 0.750000 0.975626
O O19 0.200019 0.712040 0.811890
O O20 0.313527 0.500000 0.725099
O O21 0.500000 0.251821 0.048693
O O22 0.449317 0.500000 0.007355
#
# Coordination Sequence:
#
# PCOD9350388 Si02
#       8
#     8   8   8   8   8   8   8   8
#     4  10  22  41  63  86 109 142 188 240 291 340
#     4  10  18  30  50  78 112 152 191 233 277 326
#     4   9  18  32  51  79 116 155 193 231 276 330
#     4   9  20  37  57  83 114 146 187 238 285 334
#     4  10  21  39  60  82 115 149 185 235 284 336
#     4  12  24  37  56  83 114 149 187 229 283 345
#     4  10  19  34  54  79 115 152 184 228 282 339
#     4  10  20  33  52  79 112 152 192 229 277 335
#
# _framework density 20.503063000000001
#
# number of rings (size 3 to 8) (size 9 to 14) (size 15 to 20)
#    0.000    2.000    1.250    2.625    0.000    4.500 
#    0.000    1.875    0.000    2.250    0.000    0.000 
#    0.000    0.000    0.000    0.000    0.000    0.000 
#
# Total GULP energy -178559.431780 kJ/mol
# GULP energy per Si atom -5579.982243 kJ/mol
# Density = 2.045640 g / cm^3
# Si number density = 20.503063 Si / 1000 Ang^3
#
#
#
# Elastic Constant Matrix: (Units=GPa)
#
#
# Indices 1 2 3 4 5 6 
#
# 1 149.7291 3.6466 68.9976 0.0000 0.0000 0.0000
# 2 3.6466 20.3458 3.1259 0.0000 0.0000 0.0000
# 3 68.9976 3.1259 110.8734 0.0000 0.0000 0.0000
# 4 0.0000 0.0000 0.0000 12.2016 0.0000 0.0000
# 5 0.0000 0.0000 0.0000 0.0000 18.2301 0.0000
# 6 0.0000 0.0000 0.0000 0.0000 0.0000 15.7772
#
#
#
# Elastic Compliance Matrix: (Units=1/GPa)
#
#
# Indices 1 2 3 4 5 6 
#
# 1 0.009377 -0.000787 -0.005813 0.000000 0.000000 0.000000
# 2 -0.000787 0.049430 -0.000904 0.000000 0.000000 0.000000
# 3 -0.005813 -0.000904 0.012662 0.000000 0.000000 0.000000
# 4 0.000000 0.000000 0.000000 0.081956 0.000000 0.000000
# 5 0.000000 0.000000 0.000000 0.000000 0.054854 0.000000
# 6 0.000000 0.000000 0.000000 0.000000 0.000000 0.063383
#
#
# Mechanical properties :
#
#
# Convention : Reuss Voigt Hill
#
# Bulk Modulus (GPa) = 17.71131 48.05428 32.88280
# Shear Modulus (GPa) = 16.36711 22.92033 19.64372
#
# Velocity S-wave (km/s) = 2.82844 3.34713 3.09866
# Velocity P-wave (km/s) = 4.39590 6.19888 5.37355
#
# Compressibility (1/GPa) = 0.05646109
#
# Stress axis : x y z
#
# Youngs Moduli (GPa) = 106.64838 20.23053 78.97507
#
# Poissons Ratio (x) = 0.01593 0.45908
# Poissons Ratio (y) = 0.08398 0.07136
# Poissons Ratio (z) = 0.61994 0.01828
#
# Static dielectric constant tensor:
#      x y z
#    x 1.743510 0.000000 0.000000 
#    y 0.000000 1.722320 0.000000 
#    z 0.000000 0.000000 1.738660 
# 
# From -- ./inp_files/11878.got.cif
#   From: 2010.05.17/outbox.cif.g08.bks.cpg/sg35_6_cif.got.tgz:11878.got - 2010.06.03 17:29:28.
