data_PCOD9350679
_publ_section_title
;
Structure prediction by ZEFSAII (Michael W. Deem and Ramdas Pophale) SiO2 
 PCOD9350679
Probable space group: C M C 21
;
_chemical_formula_sum "Si O2"
_cell_formula_units_Z 64
_cell_length_a 7.909943
_cell_length_b 20.842583
_cell_length_c 20.463847
_cell_angle_alpha 90.000000
_cell_angle_beta 90.000000
_cell_angle_gamma 90.000000
_cell_volume 3373.744377
_symmetry_space_group_name_H-M "C M C 21"
_symmetry_group_IT_number 36
_symmetry_cell_setting 'orthorhombic'
loop_
_space_group_symop_operation_xyz
x,y,z
-x,-y,1/2+z
x,-y,1/2+z
-x,y,z
1/2+x,1/2+y,z
1/2-x,1/2-y,1/2+z
1/2+x,1/2-y,1/2+z
1/2-x,1/2+y,z
loop_
_atom_site_type_symbol
_atom_site_label
_atom_site_fract_x
_atom_site_fract_y
_atom_site_fract_z
Si Si1 0.798379 0.671057 0.122800
Si Si2 0.196229 0.689889 0.646657
Si Si3 0.295398 0.201798 0.975943
Si Si4 0.204262 0.078906 0.741954
Si Si5 0.202503 0.084656 0.889557
Si Si6 0.708037 0.483373 0.997617
Si Si7 0.703270 0.528830 0.141342
Si Si8 0.196581 0.840673 0.002423
O O1 0.727768 0.734649 0.157150
O O2 0.749453 0.602760 0.152025
O O3 0.000000 0.676661 0.122534
O O4 0.739129 0.674517 0.046816
O O5 0.249194 0.644960 0.706101
O O6 0.294245 0.669390 0.580820
O O7 0.000000 0.679599 0.632569
O O8 0.500000 0.203409 0.976989
O O9 0.240006 0.154318 0.919375
O O10 0.231241 0.275119 0.972167
O O11 0.268132 0.076459 0.816127
O O12 0.000000 0.075338 0.743794
O O13 0.265737 0.020398 0.696377
O O14 0.000000 0.077260 0.887059
O O15 0.265554 0.031960 0.941474
O O16 0.500000 0.483021 0.998332
O O17 0.763247 0.507220 0.069290
O O18 0.768071 0.410506 0.986654
O O19 0.500000 0.524357 0.140427
O O20 0.000000 0.842786 0.983232
#
# Coordination Sequence:
#
# PCOD9350679 Si02
#       8
#     8   8   8   8   8   8   8   8
#     4  10  20  34  54  80 110 139 173 220 275 322
#     4  11  21  33  53  80 106 136 181 228 267 316
#     4   9  18  31  50  76 106 138 172 216 267 315
#     4  10  21  37  54  75 109 149 180 217 273 329
#     4  10  20  34  54  77 104 142 182 216 262 325
#     4   9  16  30  54  79 103 136 177 219 259 311
#     4  10  18  32  55  80 107 139 180 224 265 316
#     4   9  17  33  54  77 107 141 175 218 272 316
#
# _framework density 18.970020999999999
#
# number of rings (size 3 to 8) (size 9 to 14) (size 15 to 20)
#    0.000    2.250    2.500    2.250    0.000    3.000 
#    0.000    1.875    0.000    3.000    0.000    0.000 
#    0.000    0.000    0.000    0.000    0.000    0.000 
#
# Total GULP energy -178537.687294 kJ/mol
# GULP energy per Si atom -5579.302728 kJ/mol
# Density = 1.892684 g / cm^3
# Si number density = 18.970021 Si / 1000 Ang^3
#
#
#
# Elastic Constant Matrix: (Units=GPa)
#
#
# Indices 1 2 3 4 5 6 
#
# 1 17.6736 -2.1327 1.1873 0.0000 0.0000 0.0000
# 2 -2.1327 170.6066 82.4929 0.0000 0.0000 0.0000
# 3 1.1873 82.4929 111.3038 0.0000 0.0000 0.0000
# 4 0.0000 0.0000 0.0000 24.4588 0.0000 0.0000
# 5 0.0000 0.0000 0.0000 0.0000 9.9052 0.0000
# 6 0.0000 0.0000 0.0000 0.0000 0.0000 21.0991
#
#
#
# Elastic Compliance Matrix: (Units=1/GPa)
#
#
# Indices 1 2 3 4 5 6 
#
# 1 0.056889 0.001566 -0.001767 0.000000 0.000000 0.000000
# 2 0.001566 0.009178 -0.006819 0.000000 0.000000 0.000000
# 3 -0.001767 -0.006819 0.014057 0.000000 0.000000 0.000000
# 4 0.000000 0.000000 0.000000 0.040885 0.000000 0.000000
# 5 0.000000 0.000000 0.000000 0.000000 0.100957 0.000000
# 6 0.000000 0.000000 0.000000 0.000000 0.000000 0.047395
#
#
# Mechanical properties :
#
#
# Convention : Reuss Voigt Hill
#
# Bulk Modulus (GPa) = 15.13239 51.40878 33.27059
# Shear Modulus (GPa) = 16.37027 25.62838 20.99932
#
# Velocity S-wave (km/s) = 2.94080 3.67957 3.33073
# Velocity P-wave (km/s) = 4.41875 6.72393 5.68931
#
# Compressibility (1/GPa) = 0.06608341
#
# Stress axis : x y z
#
# Youngs Moduli (GPa) = 17.57798 108.95297 71.13736
#
# Poissons Ratio (x) = -0.17058 0.12572
# Poissons Ratio (y) = -0.02752 0.48510
# Poissons Ratio (z) = 0.03106 0.74297
#
# Static dielectric constant tensor:
#      x y z
#    x 1.700420 0.000000 0.000000 
#    y 0.000000 1.669710 0.000000 
#    z 0.000000 0.000000 1.636840 
# 
# From -- ./inp_files/13857.got.cif
#   From: 2010.05.17/outbox.cif.g08.bks.cpg/sg36_7_cif.got.tgz:13857.got - 2010.06.03 17:41:39.
