data_PCOD9350270
_publ_section_title
;
Structure prediction by ZEFSAII (Michael W. Deem and Ramdas Pophale) SiO2 
 PCOD9350270
Probable space group: C M M 2
;
_chemical_formula_sum "Si O2"
_cell_formula_units_Z 56
_cell_length_a 31.544926
_cell_length_b 24.684655
_cell_length_c 5.248190
_cell_angle_alpha 90.000000
_cell_angle_beta 90.000000
_cell_angle_gamma 90.000000
_cell_volume 4086.637578
_symmetry_space_group_name_H-M "C M M 2"
_symmetry_group_IT_number 35
_symmetry_cell_setting 'orthorhombic'
loop_
_space_group_symop_operation_xyz
x,y,z
-x,-y,z
-x,y,z
x,-y,z
1/2+x,1/2+y,z
1/2-x,1/2-y,z
1/2-x,1/2+y,z
1/2+x,1/2-y,z
loop_
_atom_site_type_symbol
_atom_site_label
_atom_site_fract_x
_atom_site_fract_y
_atom_site_fract_z
Si Si1 0.661838 0.500000 0.270880
Si Si2 0.951708 0.170677 0.379863
Si Si3 0.819688 0.262578 0.831500
Si Si4 0.297484 0.382809 0.341934
Si Si5 0.255676 0.339477 0.841509
Si Si6 0.638178 0.719843 0.332304
Si Si7 0.452103 0.598737 0.880055
Si Si8 0.109365 0.000000 0.770986
O O1 0.685947 0.556169 0.323192
O O2 0.623899 0.500000 0.478373
O O3 0.647082 0.500000 0.977161
O O4 0.911892 0.209661 0.341879
O O5 0.947640 0.143284 0.657373
O O6 0.000000 0.192616 0.357893
O O7 0.947426 0.125790 0.156658
O O8 0.792222 0.317392 0.834315
O O9 0.785461 0.213808 0.834220
O O10 0.846289 0.253252 0.576739
O O11 0.847684 0.251611 0.080102
O O12 0.270610 0.373212 0.597462
O O13 0.336358 0.338436 0.337747
O O14 0.268084 0.369282 0.100662
O O15 0.500000 0.576666 0.860812
O O16 0.418216 0.552728 0.830508
#
# Coordination Sequence:
#
# PCOD9350270 Si02
#       8
#     4   8   8   8   8   8   8   4
#     4  12  24  32  43  62  80 110 140 168 209 260
#     4  10  20  32  44  59  81 107 135 167 209 256
#     4   9  17  27  45  65  79  97 127 162 209 250
#     4  10  19  30  43  58  82 106 133 167 205 244
#     4   9  17  30  44  61  81 101 123 164 209 246
#     4  10  17  28  44  62  81 103 131 170 206 240
#     4  10  20  32  44  56  72 101 138 177 220 256
#     4  12  21  32  44  56  76  96 138 188 220 246
#
# _framework density 13.703196999999999
#
# number of rings (size 3 to 8) (size 9 to 14) (size 15 to 20)
#    0.000    2.000    0.000    5.357    0.000    5.714 
#    0.000    2.857    0.000    0.000    0.000    0.000 
#    0.000    0.000    0.000    0.000    0.000    0.000 
#
# Total GULP energy -156146.915164 kJ/mol
# GULP energy per Si atom -5576.675542 kJ/mol
# Density = 1.367201 g / cm^3
# Si number density = 13.703197 Si / 1000 Ang^3
#
#
#
# Elastic Constant Matrix: (Units=GPa)
#
#
# Indices 1 2 3 4 5 6 
#
# 1 81.5256 31.5056 15.6764 0.0000 0.0000 0.0000
# 2 31.5056 27.1619 6.2031 0.0000 0.0000 0.0000
# 3 15.6764 6.2031 67.0637 0.0000 0.0000 0.0000
# 4 0.0000 0.0000 0.0000 7.8172 0.0000 0.0000
# 5 0.0000 0.0000 0.0000 0.0000 13.8728 0.0000
# 6 0.0000 0.0000 0.0000 0.0000 0.0000 33.0235
#
#
#
# Elastic Compliance Matrix: (Units=1/GPa)
#
#
# Indices 1 2 3 4 5 6 
#
# 1 0.022786 -0.025758 -0.002944 0.000000 0.000000 0.000000
# 2 -0.025758 0.066728 -0.000151 0.000000 0.000000 0.000000
# 3 -0.002944 -0.000151 0.015613 0.000000 0.000000 0.000000
# 4 0.000000 0.000000 0.000000 0.127923 0.000000 0.000000
# 5 0.000000 0.000000 0.000000 0.000000 0.072084 0.000000
# 6 0.000000 0.000000 0.000000 0.000000 0.000000 0.030281
#
#
# Mechanical properties :
#
#
# Convention : Reuss Voigt Hill
#
# Bulk Modulus (GPa) = 21.08733 31.39125 26.23929
# Shear Modulus (GPa) = 12.22707 19.10044 15.66376
#
# Velocity S-wave (km/s) = 2.99034 3.73750 3.38460
# Velocity P-wave (km/s) = 5.22924 6.44848 5.87060
#
# Compressibility (1/GPa) = 0.04742185
#
# Stress axis : x y z
#
# Youngs Moduli (GPa) = 43.88596 14.98622 64.04793
#
# Poissons Ratio (x) = 0.38601 0.18855
# Poissons Ratio (y) = 1.13041 0.00967
# Poissons Ratio (z) = 0.12920 0.00226
#
# Static dielectric constant tensor:
#      x y z
#    x 1.459580 0.000000 0.000000 
#    y 0.000000 1.431260 0.000000 
#    z 0.000000 0.000000 1.464830 
# 
# From -- ./inp_files/3472.got.cif
#   From: 2010.05.17/outbox.cif.g08.bks.cpg/sg35_2_cif.got.tgz:3472.got - 2010.06.03 17:29:28.
