data_PCOD9350851
_publ_section_title
;
Structure prediction by ZEFSAII (Michael W. Deem and Ramdas Pophale) SiO2 
 PCOD9350851
Probable space group: C M C 21
;
_chemical_formula_sum "Si O2"
_cell_formula_units_Z 52
_cell_length_a 11.356272
_cell_length_b 22.793614
_cell_length_c 8.822649
_cell_angle_alpha 90.000000
_cell_angle_beta 90.000000
_cell_angle_gamma 90.000000
_cell_volume 2283.746932
_symmetry_space_group_name_H-M "C M C 21"
_symmetry_group_IT_number 36
_symmetry_cell_setting 'orthorhombic'
loop_
_space_group_symop_operation_xyz
x,y,z
-x,-y,1/2+z
x,-y,1/2+z
-x,y,z
1/2+x,1/2+y,z
1/2-x,1/2-y,1/2+z
1/2+x,1/2-y,1/2+z
1/2-x,1/2+y,z
loop_
_atom_site_type_symbol
_atom_site_label
_atom_site_fract_x
_atom_site_fract_y
_atom_site_fract_z
Si Si1 0.264097 0.887400 0.036990
Si Si2 0.136079 0.963834 0.823725
Si Si3 0.000000 0.726020 0.338961
Si Si4 0.861313 0.849732 0.606252
Si Si5 0.740504 0.272054 0.847882
Si Si6 0.500000 0.785126 0.473557
Si Si7 0.000000 0.646262 0.655196
Si Si8 0.636773 0.598537 0.808515
O O1 0.382618 0.890797 0.130737
O O2 0.162572 0.869902 0.153152
O O3 0.226257 0.945448 0.952452
O O4 0.270508 0.835273 0.918758
O O5 0.142487 0.911051 0.702442
O O6 0.000000 0.963465 0.880087
O O7 0.164457 0.030165 0.779563
O O8 0.129056 0.757143 0.344368
O O9 0.000000 0.689967 0.503779
O O10 0.000000 0.700740 0.158811
O O11 0.801903 0.792722 0.680997
O O12 0.802319 0.870762 0.450185
O O13 0.000000 0.834532 0.599390
O O14 0.624380 0.247903 0.933326
O O15 0.500000 0.829491 0.326802
O O16 0.500000 0.599594 0.846134
#
# Coordination Sequence:
#
# PCOD9350851 Si02
#       8
#     8   8   4   8   8   4   4   8
#     4  10  21  39  61  84 131 166 213 268 323 395
#     4   9  17  32  57  87 128 163 205 257 322 386
#     4  10  26  46  68  94 129 171 213 280 345 400
#     4   9  17  32  52  84 122 159 205 261 310 384
#     4  10  23  43  62  93 123 170 220 266 339 397
#     4  12  26  46  74  92 131 177 222 292 350 398
#     4  10  26  48  62  94 128 172 227 280 327 406
#     4  10  19  30  55  96 125 165 207 261 325 386
#
# _framework density 22.769597999999998
#
# number of rings (size 3 to 8) (size 9 to 14) (size 15 to 20)
#    0.000    2.154    0.769    1.385    8.615    2.462 
#    2.769    0.769    0.000    3.692    0.000    0.000 
#    0.000    0.000    0.000    0.000    0.000    0.000 
#
# Total GULP energy -144741.581796 kJ/mol
# GULP energy per Si atom -5566.983915 kJ/mol
# Density = 2.271777 g / cm^3
# Si number density = 22.769598 Si / 1000 Ang^3
#
#
#
# Elastic Constant Matrix: (Units=GPa)
#
#
# Indices 1 2 3 4 5 6 
#
# 1 87.8837 29.4653 11.3920 0.0000 0.0000 0.0000
# 2 29.4653 41.7735 12.7630 0.0000 0.0000 0.0000
# 3 11.3920 12.7630 78.7997 0.0000 0.0000 0.0000
# 4 0.0000 0.0000 0.0000 18.8255 0.0000 0.0000
# 5 0.0000 0.0000 0.0000 0.0000 25.7129 0.0000
# 6 0.0000 0.0000 0.0000 0.0000 0.0000 21.6474
#
#
#
# Elastic Compliance Matrix: (Units=1/GPa)
#
#
# Indices 1 2 3 4 5 6 
#
# 1 0.014920 -0.010379 -0.000476 0.000000 0.000000 0.000000
# 2 -0.010379 0.032404 -0.003748 0.000000 0.000000 0.000000
# 3 -0.000476 -0.003748 0.013366 0.000000 0.000000 0.000000
# 4 0.000000 0.000000 0.000000 0.053119 0.000000 0.000000
# 5 0.000000 0.000000 0.000000 0.000000 0.038891 0.000000
# 6 0.000000 0.000000 0.000000 0.000000 0.000000 0.046195
#
#
# Mechanical properties :
#
#
# Convention : Reuss Voigt Hill
#
# Bulk Modulus (GPa) = 31.76062 35.07750 33.41906
# Shear Modulus (GPa) = 20.95589 23.55960 22.25774
#
# Velocity S-wave (km/s) = 3.03701 3.22016 3.12992
# Velocity P-wave (km/s) = 5.12610 5.40969 5.26980
#
# Compressibility (1/GPa) = 0.03148554
#
# Stress axis : x y z
#
# Youngs Moduli (GPa) = 67.02386 30.86000 74.81512
#
# Poissons Ratio (x) = 0.32028 0.03561
# Poissons Ratio (y) = 0.69561 0.28041
# Poissons Ratio (z) = 0.03190 0.11566
#
# Static dielectric constant tensor:
#      x y z
#    x 1.882560 0.000000 0.000000 
#    y 0.000000 1.830790 0.000000 
#    z 0.000000 0.000000 1.955310 
# 
# From -- ./inp_files/3441.got.cif
#   From: 2010.05.17/outbox.cif.g08.bks.cpg/sg36_2_cif.got.tgz:3441.got - 2010.06.03 17:41:39.
