data_PCOD9350730
_publ_section_title
;
Structure prediction by ZEFSAII (Michael W. Deem and Ramdas Pophale) SiO2 
 PCOD9350730
Probable space group: C M C 21
;
_chemical_formula_sum "Si O2"
_cell_formula_units_Z 64
_cell_length_a 9.008516
_cell_length_b 22.940952
_cell_length_c 16.530961
_cell_angle_alpha 90.000000
_cell_angle_beta 90.000000
_cell_angle_gamma 90.000000
_cell_volume 3416.353419
_symmetry_space_group_name_H-M "C M C 21"
_symmetry_group_IT_number 36
_symmetry_cell_setting 'orthorhombic'
loop_
_space_group_symop_operation_xyz
x,y,z
-x,-y,1/2+z
x,-y,1/2+z
-x,y,z
1/2+x,1/2+y,z
1/2-x,1/2-y,1/2+z
1/2+x,1/2-y,1/2+z
1/2-x,1/2+y,z
loop_
_atom_site_type_symbol
_atom_site_label
_atom_site_fract_x
_atom_site_fract_y
_atom_site_fract_z
Si Si1 0.325806 0.722250 0.862820
Si Si2 0.178294 0.597430 0.174186
Si Si3 0.667921 0.922767 0.949240
Si Si4 0.676429 0.637972 0.013172
Si Si5 0.674372 0.344402 0.831678
Si Si6 0.830911 0.549070 0.904273
Si Si7 0.324840 0.962402 0.133346
Si Si8 0.827774 0.109743 0.761417
O O1 0.500000 0.737582 0.871142
O O2 0.231567 0.778737 0.842982
O O3 0.313571 0.676701 0.788293
O O4 0.283084 0.687460 0.945849
O O5 0.241047 0.635494 0.098908
O O6 0.243630 0.622901 0.257432
O O7 0.217319 0.528859 0.157821
O O8 0.000000 0.600724 0.175562
O O9 0.500000 0.898668 0.943882
O O10 0.782647 0.877043 0.914861
O O11 0.678787 0.980322 0.894747
O O12 0.687800 0.949336 0.038206
O O13 0.500000 0.641183 0.025132
O O14 0.721616 0.577603 0.969279
O O15 0.500000 0.346175 0.816943
O O16 0.784095 0.576876 0.820707
O O17 0.000000 0.563362 0.928558
O O18 0.500000 0.955438 0.154314
O O19 0.223584 0.913665 0.175525
O O20 0.000000 0.093922 0.777086
#
# Coordination Sequence:
#
# PCOD9350730 Si02
#       8
#     8   8   8   8   8   8   8   8
#     4   9  21  43  63  82 116 160 201 245 300 359
#     4  11  22  40  64  91 124 162 201 243 299 366
#     4  10  21  39  59  83 120 162 198 238 295 362
#     4  10  20  36  62  93 121 152 196 251 300 347
#     4  12  26  41  60  90 120 158 208 254 304 353
#     4  10  18  33  58  86 117 156 195 231 288 360
#     4  10  21  38  60  90 122 158 199 236 292 369
#     4  10  21  36  58  89 118 150 194 248 300 344
#
# _framework density 18.733425
#
# number of rings (size 3 to 8) (size 9 to 14) (size 15 to 20)
#    0.000    1.750    1.250    4.125    0.000    8.500 
#    2.250    0.000    0.000    0.000    0.000    0.000 
#    0.000    0.000    0.000    0.000    0.000    0.000 
#
# Total GULP energy -178480.950137 kJ/mol
# GULP energy per Si atom -5577.529692 kJ/mol
# Density = 1.869079 g / cm^3
# Si number density = 18.733425 Si / 1000 Ang^3
#
#
#
# Elastic Constant Matrix: (Units=GPa)
#
#
# Indices 1 2 3 4 5 6 
#
# 1 79.5751 60.5644 36.9402 0.0000 0.0000 0.0000
# 2 60.5644 89.5753 45.9982 0.0000 0.0000 0.0000
# 3 36.9402 45.9982 56.4802 0.0000 0.0000 0.0000
# 4 0.0000 0.0000 0.0000 19.7357 0.0000 0.0000
# 5 0.0000 0.0000 0.0000 0.0000 36.1444 0.0000
# 6 0.0000 0.0000 0.0000 0.0000 0.0000 28.2648
#
#
#
# Elastic Compliance Matrix: (Units=1/GPa)
#
#
# Indices 1 2 3 4 5 6 
#
# 1 0.026604 -0.015560 -0.004728 0.000000 0.000000 0.000000
# 2 -0.015560 0.028289 -0.012862 0.000000 0.000000 0.000000
# 3 -0.004728 -0.012862 0.031273 0.000000 0.000000 0.000000
# 4 0.000000 0.000000 0.000000 0.050670 0.000000 0.000000
# 5 0.000000 0.000000 0.000000 0.000000 0.027667 0.000000
# 6 0.000000 0.000000 0.000000 0.000000 0.000000 0.035380
#
#
# Mechanical properties :
#
#
# Convention : Reuss Voigt Hill
#
# Bulk Modulus (GPa) = 50.33768 56.95957 53.64863
# Shear Modulus (GPa) = 18.32809 22.30416 20.31613
#
# Velocity S-wave (km/s) = 3.13127 3.45426 3.29673
# Velocity P-wave (km/s) = 6.32471 6.81033 6.57201
#
# Compressibility (1/GPa) = 0.01986583
#
# Stress axis : x y z
#
# Youngs Moduli (GPa) = 37.58801 35.34890 31.97664
#
# Poissons Ratio (x) = 0.55003 0.15118
# Poissons Ratio (y) = 0.58487 0.41130
# Poissons Ratio (z) = 0.17771 0.45467
#
# Static dielectric constant tensor:
#      x y z
#    x 1.635850 0.000000 0.000000 
#    y 0.000000 1.668700 0.000000 
#    z 0.000000 0.000000 1.714730 
# 
# From -- ./inp_files/10910.got.cif
#   From: 2010.05.17/outbox.cif.g08.bks.cpg/sg36_6_cif.got.tgz:10910.got - 2010.06.03 17:41:39.
