data_PCOD9350801
_publ_section_title
;
Structure prediction by ZEFSAII (Michael W. Deem and Ramdas Pophale) SiO2 
 PCOD9350801
Probable space group: C M C 21
;
_chemical_formula_sum "Si O2"
_cell_formula_units_Z 40
_cell_length_a 7.602585
_cell_length_b 25.929521
_cell_length_c 10.273378
_cell_angle_alpha 90.000000
_cell_angle_beta 90.000000
_cell_angle_gamma 90.000000
_cell_volume 2025.205259
_symmetry_space_group_name_H-M "C M C 21"
_symmetry_group_IT_number 36
_symmetry_cell_setting 'orthorhombic'
loop_
_space_group_symop_operation_xyz
x,y,z
-x,-y,1/2+z
x,-y,1/2+z
-x,y,z
1/2+x,1/2+y,z
1/2-x,1/2-y,1/2+z
1/2+x,1/2-y,1/2+z
1/2-x,1/2+y,z
loop_
_atom_site_type_symbol
_atom_site_label
_atom_site_fract_x
_atom_site_fract_y
_atom_site_fract_z
Si Si1 0.795957 0.626521 0.929260
Si Si2 0.800716 0.142347 0.391255
Si Si3 0.784785 0.792612 0.644929
Si Si4 0.000000 0.048050 0.016598
Si Si5 0.297024 0.824230 0.168132
Si Si6 0.500000 0.454541 0.816523
O O1 0.669963 0.583876 0.991823
O O2 0.724447 0.641987 0.786322
O O3 0.000000 0.609624 0.922736
O O4 0.783377 0.677373 0.019074
O O5 0.726976 0.176272 0.273761
O O6 0.710006 0.148015 0.529254
O O7 0.834845 0.083871 0.344524
O O8 0.000000 0.162484 0.414559
O O9 0.724954 0.733562 0.653025
O O10 0.000000 0.794917 0.638617
O O11 0.000000 0.030010 0.166168
O O12 0.000000 0.001344 0.915539
O O13 0.500000 0.816498 0.206170
#
# Coordination Sequence:
#
# PCOD9350801 Si02
#       6
#     8   8   8   4   8   4
#     4  11  23  41  63  93 131 168 206 269 317 378
#     4   9  19  38  57  86 119 161 208 256 310 366
#     4  10  18  38  59  85 132 173 208 255 310 375
#     4  12  24  48  70  94 124 162 220 270 331 368
#     4  10  22  33  56  95 129 168 211 250 302 385
#     4  10  24  42  74  88 116 172 210 270 325 374
#
# _framework density 19.751083000000001
#
# number of rings (size 3 to 8) (size 9 to 14) (size 15 to 20)
#    0.600    1.200    3.000    1.200    4.200    3.200 
#    0.000    2.000    0.000    0.000    0.000    0.000 
#    0.000    0.000    0.000    0.000    0.000    0.000 
#
# Total GULP energy -111559.329092 kJ/mol
# GULP energy per Si atom -5577.966455 kJ/mol
# Density = 1.970613 g / cm^3
# Si number density = 19.751083 Si / 1000 Ang^3
#
#
#
# Elastic Constant Matrix: (Units=GPa)
#
#
# Indices 1 2 3 4 5 6 
#
# 1 63.1954 17.1291 10.9173 0.0000 0.0000 0.0000
# 2 17.1291 81.1410 45.9303 0.0000 0.0000 0.0000
# 3 10.9173 45.9303 157.3566 0.0000 0.0000 0.0000
# 4 0.0000 0.0000 0.0000 42.1545 0.0000 0.0000
# 5 0.0000 0.0000 0.0000 0.0000 34.2663 0.0000
# 6 0.0000 0.0000 0.0000 0.0000 0.0000 6.5294
#
#
#
# Elastic Compliance Matrix: (Units=1/GPa)
#
#
# Indices 1 2 3 4 5 6 
#
# 1 0.016788 -0.003456 -0.000156 0.000000 0.000000 0.000000
# 2 -0.003456 0.015475 -0.004277 0.000000 0.000000 0.000000
# 3 -0.000156 -0.004277 0.007614 0.000000 0.000000 0.000000
# 4 0.000000 0.000000 0.000000 0.023722 0.000000 0.000000
# 5 0.000000 0.000000 0.000000 0.000000 0.029183 0.000000
# 6 0.000000 0.000000 0.000000 0.000000 0.000000 0.153154
#
#
# Mechanical properties :
#
#
# Convention : Reuss Voigt Hill
#
# Bulk Modulus (GPa) = 41.49539 49.96070 45.72804
# Shear Modulus (GPa) = 18.53592 31.77113 25.15352
#
# Velocity S-wave (km/s) = 3.06678 4.01506 3.57252
# Velocity P-wave (km/s) = 5.79612 6.84429 6.34190
#
# Compressibility (1/GPa) = 0.02409906
#
# Stress axis : x y z
#
# Youngs Moduli (GPa) = 59.56802 64.62121 131.33242
#
# Poissons Ratio (x) = 0.22330 0.02050
# Poissons Ratio (y) = 0.20584 0.56173
# Poissons Ratio (z) = 0.00930 0.27639
#
# Static dielectric constant tensor:
#      x y z
#    x 1.719460 0.000000 0.000000 
#    y 0.000000 1.671080 0.000000 
#    z 0.000000 0.000000 1.693750 
# 
# From -- ./inp_files/2544.got.cif
#   From: 2010.05.17/outbox.cif.g08.bks.cpg/sg36_2_cif.got.tgz:2544.got - 2010.06.03 17:41:39.
