data_PCOD9350241
_publ_section_title
;
Structure prediction by ZEFSAII (Michael W. Deem and Ramdas Pophale) SiO2 
 PCOD9350241
Probable space group: C M M 2
;
_chemical_formula_sum "Si O2"
_cell_formula_units_Z 56
_cell_length_a 8.724932
_cell_length_b 19.104531
_cell_length_c 19.099642
_cell_angle_alpha 90.000000
_cell_angle_beta 90.000000
_cell_angle_gamma 90.000000
_cell_volume 3183.637843
_symmetry_space_group_name_H-M "C M M 2"
_symmetry_group_IT_number 35
_symmetry_cell_setting 'orthorhombic'
loop_
_space_group_symop_operation_xyz
x,y,z
-x,-y,z
-x,y,z
x,-y,z
1/2+x,1/2+y,z
1/2-x,1/2-y,z
1/2-x,1/2+y,z
1/2+x,1/2-y,z
loop_
_atom_site_type_symbol
_atom_site_label
_atom_site_fract_x
_atom_site_fract_y
_atom_site_fract_z
Si Si1 0.186849 0.919418 0.824870
Si Si2 0.182979 0.171813 0.400168
Si Si3 0.816767 0.670533 0.103364
Si Si4 0.316191 0.329039 0.245569
Si Si5 0.322224 0.585139 0.671692
Si Si6 0.315270 0.671559 0.958741
Si Si7 0.182402 0.418475 0.525416
O O1 0.237215 0.892379 0.748211
O O2 0.230940 0.872844 0.890833
O O3 0.000000 0.920086 0.822113
O O4 0.236486 0.000000 0.833829
O O5 0.250000 0.250000 0.405393
O O6 0.221607 0.141581 0.322613
O O7 0.244386 0.125397 0.463173
O O8 0.000000 0.176529 0.403733
O O9 0.750000 0.750000 0.103627
O O10 0.757052 0.637693 0.176052
O O11 0.000000 0.672902 0.102390
O O12 0.751450 0.640139 0.031026
O O13 0.500000 0.326501 0.237438
O O14 0.250000 0.250000 0.248375
O O15 0.500000 0.605781 0.664185
O O16 0.318022 0.500000 0.674432
O O17 0.232861 0.607158 0.602449
O O18 0.500000 0.674131 0.963489
O O19 0.250000 0.750000 0.951675
O O20 0.230357 0.500000 0.519803
O O21 0.000000 0.415116 0.520153
#
# Coordination Sequence:
#
# PCOD9350241 Si02
#       7
#     8   8   8   8   8   8   8
#     4   8  15  29  50  72  90 116 157 199 235 273
#     4  10  20  33  51  74 100 128 159 198 243 289
#     4  10  17  26  42  64  91 122 156 190 226 271
#     4   9  16  27  44  67  92 119 154 193 232 274
#     4   8  14  28  50  71  90 117 158 201 236 276
#     4  10  18  29  46  68  96 123 151 190 233 278
#     4  10  20  33  50  73 100 129 162 199 239 284
#
# _framework density 17.589942000000001
#
# number of rings (size 3 to 8) (size 9 to 14) (size 15 to 20)
#    0.000    2.714    0.000    5.571    0.000    2.571 
#    0.000    2.143    0.000    6.000    0.000    2.000 
#    0.000    0.000    0.000    0.000    0.000    0.000 
#
# Total GULP energy -155950.022499 kJ/mol
# GULP energy per Si atom -5569.643661 kJ/mol
# Density = 1.754991 g / cm^3
# Si number density = 17.589942 Si / 1000 Ang^3
#
#
#
# Elastic Constant Matrix: (Units=GPa)
#
#
# Indices 1 2 3 4 5 6 
#
# 1 70.7304 19.1355 63.1550 0.0000 0.0000 0.0000
# 2 19.1355 29.8030 55.4455 0.0000 0.0000 0.0000
# 3 63.1550 55.4455 224.6910 0.0000 0.0000 0.0000
# 4 0.0000 0.0000 0.0000 49.5112 0.0000 0.0000
# 5 0.0000 0.0000 0.0000 0.0000 22.6641 0.0000
# 6 0.0000 0.0000 0.0000 0.0000 0.0000 14.3300
#
#
#
# Elastic Compliance Matrix: (Units=1/GPa)
#
#
# Indices 1 2 3 4 5 6 
#
# 1 0.019158 -0.004220 -0.004344 0.000000 0.000000 0.000000
# 2 -0.004220 0.062960 -0.014350 0.000000 0.000000 0.000000
# 3 -0.004344 -0.014350 0.009212 0.000000 0.000000 0.000000
# 4 0.000000 0.000000 0.000000 0.020197 0.000000 0.000000
# 5 0.000000 0.000000 0.000000 0.000000 0.044123 0.000000
# 6 0.000000 0.000000 0.000000 0.000000 0.000000 0.069784
#
#
# Mechanical properties :
#
#
# Convention : Reuss Voigt Hill
#
# Bulk Modulus (GPa) = 21.97634 66.74403 44.36019
# Shear Modulus (GPa) = 17.45626 29.80030 23.62828
#
# Velocity S-wave (km/s) = 3.15366 4.12049 3.66906
# Velocity P-wave (km/s) = 5.07755 7.78876 6.57443
#
# Compressibility (1/GPa) = 0.04550349
#
# Stress axis : x y z
#
# Youngs Moduli (GPa) = 52.19692 15.88301 108.54821
#
# Poissons Ratio (x) = 0.06703 0.47148
# Poissons Ratio (y) = 0.22028 1.55768
# Poissons Ratio (z) = 0.22672 0.22792
#
# Static dielectric constant tensor:
#      x y z
#    x 1.594080 0.000000 0.000000 
#    y 0.000000 1.579190 0.000000 
#    z 0.000000 0.000000 1.662740 
# 
# From -- ./inp_files/18204.got.cif
#   From: 2010.05.17/outbox.cif.g08.bks.cpg/sg35_10_cif.got.tgz:18204.got - 2010.06.03 17:29:28.
