data_PCOD9350507
_publ_section_title
;
Structure prediction by ZEFSAII (Michael W. Deem and Ramdas Pophale) SiO2 
 PCOD9350507
Probable space group: C M C 21
;
_chemical_formula_sum "Si O2"
_cell_formula_units_Z 40
_cell_length_a 14.353000
_cell_length_b 13.816728
_cell_length_c 7.273429
_cell_angle_alpha 90.000000
_cell_angle_beta 90.000000
_cell_angle_gamma 90.000000
_cell_volume 1442.404593
_symmetry_space_group_name_H-M "C M C 21"
_symmetry_group_IT_number 36
_symmetry_cell_setting 'orthorhombic'
loop_
_space_group_symop_operation_xyz
x,y,z
-x,-y,1/2+z
x,-y,1/2+z
-x,y,z
1/2+x,1/2+y,z
1/2-x,1/2-y,1/2+z
1/2+x,1/2-y,1/2+z
1/2-x,1/2+y,z
loop_
_atom_site_type_symbol
_atom_site_label
_atom_site_fract_x
_atom_site_fract_y
_atom_site_fract_z
Si Si1 0.159884 0.441062 0.573100
Si Si2 0.500000 0.819940 0.511771
Si Si3 0.802719 0.883862 0.841722
Si Si4 0.500000 0.095619 0.604326
Si Si5 0.000000 0.814487 0.458237
Si Si6 0.500000 0.395440 0.856133
Si Si7 0.696639 0.702096 0.960754
O O1 0.231941 0.455371 0.739716
O O2 0.224111 0.378747 0.432265
O O3 0.088110 0.355558 0.625000
O O4 0.091689 0.532579 0.551700
O O5 0.500000 0.884768 0.324040
O O6 0.500000 0.711248 0.446598
O O7 0.832145 0.812774 0.674151
O O8 0.897142 0.933140 0.911850
O O9 0.742948 0.807969 0.958027
O O10 0.500000 0.202160 0.521508
O O11 0.000000 0.888143 0.632776
O O12 0.100110 0.822682 0.357890
#
# Coordination Sequence:
#
# PCOD9350507 Si02
#       7
#     8   4   8   4   4   4   8
#     4   9  20  31  50  80 106 149 183 229 272 349
#     4  10  17  32  53  74 118 143 180 225 295 323
#     4   9  17  29  51  74 106 138 189 225 273 328
#     4  10  21  35  53  82 117 150 177 235 295 338
#     4   9  19  30  55  81 109 143 181 227 288 335
#     4   9  13  29  49  75  96 148 168 219 268 338
#     4   9  18  33  52  79 108 144 189 232 277 338
#
# _framework density 27.731470000000002
#
# number of rings (size 3 to 8) (size 9 to 14) (size 15 to 20)
#    1.200    1.600    2.000    0.000    0.000    4.800 
#    0.000    0.000    0.000    0.000    0.000   19.600 
#    0.000    0.000    0.000    0.000    0.000    0.000 
#
# Total GULP energy -111454.007883 kJ/mol
# GULP energy per Si atom -5572.700394 kJ/mol
# Density = 2.766835 g / cm^3
# Si number density = 27.731470 Si / 1000 Ang^3
#
#
#
# Elastic Constant Matrix: (Units=GPa)
#
#
# Indices 1 2 3 4 5 6 
#
# 1 263.8410 53.1417 2.6205 0.0000 0.0000 0.0000
# 2 53.1417 110.4972 15.8813 0.0000 0.0000 0.0000
# 3 2.6205 15.8813 35.2627 0.0000 0.0000 0.0000
# 4 0.0000 0.0000 0.0000 6.0540 0.0000 0.0000
# 5 0.0000 0.0000 0.0000 0.0000 10.8665 0.0000
# 6 0.0000 0.0000 0.0000 0.0000 0.0000 39.4311
#
#
#
# Elastic Compliance Matrix: (Units=1/GPa)
#
#
# Indices 1 2 3 4 5 6 
#
# 1 0.004210 -0.002117 0.000641 0.000000 0.000000 0.000000
# 2 -0.002117 0.010741 -0.004680 0.000000 0.000000 0.000000
# 3 0.000641 -0.004680 0.030419 0.000000 0.000000 0.000000
# 4 0.000000 0.000000 0.000000 0.165180 0.000000 0.000000
# 5 0.000000 0.000000 0.000000 0.000000 0.092026 0.000000
# 6 0.000000 0.000000 0.000000 0.000000 0.000000 0.025361
#
#
# Mechanical properties :
#
#
# Convention : Reuss Voigt Hill
#
# Bulk Modulus (GPa) = 30.25085 61.43197 45.84141
# Shear Modulus (GPa) = 14.23413 33.80080 24.01746
#
# Velocity S-wave (km/s) = 2.26804 3.49501 2.94610
# Velocity P-wave (km/s) = 4.21792 6.20381 5.30463
#
# Compressibility (1/GPa) = 0.03305692
#
# Stress axis : x y z
#
# Youngs Moduli (GPa) = 237.52006 93.10369 32.87446
#
# Poissons Ratio (x) = 0.19709 -0.02106
# Poissons Ratio (y) = 0.50280 0.15385
# Poissons Ratio (z) = -0.15213 0.43573
#
# Static dielectric constant tensor:
#      x y z
#    x 2.362000 0.000000 0.000000 
#    y 0.000000 2.089590 0.000000 
#    z 0.000000 0.000000 2.239400 
# 
# From -- ./inp_files/8346.got.cif
#   From: 2010.05.17/outbox.cif.g08.bks.cpg/sg36_5_cif.got.tgz:8346.got - 2010.06.03 17:41:39.
