data_PCOD9350443
_publ_section_title
;
Structure prediction by ZEFSAII (Michael W. Deem and Ramdas Pophale) SiO2 
 PCOD9350443
Probable space group: C M M 2
;
_chemical_formula_sum "Si O2"
_cell_formula_units_Z 64
_cell_length_a 8.522876
_cell_length_b 29.917253
_cell_length_c 12.552599
_cell_angle_alpha 90.000000
_cell_angle_beta 90.000000
_cell_angle_gamma 90.000000
_cell_volume 3200.674717
_symmetry_space_group_name_H-M "C M M 2"
_symmetry_group_IT_number 35
_symmetry_cell_setting 'orthorhombic'
loop_
_space_group_symop_operation_xyz
x,y,z
-x,-y,z
-x,y,z
x,-y,z
1/2+x,1/2+y,z
1/2-x,1/2-y,z
1/2-x,1/2+y,z
1/2+x,1/2-y,z
loop_
_atom_site_type_symbol
_atom_site_label
_atom_site_fract_x
_atom_site_fract_y
_atom_site_fract_z
Si Si1 0.313301 0.049073 0.445890
Si Si2 0.817431 0.661258 0.270186
Si Si3 0.686219 0.646131 0.495217
Si Si4 0.816398 0.932088 0.216697
Si Si5 0.813963 0.358398 0.908606
Si Si6 0.183701 0.794074 0.080225
Si Si7 0.810716 0.950117 0.973568
Si Si8 0.311883 0.800757 0.698761
O O1 0.500000 0.053181 0.459768
O O2 0.234730 0.093507 0.494658
O O3 0.274520 0.049687 0.319425
O O4 0.262864 0.000000 0.487129
O O5 0.770860 0.667587 0.392278
O O6 0.709827 0.620788 0.228139
O O7 0.779215 0.700747 0.189753
O O8 0.000000 0.648756 0.263098
O O9 0.500000 0.648777 0.481319
O O10 0.739182 0.672944 0.598866
O O11 0.000000 0.943419 0.227700
O O12 0.764115 0.946196 0.098854
O O13 0.766521 0.410258 0.907560
O O14 0.774974 0.330277 0.803276
O O15 0.000000 0.354512 0.928144
O O16 0.722209 0.335927 0.005955
O O17 0.250000 0.750000 0.023314
O O18 0.000000 0.790664 0.099500
O O19 0.000000 0.945041 0.970826
O O20 0.770817 0.000000 0.936301
O O21 0.500000 0.799328 0.687373
O O22 0.250000 0.750000 0.706635
#
# Coordination Sequence:
#
# PCOD9350443 Si02
#       8
#     8   8   8   8   8   8   8   8
#     4  10  20  34  55  86 125 168 210 254 304 360
#     4  11  21  36  58  87 125 164 202 248 304 364
#     4  11  23  40  64  92 123 161 205 253 310 366
#     4  10  18  31  53  83 120 166 209 251 299 356
#     4  11  24  42  65  92 123 161 204 255 310 366
#     4  12  24  39  60  89 124 162 203 249 305 370
#     4  10  21  36  57  87 125 168 210 254 304 361
#     4  11  25  46  70  95 120 153 204 258 312 371
#
# _framework density 19.995785000000001
#
# number of rings (size 3 to 8) (size 9 to 14) (size 15 to 20)
#    0.000    1.250    1.250    7.125    0.000    5.750 
#    0.000    3.125    0.000    0.750    0.000    0.000 
#    0.000    0.000    0.000    0.000    0.000    0.000 
#
# Total GULP energy -178806.397657 kJ/mol
# GULP energy per Si atom -5587.699927 kJ/mol
# Density = 1.995027 g / cm^3
# Si number density = 19.995785 Si / 1000 Ang^3
#
#
#
# Elastic Constant Matrix: (Units=GPa)
#
#
# Indices 1 2 3 4 5 6 
#
# 1 67.2316 22.1204 31.2110 0.0000 0.0000 0.0000
# 2 22.1204 125.0675 44.3678 0.0000 0.0000 0.0000
# 3 31.2110 44.3678 78.4820 0.0000 0.0000 0.0000
# 4 0.0000 0.0000 0.0000 12.1928 0.0000 0.0000
# 5 0.0000 0.0000 0.0000 0.0000 16.0322 0.0000
# 6 0.0000 0.0000 0.0000 0.0000 0.0000 -89.0037
#
#
#
# Elastic Compliance Matrix: (Units=1/GPa)
#
#
# Indices 1 2 3 4 5 6 
#
# 1 0.018309 -0.000820 -0.006818 0.000000 0.000000 0.000000
# 2 -0.000820 0.010038 -0.005349 0.000000 0.000000 0.000000
# 3 -0.006818 -0.005349 0.018477 0.000000 0.000000 0.000000
# 4 0.000000 0.000000 0.000000 0.082016 0.000000 0.000000
# 5 0.000000 0.000000 0.000000 0.000000 0.062375 0.000000
# 6 0.000000 0.000000 0.000000 0.000000 0.000000 -0.011235
#
#
# Mechanical properties :
#
#
# Convention : Reuss Voigt Hill
#
# Bulk Modulus (GPa) = 47.95858 51.79773 49.87815
# Shear Modulus (GPa) = 23.48508 -0.61696 11.43406
#
# Velocity S-wave (km/s) = 3.43082 -0.55607 2.39388
# Velocity P-wave (km/s) = 6.30321 5.05453 5.71309
#
# Compressibility (1/GPa) = 0.02085133
#
# Stress axis : x y z
#
# Youngs Moduli (GPa) = 54.61910 99.61987 54.12164
#
# Poissons Ratio (x) = 0.08165 0.36898
# Poissons Ratio (y) = 0.04477 0.28949
# Poissons Ratio (z) = 0.37238 0.53285
#
# Static dielectric constant tensor:
#      x y z
#    x 1.674520 0.000000 0.000000 
#    y 0.000000 1.798590 0.000000 
#    z 0.000000 0.000000 1.690840 
# 
# From -- ./inp_files/12019.got.cif
#   From: 2010.05.17/outbox.cif.g08.bks.cpg/sg35_7_cif.got.tgz:12019.got - 2010.06.03 17:29:28.
