data_PCOD9350225
_publ_section_title
;
Structure prediction by ZEFSAII (Michael W. Deem and Ramdas Pophale) SiO2 
 PCOD9350225
Probable space group: C M M 2
;
_chemical_formula_sum "Si O2"
_cell_formula_units_Z 56
_cell_length_a 22.751787
_cell_length_b 7.958456
_cell_length_c 14.827555
_cell_angle_alpha 90.000000
_cell_angle_beta 90.000000
_cell_angle_gamma 90.000000
_cell_volume 2684.811976
_symmetry_space_group_name_H-M "C M M 2"
_symmetry_group_IT_number 35
_symmetry_cell_setting 'orthorhombic'
loop_
_space_group_symop_operation_xyz
x,y,z
-x,-y,z
-x,y,z
x,-y,z
1/2+x,1/2+y,z
1/2-x,1/2-y,z
1/2-x,1/2+y,z
1/2+x,1/2-y,z
loop_
_atom_site_type_symbol
_atom_site_label
_atom_site_fract_x
_atom_site_fract_y
_atom_site_fract_z
Si Si1 0.628843 0.698208 0.417780
Si Si2 0.500000 0.195253 0.435019
Si Si3 0.684416 0.701659 0.600359
Si Si4 0.316158 0.192912 0.240328
Si Si5 0.000000 0.797076 0.643083
Si Si6 0.934134 0.302660 0.151895
Si Si7 0.431682 0.300806 0.948292
Si Si8 0.113474 0.204699 0.762497
O O1 0.641207 0.500000 0.413103
O O2 0.560357 0.728069 0.398242
O O3 0.642287 0.758962 0.519336
O O4 0.670665 0.787682 0.346401
O O5 0.500000 0.221528 0.543372
O O6 0.500000 0.000000 0.413131
O O7 0.679002 0.500000 0.603448
O O8 0.750000 0.750000 0.576849
O O9 0.666575 0.764139 0.699524
O O10 0.250000 0.250000 0.219491
O O11 0.375029 0.273765 0.195921
O O12 0.317424 0.000000 0.212830
O O13 0.056529 0.752653 0.702461
O O14 0.000000 0.000000 0.630268
O O15 0.936728 0.500000 0.177334
O O16 0.000000 0.231793 0.172127
O O17 0.925832 0.287690 0.044117
O O18 0.500000 0.286234 0.919370
O O19 0.420422 0.500000 0.962529
O O20 0.393158 0.235565 0.864827
O O21 0.114375 0.000000 0.769035
#
# Coordination Sequence:
#
# PCOD9350225 Si02
#       8
#     8   4   8   8   4   8   8   8
#     4  11  23  40  62  85 113 153 197 241 291 350
#     4  12  24  36  54  87 124 153 188 239 296 348
#     4  10  21  36  54  75 107 150 193 234 280 333
#     4  11  24  42  64  88 117 155 198 245 300 360
#     4  10  16  32  56  77 108 147 188 227 272 334
#     4   9  20  39  60  84 118 154 186 234 303 361
#     4   9  16  29  55  86 111 141 186 236 284 340
#     4   9  16  30  54  80 108 145 185 229 278 332
#
# _framework density 20.858072
#
# number of rings (size 3 to 8) (size 9 to 14) (size 15 to 20)
#    0.000    2.000    2.143    1.929    1.000    3.429 
#    0.000    2.143    0.000    3.429    0.000    0.000 
#    0.000    0.000    0.000    0.000    0.000    0.000 
#
# Total GULP energy -156220.286228 kJ/mol
# GULP energy per Si atom -5579.295937 kJ/mol
# Density = 2.081060 g / cm^3
# Si number density = 20.858072 Si / 1000 Ang^3
#
#
#
# Elastic Constant Matrix: (Units=GPa)
#
#
# Indices 1 2 3 4 5 6 
#
# 1 138.8025 9.8428 41.1630 0.0000 0.0000 0.0000
# 2 9.8428 11.9376 -0.6297 0.0000 0.0000 0.0000
# 3 41.1630 -0.6297 70.6455 0.0000 0.0000 0.0000
# 4 0.0000 0.0000 0.0000 18.8537 0.0000 0.0000
# 5 0.0000 0.0000 0.0000 0.0000 17.5493 0.0000
# 6 0.0000 0.0000 0.0000 0.0000 0.0000 18.1146
#
#
#
# Elastic Compliance Matrix: (Units=1/GPa)
#
#
# Indices 1 2 3 4 5 6 
#
# 1 0.009427 -0.008066 -0.005565 0.000000 0.000000 0.000000
# 2 -0.008066 0.090710 0.005508 0.000000 0.000000 0.000000
# 3 -0.005565 0.005508 0.017447 0.000000 0.000000 0.000000
# 4 0.000000 0.000000 0.000000 0.053040 0.000000 0.000000
# 5 0.000000 0.000000 0.000000 0.000000 0.056982 0.000000
# 6 0.000000 0.000000 0.000000 0.000000 0.000000 0.055204
#
#
# Mechanical properties :
#
#
# Convention : Reuss Voigt Hill
#
# Bulk Modulus (GPa) = 9.86790 35.79309 22.83050
# Shear Modulus (GPa) = 15.02253 22.30415 18.66334
#
# Velocity S-wave (km/s) = 2.68661 3.27361 2.99453
# Velocity P-wave (km/s) = 3.79013 5.61126 4.78808
#
# Compressibility (1/GPa) = 0.10133864
#
# Stress axis : x y z
#
# Youngs Moduli (GPa) = 106.08221 11.02417 57.31790
#
# Poissons Ratio (x) = 0.08892 0.31895
# Poissons Ratio (y) = 0.85565 -0.31572
# Poissons Ratio (z) = 0.59030 -0.06072
#
# Static dielectric constant tensor:
#      x y z
#    x 1.826830 0.000000 0.000000 
#    y 0.000000 1.776320 0.000000 
#    z 0.000000 0.000000 1.751190 
# 
# From -- ./inp_files/17444.got.cif
#   From: 2010.05.17/outbox.cif.g08.bks.cpg/sg35_9_cif.got.tgz:17444.got - 2010.06.03 17:29:28.
