data_PCOD9350120
_publ_section_title
;
Structure prediction by ZEFSAII (Michael W. Deem and Ramdas Pophale) SiO2 
 PCOD9350120
Probable space group: C M M 2
;
_chemical_formula_sum "Si O2"
_cell_formula_units_Z 26
_cell_length_a 16.397675
_cell_length_b 13.880094
_cell_length_c 4.922897
_cell_angle_alpha 90.000000
_cell_angle_beta 90.000000
_cell_angle_gamma 90.000000
_cell_volume 1120.457611
_symmetry_space_group_name_H-M "C M M 2"
_symmetry_group_IT_number 35
_symmetry_cell_setting 'orthorhombic'
loop_
_space_group_symop_operation_xyz
x,y,z
-x,-y,z
-x,y,z
x,-y,z
1/2+x,1/2+y,z
1/2-x,1/2-y,z
1/2-x,1/2+y,z
1/2+x,1/2-y,z
loop_
_atom_site_type_symbol
_atom_site_label
_atom_site_fract_x
_atom_site_fract_y
_atom_site_fract_z
Si Si1 0.500000 0.500000 0.815120
Si Si2 0.905068 0.704680 0.405156
Si Si3 0.861666 0.104773 0.089677
Si Si4 0.322575 0.110614 0.901563
O O1 0.428509 0.583215 0.858475
O O2 0.851834 0.681893 0.668060
O O3 0.000000 0.691413 0.466373
O O4 0.889338 0.810146 0.282552
O O5 0.875030 0.632861 0.168654
O O6 0.772150 0.123405 0.976299
O O7 0.860768 0.000000 0.240075
O O8 0.334115 0.000000 0.813158
#
# Coordination Sequence:
#
# PCOD9350120 Si02
#       4
#     2   8   8   8
#     4   8  16  44  80 102 144 174 232 302 368 418
#     4  12  24  45  72 105 143 193 240 288 352 426
#     4   9  20  43  75 107 141 177 234 299 365 415
#     4  11  26  44  70 103 147 189 237 294 351 419
#
# _framework density 23.204806000000001
#
# number of rings (size 3 to 8) (size 9 to 14) (size 15 to 20)
#    0.923    0.615    1.538    2.769    0.000    8.615 
#    0.000    4.615    0.000   12.923    0.000    0.000 
#    0.000    0.000    0.000    0.000    0.000    0.000 
#
# Total GULP energy -72513.592475 kJ/mol
# GULP energy per Si atom -5577.968652 kJ/mol
# Density = 2.315199 g / cm^3
# Si number density = 23.204806 Si / 1000 Ang^3
#
#
#
# Elastic Constant Matrix: (Units=GPa)
#
#
# Indices 1 2 3 4 5 6 
#
# 1 95.8600 27.9166 -9.7466 0.0000 0.0000 0.0000
# 2 27.9166 62.7584 -7.4630 0.0000 0.0000 0.0000
# 3 -9.7466 -7.4630 46.8643 0.0000 0.0000 0.0000
# 4 0.0000 0.0000 0.0000 16.7641 0.0000 0.0000
# 5 0.0000 0.0000 0.0000 0.0000 34.5167 0.0000
# 6 0.0000 0.0000 0.0000 0.0000 0.0000 32.5058
#
#
#
# Elastic Compliance Matrix: (Units=1/GPa)
#
#
# Indices 1 2 3 4 5 6 
#
# 1 0.012115 -0.005188 0.001693 0.000000 0.000000 0.000000
# 2 -0.005188 0.018463 0.001861 0.000000 0.000000 0.000000
# 3 0.001693 0.001861 0.021987 0.000000 0.000000 0.000000
# 4 0.000000 0.000000 0.000000 0.059651 0.000000 0.000000
# 5 0.000000 0.000000 0.000000 0.000000 0.028971 0.000000
# 6 0.000000 0.000000 0.000000 0.000000 0.000000 0.030764
#
#
# Mechanical properties :
#
#
# Convention : Reuss Voigt Hill
#
# Bulk Modulus (GPa) = 20.28441 25.21075 22.74758
# Shear Modulus (GPa) = 26.08923 29.74236 27.91579
#
# Velocity S-wave (km/s) = 3.35670 3.58401 3.47222
# Velocity P-wave (km/s) = 4.87685 5.29291 5.08914
#
# Compressibility (1/GPa) = 0.04929896
#
# Stress axis : x y z
#
# Youngs Moduli (GPa) = 82.54356 54.16223 45.48180
#
# Poissons Ratio (x) = 0.28097 -0.07702
# Poissons Ratio (y) = 0.42820 -0.08465
# Poissons Ratio (z) = -0.13978 -0.10081
#
# Static dielectric constant tensor:
#      x y z
#    x 1.791450 0.000000 0.000000 
#    y 0.000000 1.931420 0.000000 
#    z 0.000000 0.000000 1.894130 
# 
# From -- ./inp_files/1445.got.cif
#   From: 2010.05.17/outbox.cif.g08.bks.cpg/sg35_1_cif.got.tgz:1445.got - 2010.06.03 17:29:28.
