data_PCOD9350155
_publ_section_title
;
Structure prediction by ZEFSAII (Michael W. Deem and Ramdas Pophale) SiO2 
 PCOD9350155
Probable space group: C M M 2
;
_chemical_formula_sum "Si O2"
_cell_formula_units_Z 32
_cell_length_a 9.000000
_cell_length_b 30.000000
_cell_length_c 12.000000
_cell_angle_alpha 90.000000
_cell_angle_beta 90.000000
_cell_angle_gamma 90.000000
_cell_volume 3240.000000
_symmetry_space_group_name_H-M "C M M 2"
_symmetry_group_IT_number 35
_symmetry_cell_setting 'orthorhombic'
loop_
_space_group_symop_operation_xyz
x,y,z
-x,-y,z
-x,y,z
x,-y,z
1/2+x,1/2+y,z
1/2-x,1/2-y,z
1/2-x,1/2+y,z
1/2+x,1/2-y,z
loop_
_atom_site_type_symbol
_atom_site_label
_atom_site_fract_x
_atom_site_fract_y
_atom_site_fract_z
Si Si1 0.317508 0.050343 0.386070
Si Si2 0.321660 0.794077 0.661698
Si Si3 0.179726 0.613143 0.580727
Si Si4 0.178775 0.705657 0.133689
Si Si5 0.329343 0.686733 0.897147
Si Si6 0.664975 0.414762 0.965976
Si Si7 0.176589 0.608471 0.184718
Si Si8 0.672111 0.047906 0.774299
O O1 0.500000 0.049500 0.388240
O O2 0.264128 0.083207 0.481610
O O3 0.266598 0.073411 0.273266
O O4 0.267433 0.000000 0.399272
O O5 0.500000 0.791937 0.666474
O O6 0.250000 0.750000 0.613822
O O7 0.272182 0.836447 0.590132
O O8 0.257419 0.800159 0.786264
O O9 0.215301 0.587143 0.692896
O O10 0.000000 0.613761 0.572828
O O11 0.250000 0.750000 0.183739
O O12 0.227154 0.659790 0.193611
O O13 0.000000 0.708356 0.131208
O O14 0.242657 0.701504 0.007997
O O15 0.500000 0.703757 0.896646
O O16 0.336656 0.633294 0.905729
O O17 0.500000 0.423871 0.007900
O O18 0.722906 0.450308 0.879362
O O19 0.779320 0.409130 0.064901
O O20 0.000000 0.610233 0.195964
O O21 0.500000 0.054506 0.808353
O O22 0.679565 0.000000 0.715737
#
# Coordination Sequence:
#
# PCOD9350155 Si02
#       8
#     8   8   8   8   8   8   8   8
#     4   9  17  33  59  86 106 130 175 230 277 320
#     4  11  21  33  51  76 109 145 180 218 263 318
#     4   9  18  33  54  80 109 138 173 224 275 316
#     4  10  19  31  48  73 107 144 181 219 262 315
#     4  10  19  32  50  74 105 144 184 220 262 313
#     4  10  20  33  51  76 111 148 178 216 266 325
#     4   9  19  34  54  80 109 139 176 225 273 318
#     4  10  19  32  53  80 108 139 177 219 268 326
#
# _framework density 9.8765429999999999
#
# number of rings (size 3 to 8) (size 9 to 14) (size 15 to 20)
#    0.000    2.250    1.250    2.250    0.000    3.750 
#    0.000    1.875    0.000    2.250    0.000    0.000 
#    0.000    0.000    0.000    0.000    0.000    0.000 
#
# Total GULP energy -178285.978416 kJ/mol
# GULP energy per Si atom -5571.436825 kJ/mol
# Density = 0.985406 g / cm^3
# Si number density = 9.876543 Si / 1000 Ang^3
#
#
#
# Elastic Constant Matrix: (Units=GPa)
#
#
# Indices 1 2 3 4 5 6 
#
# 1 17.5128 28.0982 3.7425 0.0000 0.0000 0.0000
# 2 28.0982 160.7638 65.8576 0.0000 0.0000 0.0000
# 3 3.7425 65.8576 22.7712 0.0000 0.0000 0.0000
# 4 0.0000 0.0000 0.0000 29.7372 0.0000 0.0000
# 5 0.0000 0.0000 0.0000 0.0000 20.7552 0.0000
# 6 0.0000 0.0000 0.0000 0.0000 0.0000 24.4304
#
#
#
# Elastic Compliance Matrix: (Units=1/GPa)
#
#
# Indices 1 2 3 4 5 6 
#
# 1 0.037116 0.021583 -0.068521 0.000000 0.000000 0.000000
# 2 0.021583 -0.021112 0.057513 0.000000 0.000000 0.000000
# 3 -0.068521 0.057513 -0.111159 0.000000 0.000000 0.000000
# 4 0.000000 0.000000 0.000000 0.033628 0.000000 0.000000
# 5 0.000000 0.000000 0.000000 0.000000 0.048181 0.000000
# 6 0.000000 0.000000 0.000000 0.000000 0.000000 0.040933
#
#
# Mechanical properties :
#
#
# Convention : Reuss Voigt Hill
#
# Bulk Modulus (GPa) = -13.51241 44.04939 15.26849
# Shear Modulus (GPa) = -274.24267 21.87451 -126.18408
#
# Velocity S-wave (km/s) = -11.79562 3.33137 -8.00121
# Velocity P-wave (km/s) = 13.86979 6.09473 8.80981
#
# Compressibility (1/GPa) = -0.07400604
#
# Stress axis : x y z
#
# Youngs Moduli (GPa) = 26.94277 -47.36571 -8.99615
#
# Poissons Ratio (x) = 1.02229 -0.61643
# Poissons Ratio (y) = -0.58150 0.51739
# Poissons Ratio (z) = 1.84615 2.72413
#
# Static dielectric constant tensor:
#      x y z
#    x 1.671800 0.000000 0.000000 
#    y 0.000000 1.517320 0.000000 
#    z 0.000000 0.000000 1.712250 
# 
# From -- ./inp_files/11940.got.cif
#   From: 2010.05.17/outbox.ucp.g08.bks.cvg/sg35_6_cif.got.tgz:11940.got - 2010.06.11 10:36:28.
