data_PCOD9350068
_publ_section_title
;
Structure prediction by ZEFSAII (Michael W. Deem and Ramdas Pophale) SiO2 
 PCOD9350068
Probable space group: C M M 2
;
_chemical_formula_sum "Si O2"
_cell_formula_units_Z 32
_cell_length_a 10.681733
_cell_length_b 17.687349
_cell_length_c 7.881888
_cell_angle_alpha 90.000000
_cell_angle_beta 90.000000
_cell_angle_gamma 90.000000
_cell_volume 1489.137234
_symmetry_space_group_name_H-M "C M M 2"
_symmetry_group_IT_number 35
_symmetry_cell_setting 'orthorhombic'
loop_
_space_group_symop_operation_xyz
x,y,z
-x,-y,z
-x,y,z
x,-y,z
1/2+x,1/2+y,z
1/2-x,1/2-y,z
1/2-x,1/2+y,z
1/2+x,1/2-y,z
loop_
_atom_site_type_symbol
_atom_site_label
_atom_site_fract_x
_atom_site_fract_y
_atom_site_fract_z
Si Si1 0.739926 0.839359 0.042420
Si Si2 0.772289 0.590341 0.392290
Si Si3 0.000000 0.090363 0.510102
Si Si4 0.500000 0.409813 0.916925
Si Si5 0.362684 0.809701 0.688918
O O1 0.750000 0.750000 0.079277
O O2 0.689785 0.881796 0.206908
O O3 0.657365 0.846749 0.873168
O O4 0.876110 0.872572 0.994601
O O5 0.777744 0.500000 0.404422
O O6 0.628338 0.617304 0.425401
O O7 0.849613 0.629438 0.540994
O O8 0.000000 0.100815 0.713085
O O9 0.000000 0.000000 0.483926
O O10 0.500000 0.500000 0.951185
O O11 0.500000 0.773651 0.681488
O O12 0.250000 0.750000 0.671482
#
# Coordination Sequence:
#
# PCOD9350068 Si02
#       5
#     8   8   4   4   8
#     4  11  25  41  68 105 145 185 237 293 356 422
#     4  11  23  43  69 102 142 186 235 288 354 425
#     4   9  19  37  69 106 137 181 235 291 347 413
#     4  11  21  43  75 106 142 189 245 295 350 423
#     4  11  27  47  72 101 139 185 235 291 359 426
#
# _framework density 21.488952999999999
#
# number of rings (size 3 to 8) (size 9 to 14) (size 15 to 20)
#    0.000    1.250    2.500    2.250    8.750    3.500 
#    4.500    0.000    0.000    0.000    0.000    0.000 
#    0.000    0.000    0.000    0.000    0.000    0.000 
#
# Total GULP energy -89534.078142 kJ/mol
# GULP energy per Si atom -5595.879884 kJ/mol
# Density = 2.144004 g / cm^3
# Si number density = 21.488953 Si / 1000 Ang^3
#
#
#
# Elastic Constant Matrix: (Units=GPa)
#
#
# Indices 1 2 3 4 5 6 
#
# 1 119.8722 55.9498 33.2701 0.0000 0.0000 0.0000
# 2 55.9498 102.8507 52.0094 0.0000 0.0000 0.0000
# 3 33.2701 52.0094 146.2683 0.0000 0.0000 0.0000
# 4 0.0000 0.0000 0.0000 260.0285 0.0000 0.0000
# 5 0.0000 0.0000 0.0000 0.0000 -36.4169 0.0000
# 6 0.0000 0.0000 0.0000 0.0000 0.0000 29.7085
#
#
#
# Elastic Compliance Matrix: (Units=1/GPa)
#
#
# Indices 1 2 3 4 5 6 
#
# 1 0.011207 -0.005861 -0.000465 0.000000 0.000000 0.000000
# 2 -0.005861 0.014920 -0.003972 0.000000 0.000000 0.000000
# 3 -0.000465 -0.003972 0.008355 0.000000 0.000000 0.000000
# 4 0.000000 0.000000 0.000000 0.003846 0.000000 0.000000
# 5 0.000000 0.000000 0.000000 0.000000 -0.027460 0.000000
# 6 0.000000 0.000000 0.000000 0.000000 0.000000 0.033660
#
#
# Mechanical properties :
#
#
# Convention : Reuss Voigt Hill
#
# Bulk Modulus (GPa) = 72.01921 72.38332 72.20127
# Shear Modulus (GPa) = 71.68141 65.84814 68.76478
#
# Velocity S-wave (km/s) = 5.78185 5.54160 5.66300
# Velocity P-wave (km/s) = 8.84083 8.64308 8.74251
#
# Compressibility (1/GPa) = 0.01388518
#
# Stress axis : x y z
#
# Youngs Moduli (GPa) = 89.22960 67.02468 119.69123
#
# Poissons Ratio (x) = 0.39286 0.05565
# Poissons Ratio (y) = 0.52301 0.47540
# Poissons Ratio (z) = 0.04149 0.26622
#
# Static dielectric constant tensor:
#      x y z
#    x 1.801470 0.000000 0.000000 
#    y 0.000000 1.725230 0.000000 
#    z 0.000000 0.000000 1.767650 
# 
# From -- ./inp_files/5681.got.cif
#   From: 2010.05.17/outbox.cif.g08.bks.cpg/sg35_3_cif.got.tgz:5681.got - 2010.06.03 17:29:28.
