data_PCOD9350632
_publ_section_title
;
Structure prediction by ZEFSAII (Michael W. Deem and Ramdas Pophale) SiO2 
 PCOD9350632
Probable space group: C M C 21
;
_chemical_formula_sum "Si O2"
_cell_formula_units_Z 64
_cell_length_a 8.733777
_cell_length_b 21.421184
_cell_length_c 18.887046
_cell_angle_alpha 90.000000
_cell_angle_beta 90.000000
_cell_angle_gamma 90.000000
_cell_volume 3533.536718
_symmetry_space_group_name_H-M "C M C 21"
_symmetry_group_IT_number 36
_symmetry_cell_setting 'orthorhombic'
loop_
_space_group_symop_operation_xyz
x,y,z
-x,-y,1/2+z
x,-y,1/2+z
-x,y,z
1/2+x,1/2+y,z
1/2-x,1/2-y,1/2+z
1/2+x,1/2-y,1/2+z
1/2-x,1/2+y,z
loop_
_atom_site_type_symbol
_atom_site_label
_atom_site_fract_x
_atom_site_fract_y
_atom_site_fract_z
Si Si1 0.323584 0.244132 0.684960
Si Si2 0.823192 0.756237 0.513315
Si Si3 0.318398 0.113609 0.024132
Si Si4 0.185930 0.119032 0.182281
Si Si5 0.813799 0.001624 0.770358
Si Si6 0.682506 0.615462 0.671170
Si Si7 0.815692 0.618050 0.513414
Si Si8 0.315777 0.500650 0.933017
O O1 0.500000 0.234150 0.706375
O O2 0.322056 0.250519 0.599163
O O3 0.269208 0.312131 0.710138
O O4 0.226107 0.183271 0.701985
O O5 0.727828 0.817672 0.495665
O O6 0.768563 0.687982 0.488645
O O7 0.000000 0.765700 0.491857
O O8 0.500000 0.107057 0.025444
O O9 0.253591 0.109142 0.104120
O O10 0.244803 0.059155 0.977645
O O11 0.232995 0.062895 0.233188
O O12 0.000000 0.119637 0.175946
O O13 0.000000 0.002089 0.770391
O O14 0.764918 0.060207 0.722778
O O15 0.764823 0.005917 0.851474
O O16 0.500000 0.611317 0.661971
O O17 0.759603 0.609376 0.594213
O O18 0.747260 0.563066 0.466673
O O19 0.000000 0.616468 0.512772
O O20 0.500000 0.499911 0.935826
#
# Coordination Sequence:
#
# PCOD9350632 Si02
#       8
#     8   8   8   8   8   8   8   8
#     4   8  15  28  49  77 106 132 160 205 260 306
#     4   8  16  32  53  76 105 137 166 206 260 309
#     4  11  21  33  53  82 109 133 171 217 256 303
#     4   9  17  34  57  77 100 133 172 211 256 307
#     4   9  20  36  53  73  98 134 178 215 248 300
#     4  10  18  31  54  80 104 133 170 210 253 305
#     4  10  20  35  55  81 108 133 169 215 261 308
#     4  11  22  37  54  72 102 143 180 213 256 306
#
# _framework density 18.112164
#
# number of rings (size 3 to 8) (size 9 to 14) (size 15 to 20)
#    0.000    2.500    0.000    4.500    0.000    6.000 
#    0.000    5.625    0.000    3.000    0.000    0.000 
#    0.000    0.000    0.000    0.000    0.000    0.000 
#
# Total GULP energy -178467.637193 kJ/mol
# GULP energy per Si atom -5577.113662 kJ/mol
# Density = 1.807094 g / cm^3
# Si number density = 18.112164 Si / 1000 Ang^3
#
#
#
# Elastic Constant Matrix: (Units=GPa)
#
#
# Indices 1 2 3 4 5 6 
#
# 1 40.9071 11.5608 4.3892 0.0000 0.0000 0.0000
# 2 11.5608 87.4569 12.3868 0.0000 0.0000 0.0000
# 3 4.3892 12.3868 36.4701 0.0000 0.0000 0.0000
# 4 0.0000 0.0000 0.0000 -5.0701 0.0000 0.0000
# 5 0.0000 0.0000 0.0000 0.0000 9.0373 0.0000
# 6 0.0000 0.0000 0.0000 0.0000 0.0000 32.9394
#
#
#
# Elastic Compliance Matrix: (Units=1/GPa)
#
#
# Indices 1 2 3 4 5 6 
#
# 1 0.025536 -0.003089 -0.002024 0.000000 0.000000 0.000000
# 2 -0.003089 0.012386 -0.003835 0.000000 0.000000 0.000000
# 3 -0.002024 -0.003835 0.028966 0.000000 0.000000 0.000000
# 4 0.000000 0.000000 0.000000 -0.197236 0.000000 0.000000
# 5 0.000000 0.000000 0.000000 0.000000 0.110653 0.000000
# 6 0.000000 0.000000 0.000000 0.000000 0.000000 0.030359
#
#
# Mechanical properties :
#
#
# Convention : Reuss Voigt Hill
#
# Bulk Modulus (GPa) = 20.41176 24.61197 22.51186
# Shear Modulus (GPa) = 111.38400 16.48114 63.93257
#
# Velocity S-wave (km/s) = 7.85050 3.01981 5.94767
# Velocity P-wave (km/s) = 9.66788 5.07712 7.72156
#
# Compressibility (1/GPa) = 0.04899137
#
# Stress axis : x y z
#
# Youngs Moduli (GPa) = 39.16081 80.73851 34.52345
#
# Poissons Ratio (x) = 0.24939 0.06988
# Poissons Ratio (y) = 0.12096 0.13240
# Poissons Ratio (z) = 0.07927 0.30963
#
# Static dielectric constant tensor:
#      x y z
#    x 1.612340 0.000000 0.000000 
#    y 0.000000 1.647540 0.000000 
#    z 0.000000 0.000000 1.589340 
# 
# From -- ./inp_files/13761.got.cif
#   From: 2010.05.17/outbox.cif.g08.bks.cpg/sg36_7_cif.got.tgz:13761.got - 2010.06.03 17:41:39.
