data_PCOD9350073
_publ_section_title
;
Structure prediction by ZEFSAII (Michael W. Deem and Ramdas Pophale) SiO2 
 PCOD9350073
Probable space group: C M M 2
;
_chemical_formula_sum "Si O2"
_cell_formula_units_Z 56
_cell_length_a 8.750318
_cell_length_b 19.517359
_cell_length_c 18.280598
_cell_angle_alpha 90.000000
_cell_angle_beta 90.000000
_cell_angle_gamma 90.000000
_cell_volume 3122.017156
_symmetry_space_group_name_H-M "C M M 2"
_symmetry_group_IT_number 35
_symmetry_cell_setting 'orthorhombic'
loop_
_space_group_symop_operation_xyz
x,y,z
-x,-y,z
-x,y,z
x,-y,z
1/2+x,1/2+y,z
1/2-x,1/2-y,z
1/2-x,1/2+y,z
1/2+x,1/2-y,z
loop_
_atom_site_type_symbol
_atom_site_label
_atom_site_fract_x
_atom_site_fract_y
_atom_site_fract_z
Si Si1 0.681484 0.174318 0.396110
Si Si2 0.683494 0.826166 0.816041
Si Si3 0.318307 0.674143 0.241678
Si Si4 0.814023 0.421707 0.949425
Si Si5 0.682203 0.419224 0.520805
Si Si6 0.315754 0.579533 0.689740
Si Si7 0.317693 0.918740 0.115876
O O1 0.500000 0.179025 0.389513
O O2 0.750000 0.250000 0.408189
O O3 0.750773 0.148835 0.319116
O O4 0.729303 0.126018 0.462624
O O5 0.500000 0.822834 0.816654
O O6 0.750000 0.750000 0.815292
O O7 0.735750 0.868457 0.887933
O O8 0.738295 0.869370 0.746117
O O9 0.500000 0.678705 0.247142
O O10 0.250000 0.750000 0.229810
O O11 0.268550 0.625418 0.175793
O O12 0.764002 0.500000 0.933641
O O13 0.000000 0.422837 0.949069
O O14 0.768982 0.403183 0.032299
O O15 0.500000 0.407300 0.512953
O O16 0.709422 0.500000 0.508690
O O17 0.723465 0.404432 0.605285
O O18 0.500000 0.584006 0.696112
O O19 0.273027 0.500000 0.704252
O O20 0.500000 0.905789 0.121739
O O21 0.294164 0.000000 0.126924
#
# Coordination Sequence:
#
# PCOD9350073 Si02
#       7
#     8   8   8   8   8   8   8
#     4  11  22  37  57  80 108 142 181 221 265 318
#     4  11  22  35  53  79 111 144 181 223 266 315
#     4  11  22  37  56  78 108 143 181 222 266 318
#     4   8  16  33  56  79 104 138 178 220 268 319
#     4   9  19  37  59  82 109 140 175 218 268 319
#     4   9  19  37  59  81 107 140 177 219 269 321
#     4   9  18  35  58  82 109 140 176 219 267 319
#
# _framework density 17.937121000000001
#
# number of rings (size 3 to 8) (size 9 to 14) (size 15 to 20)
#    0.000    2.286    0.000    6.000    0.000    3.714 
#    0.000    4.286    0.000    1.714    0.000    0.000 
#    0.000    0.000    0.000    0.000    0.000    0.000 
#
# Total GULP energy -156313.485651 kJ/mol
# GULP energy per Si atom -5582.624488 kJ/mol
# Density = 1.789630 g / cm^3
# Si number density = 17.937121 Si / 1000 Ang^3
#
#
#
# Elastic Constant Matrix: (Units=GPa)
#
#
# Indices 1 2 3 4 5 6 
#
# 1 89.5427 60.8457 75.4189 0.0000 0.0000 0.0000
# 2 60.8457 98.8549 107.4300 0.0000 0.0000 0.0000
# 3 75.4189 107.4300 161.8444 0.0000 0.0000 0.0000
# 4 0.0000 0.0000 0.0000 59.9926 0.0000 0.0000
# 5 0.0000 0.0000 0.0000 0.0000 24.4259 0.0000
# 6 0.0000 0.0000 0.0000 0.0000 0.0000 16.3394
#
#
#
# Elastic Compliance Matrix: (Units=1/GPa)
#
#
# Indices 1 2 3 4 5 6 
#
# 1 0.019930 -0.007803 -0.004108 0.000000 0.000000 0.000000
# 2 -0.007803 0.039360 -0.022490 0.000000 0.000000 0.000000
# 3 -0.004108 -0.022490 0.023022 0.000000 0.000000 0.000000
# 4 0.000000 0.000000 0.000000 0.016669 0.000000 0.000000
# 5 0.000000 0.000000 0.000000 0.000000 0.040940 0.000000
# 6 0.000000 0.000000 0.000000 0.000000 0.000000 0.061202
#
#
# Mechanical properties :
#
#
# Convention : Reuss Voigt Hill
#
# Bulk Modulus (GPa) = 74.02231 93.07013 83.54622
# Shear Modulus (GPa) = 18.21977 27.25476 22.73727
#
# Velocity S-wave (km/s) = 3.19055 3.90226 3.56421
# Velocity P-wave (km/s) = 7.41148 8.50312 7.97600
#
# Compressibility (1/GPa) = 0.01350944
#
# Stress axis : x y z
#
# Youngs Moduli (GPa) = 50.17594 25.40670 43.43693
#
# Poissons Ratio (x) = 0.19824 0.17844
# Poissons Ratio (y) = 0.39150 0.97691
# Poissons Ratio (z) = 0.20612 0.57141
#
# Static dielectric constant tensor:
#      x y z
#    x 1.599970 0.000000 0.000000 
#    y 0.000000 1.586180 0.000000 
#    z 0.000000 0.000000 1.604970 
# 
# From -- ./inp_files/15615.got.cif
#   From: 2010.05.17/outbox.cif.g08.bks.cpg/sg35_8_cif.got.tgz:15615.got - 2010.06.03 17:29:28.
