data_PCOD9350534
_publ_section_title
;
Structure prediction by ZEFSAII (Michael W. Deem and Ramdas Pophale) SiO2 
 PCOD9350534
Probable space group: C M C 21
;
_chemical_formula_sum "Si O2"
_cell_formula_units_Z 56
_cell_length_a 11.615720
_cell_length_b 13.759415
_cell_length_c 14.711282
_cell_angle_alpha 90.000000
_cell_angle_beta 90.000000
_cell_angle_gamma 90.000000
_cell_volume 2351.238178
_symmetry_space_group_name_H-M "C M C 21"
_symmetry_group_IT_number 36
_symmetry_cell_setting 'orthorhombic'
loop_
_space_group_symop_operation_xyz
x,y,z
-x,-y,1/2+z
x,-y,1/2+z
-x,y,z
1/2+x,1/2+y,z
1/2-x,1/2-y,1/2+z
1/2+x,1/2-y,1/2+z
1/2-x,1/2+y,z
loop_
_atom_site_type_symbol
_atom_site_label
_atom_site_fract_x
_atom_site_fract_y
_atom_site_fract_z
Si Si1 0.634062 0.350796 0.746340
Si Si2 0.626017 0.007641 0.950613
Si Si3 0.873162 0.936489 0.186960
Si Si4 0.374852 0.513135 0.979045
Si Si5 0.187606 0.781709 0.556823
Si Si6 0.628644 0.234129 0.918457
Si Si7 0.122676 0.588019 0.635865
O O1 0.500000 0.320549 0.728967
O O2 0.630551 0.466677 0.748280
O O3 0.704521 0.325368 0.656333
O O4 0.676975 0.288414 0.830766
O O5 0.500000 0.964787 0.923316
O O6 0.757751 0.974853 0.931829
O O7 0.624917 0.117510 0.913648
O O8 0.627277 0.999538 0.061813
O O9 0.740759 0.898662 0.192297
O O10 0.000000 0.888289 0.205442
O O11 0.878661 0.969339 0.080999
O O12 0.500000 0.494496 0.936563
O O13 0.362070 0.630113 0.995948
O O14 0.302102 0.745958 0.508932
O O15 0.117852 0.683790 0.572772
O O16 0.500000 0.271180 0.928638
O O17 0.000000 0.580291 0.686778
#
# Coordination Sequence:
#
# PCOD9350534 Si02
#       7
#     8   8   8   8   8   8   8
#     4   9  17  33  56  76  95 131 185 230 261 305
#     4   8  15  27  43  65  95 129 163 199 245 303
#     4   8  15  28  47  69  92 124 169 213 249 294
#     4   8  13  24  43  64  86 118 162 204 238 278
#     4  10  18  29  49  75 103 132 170 215 260 313
#     4   9  18  33  54  76  98 133 182 228 265 307
#     4  10  18  28  46  75 110 141 164 199 263 328
#
# _framework density 23.817239000000001
#
# number of rings (size 3 to 8) (size 9 to 14) (size 15 to 20)
#    0.000    3.143    0.000    3.000    0.000    0.571 
#    0.000    1.429    0.000   12.000    0.000    0.000 
#    0.000    0.000    0.000    0.000    0.000    0.000 
#
# Total GULP energy -155877.391027 kJ/mol
# GULP energy per Si atom -5567.049680 kJ/mol
# Density = 2.376303 g / cm^3
# Si number density = 23.817239 Si / 1000 Ang^3
#
#
#
# Elastic Constant Matrix: (Units=GPa)
#
#
# Indices 1 2 3 4 5 6 
#
# 1 214.8759 5.0582 44.5676 0.0000 0.0000 0.0000
# 2 5.0582 59.0015 2.7202 0.0000 0.0000 0.0000
# 3 44.5676 2.7202 64.1558 0.0000 0.0000 0.0000
# 4 0.0000 0.0000 0.0000 18.8246 0.0000 0.0000
# 5 0.0000 0.0000 0.0000 0.0000 20.9642 0.0000
# 6 0.0000 0.0000 0.0000 0.0000 0.0000 7.4293
#
#
#
# Elastic Compliance Matrix: (Units=1/GPa)
#
#
# Indices 1 2 3 4 5 6 
#
# 1 0.005442 -0.000293 -0.003768 0.000000 0.000000 0.000000
# 2 -0.000293 0.016998 -0.000517 0.000000 0.000000 0.000000
# 3 -0.003768 -0.000517 0.018227 0.000000 0.000000 0.000000
# 4 0.000000 0.000000 0.000000 0.053122 0.000000 0.000000
# 5 0.000000 0.000000 0.000000 0.000000 0.047700 0.000000
# 6 0.000000 0.000000 0.000000 0.000000 0.000000 0.134601
#
#
# Mechanical properties :
#
#
# Convention : Reuss Voigt Hill
#
# Bulk Modulus (GPa) = 31.73594 49.19168 40.46381
# Shear Modulus (GPa) = 16.90615 28.48946 22.69780
#
# Velocity S-wave (km/s) = 2.66715 3.46232 3.09042
# Velocity P-wave (km/s) = 4.77898 6.05658 5.45531
#
# Compressibility (1/GPa) = 0.03151001
#
# Stress axis : x y z
#
# Youngs Moduli (GPa) = 183.74534 58.83153 54.86461
#
# Poissons Ratio (x) = 0.01723 0.20674
# Poissons Ratio (y) = 0.05381 0.02838
# Poissons Ratio (z) = 0.69240 0.03043
#
# Static dielectric constant tensor:
#      x y z
#    x 2.024740 0.000000 0.000000 
#    y 0.000000 1.945090 0.000000 
#    z 0.000000 0.000000 1.889110 
# 
# From -- ./inp_files/11598.got.cif
#   From: 2010.05.17/outbox.cif.g08.bks.cpg/sg36_6_cif.got.tgz:11598.got - 2010.06.03 17:41:39.
