data_PCOD9350714
_publ_section_title
;
Structure prediction by ZEFSAII (Michael W. Deem and Ramdas Pophale) SiO2 
 PCOD9350714
Probable space group: C M C 21
;
_chemical_formula_sum "Si O2"
_cell_formula_units_Z 64
_cell_length_a 7.444930
_cell_length_b 31.447944
_cell_length_c 12.471537
_cell_angle_alpha 90.000000
_cell_angle_beta 90.000000
_cell_angle_gamma 90.000000
_cell_volume 2919.932794
_symmetry_space_group_name_H-M "C M C 21"
_symmetry_group_IT_number 36
_symmetry_cell_setting 'orthorhombic'
loop_
_space_group_symop_operation_xyz
x,y,z
-x,-y,1/2+z
x,-y,1/2+z
-x,y,z
1/2+x,1/2+y,z
1/2-x,1/2-y,1/2+z
1/2+x,1/2-y,1/2+z
1/2-x,1/2+y,z
loop_
_atom_site_type_symbol
_atom_site_label
_atom_site_fract_x
_atom_site_fract_y
_atom_site_fract_z
Si Si1 0.719714 0.945845 0.355680
Si Si2 0.215667 0.293039 0.804474
Si Si3 0.716301 0.698839 0.856020
Si Si4 0.280156 0.874333 0.943554
Si Si5 0.213290 0.375474 0.189090
Si Si6 0.719790 0.957894 0.812278
Si Si7 0.203283 0.573014 0.090440
Si Si8 0.711763 0.666232 0.085740
O O1 0.500000 0.943670 0.352597
O O2 0.783316 0.914908 0.260632
O O3 0.782202 0.929698 0.471934
O O4 0.771585 0.994990 0.347107
O O5 0.282406 0.246841 0.840079
O O6 0.279832 0.333153 0.875225
O O7 0.259641 0.300316 0.680016
O O8 0.000000 0.292755 0.814696
O O9 0.500000 0.700606 0.862340
O O10 0.760376 0.667110 0.758980
O O11 0.780836 0.680367 0.969685
O O12 0.500000 0.873747 0.942611
O O13 0.224445 0.918485 0.886912
O O14 0.219046 0.872532 0.067296
O O15 0.000000 0.382012 0.178873
O O16 0.500000 0.956578 0.810836
O O17 0.785920 0.950696 0.691038
O O18 0.198866 0.622388 0.121109
O O19 0.000000 0.556195 0.080236
O O20 0.500000 0.657893 0.076777
#
# Coordination Sequence:
#
# PCOD9350714 Si02
#       8
#     8   8   8   8   8   8   8   8
#     4   9  18  29  48  83 112 136 179 230 269 315
#     4  10  21  39  58  79 107 143 183 221 273 330
#     4  10  23  39  56  79 111 146 179 220 274 328
#     4   9  18  32  53  79 108 141 174 221 277 322
#     4  10  20  34  55  81 110 141 181 225 266 321
#     4   9  17  29  50  80 111 139 174 226 280 317
#     4  10  18  33  56  79 108 146 184 227 277 327
#     4  11  22  37  58  82 109 142 184 230 272 320
#
# _framework density 21.918313000000001
#
# number of rings (size 3 to 8) (size 9 to 14) (size 15 to 20)
#    0.000    2.250    2.500    0.375    3.500    1.000 
#    0.000    0.625    0.000    1.500    0.000    0.000 
#    0.000    0.000    0.000    0.000    0.000    0.000 
#
# Total GULP energy -178720.504625 kJ/mol
# GULP energy per Si atom -5585.015770 kJ/mol
# Density = 2.186843 g / cm^3
# Si number density = 21.918313 Si / 1000 Ang^3
#
#
#
# Elastic Constant Matrix: (Units=GPa)
#
#
# Indices 1 2 3 4 5 6 
#
# 1 68.9061 -1.8074 1.2415 0.0000 0.0000 0.0000
# 2 -1.8074 130.5101 47.1132 0.0000 0.0000 0.0000
# 3 1.2415 47.1132 141.3502 0.0000 0.0000 0.0000
# 4 0.0000 0.0000 0.0000 35.4065 0.0000 0.0000
# 5 0.0000 0.0000 0.0000 0.0000 -5.7464 0.0000
# 6 0.0000 0.0000 0.0000 0.0000 0.0000 0.2578
#
#
#
# Elastic Compliance Matrix: (Units=1/GPa)
#
#
# Indices 1 2 3 4 5 6 
#
# 1 0.014524 0.000281 -0.000221 0.000000 0.000000 0.000000
# 2 0.000281 0.008716 -0.002907 0.000000 0.000000 0.000000
# 3 -0.000221 -0.002907 0.008046 0.000000 0.000000 0.000000
# 4 0.000000 0.000000 0.000000 0.028243 0.000000 0.000000
# 5 0.000000 0.000000 0.000000 0.000000 -0.174022 0.000000
# 6 0.000000 0.000000 0.000000 0.000000 0.000000 3.879044
#
#
# Mechanical properties :
#
#
# Convention : Reuss Voigt Hill
#
# Bulk Modulus (GPa) = 39.07808 48.20680 43.64244
# Shear Modulus (GPa) = 1.32318 25.59820 13.46069
#
# Velocity S-wave (km/s) = 0.77782 3.42115 2.48085
# Velocity P-wave (km/s) = 4.32138 6.13574 5.30668
#
# Compressibility (1/GPa) = 0.02558979
#
# Stress axis : x y z
#
# Youngs Moduli (GPa) = 68.85225 114.73530 124.29061
#
# Poissons Ratio (x) = -0.03224 0.02750
# Poissons Ratio (y) = -0.01935 0.36137
# Poissons Ratio (z) = 0.01523 0.33359
#
# Static dielectric constant tensor:
#      x y z
#    x 1.865590 0.000000 0.000000 
#    y 0.000000 1.750050 0.000000 
#    z 0.000000 0.000000 1.771790 
# 
# From -- ./inp_files/7084.got.cif
#   From: 2010.05.17/outbox.cif.g08.bks.cpg/sg36_4_cif.got.tgz:7084.got - 2010.06.03 17:41:39.
