data_PCOD9350868
_publ_section_title
;
Structure prediction by ZEFSAII (Michael W. Deem and Ramdas Pophale) SiO2 
 PCOD9350868
Probable space group: C M C 21
;
_chemical_formula_sum "Si O2"
_cell_formula_units_Z 44
_cell_length_a 17.570263
_cell_length_b 19.170908
_cell_length_c 5.430062
_cell_angle_alpha 90.000000
_cell_angle_beta 90.000000
_cell_angle_gamma 90.000000
_cell_volume 1829.050657
_symmetry_space_group_name_H-M "C M C 21"
_symmetry_group_IT_number 36
_symmetry_cell_setting 'orthorhombic'
loop_
_space_group_symop_operation_xyz
x,y,z
-x,-y,1/2+z
x,-y,1/2+z
-x,y,z
1/2+x,1/2+y,z
1/2-x,1/2-y,1/2+z
1/2+x,1/2-y,1/2+z
1/2-x,1/2+y,z
loop_
_atom_site_type_symbol
_atom_site_label
_atom_site_fract_x
_atom_site_fract_y
_atom_site_fract_z
Si Si1 0.586683 0.600433 0.282710
Si Si2 0.337686 0.956284 0.338473
Si Si3 0.671583 0.604176 0.782070
Si Si4 0.500000 0.957475 0.228526
Si Si5 0.820143 0.271841 0.781921
Si Si6 0.142872 0.252031 0.282334
O O1 0.500000 0.575860 0.290718
O O2 0.632634 0.579860 0.528415
O O3 0.587930 0.685845 0.283385
O O4 0.627920 0.580309 0.028318
O O5 0.259435 0.915689 0.296274
O O6 0.419830 0.922036 0.287703
O O7 0.335879 0.984816 0.619684
O O8 0.667415 0.688276 0.780668
O O9 0.500000 0.018383 0.442445
O O10 0.857635 0.295808 0.531225
O O11 0.729323 0.282335 0.781906
O O12 0.858182 0.295194 0.032307
#
# Coordination Sequence:
#
# PCOD9350868 Si02
#       6
#     8   8   8   4   8   8
#     4  10  19  31  48  70  97 131 171 207 235 274
#     4  10  19  33  53  75  98 124 158 198 245 301
#     4  10  19  31  50  72  95 129 165 204 244 285
#     4   8  16  30  50  74  94 116 144 186 240 294
#     4   8  14  25  42  65  87 113 148 188 233 279
#     4   8  14  25  42  63  87 115 150 189 231 274
#
# _framework density 24.056197999999998
#
# number of rings (size 3 to 8) (size 9 to 14) (size 15 to 20)
#    0.000    2.909    0.000    1.636    0.000    0.000 
#    0.000    0.000    2.000   10.909    0.000    0.000 
#    0.000    0.000    0.000    0.000    0.000    0.000 
#
# Total GULP energy -122852.702226 kJ/mol
# GULP energy per Si atom -5584.213738 kJ/mol
# Density = 2.400145 g / cm^3
# Si number density = 24.056198 Si / 1000 Ang^3
#
#
#
# Elastic Constant Matrix: (Units=GPa)
#
#
# Indices 1 2 3 4 5 6 
#
# 1 165.8481 35.7881 56.0054 0.0000 0.0000 0.0000
# 2 35.7881 47.1138 19.0867 0.0000 0.0000 0.0000
# 3 56.0054 19.0867 229.1904 0.0000 0.0000 0.0000
# 4 0.0000 0.0000 0.0000 -6.7717 0.0000 0.0000
# 5 0.0000 0.0000 0.0000 0.0000 31.0999 0.0000
# 6 0.0000 0.0000 0.0000 0.0000 0.0000 29.9251
#
#
#
# Elastic Compliance Matrix: (Units=1/GPa)
#
#
# Indices 1 2 3 4 5 6 
#
# 1 0.007640 -0.005224 -0.001432 0.000000 0.000000 0.000000
# 2 -0.005224 0.025538 -0.000850 0.000000 0.000000 0.000000
# 3 -0.001432 -0.000850 0.004784 0.000000 0.000000 0.000000
# 4 0.000000 0.000000 0.000000 -0.147674 0.000000 0.000000
# 5 0.000000 0.000000 0.000000 0.000000 0.032154 0.000000
# 6 0.000000 0.000000 0.000000 0.000000 0.000000 0.033417
#
#
# Mechanical properties :
#
#
# Convention : Reuss Voigt Hill
#
# Bulk Modulus (GPa) = 43.57280 73.76810 58.67045
# Shear Modulus (GPa) = -232.78814 32.93546 -99.92634
#
# Velocity S-wave (km/s) = -9.84777 3.70416 -6.45205
# Velocity P-wave (km/s) = 10.54289 7.00184 5.57345
#
# Compressibility (1/GPa) = 0.02295010
#
# Stress axis : x y z
#
# Youngs Moduli (GPa) = 130.88359 39.15804 209.03342
#
# Poissons Ratio (x) = 0.20454 0.29934
# Poissons Ratio (y) = 0.68368 0.17774
# Poissons Ratio (z) = 0.18743 0.03330
#
# Static dielectric constant tensor:
#      x y z
#    x 1.854310 0.000000 0.000000 
#    y 0.000000 1.987740 0.000000 
#    z 0.000000 0.000000 2.041870 
# 
# From -- ./inp_files/794.got.cif
#   From: 2010.05.17/outbox.cif.g08.bks.cpg/sg36_1_cif.got.tgz:794.got - 2010.06.03 17:41:39.
