data_PCOD9350835
_publ_section_title
;
Structure prediction by ZEFSAII (Michael W. Deem and Ramdas Pophale) SiO2 
 PCOD9350835
Probable space group: C M C 21
;
_chemical_formula_sum "Si O2"
_cell_formula_units_Z 64
_cell_length_a 9.378768
_cell_length_b 13.914062
_cell_length_c 21.456972
_cell_angle_alpha 90.000000
_cell_angle_beta 90.000000
_cell_angle_gamma 90.000000
_cell_volume 2800.065313
_symmetry_space_group_name_H-M "C M C 21"
_symmetry_group_IT_number 36
_symmetry_cell_setting 'orthorhombic'
loop_
_space_group_symop_operation_xyz
x,y,z
-x,-y,1/2+z
x,-y,1/2+z
-x,y,z
1/2+x,1/2+y,z
1/2-x,1/2-y,1/2+z
1/2+x,1/2-y,1/2+z
1/2-x,1/2+y,z
loop_
_atom_site_type_symbol
_atom_site_label
_atom_site_fract_x
_atom_site_fract_y
_atom_site_fract_z
Si Si1 0.838762 0.926899 0.788350
Si Si2 0.334222 0.007241 0.037646
Si Si3 0.838359 0.298958 0.313584
Si Si4 0.661329 0.458394 0.654132
Si Si5 0.834691 0.535964 0.404215
Si Si6 0.833709 0.233671 0.932888
Si Si7 0.333393 0.221853 0.569106
Si Si8 0.838671 0.817820 0.187805
O O1 0.849837 0.816857 0.808759
O O2 0.748889 0.980592 0.840530
O O3 0.000000 0.967338 0.783900
O O4 0.772119 0.925533 0.719547
O O5 0.500000 0.036763 0.038210
O O6 0.245530 0.058992 0.091046
O O7 0.330923 0.893224 0.054686
O O8 0.275556 0.011826 0.967314
O O9 0.762593 0.315313 0.380054
O O10 0.744034 0.324151 0.253274
O O11 0.000000 0.336973 0.309276
O O12 0.500000 0.420788 0.650816
O O13 0.651999 0.573284 0.662917
O O14 0.833273 0.651523 0.416891
O O15 0.000000 0.509565 0.398469
O O16 0.000000 0.202844 0.929561
O O17 0.781618 0.229379 0.004606
O O18 0.500000 0.245079 0.576793
O O19 0.247902 0.236652 0.633236
O O20 0.000000 0.780698 0.196134
#
# Coordination Sequence:
#
# PCOD9350835 Si02
#       8
#     8   8   8   8   8   8   8   8
#     4   9  18  31  46  66  91 118 149 183 219 261
#     4   8  14  25  42  65  90 114 143 180 221 263
#     4  10  19  30  46  67  92 120 149 184 222 263
#     4   9  18  31  46  66  91 118 149 183 219 261
#     4   8  14  25  42  65  90 114 143 180 221 263
#     4   8  14  26  44  65  89 115 144 181 223 265
#     4   8  14  26  44  65  89 115 144 181 223 265
#     4  10  19  30  46  67  92 120 149 184 222 263
#
# _framework density 22.85661
#
# number of rings (size 3 to 8) (size 9 to 14) (size 15 to 20)
#    0.000    3.250    0.000    2.250    0.000    2.500 
#    0.000    5.000    0.000    1.500    0.000    3.500 
#    0.000    0.000    0.000    0.000    0.000    0.000 
#
# Total GULP energy -178721.880878 kJ/mol
# GULP energy per Si atom -5585.058777 kJ/mol
# Density = 2.280459 g / cm^3
# Si number density = 22.856610 Si / 1000 Ang^3
#
#
#
# Elastic Constant Matrix: (Units=GPa)
#
#
# Indices 1 2 3 4 5 6 
#
# 1 100.6963 -4.2119 108.8317 0.0000 0.0000 0.0000
# 2 -4.2119 53.9088 26.9549 0.0000 0.0000 0.0000
# 3 108.8317 26.9549 256.2384 0.0000 0.0000 0.0000
# 4 0.0000 0.0000 0.0000 44.7608 0.0000 0.0000
# 5 0.0000 0.0000 0.0000 0.0000 42.6969 0.0000
# 6 0.0000 0.0000 0.0000 0.0000 0.0000 0.6032
#
#
#
# Elastic Compliance Matrix: (Units=1/GPa)
#
#
# Indices 1 2 3 4 5 6 
#
# 1 0.020133 0.006173 -0.009200 0.000000 0.000000 0.000000
# 2 0.006173 0.021473 -0.004881 0.000000 0.000000 0.000000
# 3 -0.009200 -0.004881 0.008324 0.000000 0.000000 0.000000
# 4 0.000000 0.000000 0.000000 0.022341 0.000000 0.000000
# 5 0.000000 0.000000 0.000000 0.000000 0.023421 0.000000
# 6 0.000000 0.000000 0.000000 0.000000 0.000000 1.657908
#
#
# Mechanical properties :
#
#
# Convention : Reuss Voigt Hill
#
# Bulk Modulus (GPa) = 29.31411 74.88807 52.10109
# Shear Modulus (GPa) = 2.80775 36.23008 19.51892
#
# Velocity S-wave (km/s) = 1.10954 3.98565 2.92545
# Velocity P-wave (km/s) = 3.80717 7.34956 5.85280
#
# Compressibility (1/GPa) = 0.03411327
#
# Stress axis : x y z
#
# Youngs Moduli (GPa) = 49.67052 46.57102 120.13938
#
# Poissons Ratio (x) = -0.28749 1.10532
# Poissons Ratio (y) = -0.30663 0.58637
# Poissons Ratio (z) = 0.45698 0.22730
#
# Static dielectric constant tensor:
#      x y z
#    x 1.808020 0.000000 0.000000 
#    y 0.000000 1.949860 0.000000 
#    z 0.000000 0.000000 1.844740 
# 
# From -- ./inp_files/14083.got.cif
#   From: 2010.05.17/outbox.cif.g08.bks.cpg/sg36_8_cif.got.tgz:14083.got - 2010.06.03 17:41:39.
