data_PCOD9350586
_publ_section_title
;
Structure prediction by ZEFSAII (Michael W. Deem and Ramdas Pophale) SiO2 
 PCOD9350586
Probable space group: C M C 21
;
_chemical_formula_sum "Si O2"
_cell_formula_units_Z 56
_cell_length_a 18.875568
_cell_length_b 19.025203
_cell_length_c 9.059786
_cell_angle_alpha 90.000000
_cell_angle_beta 90.000000
_cell_angle_gamma 90.000000
_cell_volume 3253.473457
_symmetry_space_group_name_H-M "C M C 21"
_symmetry_group_IT_number 36
_symmetry_cell_setting 'orthorhombic'
loop_
_space_group_symop_operation_xyz
x,y,z
-x,-y,1/2+z
x,-y,1/2+z
-x,y,z
1/2+x,1/2+y,z
1/2-x,1/2-y,1/2+z
1/2+x,1/2-y,1/2+z
1/2-x,1/2+y,z
loop_
_atom_site_type_symbol
_atom_site_label
_atom_site_fract_x
_atom_site_fract_y
_atom_site_fract_z
Si Si1 0.918691 0.329695 0.763010
Si Si2 0.916627 0.250256 0.330530
Si Si3 0.581334 0.709459 0.995318
Si Si4 0.312532 0.739784 0.567336
Si Si5 0.417248 0.978313 0.648818
Si Si6 0.357245 0.909586 0.351963
Si Si7 0.781831 0.835850 0.363761
O O1 0.912204 0.285201 0.912800
O O2 0.859521 0.297653 0.655281
O O3 0.909755 0.413209 0.764270
O O4 0.000000 0.317758 0.708110
O O5 0.868907 0.209730 0.450196
O O6 0.890511 0.331512 0.334896
O O7 0.000000 0.247585 0.363119
O O8 0.904713 0.220310 0.167515
O O9 0.500000 0.686722 0.974886
O O10 0.637943 0.658225 0.919338
O O11 0.251500 0.775552 0.470151
O O12 0.283239 0.689627 0.694218
O O13 0.500000 0.997019 0.639647
O O14 0.391933 0.947505 0.492895
O O15 0.374435 0.044105 0.709520
O O16 0.273514 0.898936 0.376386
#
# Coordination Sequence:
#
# PCOD9350586 Si02
#       7
#     8   8   8   8   8   8   8
#     4   9  17  31  50  73 101 138 175 210 252 303
#     4  10  18  32  50  75 106 136 169 209 259 316
#     4   9  19  32  53  79 102 130 166 214 271 325
#     4  10  18  30  50  70  99 137 170 210 262 311
#     4  11  21  35  50  72 103 144 186 214 243 295
#     4  11  23  34  49  71 105 147 182 214 252 295
#     4  10  19  34  49  72 102 134 174 217 266 315
#
# _framework density 17.212374000000001
#
# number of rings (size 3 to 8) (size 9 to 14) (size 15 to 20)
#    0.000    2.000    2.857    3.429    2.000    0.571 
#    0.000    0.000    0.000    0.000    0.000    1.000 
#    0.000    0.000    0.000    0.000    0.000    0.000 
#
# Total GULP energy -156095.879577 kJ/mol
# GULP energy per Si atom -5574.852842 kJ/mol
# Density = 1.717320 g / cm^3
# Si number density = 17.212374 Si / 1000 Ang^3
#
#
#
# Elastic Constant Matrix: (Units=GPa)
#
#
# Indices 1 2 3 4 5 6 
#
# 1 98.0543 18.6494 39.5783 0.0000 0.0000 0.0000
# 2 18.6494 22.4628 6.4310 0.0000 0.0000 0.0000
# 3 39.5783 6.4310 81.0669 0.0000 0.0000 0.0000
# 4 0.0000 0.0000 0.0000 18.7881 0.0000 0.0000
# 5 0.0000 0.0000 0.0000 0.0000 35.0195 0.0000
# 6 0.0000 0.0000 0.0000 0.0000 0.0000 22.5243
#
#
#
# Elastic Compliance Matrix: (Units=1/GPa)
#
#
# Indices 1 2 3 4 5 6 
#
# 1 0.014755 -0.010424 -0.006377 0.000000 0.000000 0.000000
# 2 -0.010424 0.052918 0.000892 0.000000 0.000000 0.000000
# 3 -0.006377 0.000892 0.015378 0.000000 0.000000 0.000000
# 4 0.000000 0.000000 0.000000 0.053225 0.000000 0.000000
# 5 0.000000 0.000000 0.000000 0.000000 0.028556 0.000000
# 6 0.000000 0.000000 0.000000 0.000000 0.000000 0.044397
#
#
# Mechanical properties :
#
#
# Convention : Reuss Voigt Hill
#
# Bulk Modulus (GPa) = 19.51936 36.76684 28.14310
# Shear Modulus (GPa) = 19.37053 24.39474 21.88263
#
# Velocity S-wave (km/s) = 3.35831 3.76876 3.56944
# Velocity P-wave (km/s) = 5.13835 6.35178 5.77701
#
# Compressibility (1/GPa) = 0.05123118
#
# Stress axis : x y z
#
# Youngs Moduli (GPa) = 67.77377 18.89733 65.02807
#
# Poissons Ratio (x) = 0.19700 0.41466
# Poissons Ratio (y) = 0.70651 -0.05797
# Poissons Ratio (z) = 0.43217 -0.01685
#
# Static dielectric constant tensor:
#      x y z
#    x 1.618510 0.000000 0.000000 
#    y 0.000000 1.557730 0.000000 
#    z 0.000000 0.000000 1.622010 
# 
# From -- ./inp_files/4879.got.cif
#   From: 2010.05.17/outbox.cif.g08.bks.cpg/sg36_3_cif.got.tgz:4879.got - 2010.06.03 17:41:39.
