data_PCOD9350254
_publ_section_title
;
Structure prediction by ZEFSAII (Michael W. Deem and Ramdas Pophale) SiO2 
 PCOD9350254
Probable space group: C M M 2
;
_chemical_formula_sum "Si O2"
_cell_formula_units_Z 48
_cell_length_a 32.452564
_cell_length_b 8.578364
_cell_length_c 9.696659
_cell_angle_alpha 90.000000
_cell_angle_beta 90.000000
_cell_angle_gamma 90.000000
_cell_volume 2699.451995
_symmetry_space_group_name_H-M "C M M 2"
_symmetry_group_IT_number 35
_symmetry_cell_setting 'orthorhombic'
loop_
_space_group_symop_operation_xyz
x,y,z
-x,-y,z
-x,y,z
x,-y,z
1/2+x,1/2+y,z
1/2-x,1/2-y,z
1/2-x,1/2+y,z
1/2+x,1/2-y,z
loop_
_atom_site_type_symbol
_atom_site_label
_atom_site_fract_x
_atom_site_fract_y
_atom_site_fract_z
Si Si1 0.621486 0.812341 0.577980
Si Si2 0.954118 0.689555 0.766449
Si Si3 0.452859 0.811913 0.087427
Si Si4 0.121478 0.814851 0.266905
Si Si5 0.292583 0.186014 0.261496
Si Si6 0.207601 0.185846 0.576345
O O1 0.582747 0.758668 0.668608
O O2 0.616863 0.753749 0.421158
O O3 0.664691 0.747609 0.636419
O O4 0.623303 0.000000 0.576647
O O5 0.954392 0.500000 0.761904
O O6 0.000000 0.742120 0.724005
O O7 0.947735 0.731379 0.926445
O O8 0.500000 0.772241 0.127623
O O9 0.418131 0.733016 0.179009
O O10 0.448886 0.000000 0.098045
O O11 0.163853 0.745200 0.203473
O O12 0.125792 0.000000 0.276212
O O13 0.250000 0.250000 0.197859
O O14 0.292965 0.250320 0.418840
O O15 0.291591 0.000000 0.264352
O O16 0.250000 0.250000 0.640058
O O17 0.208356 0.000000 0.573558
#
# Coordination Sequence:
#
# PCOD9350254 Si02
#       6
#     8   8   8   8   8   8
#     4  10  18  30  50  76 102 129 163 203 247 290
#     4   8  16  32  54  76  96 123 163 206 246 293
#     4   9  18  35  56  74  94 126 167 207 249 298
#     4  11  21  32  47  73 106 135 165 202 244 289
#     4  10  17  28  46  69  97 129 164 201 244 290
#     4  10  17  27  43  66  97 130 163 199 241 288
#
# _framework density 17.781388
#
# number of rings (size 3 to 8) (size 9 to 14) (size 15 to 20)
#    0.000    2.333    0.000    9.000    0.000    1.000 
#    0.000    3.333    0.000    4.500    0.000    4.667 
#    0.000    0.000    0.000    0.000    0.000    0.000 
#
# Total GULP energy -133796.995097 kJ/mol
# GULP energy per Si atom -5574.874796 kJ/mol
# Density = 1.774092 g / cm^3
# Si number density = 17.781388 Si / 1000 Ang^3
#
#
#
# Elastic Constant Matrix: (Units=GPa)
#
#
# Indices 1 2 3 4 5 6 
#
# 1 207.3405 64.9369 65.1706 0.0000 0.0000 0.0000
# 2 64.9369 118.2977 21.4928 0.0000 0.0000 0.0000
# 3 65.1706 21.4928 34.3496 0.0000 0.0000 0.0000
# 4 0.0000 0.0000 0.0000 -2.9230 0.0000 0.0000
# 5 0.0000 0.0000 0.0000 0.0000 -13.7952 0.0000
# 6 0.0000 0.0000 0.0000 0.0000 0.0000 31.4971
#
#
#
# Elastic Compliance Matrix: (Units=1/GPa)
#
#
# Indices 1 2 3 4 5 6 
#
# 1 0.012800 -0.002949 -0.022439 0.000000 0.000000 0.000000
# 2 -0.002949 0.010217 -0.000797 0.000000 0.000000 0.000000
# 3 -0.022439 -0.000797 0.072185 0.000000 0.000000 0.000000
# 4 0.000000 0.000000 0.000000 -0.342118 0.000000 0.000000
# 5 0.000000 0.000000 0.000000 0.000000 -0.072489 0.000000
# 6 0.000000 0.000000 0.000000 0.000000 0.000000 0.031749
#
#
# Mechanical properties :
#
#
# Convention : Reuss Voigt Hill
#
# Bulk Modulus (GPa) = 23.34820 73.68758 48.51789
# Shear Modulus (GPa) = -22.62351 16.84829 -2.88761
#
# Velocity S-wave (km/s) = -3.57082 3.08153 -1.27573
# Velocity P-wave (km/s) = 1.96005 7.36151 5.01747
#
# Compressibility (1/GPa) = 0.04282985
#
# Stress axis : x y z
#
# Youngs Moduli (GPa) = 78.12712 97.87568 13.85339
#
# Poissons Ratio (x) = 0.28866 0.31086
# Poissons Ratio (y) = 0.23042 0.01105
# Poissons Ratio (z) = 1.75310 0.07804
#
# Static dielectric constant tensor:
#      x y z
#    x 1.663980 0.000000 0.000000 
#    y 0.000000 1.600640 0.000000 
#    z 0.000000 0.000000 1.584780 
# 
# From -- ./inp_files/11467.got.cif
#   From: 2010.05.17/outbox.cif.g08.bks.cpg/sg35_6_cif.got.tgz:11467.got - 2010.06.03 17:29:28.
