data_PCOD9350989
_publ_section_title
;
Structure prediction by ZEFSAII (Michael W. Deem and Ramdas Pophale) SiO2 
 PCOD9350989
Probable space group: C M C 21
;
_chemical_formula_sum "Si O2"
_cell_formula_units_Z 64
_cell_length_a 7.993046
_cell_length_b 30.272487
_cell_length_c 12.319148
_cell_angle_alpha 90.000000
_cell_angle_beta 90.000000
_cell_angle_gamma 90.000000
_cell_volume 2980.856618
_symmetry_space_group_name_H-M "C M C 21"
_symmetry_group_IT_number 36
_symmetry_cell_setting 'orthorhombic'
loop_
_space_group_symop_operation_xyz
x,y,z
-x,-y,1/2+z
x,-y,1/2+z
-x,y,z
1/2+x,1/2+y,z
1/2-x,1/2-y,1/2+z
1/2+x,1/2-y,1/2+z
1/2-x,1/2+y,z
loop_
_atom_site_type_symbol
_atom_site_label
_atom_site_fract_x
_atom_site_fract_y
_atom_site_fract_z
Si Si1 0.308894 0.571488 0.929740
Si Si2 0.298290 0.721824 0.224665
Si Si3 0.309794 0.182474 0.680595
Si Si4 0.297758 0.019680 0.506693
Si Si5 0.198523 0.633505 0.111390
Si Si6 0.194798 0.584846 0.696555
Si Si7 0.702467 0.088656 0.334271
Si Si8 0.695435 0.324258 0.949787
O O1 0.500000 0.570723 0.895430
O O2 0.270751 0.529585 0.005773
O O3 0.203988 0.567878 0.819363
O O4 0.273633 0.615065 0.000432
O O5 0.500000 0.723443 0.211653
O O6 0.230749 0.771544 0.218109
O O7 0.235290 0.684442 0.141204
O O8 0.260692 0.703386 0.343627
O O9 0.500000 0.180875 0.725071
O O10 0.229207 0.134373 0.699382
O O11 0.308233 0.187098 0.551080
O O12 0.500000 0.016984 0.513017
O O13 0.238556 0.050517 0.606823
O O14 0.252705 0.042623 0.391253
O O15 0.259155 0.603455 0.214172
O O16 0.000000 0.627811 0.103797
O O17 0.000000 0.591196 0.664859
O O18 0.500000 0.091467 0.334241
O O19 0.773271 0.125439 0.415468
O O20 0.500000 0.317414 0.976156
#
# Coordination Sequence:
#
# PCOD9350989 Si02
#       8
#     8   8   8   8   8   8   8   8
#     4  12  27  42  59  89 130 166 202 251 313 367
#     4   9  20  37  58  87 123 161 201 252 311 361
#     4  10  20  38  62  87 119 160 204 251 303 361
#     4  10  21  40  65  90 116 154 207 253 300 366
#     4  10  21  39  63  89 120 160 208 251 297 362
#     4  10  22  42  66  90 120 161 208 252 299 366
#     4   9  18  36  62  87 110 147 199 250 298 356
#     4  10  19  32  53  85 120 153 195 248 305 359
#
# _framework density 21.470337000000001
#
# number of rings (size 3 to 8) (size 9 to 14) (size 15 to 20)
#    0.000    2.000    1.250    1.875    1.750    4.000 
#    0.000    1.250    0.000    0.000    0.000    0.000 
#    0.000    0.000    0.000    0.000    0.000    0.000 
#
# Total GULP energy -178563.301291 kJ/mol
# GULP energy per Si atom -5580.103165 kJ/mol
# Density = 2.142147 g / cm^3
# Si number density = 21.470337 Si / 1000 Ang^3
#
#
#
# Elastic Constant Matrix: (Units=GPa)
#
#
# Indices 1 2 3 4 5 6 
#
# 1 16.1872 2.2355 -5.0136 0.0000 0.0000 0.0000
# 2 2.2355 117.5797 23.3540 0.0000 0.0000 0.0000
# 3 -5.0136 23.3540 49.0160 0.0000 0.0000 0.0000
# 4 0.0000 0.0000 0.0000 20.7047 0.0000 0.0000
# 5 0.0000 0.0000 0.0000 0.0000 14.2377 0.0000
# 6 0.0000 0.0000 0.0000 0.0000 0.0000 16.2501
#
#
#
# Elastic Compliance Matrix: (Units=1/GPa)
#
#
# Indices 1 2 3 4 5 6 
#
# 1 0.064627 -0.002807 0.007948 0.000000 0.000000 0.000000
# 2 -0.002807 0.009516 -0.004821 0.000000 0.000000 0.000000
# 3 0.007948 -0.004821 0.023511 0.000000 0.000000 0.000000
# 4 0.000000 0.000000 0.000000 0.048298 0.000000 0.000000
# 5 0.000000 0.000000 0.000000 0.000000 0.070236 0.000000
# 6 0.000000 0.000000 0.000000 0.000000 0.000000 0.061538
#
#
# Mechanical properties :
#
#
# Convention : Reuss Voigt Hill
#
# Bulk Modulus (GPa) = 10.17364 24.88160 17.52762
# Shear Modulus (GPa) = 16.13677 21.05231 18.59454
#
# Velocity S-wave (km/s) = 2.74448 3.13474 2.94608
# Velocity P-wave (km/s) = 3.84599 4.97153 4.44453
#
# Compressibility (1/GPa) = 0.09829324
#
# Stress axis : x y z
#
# Youngs Moduli (GPa) = 15.47346 105.08828 42.53240
#
# Poissons Ratio (x) = 0.29502 -0.33805
# Poissons Ratio (y) = 0.04344 0.20505
# Poissons Ratio (z) = -0.12298 0.50663
#
# Static dielectric constant tensor:
#      x y z
#    x 1.785320 0.000000 0.000000 
#    y 0.000000 1.809040 0.000000 
#    z 0.000000 0.000000 1.770840 
# 
# From -- ./inp_files/7134.got.cif
#   From: 2010.05.17/outbox.cif.g08.bks.cpg/sg36_4_cif.got.tgz:7134.got - 2010.06.03 17:41:39.
