data_PCOD9350476
_publ_section_title
;
Structure prediction by ZEFSAII (Michael W. Deem and Ramdas Pophale) SiO2 
 PCOD9350476
Probable space group: C M C 21
;
_chemical_formula_sum "Si O2"
_cell_formula_units_Z 56
_cell_length_a 22.902333
_cell_length_b 13.750518
_cell_length_c 8.477025
_cell_angle_alpha 90.000000
_cell_angle_beta 90.000000
_cell_angle_gamma 90.000000
_cell_volume 2669.575746
_symmetry_space_group_name_H-M "C M C 21"
_symmetry_group_IT_number 36
_symmetry_cell_setting 'orthorhombic'
loop_
_space_group_symop_operation_xyz
x,y,z
-x,-y,1/2+z
x,-y,1/2+z
-x,y,z
1/2+x,1/2+y,z
1/2-x,1/2-y,1/2+z
1/2+x,1/2-y,1/2+z
1/2-x,1/2+y,z
loop_
_atom_site_type_symbol
_atom_site_label
_atom_site_fract_x
_atom_site_fract_y
_atom_site_fract_z
Si Si1 0.436801 0.801451 0.375000
Si Si2 0.065670 0.015303 0.875363
Si Si3 0.189223 0.245115 0.274361
Si Si4 0.707309 0.652373 0.620242
Si Si5 0.150268 0.939937 0.647142
Si Si6 0.914040 0.210074 0.713485
Si Si7 0.000000 0.352446 0.858930
Si Si8 0.000000 0.463555 0.529405
O O1 0.500000 0.775362 0.299615
O O2 0.377170 0.784647 0.284103
O O3 0.432415 0.741397 0.538400
O O4 0.445822 0.912035 0.438466
O O5 0.064598 0.101193 0.746340
O O6 0.000000 0.981417 0.903798
O O7 0.113090 0.939935 0.810158
O O8 0.098286 0.063629 0.021584
O O9 0.233129 0.326353 0.211205
O O10 0.207021 0.199241 0.444783
O O11 0.189624 0.154838 0.152375
O O12 0.687337 0.538867 0.624393
O O13 0.655529 0.707247 0.714850
O O14 0.944549 0.282605 0.835441
O O15 0.000000 0.425013 0.707355
O O16 0.000000 0.421947 0.008452
#
# Coordination Sequence:
#
# PCOD9350476 Si02
#       8
#     8   8   8   8   8   8   4   4
#     4   8  17  38  62  92 123 167 211 263 323 381
#     4  11  21  38  62  99 131 168 206 262 325 387
#     4  11  23  43  68  88 125 173 211 268 323 384
#     4  10  24  42  64  91 124 172 216 262 319 384
#     4  11  24  42  62  95 136 162 219 272 314 390
#     4   9  18  36  63  87 128 172 209 252 324 387
#     4  10  16  38  60  85 121 166 206 263 317 365
#     4   8  18  34  60  85 125 156 210 269 309 375
#
# _framework density 20.977115000000001
#
# number of rings (size 3 to 8) (size 9 to 14) (size 15 to 20)
#    0.429    1.714    2.857    0.429    4.000    1.143 
#    5.143    0.000    0.000    0.000    0.000    0.000 
#    0.000    0.000    0.000    0.000    0.000    0.000 
#
# Total GULP energy -156166.624504 kJ/mol
# GULP energy per Si atom -5577.379447 kJ/mol
# Density = 2.092937 g / cm^3
# Si number density = 20.977115 Si / 1000 Ang^3
#
#
#
# Elastic Constant Matrix: (Units=GPa)
#
#
# Indices 1 2 3 4 5 6 
#
# 1 141.7660 33.9226 26.0791 0.0000 0.0000 0.0000
# 2 33.9226 79.7732 6.4790 0.0000 0.0000 0.0000
# 3 26.0791 6.4790 31.4159 0.0000 0.0000 0.0000
# 4 0.0000 0.0000 0.0000 31.7808 0.0000 0.0000
# 5 0.0000 0.0000 0.0000 0.0000 27.5232 0.0000
# 6 0.0000 0.0000 0.0000 0.0000 0.0000 25.4868
#
#
#
# Elastic Compliance Matrix: (Units=1/GPa)
#
#
# Indices 1 2 3 4 5 6 
#
# 1 0.009113 -0.003316 -0.006881 0.000000 0.000000 0.000000
# 2 -0.003316 0.013956 -0.000125 0.000000 0.000000 0.000000
# 3 -0.006881 -0.000125 0.037569 0.000000 0.000000 0.000000
# 4 0.000000 0.000000 0.000000 0.031466 0.000000 0.000000
# 5 0.000000 0.000000 0.000000 0.000000 0.036333 0.000000
# 6 0.000000 0.000000 0.000000 0.000000 0.000000 0.039236
#
#
# Mechanical properties :
#
#
# Convention : Reuss Voigt Hill
#
# Bulk Modulus (GPa) = 25.00452 42.87961 33.94206
# Shear Modulus (GPa) = 24.79552 29.38979 27.09266
#
# Velocity S-wave (km/s) = 3.44179 3.74711 3.59769
# Velocity P-wave (km/s) = 5.26691 6.26152 5.78563
#
# Compressibility (1/GPa) = 0.03999277
#
# Stress axis : x y z
#
# Youngs Moduli (GPa) = 109.72954 71.65389 26.61768
#
# Poissons Ratio (x) = 0.23764 0.18316
# Poissons Ratio (y) = 0.36391 0.00333
# Poissons Ratio (z) = 0.75507 0.00896
#
# Static dielectric constant tensor:
#      x y z
#    x 1.749100 0.000000 0.000000 
#    y 0.000000 1.765340 0.000000 
#    z 0.000000 0.000000 1.861990 
# 
# From -- ./inp_files/5242.got.cif
#   From: 2010.05.17/outbox.cif.g08.bks.cpg/sg36_3_cif.got.tgz:5242.got - 2010.06.03 17:41:39.
