data_PCOD9350151
_publ_section_title
;
Structure prediction by ZEFSAII (Michael W. Deem and Ramdas Pophale) SiO2 
 PCOD9350151
Probable space group: C M M 2
;
_chemical_formula_sum "Si O2"
_cell_formula_units_Z 32
_cell_length_a 9.000000
_cell_length_b 30.000000
_cell_length_c 12.000000
_cell_angle_alpha 90.000000
_cell_angle_beta 90.000000
_cell_angle_gamma 90.000000
_cell_volume 3240.000000
_symmetry_space_group_name_H-M "C M M 2"
_symmetry_group_IT_number 35
_symmetry_cell_setting 'orthorhombic'
loop_
_space_group_symop_operation_xyz
x,y,z
-x,-y,z
-x,y,z
x,-y,z
1/2+x,1/2+y,z
1/2-x,1/2-y,z
1/2-x,1/2+y,z
1/2+x,1/2-y,z
loop_
_atom_site_type_symbol
_atom_site_label
_atom_site_fract_x
_atom_site_fract_y
_atom_site_fract_z
Si Si1 0.180898 0.548109 0.303570
Si Si2 0.175660 0.125600 0.918694
Si Si3 0.821901 0.793624 0.768344
Si Si4 0.167129 0.289320 0.303822
Si Si5 0.329347 0.948120 0.788140
Si Si6 0.822775 0.178581 0.524645
Si Si7 0.830242 0.625485 0.148096
Si Si8 0.179113 0.582081 0.542438
O O1 0.227967 0.500000 0.263907
O O2 0.236308 0.585868 0.221685
O O3 0.222040 0.555075 0.432120
O O4 0.000000 0.550516 0.301764
O O5 0.230253 0.162552 0.831624
O O6 0.229982 0.078734 0.872816
O O7 0.000000 0.127280 0.920490
O O8 0.239067 0.134968 0.039088
O O9 0.750000 0.750000 0.819058
O O10 0.778733 0.798008 0.639477
O O11 0.000000 0.790968 0.774012
O O12 0.250000 0.250000 0.240927
O O13 0.254178 0.299150 0.416618
O O14 0.164848 0.332842 0.229643
O O15 0.000000 0.276244 0.331524
O O16 0.500000 0.932369 0.798300
O O17 0.283100 0.940000 0.660033
O O18 0.325460 0.000000 0.811458
O O19 0.758075 0.129158 0.532789
O O20 0.000000 0.177575 0.517521
O O21 0.000000 0.614159 0.115520
O O22 0.000000 0.587781 0.539198
#
# Coordination Sequence:
#
# PCOD9350151 Si02
#       8
#     8   8   8   8   8   8   8   8
#     4   9  17  33  59  88 117 148 185 234 289 342
#     4  11  24  42  60  83 117 156 199 247 299 348
#     4  10  23  40  59  85 116 151 191 238 292 350
#     4  11  23  40  61  89 121 154 195 240 293 350
#     4  10  21  37  61  92 121 154 198 242 289 352
#     4  11  21  36  59  88 122 156 191 235 292 355
#     4  10  22  40  60  85 115 152 199 246 290 342
#     4  10  18  33  59  90 120 152 190 237 293 349
#
# _framework density 9.8765429999999999
#
# number of rings (size 3 to 8) (size 9 to 14) (size 15 to 20)
#    0.000    1.750    2.500    1.875    0.000    6.750 
#    0.000    3.750    0.000    1.875    0.000    0.000 
#    0.000    0.000    0.000    0.000    0.000    0.000 
#
# Total GULP energy -178512.980580 kJ/mol
# GULP energy per Si atom -5578.530643 kJ/mol
# Density = 0.985406 g / cm^3
# Si number density = 9.876543 Si / 1000 Ang^3
#
#
#
# Elastic Constant Matrix: (Units=GPa)
#
#
# Indices 1 2 3 4 5 6 
#
# 1 -23.1320 23.1972 8.5324 0.0000 0.0000 0.0000
# 2 23.1972 82.5002 17.3429 0.0000 0.0000 0.0000
# 3 8.5324 17.3429 62.3855 0.0000 0.0000 0.0000
# 4 0.0000 0.0000 0.0000 -819.5076 0.0000 0.0000
# 5 0.0000 0.0000 0.0000 0.0000 32.4214 0.0000
# 6 0.0000 0.0000 0.0000 0.0000 0.0000 -8.7755
#
#
#
# Elastic Compliance Matrix: (Units=1/GPa)
#
#
# Indices 1 2 3 4 5 6 
#
# 1 -0.033465 0.008972 0.002083 0.000000 0.000000 0.000000
# 2 0.008972 0.010468 -0.004137 0.000000 0.000000 0.000000
# 3 0.002083 -0.004137 0.016895 0.000000 0.000000 0.000000
# 4 0.000000 0.000000 0.000000 -0.001220 0.000000 0.000000
# 5 0.000000 0.000000 0.000000 0.000000 0.030844 0.000000
# 6 0.000000 0.000000 0.000000 0.000000 0.000000 -0.113954
#
#
# Mechanical properties :
#
#
# Convention : Reuss Voigt Hill
#
# Bulk Modulus (GPa) = 129.31870 24.43319 76.87595
# Shear Modulus (GPa) = -49.16932 -154.32693 -101.74812
#
# Velocity S-wave (km/s) = -4.99460 -8.84859 -7.18483
# Velocity P-wave (km/s) = 5.68756 9.59170 5.46133
#
# Compressibility (1/GPa) = 0.00773283
#
# Stress axis : x y z
#
# Youngs Moduli (GPa) = -29.88211 95.52704 59.19044
#
# Poissons Ratio (x) = -0.85704 -0.12329
# Poissons Ratio (y) = 0.26809 0.24488
# Poissons Ratio (z) = 0.06224 0.39521
#
# Static dielectric constant tensor:
#      x y z
#    x 1.686720 0.000000 0.000000 
#    y 0.000000 1.722010 0.000000 
#    z 0.000000 0.000000 1.673790 
# 
# From -- ./inp_files/11890.got.cif
#   From: 2010.05.17/outbox.ucp.g08.bks.cvg/sg35_6_cif.got.tgz:11890.got - 2010.06.11 10:36:28.
