data_PCOD9350418
_publ_section_title
;
Structure prediction by ZEFSAII (Michael W. Deem and Ramdas Pophale) SiO2 
 PCOD9350418
Probable space group: C M M 2
;
_chemical_formula_sum "Si O2"
_cell_formula_units_Z 52
_cell_length_a 13.728044
_cell_length_b 21.684982
_cell_length_c 10.665241
_cell_angle_alpha 90.000000
_cell_angle_beta 90.000000
_cell_angle_gamma 90.000000
_cell_volume 3174.961052
_symmetry_space_group_name_H-M "C M M 2"
_symmetry_group_IT_number 35
_symmetry_cell_setting 'orthorhombic'
loop_
_space_group_symop_operation_xyz
x,y,z
-x,-y,z
-x,y,z
x,-y,z
1/2+x,1/2+y,z
1/2-x,1/2-y,z
1/2-x,1/2+y,z
1/2+x,1/2-y,z
loop_
_atom_site_type_symbol
_atom_site_label
_atom_site_fract_x
_atom_site_fract_y
_atom_site_fract_z
Si Si1 0.691151 0.926374 0.106710
Si Si2 0.613122 0.355479 0.497520
Si Si3 0.887833 0.574979 0.838983
Si Si4 0.750000 0.750000 0.418212
Si Si5 0.108880 0.928108 0.236462
Si Si6 0.288100 0.073614 0.579901
Si Si7 0.613826 0.143318 0.344168
O O1 0.804115 0.915507 0.141142
O O2 0.629870 0.894143 0.216215
O O3 0.673839 0.000000 0.113416
O O4 0.663233 0.905062 0.967747
O O5 0.500000 0.348570 0.532060
O O6 0.675431 0.292607 0.496581
O O7 0.616601 0.383752 0.356334
O O8 0.676603 0.403733 0.576710
O O9 0.886135 0.500000 0.838772
O O10 0.836683 0.593993 0.710175
O O11 0.000000 0.594593 0.839737
O O12 0.680674 0.795738 0.340612
O O13 0.000000 0.921728 0.183397
O O14 0.119642 0.000000 0.278265
O O15 0.343789 0.104010 0.461532
O O16 0.294015 0.000000 0.568352
O O17 0.500000 0.156787 0.363071
#
# Coordination Sequence:
#
# PCOD9350418 Si02
#       7
#     8   8   8   4   8   8   8
#     4  10  18  31  50  77 106 132 166 203 248 304
#     4  10  19  32  51  74 101 133 167 210 256 297
#     4   9  18  31  47  70 106 143 164 194 252 309
#     4  10  20  34  48  72 102 130 166 218 260 300
#     4   9  16  28  48  73 100 130 163 202 252 300
#     4  10  19  32  50  77 106 132 165 204 250 307
#     4  11  21  32  51  75  98 128 170 216 252 294
#
# _framework density 16.378153000000001
#
# number of rings (size 3 to 8) (size 9 to 14) (size 15 to 20)
#    0.000    2.154    3.077    2.308    0.000    3.385 
#    0.000    0.769    0.000    6.462    0.000    4.308 
#    0.000    0.000    0.000    0.000    0.000    0.000 
#
# Total GULP energy -144877.162007 kJ/mol
# GULP energy per Si atom -5572.198539 kJ/mol
# Density = 1.634088 g / cm^3
# Si number density = 16.378153 Si / 1000 Ang^3
#
#
#
# Elastic Constant Matrix: (Units=GPa)
#
#
# Indices 1 2 3 4 5 6 
#
# 1 149.0010 37.5439 49.3684 0.0000 0.0000 0.0000
# 2 37.5439 53.8888 27.0172 0.0000 0.0000 0.0000
# 3 49.3684 27.0172 103.5831 0.0000 0.0000 0.0000
# 4 0.0000 0.0000 0.0000 -0.6526 0.0000 0.0000
# 5 0.0000 0.0000 0.0000 0.0000 23.4719 0.0000
# 6 0.0000 0.0000 0.0000 0.0000 0.0000 23.5400
#
#
#
# Elastic Compliance Matrix: (Units=1/GPa)
#
#
# Indices 1 2 3 4 5 6 
#
# 1 0.008890 -0.004682 -0.003016 0.000000 0.000000 0.000000
# 2 -0.004682 0.023814 -0.003980 0.000000 0.000000 0.000000
# 3 -0.003016 -0.003980 0.012130 0.000000 0.000000 0.000000
# 4 0.000000 0.000000 0.000000 -1.532435 0.000000 0.000000
# 5 0.000000 0.000000 0.000000 0.000000 0.042604 0.000000
# 6 0.000000 0.000000 0.000000 0.000000 0.000000 0.042481
#
#
# Mechanical properties :
#
#
# Convention : Reuss Voigt Hill
#
# Bulk Modulus (GPa) = 46.55858 59.37023 52.96440
# Shear Modulus (GPa) = -3.64431 22.10809 9.23189
#
# Velocity S-wave (km/s) = -1.49330 3.67802 2.37675
# Velocity P-wave (km/s) = 5.05131 7.37329 6.31986
#
# Compressibility (1/GPa) = 0.02147832
#
# Stress axis : x y z
#
# Youngs Moduli (GPa) = 112.48162 41.99248 82.44271
#
# Poissons Ratio (x) = 0.19660 0.24865
# Poissons Ratio (y) = 0.52661 0.32812
# Poissons Ratio (z) = 0.33925 0.16713
#
# Static dielectric constant tensor:
#      x y z
#    x 1.573840 0.000000 0.000000 
#    y 0.000000 1.563510 0.000000 
#    z 0.000000 0.000000 1.525310 
# 
# From -- ./inp_files/7526.got.cif
#   From: 2010.05.17/outbox.cif.g08.bks.cpg/sg35_4_cif.got.tgz:7526.got - 2010.06.03 17:29:28.
