data_PCOD9350930
_publ_section_title
;
Structure prediction by ZEFSAII (Michael W. Deem and Ramdas Pophale) SiO2 
 PCOD9350930
Probable space group: C M C 21
;
_chemical_formula_sum "Si O2"
_cell_formula_units_Z 56
_cell_length_a 13.917723
_cell_length_b 24.231313
_cell_length_c 9.005377
_cell_angle_alpha 90.000000
_cell_angle_beta 90.000000
_cell_angle_gamma 90.000000
_cell_volume 3037.015685
_symmetry_space_group_name_H-M "C M C 21"
_symmetry_group_IT_number 36
_symmetry_cell_setting 'orthorhombic'
loop_
_space_group_symop_operation_xyz
x,y,z
-x,-y,1/2+z
x,-y,1/2+z
-x,y,z
1/2+x,1/2+y,z
1/2-x,1/2-y,1/2+z
1/2+x,1/2-y,1/2+z
1/2-x,1/2+y,z
loop_
_atom_site_type_symbol
_atom_site_label
_atom_site_fract_x
_atom_site_fract_y
_atom_site_fract_z
Si Si1 0.500000 0.059950 0.818010
Si Si2 0.213485 0.560568 0.173135
Si Si3 0.000000 0.439550 0.673864
Si Si4 0.783519 0.836751 0.821417
Si Si5 0.783462 0.837031 0.170192
Si Si6 0.286532 0.060188 0.818172
Si Si7 0.890325 0.728019 0.172480
Si Si8 0.390319 0.772257 0.319671
O O1 0.394778 0.082435 0.777772
O O2 0.500000 0.999635 0.746636
O O3 0.500000 0.056445 0.995960
O O4 0.286655 0.606045 0.233462
O O5 0.224756 0.500243 0.245984
O O6 0.105313 0.582993 0.213312
O O7 0.218891 0.555580 0.995693
O O8 0.688777 0.804247 0.765950
O O9 0.869027 0.792875 0.797853
O O10 0.776215 0.848380 0.995733
O O11 0.786599 0.894386 0.257439
O O12 0.868984 0.793166 0.193883
O O13 0.688752 0.804638 0.226371
O O14 0.000000 0.714206 0.209563
O O15 0.875713 0.716046 0.996139
O O16 0.500000 0.786140 0.282741
#
# Coordination Sequence:
#
# PCOD9350930 Si02
#       8
#     4   8   4   8   8   8   8   8
#     4   8  16  28  42  62  90 126 162 192 229 282
#     4  10  19  32  49  71 101 136 169 204 248 299
#     4   8  16  28  42  62  90 126 162 192 229 282
#     4  10  20  33  51  78 104 130 168 210 252 299
#     4  10  20  33  51  78 104 130 168 210 252 299
#     4  10  19  32  49  71 101 136 169 204 248 299
#     4   9  19  36  55  73  99 135 171 208 251 298
#     4   9  19  36  55  73  99 135 171 208 251 298
#
# _framework density 18.439153999999998
#
# number of rings (size 3 to 8) (size 9 to 14) (size 15 to 20)
#    0.000    2.571    0.000    1.714    2.000    2.857 
#    0.000    0.000    0.000    0.857    0.000    0.000 
#    0.000    0.000    0.000    0.000    0.000    0.000 
#
# Total GULP energy -156063.960698 kJ/mol
# GULP energy per Si atom -5573.712882 kJ/mol
# Density = 1.839719 g / cm^3
# Si number density = 18.439154 Si / 1000 Ang^3
#
#
#
# Elastic Constant Matrix: (Units=GPa)
#
#
# Indices 1 2 3 4 5 6 
#
# 1 24.6360 -6.1536 3.8711 0.0000 0.0000 0.0000
# 2 -6.1536 77.7984 32.9876 0.0000 0.0000 0.0000
# 3 3.8711 32.9876 40.0245 0.0000 0.0000 0.0000
# 4 0.0000 0.0000 0.0000 34.3246 0.0000 0.0000
# 5 0.0000 0.0000 0.0000 0.0000 15.8941 0.0000
# 6 0.0000 0.0000 0.0000 0.0000 0.0000 22.8906
#
#
#
# Elastic Compliance Matrix: (Units=1/GPa)
#
#
# Indices 1 2 3 4 5 6 
#
# 1 0.044373 0.008192 -0.011044 0.000000 0.000000 0.000000
# 2 0.008192 0.021271 -0.018324 0.000000 0.000000 0.000000
# 3 -0.011044 -0.018324 0.041155 0.000000 0.000000 0.000000
# 4 0.000000 0.000000 0.000000 0.029134 0.000000 0.000000
# 5 0.000000 0.000000 0.000000 0.000000 0.062916 0.000000
# 6 0.000000 0.000000 0.000000 0.000000 0.000000 0.043686
#
#
# Mechanical properties :
#
#
# Convention : Reuss Voigt Hill
#
# Bulk Modulus (GPa) = 15.51622 22.65213 19.08417
# Shear Modulus (GPa) = 16.32024 22.07214 19.19619
#
# Velocity S-wave (km/s) = 2.97827 3.46356 3.23004
# Velocity P-wave (km/s) = 4.50110 5.32038 4.92779
#
# Compressibility (1/GPa) = 0.06444868
#
# Stress axis : x y z
#
# Youngs Moduli (GPa) = 22.53645 47.01167 24.29837
#
# Poissons Ratio (x) = -0.38514 0.26834
# Poissons Ratio (y) = -0.18463 0.44524
# Poissons Ratio (z) = 0.24889 0.86143
#
# Static dielectric constant tensor:
#      x y z
#    x 1.644610 0.000000 0.000000 
#    y 0.000000 1.659660 0.000000 
#    z 0.000000 0.000000 1.644210 
# 
# From -- ./inp_files/4230.got.cif
#   From: 2010.05.17/outbox.cif.g08.bks.cpg/sg36_3_cif.got.tgz:4230.got - 2010.06.03 17:41:39.
