data_PCOD9350041
_publ_section_title
;
Structure prediction by ZEFSAII (Michael W. Deem and Ramdas Pophale) SiO2 
 PCOD9350041
Probable space group: C M M 2
;
_chemical_formula_sum "Si O2"
_cell_formula_units_Z 56
_cell_length_a 8.347433
_cell_length_b 22.579271
_cell_length_c 14.663751
_cell_angle_alpha 90.000000
_cell_angle_beta 90.000000
_cell_angle_gamma 90.000000
_cell_volume 2763.808419
_symmetry_space_group_name_H-M "C M M 2"
_symmetry_group_IT_number 35
_symmetry_cell_setting 'orthorhombic'
loop_
_space_group_symop_operation_xyz
x,y,z
-x,-y,z
-x,y,z
x,-y,z
1/2+x,1/2+y,z
1/2-x,1/2-y,z
1/2-x,1/2+y,z
1/2+x,1/2-y,z
loop_
_atom_site_type_symbol
_atom_site_label
_atom_site_fract_x
_atom_site_fract_y
_atom_site_fract_z
Si Si1 0.805362 0.000000 0.065100
Si Si2 0.804885 0.566898 0.571382
Si Si3 0.807279 0.566953 0.784470
Si Si4 0.811018 0.128274 0.301039
Si Si5 0.190714 0.119265 0.961991
Si Si6 0.304384 0.500000 0.275832
Si Si7 0.687920 0.184921 0.126172
Si Si8 0.188010 0.685484 0.471557
O O1 0.752168 0.000000 0.170006
O O2 0.754045 0.941574 0.011305
O O3 0.000000 0.000000 0.066021
O O4 0.749419 0.500000 0.544584
O O5 0.766098 0.575559 0.678501
O O6 0.744770 0.625300 0.518573
O O7 0.000000 0.565710 0.563833
O O8 0.753346 0.500000 0.808951
O O9 0.735982 0.612573 0.856602
O O10 0.000000 0.568688 0.791183
O O11 0.779424 0.141178 0.194997
O O12 0.723167 0.174991 0.364817
O O13 0.000000 0.132074 0.318605
O O14 0.752137 0.061421 0.320502
O O15 0.000000 0.124622 0.971237
O O16 0.272218 0.169849 0.021723
O O17 0.500000 0.500000 0.275808
O O18 0.500000 0.179828 0.142746
O O19 0.750000 0.250000 0.147716
O O20 0.250000 0.750000 0.500377
O O21 0.000000 0.685670 0.488250
#
# Coordination Sequence:
#
# PCOD9350041 Si02
#       8
#     4   8   8   8   8   4   8   8
#     4   9  16  30  52  79 112 149 181 218 274 326
#     4   8  17  36  61  87 117 152 193 247 305 354
#     4   9  17  32  56  86 116 149 191 238 290 348
#     4  11  22  39  61  86 118 154 191 236 291 351
#     4  11  20  34  56  84 118 155 189 231 282 338
#     4   9  18  34  56  83 116 153 185 228 288 342
#     4  12  25  41  58  80 110 152 200 245 287 341
#     4  11  23  40  62  87 116 154 199 247 298 358
#
# _framework density 20.261897000000001
#
# number of rings (size 3 to 8) (size 9 to 14) (size 15 to 20)
#    0.000    1.857    2.143    3.857    1.000    0.000 
#    0.000    3.929    0.000    3.429    0.000    0.000 
#    0.000    0.000    0.000    0.000    0.000    0.000 
#
# Total GULP energy -156303.809018 kJ/mol
# GULP energy per Si atom -5582.278894 kJ/mol
# Density = 2.021578 g / cm^3
# Si number density = 20.261897 Si / 1000 Ang^3
#
#
#
# Elastic Constant Matrix: (Units=GPa)
#
#
# Indices 1 2 3 4 5 6 
#
# 1 28.4308 16.3371 -1.6504 0.0000 0.0000 0.0000
# 2 16.3371 123.1871 33.4159 0.0000 0.0000 0.0000
# 3 -1.6504 33.4159 64.9949 0.0000 0.0000 0.0000
# 4 0.0000 0.0000 0.0000 30.3803 0.0000 0.0000
# 5 0.0000 0.0000 0.0000 0.0000 16.8459 0.0000
# 6 0.0000 0.0000 0.0000 0.0000 0.0000 20.2476
#
#
#
# Elastic Compliance Matrix: (Units=1/GPa)
#
#
# Indices 1 2 3 4 5 6 
#
# 1 0.039058 -0.006332 0.004247 0.000000 0.000000 0.000000
# 2 -0.006332 0.010460 -0.005539 0.000000 0.000000 0.000000
# 3 0.004247 -0.005539 0.018341 0.000000 0.000000 0.000000
# 4 0.000000 0.000000 0.000000 0.032916 0.000000 0.000000
# 5 0.000000 0.000000 0.000000 0.000000 0.059362 0.000000
# 6 0.000000 0.000000 0.000000 0.000000 0.000000 0.049389
#
#
# Mechanical properties :
#
#
# Convention : Reuss Voigt Hill
#
# Bulk Modulus (GPa) = 19.00680 34.75756 26.88218
# Shear Modulus (GPa) = 20.63475 24.72878 22.68177
#
# Velocity S-wave (km/s) = 3.19470 3.49729 3.34942
# Velocity P-wave (km/s) = 4.79678 5.78787 5.31548
#
# Compressibility (1/GPa) = 0.05261276
#
# Stress axis : x y z
#
# Youngs Moduli (GPa) = 25.60277 95.60338 54.52207
#
# Poissons Ratio (x) = 0.60536 -0.23157
# Poissons Ratio (y) = 0.16212 0.30197
# Poissons Ratio (z) = -0.10874 0.52950
#
# Static dielectric constant tensor:
#      x y z
#    x 1.693900 0.000000 0.000000 
#    y 0.000000 1.696890 0.000000 
#    z 0.000000 0.000000 1.708090 
# 
# From -- ./inp_files/15797.got.cif
#   From: 2010.05.17/outbox.cif.g08.bks.cpg/sg35_8_cif.got.tgz:15797.got - 2010.06.03 17:29:28.
