data_PCOD9350542
_publ_section_title
;
Structure prediction by ZEFSAII (Michael W. Deem and Ramdas Pophale) SiO2 
 PCOD9350542
Probable space group: C M C 21
;
_chemical_formula_sum "Si O2"
_cell_formula_units_Z 48
_cell_length_a 18.513653
_cell_length_b 10.886581
_cell_length_c 8.871904
_cell_angle_alpha 90.000000
_cell_angle_beta 90.000000
_cell_angle_gamma 90.000000
_cell_volume 1788.135649
_symmetry_space_group_name_H-M "C M C 21"
_symmetry_group_IT_number 36
_symmetry_cell_setting 'orthorhombic'
loop_
_space_group_symop_operation_xyz
x,y,z
-x,-y,1/2+z
x,-y,1/2+z
-x,y,z
1/2+x,1/2+y,z
1/2-x,1/2-y,1/2+z
1/2+x,1/2-y,1/2+z
1/2-x,1/2+y,z
loop_
_atom_site_type_symbol
_atom_site_label
_atom_site_fract_x
_atom_site_fract_y
_atom_site_fract_z
Si Si1 0.888163 0.016220 0.893360
Si Si2 0.767037 0.427693 0.801103
Si Si3 0.423570 0.083814 0.296894
Si Si4 0.234580 0.257663 0.079847
Si Si5 0.079078 0.749251 0.595455
Si Si6 0.895496 0.173255 0.617757
O O1 0.803102 0.996910 0.859301
O O2 0.904994 0.118445 0.018851
O O3 0.920236 0.077423 0.744644
O O4 0.914641 0.885419 0.956950
O O5 0.846996 0.484148 0.801837
O O6 0.753055 0.380538 0.631359
O O7 0.775131 0.305412 0.908761
O O8 0.500000 0.016521 0.274870
O O9 0.427081 0.153670 0.456641
O O10 0.418807 0.191077 0.168957
O O11 0.308204 0.325649 0.123697
O O12 0.158061 0.279376 0.163727
O O13 0.000000 0.752882 0.669359
#
# Coordination Sequence:
#
# PCOD9350542 Si02
#       6
#     8   8   8   8   8   8
#     4  10  18  29  45  71  98 122 158 202 249 291
#     4   9  17  29  48  70  94 127 166 206 241 290
#     4   8  15  29  47  67  93 127 164 198 239 293
#     4   9  17  31  48  68  93 128 168 197 237 298
#     4   9  17  29  46  68  95 125 157 199 249 298
#     4   9  18  29  46  70  95 125 161 202 241 288
#
# _framework density 26.843599000000001
#
# number of rings (size 3 to 8) (size 9 to 14) (size 15 to 20)
#    0.000    3.000    0.000    2.000    0.000    0.667 
#    0.000    4.167    0.000    5.000    0.000   16.333 
#    0.000    0.000    0.000    0.000    0.000    0.000 
#
# Total GULP energy -133820.224767 kJ/mol
# GULP energy per Si atom -5575.842699 kJ/mol
# Density = 2.678250 g / cm^3
# Si number density = 26.843599 Si / 1000 Ang^3
#
#
#
# Elastic Constant Matrix: (Units=GPa)
#
#
# Indices 1 2 3 4 5 6 
#
# 1 273.6007 16.1278 9.2875 0.0000 0.0000 0.0000
# 2 16.1278 50.1938 21.2351 0.0000 0.0000 0.0000
# 3 9.2875 21.2351 39.7638 0.0000 0.0000 0.0000
# 4 0.0000 0.0000 0.0000 28.4702 0.0000 0.0000
# 5 0.0000 0.0000 0.0000 0.0000 4.6949 0.0000
# 6 0.0000 0.0000 0.0000 0.0000 0.0000 -18.1844
#
#
#
# Elastic Compliance Matrix: (Units=1/GPa)
#
#
# Indices 1 2 3 4 5 6 
#
# 1 0.003728 -0.001072 -0.000299 0.000000 0.000000 0.000000
# 2 -0.001072 0.026046 -0.013659 0.000000 0.000000 0.000000
# 3 -0.000299 -0.013659 0.032512 0.000000 0.000000 0.000000
# 4 0.000000 0.000000 0.000000 0.035124 0.000000 0.000000
# 5 0.000000 0.000000 0.000000 0.000000 0.212997 0.000000
# 6 0.000000 0.000000 0.000000 0.000000 0.000000 -0.054992
#
#
# Mechanical properties :
#
#
# Convention : Reuss Voigt Hill
#
# Bulk Modulus (GPa) = 31.02859 50.76213 40.89536
# Shear Modulus (GPa) = 16.87955 24.12334 20.50145
#
# Velocity S-wave (km/s) = 2.51033 3.00102 2.76658
# Velocity P-wave (km/s) = 4.47062 5.56413 5.04708
#
# Compressibility (1/GPa) = 0.03222835
#
# Stress axis : x y z
#
# Youngs Moduli (GPa) = 268.22134 38.39418 30.75745
#
# Poissons Ratio (x) = 0.04114 0.00918
# Poissons Ratio (y) = 0.28744 0.42011
# Poissons Ratio (z) = 0.08007 0.52442
#
# Static dielectric constant tensor:
#      x y z
#    x 2.131890 0.000000 0.000000 
#    y 0.000000 2.105130 0.000000 
#    z 0.000000 0.000000 2.073450 
# 
# From -- ./inp_files/8922.got.cif
#   From: 2010.05.17/outbox.cif.g08.bks.cpg/sg36_5_cif.got.tgz:8922.got - 2010.06.03 17:41:39.
