data_PCOD9350709
_publ_section_title
;
Structure prediction by ZEFSAII (Michael W. Deem and Ramdas Pophale) SiO2 
 PCOD9350709
Probable space group: C M C 21
;
_chemical_formula_sum "Si O2"
_cell_formula_units_Z 36
_cell_length_a 8.321360
_cell_length_b 14.937264
_cell_length_c 12.332497
_cell_angle_alpha 90.000000
_cell_angle_beta 90.000000
_cell_angle_gamma 90.000000
_cell_volume 1532.909043
_symmetry_space_group_name_H-M "C M C 21"
_symmetry_group_IT_number 36
_symmetry_cell_setting 'orthorhombic'
loop_
_space_group_symop_operation_xyz
x,y,z
-x,-y,1/2+z
x,-y,1/2+z
-x,y,z
1/2+x,1/2+y,z
1/2-x,1/2-y,1/2+z
1/2+x,1/2-y,1/2+z
1/2-x,1/2+y,z
loop_
_atom_site_type_symbol
_atom_site_label
_atom_site_fract_x
_atom_site_fract_y
_atom_site_fract_z
Si Si1 0.000000 0.926701 0.010590
Si Si2 0.824450 0.467505 0.739629
Si Si3 0.678565 0.886397 0.062378
Si Si4 0.500000 0.639681 0.976991
Si Si5 0.000000 0.933774 0.269306
Si Si6 0.179268 0.792593 0.669428
O O1 0.171493 0.884084 0.981084
O O2 0.000000 0.915152 0.141867
O O3 0.000000 0.032673 0.993117
O O4 0.825909 0.517703 0.622173
O O5 0.663485 0.509765 0.790699
O O6 0.798998 0.362041 0.722115
O O7 0.000000 0.486742 0.789627
O O8 0.500000 0.868568 0.017483
O O9 0.706329 0.812495 0.157400
O O10 0.500000 0.650660 0.849089
O O11 0.349004 0.678100 0.043100
O O12 0.000000 0.807382 0.717668
#
# Coordination Sequence:
#
# PCOD9350709 Si02
#       6
#     4   8   8   4   4   8
#     4  10  18  36  54  79  98 149 179 210 280 311
#     4  10  18  33  55  80 104 142 180 216 270 319
#     4   9  17  29  54  75 104 135 173 221 257 318
#     4  10  18  34  62  73 107 149 176 224 278 307
#     4  10  18  36  58  74 111 140 185 222 264 326
#     4   9  16  32  53  81 100 139 179 212 271 311
#
# _framework density 23.484760000000001
#
# number of rings (size 3 to 8) (size 9 to 14) (size 15 to 20)
#    0.667    1.778    5.556    0.000    1.556    0.000 
#    0.000    2.222    9.778    0.000    0.000    0.000 
#    0.000    0.000    0.000    0.000    0.000    0.000 
#
# Total GULP energy -100211.158445 kJ/mol
# GULP energy per Si atom -5567.286580 kJ/mol
# Density = 2.343131 g / cm^3
# Si number density = 23.484760 Si / 1000 Ang^3
#
#
#
# Elastic Constant Matrix: (Units=GPa)
#
#
# Indices 1 2 3 4 5 6 
#
# 1 190.0231 33.1626 -6.9430 0.0000 0.0000 0.0000
# 2 33.1626 76.7139 -13.9667 0.0000 0.0000 0.0000
# 3 -6.9430 -13.9667 60.6779 0.0000 0.0000 0.0000
# 4 0.0000 0.0000 0.0000 18.4862 0.0000 0.0000
# 5 0.0000 0.0000 0.0000 0.0000 -0.9663 0.0000
# 6 0.0000 0.0000 0.0000 0.0000 0.0000 32.1150
#
#
#
# Elastic Compliance Matrix: (Units=1/GPa)
#
#
# Indices 1 2 3 4 5 6 
#
# 1 0.005692 -0.002445 0.000089 0.000000 0.000000 0.000000
# 2 -0.002445 0.014655 0.003094 0.000000 0.000000 0.000000
# 3 0.000089 0.003094 0.017203 0.000000 0.000000 0.000000
# 4 0.000000 0.000000 0.000000 0.054094 0.000000 0.000000
# 5 0.000000 0.000000 0.000000 0.000000 -1.034842 0.000000
# 6 0.000000 0.000000 0.000000 0.000000 0.000000 0.031138
#
#
# Mechanical properties :
#
#
# Convention : Reuss Voigt Hill
#
# Bulk Modulus (GPa) = 25.62402 39.10230 32.36316
# Shear Modulus (GPa) = -5.55231 30.93778 12.69274
#
# Velocity S-wave (km/s) = -1.53927 3.63348 2.32732
# Velocity P-wave (km/s) = 2.78845 5.85569 4.58610
#
# Compressibility (1/GPa) = 0.03902588
#
# Stress axis : x y z
#
# Youngs Moduli (GPa) = 175.67321 68.23395 58.13042
#
# Poissons Ratio (x) = 0.16681 -0.00515
# Poissons Ratio (y) = 0.42945 -0.17983
# Poissons Ratio (z) = -0.01557 -0.21109
#
# Static dielectric constant tensor:
#      x y z
#    x 1.993100 0.000000 0.000000 
#    y 0.000000 1.872750 0.000000 
#    z 0.000000 0.000000 1.925260 
# 
# From -- ./inp_files/10075.got.cif
#   From: 2010.05.17/outbox.cif.g08.bks.cpg/sg36_6_cif.got.tgz:10075.got - 2010.06.03 17:41:39.
