data_PCOD9350544
_publ_section_title
;
Structure prediction by ZEFSAII (Michael W. Deem and Ramdas Pophale) SiO2 
 PCOD9350544
Probable space group: C M C 21
;
_chemical_formula_sum "Si O2"
_cell_formula_units_Z 64
_cell_length_a 22.679283
_cell_length_b 18.050027
_cell_length_c 8.389267
_cell_angle_alpha 90.000000
_cell_angle_beta 90.000000
_cell_angle_gamma 90.000000
_cell_volume 3434.244353
_symmetry_space_group_name_H-M "C M C 21"
_symmetry_group_IT_number 36
_symmetry_cell_setting 'orthorhombic'
loop_
_space_group_symop_operation_xyz
x,y,z
-x,-y,1/2+z
x,-y,1/2+z
-x,y,z
1/2+x,1/2+y,z
1/2-x,1/2-y,1/2+z
1/2+x,1/2-y,1/2+z
1/2-x,1/2+y,z
loop_
_atom_site_type_symbol
_atom_site_label
_atom_site_fract_x
_atom_site_fract_y
_atom_site_fract_z
Si Si1 0.868308 0.580864 0.054350
Si Si2 0.784096 0.828571 0.392731
Si Si3 0.066829 0.530155 0.753079
Si Si4 0.181542 0.752591 0.728128
Si Si5 0.738786 0.472683 0.547695
Si Si6 0.265837 0.613550 0.375676
Si Si7 0.431730 0.180571 0.573996
Si Si8 0.352759 0.799285 0.782670
O O1 0.890684 0.536460 0.208703
O O2 0.860412 0.664799 0.110327
O O3 0.915069 0.568310 0.917053
O O4 0.807005 0.543880 0.005825
O O5 0.788043 0.786210 0.566004
O O6 0.722430 0.811550 0.303631
O O7 0.794780 0.913821 0.434667
O O8 0.832008 0.785293 0.287886
O O9 0.072445 0.594039 0.620169
O O10 0.000000 0.503634 0.759729
O O11 0.186972 0.821493 0.849526
O O12 0.117099 0.723949 0.680103
O O13 0.730749 0.442568 0.725827
O O14 0.727134 0.559064 0.523944
O O15 0.202050 0.653936 0.361619
O O16 0.500000 0.202633 0.597540
O O17 0.409357 0.191615 0.394144
#
# Coordination Sequence:
#
# PCOD9350544 Si02
#       8
#     8   8   8   8   8   8   8   8
#     4  11  20  32  48  67  95 130 164 200 240 283
#     4   9  18  31  48  70  97 121 152 197 244 291
#     4  11  22  32  44  65  94 129 168 204 232 270
#     4   9  18  32  48  70  96 124 157 196 242 289
#     4  10  18  29  46  69  93 119 150 189 241 292
#     4   9  18  30  46  70  96 119 150 195 242 288
#     4  10  20  33  49  69  95 130 169 203 239 289
#     4   9  19  33  48  68  95 126 162 200 242 288
#
# _framework density 18.635831
#
# number of rings (size 3 to 8) (size 9 to 14) (size 15 to 20)
#    0.000    2.250    0.000    4.875    0.000    5.000 
#    0.000    0.000    0.000    0.000    0.000    7.875 
#    0.000    0.000    0.000    0.000    0.000    0.000 
#
# Total GULP energy -178594.066842 kJ/mol
# GULP energy per Si atom -5581.064589 kJ/mol
# Density = 1.859341 g / cm^3
# Si number density = 18.635831 Si / 1000 Ang^3
#
#
#
# Elastic Constant Matrix: (Units=GPa)
#
#
# Indices 1 2 3 4 5 6 
#
# 1 74.0555 16.8864 9.7317 0.0000 0.0000 0.0000
# 2 16.8864 57.8863 5.5540 0.0000 0.0000 0.0000
# 3 9.7317 5.5540 30.3837 0.0000 0.0000 0.0000
# 4 0.0000 0.0000 0.0000 35.6527 0.0000 0.0000
# 5 0.0000 0.0000 0.0000 0.0000 22.8364 0.0000
# 6 0.0000 0.0000 0.0000 0.0000 0.0000 16.9380
#
#
#
# Elastic Compliance Matrix: (Units=1/GPa)
#
#
# Indices 1 2 3 4 5 6 
#
# 1 0.014942 -0.003969 -0.004060 0.000000 0.000000 0.000000
# 2 -0.003969 0.018638 -0.002136 0.000000 0.000000 0.000000
# 3 -0.004060 -0.002136 0.034603 0.000000 0.000000 0.000000
# 4 0.000000 0.000000 0.000000 0.028048 0.000000 0.000000
# 5 0.000000 0.000000 0.000000 0.000000 0.043790 0.000000
# 6 0.000000 0.000000 0.000000 0.000000 0.000000 0.059039
#
#
# Mechanical properties :
#
#
# Convention : Reuss Voigt Hill
#
# Bulk Modulus (GPa) = 20.89733 25.18553 23.04143
# Shear Modulus (GPa) = 21.24569 23.76230 22.50399
#
# Velocity S-wave (km/s) = 3.38012 3.57471 3.47877
# Velocity P-wave (km/s) = 5.14504 5.53010 5.34104
#
# Compressibility (1/GPa) = 0.04785300
#
# Stress axis : x y z
#
# Youngs Moduli (GPa) = 66.92526 53.65365 28.89899
#
# Poissons Ratio (x) = 0.21297 0.11734
# Poissons Ratio (y) = 0.26564 0.06172
# Poissons Ratio (z) = 0.27174 0.11458
#
# Static dielectric constant tensor:
#      x y z
#    x 1.621130 0.000000 0.000000 
#    y 0.000000 1.672000 0.000000 
#    z 0.000000 0.000000 1.741300 
# 
# From -- ./inp_files/5397.got.cif
#   From: 2010.05.17/outbox.cif.g08.bks.cpg/sg36_3_cif.got.tgz:5397.got - 2010.06.03 17:41:39.
