data_PCOD9350890
_publ_section_title
;
Structure prediction by ZEFSAII (Michael W. Deem and Ramdas Pophale) SiO2 
 PCOD9350890
Probable space group: C M C 21
;
_chemical_formula_sum "Si O2"
_cell_formula_units_Z 64
_cell_length_a 7.623759
_cell_length_b 20.714377
_cell_length_c 20.656084
_cell_angle_alpha 90.000000
_cell_angle_beta 90.000000
_cell_angle_gamma 90.000000
_cell_volume 3262.038077
_symmetry_space_group_name_H-M "C M C 21"
_symmetry_group_IT_number 36
_symmetry_cell_setting 'orthorhombic'
loop_
_space_group_symop_operation_xyz
x,y,z
-x,-y,1/2+z
x,-y,1/2+z
-x,y,z
1/2+x,1/2+y,z
1/2-x,1/2-y,1/2+z
1/2+x,1/2-y,1/2+z
1/2-x,1/2+y,z
loop_
_atom_site_type_symbol
_atom_site_label
_atom_site_fract_x
_atom_site_fract_y
_atom_site_fract_z
Si Si1 0.295810 0.321786 0.880550
Si Si2 0.788276 0.680224 0.724221
Si Si3 0.215000 0.429300 0.625669
Si Si4 0.787629 0.423606 0.120095
Si Si5 0.284360 0.176852 0.871343
Si Si6 0.207643 0.328322 0.732786
Si Si7 0.206306 0.066698 0.471808
Si Si8 0.295582 0.080374 0.980585
O O1 0.500000 0.317465 0.899370
O O2 0.224002 0.249378 0.888714
O O3 0.285779 0.336777 0.804282
O O4 0.219059 0.378932 0.923949
O O5 0.724368 0.630081 0.670438
O O6 0.729487 0.663542 0.797332
O O7 0.738885 0.754467 0.711537
O O8 0.000000 0.677416 0.724164
O O9 0.266598 0.503458 0.638597
O O10 0.274022 0.379138 0.679917
O O11 0.277725 0.411887 0.553180
O O12 0.000000 0.428142 0.624632
O O13 0.000000 0.422756 0.120174
O O14 0.730324 0.412377 0.046306
O O15 0.500000 0.176968 0.870308
O O16 0.222262 0.125073 0.923789
O O17 0.000000 0.337988 0.739564
O O18 0.000000 0.058886 0.458717
O O19 0.285467 0.995459 0.464396
O O20 0.500000 0.098138 0.985417
#
# Coordination Sequence:
#
# PCOD9350890 Si02
#       8
#     8   8   8   8   8   8   8   8
#     4   9  19  35  51  69  97 130 162 198 243 292
#     4   9  18  33  51  72 100 130 161 199 243 288
#     4   8  16  30  48  72  97 122 159 202 236 272
#     4   9  18  34  53  70  94 130 167 200 234 283
#     4   8  15  30  52  72  90 123 166 197 226 276
#     4  10  19  31  50  74  99 127 162 204 242 282
#     4  10  20  33  50  73 100 126 155 200 251 292
#     4   9  17  32  53  72  93 124 162 200 235 281
#
# _framework density 19.619634999999999
#
# number of rings (size 3 to 8) (size 9 to 14) (size 15 to 20)
#    0.000    3.000    0.000    2.250    0.000    3.500 
#    0.000   12.500    0.000    0.000    0.000    0.000 
#    0.000    0.000    0.000    0.000    0.000    0.000 
#
# Total GULP energy -178427.630290 kJ/mol
# GULP energy per Si atom -5575.863447 kJ/mol
# Density = 1.957498 g / cm^3
# Si number density = 19.619635 Si / 1000 Ang^3
#
#
#
# Elastic Constant Matrix: (Units=GPa)
#
#
# Indices 1 2 3 4 5 6 
#
# 1 34.6981 -14.0487 -14.1070 0.0000 0.0000 0.0000
# 2 -14.0487 132.6511 118.1486 0.0000 0.0000 0.0000
# 3 -14.1070 118.1486 122.6871 0.0000 0.0000 0.0000
# 4 0.0000 0.0000 0.0000 49.1426 0.0000 0.0000
# 5 0.0000 0.0000 0.0000 0.0000 15.2265 0.0000
# 6 0.0000 0.0000 0.0000 0.0000 0.0000 18.3327
#
#
#
# Elastic Compliance Matrix: (Units=1/GPa)
#
#
# Indices 1 2 3 4 5 6 
#
# 1 0.030244 0.000743 0.002762 0.000000 0.000000 0.000000
# 2 0.000743 0.053004 -0.050958 0.000000 0.000000 0.000000
# 3 0.002762 -0.050958 0.057541 0.000000 0.000000 0.000000
# 4 0.000000 0.000000 0.000000 0.020349 0.000000 0.000000
# 5 0.000000 0.000000 0.000000 0.000000 0.065675 0.000000
# 6 0.000000 0.000000 0.000000 0.000000 0.000000 0.054547
#
#
# Mechanical properties :
#
#
# Convention : Reuss Voigt Hill
#
# Bulk Modulus (GPa) = 21.79440 52.22468 37.00954
# Shear Modulus (GPa) = 12.76946 29.87659 21.32302
#
# Velocity S-wave (km/s) = 2.55395 3.90653 3.30027
# Velocity P-wave (km/s) = 4.45302 6.85743 5.78160
#
# Compressibility (1/GPa) = 0.04588334
#
# Stress axis : x y z
#
# Youngs Moduli (GPa) = 33.06465 18.86658 17.37892
#
# Poissons Ratio (x) = -0.01401 -0.04800
# Poissons Ratio (y) = -0.02456 0.88559
# Poissons Ratio (z) = -0.09133 0.96140
#
# Static dielectric constant tensor:
#      x y z
#    x 1.745900 0.000000 0.000000 
#    y 0.000000 1.670060 0.000000 
#    z 0.000000 0.000000 1.671190 
# 
# From -- ./inp_files/14086.got.cif
#   From: 2010.05.17/outbox.cif.g08.bks.cpg/sg36_8_cif.got.tgz:14086.got - 2010.06.03 17:41:39.
