data_PCOD9350252
_publ_section_title
;
Structure prediction by ZEFSAII (Michael W. Deem and Ramdas Pophale) SiO2 
 PCOD9350252
Probable space group: C M M 2
;
_chemical_formula_sum "Si O2"
_cell_formula_units_Z 56
_cell_length_a 8.547707
_cell_length_b 18.860838
_cell_length_c 19.258102
_cell_angle_alpha 90.000000
_cell_angle_beta 90.000000
_cell_angle_gamma 90.000000
_cell_volume 3104.731832
_symmetry_space_group_name_H-M "C M M 2"
_symmetry_group_IT_number 35
_symmetry_cell_setting 'orthorhombic'
loop_
_space_group_symop_operation_xyz
x,y,z
-x,-y,z
-x,y,z
x,-y,z
1/2+x,1/2+y,z
1/2-x,1/2-y,z
1/2-x,1/2+y,z
1/2+x,1/2-y,z
loop_
_atom_site_type_symbol
_atom_site_label
_atom_site_fract_x
_atom_site_fract_y
_atom_site_fract_z
Si Si1 0.810898 0.583941 0.437350
Si Si2 0.316509 0.913797 0.285528
Si Si3 0.311888 0.830187 0.000365
Si Si4 0.186265 0.668982 0.712018
Si Si5 0.191250 0.417812 0.134944
Si Si6 0.185772 0.829984 0.567372
Si Si7 0.186403 0.168873 0.855444
O O1 0.778830 0.500000 0.443659
O O2 0.752498 0.608177 0.360688
O O3 0.735992 0.625902 0.500385
O O4 0.000000 0.592326 0.439328
O O5 0.500000 0.894221 0.286248
O O6 0.251485 0.890960 0.210623
O O7 0.311074 0.000000 0.284619
O O8 0.500000 0.829180 0.997131
O O9 0.250000 0.750000 0.005981
O O10 0.260421 0.872955 0.068440
O O11 0.248270 0.862021 0.927958
O O12 0.250000 0.750000 0.710727
O O13 0.243727 0.638221 0.638802
O O14 0.251591 0.636282 0.783414
O O15 0.000000 0.670496 0.714553
O O16 0.236935 0.500000 0.126978
O O17 0.000000 0.416475 0.137255
O O18 0.250000 0.750000 0.559706
O O19 0.000000 0.827019 0.574279
O O20 0.250000 0.250000 0.855850
O O21 0.000000 0.170453 0.854934
#
# Coordination Sequence:
#
# PCOD9350252 Si02
#       7
#     8   8   8   8   8   8   8
#     4   9  17  31  52  75  98 126 161 199 240 288
#     4   7  11  23  45  70  92 117 154 196 232 271
#     4  10  18  28  44  67  95 123 152 190 233 277
#     4  10  17  28  46  68  93 120 155 195 235 279
#     4   8  14  26  46  70  92 118 156 197 232 270
#     4  11  21  33  49  71 100 130 161 198 241 286
#     4  10  17  27  43  64  91 121 155 191 228 274
#
# _framework density 18.036985000000001
#
# number of rings (size 3 to 8) (size 9 to 14) (size 15 to 20)
#    0.000    2.714    0.000    8.571    0.000    0.286 
#    0.000    0.714    0.000    6.000    0.000    6.000 
#    0.000    0.000    0.000    0.000    0.000    0.000 
#
# Total GULP energy -155933.049262 kJ/mol
# GULP energy per Si atom -5569.037474 kJ/mol
# Density = 1.799593 g / cm^3
# Si number density = 18.036985 Si / 1000 Ang^3
#
#
#
# Elastic Constant Matrix: (Units=GPa)
#
#
# Indices 1 2 3 4 5 6 
#
# 1 93.8488 18.2085 60.0117 0.0000 0.0000 0.0000
# 2 18.2085 19.0204 45.8837 0.0000 0.0000 0.0000
# 3 60.0117 45.8837 235.6185 0.0000 0.0000 0.0000
# 4 0.0000 0.0000 0.0000 40.3516 0.0000 0.0000
# 5 0.0000 0.0000 0.0000 0.0000 21.1385 0.0000
# 6 0.0000 0.0000 0.0000 0.0000 0.0000 11.4841
#
#
#
# Elastic Compliance Matrix: (Units=1/GPa)
#
#
# Indices 1 2 3 4 5 6 
#
# 1 0.013451 -0.008698 -0.001732 0.000000 0.000000 0.000000
# 2 -0.008698 0.104781 -0.018189 0.000000 0.000000 0.000000
# 3 -0.001732 -0.018189 0.008227 0.000000 0.000000 0.000000
# 4 0.000000 0.000000 0.000000 0.024782 0.000000 0.000000
# 5 0.000000 0.000000 0.000000 0.000000 0.047307 0.000000
# 6 0.000000 0.000000 0.000000 0.000000 0.000000 0.087077
#
#
# Mechanical properties :
#
#
# Convention : Reuss Voigt Hill
#
# Bulk Modulus (GPa) = 14.44678 66.29949 40.37313
# Shear Modulus (GPa) = 13.66354 29.55377 21.60866
#
# Velocity S-wave (km/s) = 2.75531 4.05224 3.46500
# Velocity P-wave (km/s) = 4.26019 7.66365 6.20003
#
# Compressibility (1/GPa) = 0.06921959
#
# Stress axis : x y z
#
# Youngs Moduli (GPa) = 74.34613 9.54373 121.54521
#
# Poissons Ratio (x) = 0.08302 0.21051
# Poissons Ratio (y) = 0.64670 2.21081
# Poissons Ratio (z) = 0.12876 0.17359
#
# Static dielectric constant tensor:
#      x y z
#    x 1.568640 0.000000 0.000000 
#    y 0.000000 1.600620 0.000000 
#    z 0.000000 0.000000 1.697740 
# 
# From -- ./inp_files/18280.got.cif
#   From: 2010.05.17/outbox.cif.g08.bks.cpg/sg35_10_cif.got.tgz:18280.got - 2010.06.03 17:29:28.
