data_PCOD9350323
_publ_section_title
;
Structure prediction by ZEFSAII (Michael W. Deem and Ramdas Pophale) SiO2 
 PCOD9350323
Probable space group: C M M 2
;
_chemical_formula_sum "Si O2"
_cell_formula_units_Z 48
_cell_length_a 8.360381
_cell_length_b 15.963630
_cell_length_c 17.936353
_cell_angle_alpha 90.000000
_cell_angle_beta 90.000000
_cell_angle_gamma 90.000000
_cell_volume 2393.822063
_symmetry_space_group_name_H-M "C M M 2"
_symmetry_group_IT_number 35
_symmetry_cell_setting 'orthorhombic'
loop_
_space_group_symop_operation_xyz
x,y,z
-x,-y,z
-x,y,z
x,-y,z
1/2+x,1/2+y,z
1/2-x,1/2-y,z
1/2-x,1/2+y,z
1/2+x,1/2-y,z
loop_
_atom_site_type_symbol
_atom_site_label
_atom_site_fract_x
_atom_site_fract_y
_atom_site_fract_z
Si Si1 0.691390 0.154232 0.287240
Si Si2 0.192047 0.153639 0.966557
Si Si3 0.305932 0.095483 0.447895
Si Si4 0.808930 0.153734 0.132113
Si Si5 0.307001 0.838367 0.602544
Si Si6 0.691678 0.000000 0.867137
Si Si7 0.195519 0.500000 0.695722
O O1 0.500000 0.152464 0.287329
O O2 0.750000 0.250000 0.288190
O O3 0.751985 0.115429 0.364740
O O4 0.746620 0.114391 0.208987
O O5 0.250000 0.250000 0.954865
O O6 0.000000 0.155803 0.965192
O O7 0.251221 0.084369 0.908588
O O8 0.242680 0.123684 0.050204
O O9 0.500000 0.102711 0.445308
O O10 0.248542 0.150827 0.517004
O O11 0.268335 0.000000 0.466901
O O12 0.750000 0.250000 0.133298
O O13 0.000000 0.151988 0.135091
O O14 0.500000 0.839853 0.601091
O O15 0.250000 0.750000 0.633106
O O16 0.253003 0.917030 0.651583
O O17 0.747534 0.000000 0.781342
O O18 0.500000 0.000000 0.867530
O O19 0.000000 0.500000 0.694941
#
# Coordination Sequence:
#
# PCOD9350323 Si02
#       7
#     8   8   8   8   8   4   4
#     4  10  18  28  47  74 105 138 183 229 272 322
#     4  10  21  39  62  87 117 155 196 240 291 347
#     4   9  17  31  51  74 104 145 187 226 268 323
#     4   9  17  31  52  75 105 143 185 229 278 330
#     4  10  19  36  61  84 110 147 187 227 275 330
#     4  11  23  39  61  90 119 150 192 237 291 355
#     4   9  20  39  61  84 113 148 184 225 277 343
#
# _framework density 20.051615999999999
#
# number of rings (size 3 to 8) (size 9 to 14) (size 15 to 20)
#    0.000    2.333    0.833    3.250    0.000    2.667 
#    1.500    4.583    0.000    3.500    0.000    0.000 
#    0.000    0.000    0.000    0.000    0.000    0.000 
#
# Total GULP energy -133843.275693 kJ/mol
# GULP energy per Si atom -5576.803154 kJ/mol
# Density = 2.000598 g / cm^3
# Si number density = 20.051616 Si / 1000 Ang^3
#
#
#
# Elastic Constant Matrix: (Units=GPa)
#
#
# Indices 1 2 3 4 5 6 
#
# 1 30.3884 13.3988 28.6450 0.0000 0.0000 0.0000
# 2 13.3988 116.0729 81.0112 0.0000 0.0000 0.0000
# 3 28.6450 81.0112 178.0018 0.0000 0.0000 0.0000
# 4 0.0000 0.0000 0.0000 37.0859 0.0000 0.0000
# 5 0.0000 0.0000 0.0000 0.0000 22.0007 0.0000
# 6 0.0000 0.0000 0.0000 0.0000 0.0000 23.6944
#
#
#
# Elastic Compliance Matrix: (Units=1/GPa)
#
#
# Indices 1 2 3 4 5 6 
#
# 1 0.038794 -0.000177 -0.006162 0.000000 0.000000 0.000000
# 2 -0.000177 0.012627 -0.005718 0.000000 0.000000 0.000000
# 3 -0.006162 -0.005718 0.009212 0.000000 0.000000 0.000000
# 4 0.000000 0.000000 0.000000 0.026964 0.000000 0.000000
# 5 0.000000 0.000000 0.000000 0.000000 0.045453 0.000000
# 6 0.000000 0.000000 0.000000 0.000000 0.000000 0.042204
#
#
# Mechanical properties :
#
#
# Convention : Reuss Voigt Hill
#
# Bulk Modulus (GPa) = 27.38414 63.39701 45.39057
# Shear Modulus (GPa) = 23.63597 29.98339 26.80968
#
# Velocity S-wave (km/s) = 3.43703 3.87112 3.66051
# Velocity P-wave (km/s) = 5.42562 7.18793 6.36803
#
# Compressibility (1/GPa) = 0.03651749
#
# Stress axis : x y z
#
# Youngs Moduli (GPa) = 25.77706 79.19848 108.55503
#
# Poissons Ratio (x) = 0.01404 0.66895
# Poissons Ratio (y) = 0.00457 0.62071
# Poissons Ratio (z) = 0.15885 0.45285
#
# Static dielectric constant tensor:
#      x y z
#    x 1.697060 0.000000 0.000000 
#    y 0.000000 1.687560 0.000000 
#    z 0.000000 0.000000 1.758640 
# 
# From -- ./inp_files/17894.got.cif
#   From: 2010.05.17/outbox.cif.g08.bks.cpg/sg35_9_cif.got.tgz:17894.got - 2010.06.03 17:29:28.
