data_PCOD9350484
_publ_section_title
;
Structure prediction by ZEFSAII (Michael W. Deem and Ramdas Pophale) SiO2 
 PCOD9350484
Probable space group: C M C 21
;
_chemical_formula_sum "Si O2"
_cell_formula_units_Z 64
_cell_length_a 8.429351
_cell_length_b 15.873322
_cell_length_c 19.230418
_cell_angle_alpha 90.000000
_cell_angle_beta 90.000000
_cell_angle_gamma 90.000000
_cell_volume 2573.064595
_symmetry_space_group_name_H-M "C M C 21"
_symmetry_group_IT_number 36
_symmetry_cell_setting 'orthorhombic'
loop_
_space_group_symop_operation_xyz
x,y,z
-x,-y,1/2+z
x,-y,1/2+z
-x,y,z
1/2+x,1/2+y,z
1/2-x,1/2-y,1/2+z
1/2+x,1/2-y,1/2+z
1/2-x,1/2+y,z
loop_
_atom_site_type_symbol
_atom_site_label
_atom_site_fract_x
_atom_site_fract_y
_atom_site_fract_z
Si Si1 0.812464 0.734617 0.607680
Si Si2 0.188635 0.306480 0.823238
Si Si3 0.688420 0.507261 0.576339
Si Si4 0.311130 0.361166 0.235474
Si Si5 0.688533 0.155205 0.993321
Si Si6 0.185400 0.106426 0.449916
Si Si7 0.813458 0.450334 0.363841
Si Si8 0.690003 0.898563 0.690913
O O1 0.738427 0.661864 0.656627
O O2 0.743922 0.759688 0.531862
O O3 0.770147 0.820182 0.650659
O O4 0.000000 0.723311 0.603638
O O5 0.229074 0.223746 0.779510
O O6 0.258426 0.320332 0.898885
O O7 0.232991 0.382986 0.770985
O O8 0.000000 0.307077 0.831399
O O9 0.500000 0.518003 0.584206
O O10 0.723452 0.421917 0.532269
O O11 0.757067 0.579482 0.524971
O O12 0.759427 0.482809 0.650991
O O13 0.500000 0.373898 0.236461
O O14 0.229810 0.430035 0.284704
O O15 0.500000 0.148003 0.006002
O O16 0.714673 0.132439 0.912570
O O17 0.000000 0.118228 0.461655
O O18 0.217047 0.023895 0.401781
O O19 0.000000 0.471948 0.368568
O O20 0.500000 0.889414 0.685003
#
# Coordination Sequence:
#
# PCOD9350484 Si02
#       8
#     8   8   8   8   8   8   8   8
#     4  10  17  26  44  69  95 123 158 199 240 284
#     4   9  19  33  49  71  98 128 161 198 240 287
#     4   9  16  26  42  67  94 120 155 197 238 281
#     4  10  20  34  51  72 100 130 162 202 246 291
#     4   9  16  27  44  67  94 123 156 196 240 283
#     4  10  20  32  49  73 100 130 162 198 240 287
#     4  10  20  33  51  74 100 130 163 200 242 290
#     4   9  16  27  44  67  93 122 157 198 242 283
#
# _framework density 24.873065
#
# number of rings (size 3 to 8) (size 9 to 14) (size 15 to 20)
#    0.000    2.500    0.000    5.625    0.000    6.000 
#    0.000    0.000    0.000    1.500    0.000    3.500 
#    0.000    0.000    0.000    0.000    0.000    0.000 
#
# Total GULP energy -178879.281458 kJ/mol
# GULP energy per Si atom -5589.977546 kJ/mol
# Density = 2.481645 g / cm^3
# Si number density = 24.873065 Si / 1000 Ang^3
#
#
#
# Elastic Constant Matrix: (Units=GPa)
#
#
# Indices 1 2 3 4 5 6 
#
# 1 32.0478 3.9590 18.2938 0.0000 0.0000 0.0000
# 2 3.9590 67.1952 -0.2536 0.0000 0.0000 0.0000
# 3 18.2938 -0.2536 187.5559 0.0000 0.0000 0.0000
# 4 0.0000 0.0000 0.0000 39.4030 0.0000 0.0000
# 5 0.0000 0.0000 0.0000 0.0000 29.1509 0.0000
# 6 0.0000 0.0000 0.0000 0.0000 0.0000 4.2307
#
#
#
# Elastic Compliance Matrix: (Units=1/GPa)
#
#
# Indices 1 2 3 4 5 6 
#
# 1 0.033303 -0.001974 -0.003251 0.000000 0.000000 0.000000
# 2 -0.001974 0.014999 0.000213 0.000000 0.000000 0.000000
# 3 -0.003251 0.000213 0.005649 0.000000 0.000000 0.000000
# 4 0.000000 0.000000 0.000000 0.025379 0.000000 0.000000
# 5 0.000000 0.000000 0.000000 0.000000 0.034304 0.000000
# 6 0.000000 0.000000 0.000000 0.000000 0.000000 0.236367
#
#
# Mechanical properties :
#
#
# Convention : Reuss Voigt Hill
#
# Bulk Modulus (GPa) = 22.76544 36.75526 29.76035
# Shear Modulus (GPa) = 13.34514 32.21023 22.77769
#
# Velocity S-wave (km/s) = 2.31882 3.60249 3.02943
# Velocity P-wave (km/s) = 4.04250 5.66685 4.92214
#
# Compressibility (1/GPa) = 0.04392622
#
# Stress axis : x y z
#
# Youngs Moduli (GPa) = 30.02730 66.67042 177.01865
#
# Poissons Ratio (x) = 0.13164 0.57548
# Poissons Ratio (y) = 0.05929 -0.03768
# Poissons Ratio (z) = 0.09762 -0.01419
#
# Static dielectric constant tensor:
#      x y z
#    x 1.842100 0.000000 0.000000 
#    y 0.000000 2.102480 0.000000 
#    z 0.000000 0.000000 2.021870 
# 
# From -- ./inp_files/15739.got.cif
#   From: 2010.05.17/outbox.cif.g08.bks.cpg/sg36_8_cif.got.tgz:15739.got - 2010.06.03 17:41:39.
