data_PCOD9350606
_publ_section_title
;
Structure prediction by ZEFSAII (Michael W. Deem and Ramdas Pophale) SiO2 
 PCOD9350606
Probable space group: C M C 21
;
_chemical_formula_sum "Si O2"
_cell_formula_units_Z 56
_cell_length_a 13.916650
_cell_length_b 23.429453
_cell_length_c 7.774629
_cell_angle_alpha 90.000000
_cell_angle_beta 90.000000
_cell_angle_gamma 90.000000
_cell_volume 2534.991622
_symmetry_space_group_name_H-M "C M C 21"
_symmetry_group_IT_number 36
_symmetry_cell_setting 'orthorhombic'
loop_
_space_group_symop_operation_xyz
x,y,z
-x,-y,1/2+z
x,-y,1/2+z
-x,y,z
1/2+x,1/2+y,z
1/2-x,1/2-y,1/2+z
1/2+x,1/2-y,1/2+z
1/2-x,1/2+y,z
loop_
_atom_site_type_symbol
_atom_site_label
_atom_site_fract_x
_atom_site_fract_y
_atom_site_fract_z
Si Si1 0.749086 0.546223 0.535510
Si Si2 0.392016 0.859466 0.971223
Si Si3 0.609397 0.637955 0.425605
Si Si4 0.109519 0.329469 0.567865
Si Si5 0.254197 0.729863 0.447945
Si Si6 0.891908 0.174669 0.830526
Si Si7 0.740560 0.581272 0.931202
O O1 0.847348 0.577216 0.476713
O O2 0.664436 0.577609 0.427924
O O3 0.742250 0.564383 0.732384
O O4 0.742281 0.478627 0.527326
O O5 0.500000 0.856328 0.040894
O O6 0.393772 0.841559 0.771332
O O7 0.315436 0.814473 0.052454
O O8 0.500000 0.636585 0.364050
O O9 0.679303 0.685267 0.340369
O O10 0.607375 0.656548 0.628875
O O11 0.168380 0.272234 0.530605
O O12 0.167694 0.380898 0.480691
O O13 0.000000 0.324309 0.506193
O O14 0.180533 0.773808 0.362895
O O15 0.852688 0.121846 0.944222
O O16 0.000000 0.191239 0.876788
#
# Coordination Sequence:
#
# PCOD9350606 Si02
#       7
#     8   8   8   8   8   8   8
#     4  10  21  37  58  82 110 144 184 231 280 330
#     4  10  21  37  58  83 112 148 187 227 274 327
#     4   9  18  33  53  77 106 141 179 220 269 323
#     4  10  21  37  58  83 112 148 187 227 274 327
#     4  10  18  30  54  82 110 140 178 220 266 318
#     4   9  18  33  53  77 106 141 179 220 269 323
#     4  10  21  37  58  82 110 144 184 231 280 330
#
# _framework density 22.090803999999999
#
# number of rings (size 3 to 8) (size 9 to 14) (size 15 to 20)
#    0.000    2.286    0.000    2.571    0.000    5.143 
#    0.000    0.000    0.000   48.857    0.000    0.000 
#    0.000    0.000    0.000    0.000    0.000    0.000 
#
# Total GULP energy -156360.051499 kJ/mol
# GULP energy per Si atom -5584.287554 kJ/mol
# Density = 2.204052 g / cm^3
# Si number density = 22.090804 Si / 1000 Ang^3
#
#
#
# Elastic Constant Matrix: (Units=GPa)
#
#
# Indices 1 2 3 4 5 6 
#
# 1 198.8990 64.4480 16.0600 0.0000 0.0000 0.0000
# 2 64.4480 158.9085 19.4303 0.0000 0.0000 0.0000
# 3 16.0600 19.4303 27.9149 0.0000 0.0000 0.0000
# 4 0.0000 0.0000 0.0000 30.5402 0.0000 0.0000
# 5 0.0000 0.0000 0.0000 0.0000 21.9815 0.0000
# 6 0.0000 0.0000 0.0000 0.0000 0.0000 9.2998
#
#
#
# Elastic Compliance Matrix: (Units=1/GPa)
#
#
# Indices 1 2 3 4 5 6 
#
# 1 0.005877 -0.002154 -0.001882 0.000000 0.000000 0.000000
# 2 -0.002154 0.007667 -0.004098 0.000000 0.000000 0.000000
# 3 -0.001882 -0.004098 0.039759 0.000000 0.000000 0.000000
# 4 0.000000 0.000000 0.000000 0.032744 0.000000 0.000000
# 5 0.000000 0.000000 0.000000 0.000000 0.045493 0.000000
# 6 0.000000 0.000000 0.000000 0.000000 0.000000 0.107529
#
#
# Mechanical properties :
#
#
# Convention : Reuss Voigt Hill
#
# Bulk Modulus (GPa) = 27.00112 65.06657 46.03384
# Shear Modulus (GPa) = 18.67887 31.41657 25.04772
#
# Velocity S-wave (km/s) = 2.91099 3.77524 3.37093
# Velocity P-wave (km/s) = 4.85261 6.96573 6.00288
#
# Compressibility (1/GPa) = 0.03703550
#
# Stress axis : x y z
#
# Youngs Moduli (GPa) = 170.14124 130.42222 25.15184
#
# Poissons Ratio (x) = 0.28087 0.04735
# Poissons Ratio (y) = 0.36640 0.10307
# Poissons Ratio (z) = 0.32028 0.53446
#
# Static dielectric constant tensor:
#      x y z
#    x 1.819550 0.000000 0.000000 
#    y 0.000000 1.813550 0.000000 
#    z 0.000000 0.000000 1.930750 
# 
# From -- ./inp_files/4215.got.cif
#   From: 2010.05.17/outbox.cif.g08.bks.cpg/sg36_3_cif.got.tgz:4215.got - 2010.06.03 17:41:39.
