data_PCOD9350834
_publ_section_title
;
Structure prediction by ZEFSAII (Michael W. Deem and Ramdas Pophale) SiO2 
 PCOD9350834
Probable space group: C M C 21
;
_chemical_formula_sum "Si O2"
_cell_formula_units_Z 48
_cell_length_a 24.584689
_cell_length_b 16.009661
_cell_length_c 5.446701
_cell_angle_alpha 90.000000
_cell_angle_beta 90.000000
_cell_angle_gamma 90.000000
_cell_volume 2143.780863
_symmetry_space_group_name_H-M "C M C 21"
_symmetry_group_IT_number 36
_symmetry_cell_setting 'orthorhombic'
loop_
_space_group_symop_operation_xyz
x,y,z
-x,-y,1/2+z
x,-y,1/2+z
-x,y,z
1/2+x,1/2+y,z
1/2-x,1/2-y,1/2+z
1/2+x,1/2-y,1/2+z
1/2-x,1/2+y,z
loop_
_atom_site_type_symbol
_atom_site_label
_atom_site_fract_x
_atom_site_fract_y
_atom_site_fract_z
Si Si1 0.500000 0.943889 0.106440
Si Si2 0.743693 0.054879 0.606440
Si Si3 0.696234 0.732283 0.606442
Si Si4 0.883465 0.052885 0.106447
Si Si5 0.000000 0.055315 0.106444
Si Si6 0.318732 0.714188 0.106441
Si Si7 0.119470 0.445024 0.106440
O O1 0.500000 0.000000 0.356440
O O2 0.559959 0.899725 0.106440
O O3 0.784019 0.135018 0.606442
O O4 0.681554 0.089797 0.606440
O O5 0.750116 0.000000 0.356440
O O6 0.663292 0.751115 0.363520
O O7 0.752915 0.782177 0.606441
O O8 0.663291 0.751115 0.849363
O O9 0.942038 0.099406 0.106445
O O10 0.837206 0.119921 0.106442
O O11 0.880716 0.000001 0.356450
O O12 0.000000 1.000000 0.356444
O O13 0.118927 0.500000 0.356440
#
# Coordination Sequence:
#
# PCOD9350834 Si02
#       7
#     4   8   8   8   4   8   8
#     4   8  12  20  34  51  74 101 130 166 208 256
#     4  10  19  30  46  67  90 118 153 194 237 277
#     4  10  21  35  48  67  98 131 164 201 243 286
#     4  10  19  32  53  79 104 131 167 208 252 306
#     4   8  16  30  48  75 106 129 154 200 258 306
#     4  10  21  35  50  69  96 132 164 195 241 294
#     4   8  14  23  36  56  78 102 133 170 214 255
#
# _framework density 22.390349000000001
#
# number of rings (size 3 to 8) (size 9 to 14) (size 15 to 20)
#    0.000    2.667    0.000    2.000    0.000    4.000 
#    0.000    0.000    0.000    1.000    0.000    0.000 
#    0.000   24.000    0.000    0.000    0.000    5.833 
#
# Total GULP energy -133715.752092 kJ/mol
# GULP energy per Si atom -5571.489670 kJ/mol
# Density = 2.233939 g / cm^3
# Si number density = 22.390349 Si / 1000 Ang^3
#
#
#
# Elastic Constant Matrix: (Units=GPa)
#
#
# Indices 1 2 3 4 5 6 
#
# 1 88.8834 18.1978 13.9252 0.0000 0.0000 0.0000
# 2 18.1978 67.1269 39.3567 0.0000 0.0000 0.0000
# 3 13.9252 39.3567 239.8287 0.0000 0.0000 0.0000
# 4 0.0000 0.0000 0.0000 20.3544 0.0000 0.0000
# 5 0.0000 0.0000 0.0000 0.0000 28.4762 0.0000
# 6 0.0000 0.0000 0.0000 0.0000 0.0000 0.5280
#
#
#
# Elastic Compliance Matrix: (Units=1/GPa)
#
#
# Indices 1 2 3 4 5 6 
#
# 1 0.011919 -0.003126 -0.000179 0.000000 0.000000 0.000000
# 2 -0.003126 0.017303 -0.002658 0.000000 0.000000 0.000000
# 3 -0.000179 -0.002658 0.004616 0.000000 0.000000 0.000000
# 4 0.000000 0.000000 0.000000 0.049129 0.000000 0.000000
# 5 0.000000 0.000000 0.000000 0.000000 0.035117 0.000000
# 6 0.000000 0.000000 0.000000 0.000000 0.000000 1.893867
#
#
# Mechanical properties :
#
#
# Convention : Reuss Voigt Hill
#
# Bulk Modulus (GPa) = 45.63771 59.86648 52.75209
# Shear Modulus (GPa) = 2.46162 31.49568 16.97865
#
# Velocity S-wave (km/s) = 1.04967 3.75462 2.75672
# Velocity P-wave (km/s) = 4.67932 6.75218 5.80896
#
# Compressibility (1/GPa) = 0.02191171
#
# Stress axis : x y z
#
# Youngs Moduli (GPa) = 83.90114 57.79342 216.62751
#
# Poissons Ratio (x) = 0.18067 0.03878
# Poissons Ratio (y) = 0.26229 0.57579
# Poissons Ratio (z) = 0.01502 0.15361
#
# Static dielectric constant tensor:
#      x y z
#    x 1.888290 0.000000 0.000000 
#    y 0.000000 1.818470 0.000000 
#    z 0.000000 0.000000 1.960650 
# 
# From -- ./inp_files/1741.got.cif
#   From: 2010.05.17/outbox.cif.g08.bks.cpg/sg36_1_cif.got.tgz:1741.got - 2010.06.03 17:41:39.
