data_PCOD9350721
_publ_section_title
;
Structure prediction by ZEFSAII (Michael W. Deem and Ramdas Pophale) SiO2 
 PCOD9350721
Probable space group: C M C 21
;
_chemical_formula_sum "Si O2"
_cell_formula_units_Z 64
_cell_length_a 7.524764
_cell_length_b 33.124506
_cell_length_c 11.380004
_cell_angle_alpha 90.000000
_cell_angle_beta 90.000000
_cell_angle_gamma 90.000000
_cell_volume 2836.512544
_symmetry_space_group_name_H-M "C M C 21"
_symmetry_group_IT_number 36
_symmetry_cell_setting 'orthorhombic'
loop_
_space_group_symop_operation_xyz
x,y,z
-x,-y,1/2+z
x,-y,1/2+z
-x,y,z
1/2+x,1/2+y,z
1/2-x,1/2-y,1/2+z
1/2+x,1/2-y,1/2+z
1/2-x,1/2+y,z
loop_
_atom_site_type_symbol
_atom_site_label
_atom_site_fract_x
_atom_site_fract_y
_atom_site_fract_z
Si Si1 0.787847 0.828572 0.020830
Si Si2 0.282298 0.262073 0.206595
Si Si3 0.204432 0.611552 0.706038
Si Si4 0.782930 0.527092 0.999227
Si Si5 0.216628 0.519516 0.736092
Si Si6 0.800158 0.176490 0.891232
Si Si7 0.711476 0.825974 0.748984
Si Si8 0.200739 0.613598 0.076955
O O1 0.725021 0.790858 0.100261
O O2 0.713111 0.869609 0.076840
O O3 0.000000 0.830094 0.030084
O O4 0.737335 0.824046 0.887031
O O5 0.500000 0.262293 0.209244
O O6 0.225356 0.283557 0.328906
O O7 0.220313 0.216306 0.197121
O O8 0.268482 0.566100 0.714836
O O9 0.305340 0.643773 0.785776
O O10 0.000000 0.611705 0.748189
O O11 0.725708 0.505630 0.120981
O O12 0.724900 0.574104 0.012914
O O13 0.000000 0.525137 0.995014
O O14 0.725947 0.509978 0.870985
O O15 0.000000 0.517342 0.735378
O O16 0.000000 0.184491 0.932405
O O17 0.699478 0.152294 0.991281
O O18 0.500000 0.826835 0.726186
O O19 0.787058 0.866908 0.692217
O O20 0.000000 0.601039 0.106920
#
# Coordination Sequence:
#
# PCOD9350721 Si02
#       8
#     8   8   8   8   8   8   8   8
#     4  10  21  37  54  78 112 146 178 225 282 339
#     4   8  18  35  52  74 105 141 181 224 272 323
#     4  10  18  33  57  82 103 137 185 228 269 325
#     4   9  17  31  50  81 114 142 179 235 291 337
#     4   9  17  29  51  80 112 141 180 233 285 334
#     4  10  19  33  55  78 107 143 180 225 274 329
#     4  10  21  36  54  78 109 144 185 234 275 325
#     4  10  20  34  55  81 110 142 184 232 278 328
#
# _framework density 22.562916999999999
#
# number of rings (size 3 to 8) (size 9 to 14) (size 15 to 20)
#    0.000    2.500    1.250    1.875    1.750    1.500 
#    0.000    6.875    0.000    1.500    0.000    0.000 
#    0.000    0.000    0.000    0.000    0.000    0.000 
#
# Total GULP energy -178506.329680 kJ/mol
# GULP energy per Si atom -5578.322803 kJ/mol
# Density = 2.251156 g / cm^3
# Si number density = 22.562917 Si / 1000 Ang^3
#
#
#
# Elastic Constant Matrix: (Units=GPa)
#
#
# Indices 1 2 3 4 5 6 
#
# 1 62.6705 2.1709 -2.6365 0.0000 0.0000 0.0000
# 2 2.1709 73.2141 54.1567 0.0000 0.0000 0.0000
# 3 -2.6365 54.1567 149.9663 0.0000 0.0000 0.0000
# 4 0.0000 0.0000 0.0000 31.2134 0.0000 0.0000
# 5 0.0000 0.0000 0.0000 0.0000 -12.5617 0.0000
# 6 0.0000 0.0000 0.0000 0.0000 0.0000 8.2858
#
#
#
# Elastic Compliance Matrix: (Units=1/GPa)
#
#
# Indices 1 2 3 4 5 6 
#
# 1 0.016015 -0.000932 0.000618 0.000000 0.000000 0.000000
# 2 -0.000932 0.018691 -0.006766 0.000000 0.000000 0.000000
# 3 0.000618 -0.006766 0.009123 0.000000 0.000000 0.000000
# 4 0.000000 0.000000 0.000000 0.032038 0.000000 0.000000
# 5 0.000000 0.000000 0.000000 0.000000 -0.079607 0.000000
# 6 0.000000 0.000000 0.000000 0.000000 0.000000 0.120689
#
#
# Mechanical properties :
#
#
# Convention : Reuss Voigt Hill
#
# Bulk Modulus (GPa) = 33.70628 43.69256 38.69942
# Shear Modulus (GPa) = 35.46163 20.86481 28.16322
#
# Velocity S-wave (km/s) = 3.96874 3.04425 3.53683
# Velocity P-wave (km/s) = 5.99770 5.63591 5.81962
#
# Compressibility (1/GPa) = 0.02966806
#
# Stress axis : x y z
#
# Youngs Moduli (GPa) = 62.44233 53.50092 109.61889
#
# Poissons Ratio (x) = 0.04987 -0.06776
# Poissons Ratio (y) = 0.05820 0.74171
# Poissons Ratio (z) = -0.03860 0.36200
#
# Static dielectric constant tensor:
#      x y z
#    x 2.293290 0.000000 0.000000 
#    y 0.000000 1.820990 0.000000 
#    z 0.000000 0.000000 1.885220 
# 
# From -- ./inp_files/7257.got.cif
#   From: 2010.05.17/outbox.cif.g08.bks.cpg/sg36_4_cif.got.tgz:7257.got - 2010.06.03 17:41:39.
