data_PCOD9350352
_publ_section_title
;
Structure prediction by ZEFSAII (Michael W. Deem and Ramdas Pophale) SiO2 
 PCOD9350352
Probable space group: C M M 2
;
_chemical_formula_sum "Si O2"
_cell_formula_units_Z 48
_cell_length_a 32.121652
_cell_length_b 8.949238
_cell_length_c 9.880918
_cell_angle_alpha 90.000000
_cell_angle_beta 90.000000
_cell_angle_gamma 90.000000
_cell_volume 2840.411262
_symmetry_space_group_name_H-M "C M M 2"
_symmetry_group_IT_number 35
_symmetry_cell_setting 'orthorhombic'
loop_
_space_group_symop_operation_xyz
x,y,z
-x,-y,z
-x,y,z
x,-y,z
1/2+x,1/2+y,z
1/2-x,1/2-y,z
1/2-x,1/2+y,z
1/2+x,1/2-y,z
loop_
_atom_site_type_symbol
_atom_site_label
_atom_site_fract_x
_atom_site_fract_y
_atom_site_fract_z
Si Si1 0.208089 0.328860 0.260250
Si Si2 0.617060 0.180319 0.238448
Si Si3 0.453308 0.318538 0.742409
Si Si4 0.951586 0.179161 0.428664
Si Si5 0.379442 0.319875 0.941329
Si Si6 0.707295 0.172939 0.930484
O O1 0.210319 0.500000 0.303180
O O2 0.250000 0.250000 0.308002
O O3 0.162302 0.269218 0.296594
O O4 0.208327 0.324487 0.095494
O O5 0.580017 0.234899 0.332975
O O6 0.618129 0.000000 0.226540
O O7 0.612904 0.251687 0.089840
O O8 0.500000 0.267654 0.781041
O O9 0.454037 0.500000 0.745739
O O10 0.445616 0.277881 0.586063
O O11 0.416627 0.271391 0.841934
O O12 0.000000 0.208239 0.394463
O O13 0.945053 0.000000 0.416880
O O14 0.378408 0.500000 0.949453
O O15 0.334637 0.259826 0.891998
O O16 0.750000 0.250000 0.883756
O O17 0.705426 0.000000 0.889347
#
# Coordination Sequence:
#
# PCOD9350352 Si02
#       6
#     8   8   8   8   8   8
#     4   8  15  26  41  62  90 122 153 187 227 272
#     4  10  20  32  46  71 104 130 157 197 242 286
#     4   8  16  32  52  72  94 122 160 203 242 287
#     4   9  18  34  54  72  91 122 164 203 241 290
#     4  10  18  29  49  75 100 128 162 200 243 286
#     4   9  16  27  43  66  97 129 161 198 239 284
#
# _framework density 16.898962000000001
#
# number of rings (size 3 to 8) (size 9 to 14) (size 15 to 20)
#    0.000    3.000    0.000    3.500    0.000    5.667 
#    0.000    3.333    0.000    4.500    0.000    2.333 
#    0.000    0.000    0.000    0.000    0.000    0.000 
#
# Total GULP energy -133656.416325 kJ/mol
# GULP energy per Si atom -5569.017347 kJ/mol
# Density = 1.686050 g / cm^3
# Si number density = 16.898962 Si / 1000 Ang^3
#
#
#
# Elastic Constant Matrix: (Units=GPa)
#
#
# Indices 1 2 3 4 5 6 
#
# 1 184.9565 65.4201 77.9486 0.0000 0.0000 0.0000
# 2 65.4201 61.4450 29.7235 0.0000 0.0000 0.0000
# 3 77.9486 29.7235 47.1279 0.0000 0.0000 0.0000
# 4 0.0000 0.0000 0.0000 4.2591 0.0000 0.0000
# 5 0.0000 0.0000 0.0000 0.0000 -9.3837 0.0000
# 6 0.0000 0.0000 0.0000 0.0000 0.0000 32.2271
#
#
#
# Elastic Compliance Matrix: (Units=1/GPa)
#
#
# Indices 1 2 3 4 5 6 
#
# 1 0.020064 -0.007640 -0.028367 0.000000 0.000000 0.000000
# 2 -0.007640 0.026329 -0.003970 0.000000 0.000000 0.000000
# 3 -0.028367 -0.003970 0.070641 0.000000 0.000000 0.000000
# 4 0.000000 0.000000 0.000000 0.234789 0.000000 0.000000
# 5 0.000000 0.000000 0.000000 0.000000 -0.106568 0.000000
# 6 0.000000 0.000000 0.000000 0.000000 0.000000 0.031030
#
#
# Mechanical properties :
#
#
# Convention : Reuss Voigt Hill
#
# Bulk Modulus (GPa) = 26.96805 71.07930 49.02368
# Shear Modulus (GPa) = 13.56495 13.44968 13.50731
#
# Velocity S-wave (km/s) = 2.83629 2.82421 2.83025
# Velocity P-wave (km/s) = 5.16905 7.26550 6.30502
#
# Compressibility (1/GPa) = 0.03708092
#
# Stress axis : x y z
#
# Youngs Moduli (GPa) = 49.84082 37.98104 14.15611
#
# Poissons Ratio (x) = 0.29016 0.40157
# Poissons Ratio (y) = 0.38076 0.05620
# Poissons Ratio (z) = 1.41383 0.15078
#
# Static dielectric constant tensor:
#      x y z
#    x 1.589910 0.000000 0.000000 
#    y 0.000000 1.571380 0.000000 
#    z 0.000000 0.000000 1.545900 
# 
# From -- ./inp_files/10472.got.cif
#   From: 2010.05.17/outbox.cif.g08.bks.cpg/sg35_6_cif.got.tgz:10472.got - 2010.06.03 17:29:28.
