data_PCOD9350013
_publ_section_title
;
Structure prediction by ZEFSAII (Michael W. Deem and Ramdas Pophale) SiO2 
 PCOD9350013
Probable space group: C M M 2
;
_chemical_formula_sum "Si O2"
_cell_formula_units_Z 36
_cell_length_a 14.935103
_cell_length_b 18.840655
_cell_length_c 5.643308
_cell_angle_alpha 90.000000
_cell_angle_beta 90.000000
_cell_angle_gamma 90.000000
_cell_volume 1587.954202
_symmetry_space_group_name_H-M "C M M 2"
_symmetry_group_IT_number 35
_symmetry_cell_setting 'orthorhombic'
loop_
_space_group_symop_operation_xyz
x,y,z
-x,-y,z
-x,y,z
x,-y,z
1/2+x,1/2+y,z
1/2-x,1/2-y,z
1/2-x,1/2+y,z
1/2+x,1/2-y,z
loop_
_atom_site_type_symbol
_atom_site_label
_atom_site_fract_x
_atom_site_fract_y
_atom_site_fract_z
Si Si1 0.609093 0.716639 0.902040
Si Si2 0.903193 0.500000 0.317671
Si Si3 0.901981 0.000000 0.580968
Si Si4 0.280661 0.000000 0.704681
Si Si5 0.601008 0.881423 0.928774
Si Si6 0.394736 0.344064 0.397208
O O1 0.500000 0.706777 0.895698
O O2 0.627596 0.799862 0.939954
O O3 0.642121 0.689574 0.643906
O O4 0.643227 0.677991 0.141075
O O5 0.805127 0.500000 0.429729
O O6 0.000000 0.500000 0.452485
O O7 0.905454 0.572690 0.168312
O O8 0.892312 0.928466 0.431668
O O9 0.822038 0.000000 0.767012
O O10 0.000000 0.000000 0.694080
O O11 0.330765 0.929480 0.785429
O O12 0.500000 0.881940 0.825960
O O13 0.500000 0.322377 0.390646
#
# Coordination Sequence:
#
# PCOD9350013 Si02
#       6
#     8   4   4   4   8   8
#     4   9  18  34  62  93 125 161 205 257 323 393
#     4   9  18  33  57  89 125 166 202 245 315 393
#     4  10  23  44  66  87 121 168 229 285 326 366
#     4  11  21  37  61  88 128 166 219 256 321 379
#     4   9  19  35  59  95 133 165 199 251 320 403
#     4   9  19  37  61  91 118 162 217 266 322 377
#
# _framework density 22.670677999999999
#
# number of rings (size 3 to 8) (size 9 to 14) (size 15 to 20)
#    0.000    2.667    0.000    1.667    3.111    0.889 
#    8.000    5.556    0.000    0.000    0.000    0.000 
#    0.000    0.000    0.000    0.000    0.000    0.000 
#
# Total GULP energy -100306.194323 kJ/mol
# GULP energy per Si atom -5572.566351 kJ/mol
# Density = 2.261908 g / cm^3
# Si number density = 22.670678 Si / 1000 Ang^3
#
#
#
# Elastic Constant Matrix: (Units=GPa)
#
#
# Indices 1 2 3 4 5 6 
#
# 1 89.2503 18.7576 14.1256 0.0000 0.0000 0.0000
# 2 18.7576 125.3268 52.0852 0.0000 0.0000 0.0000
# 3 14.1256 52.0852 108.4474 0.0000 0.0000 0.0000
# 4 0.0000 0.0000 0.0000 31.9868 0.0000 0.0000
# 5 0.0000 0.0000 0.0000 0.0000 -20.6761 0.0000
# 6 0.0000 0.0000 0.0000 0.0000 0.0000 5.0864
#
#
#
# Elastic Compliance Matrix: (Units=1/GPa)
#
#
# Indices 1 2 3 4 5 6 
#
# 1 0.011630 -0.001388 -0.000848 0.000000 0.000000 0.000000
# 2 -0.001388 0.010135 -0.004687 0.000000 0.000000 0.000000
# 3 -0.000848 -0.004687 0.011582 0.000000 0.000000 0.000000
# 4 0.000000 0.000000 0.000000 0.031263 0.000000 0.000000
# 5 0.000000 0.000000 0.000000 0.000000 -0.048365 0.000000
# 6 0.000000 0.000000 0.000000 0.000000 0.000000 0.196604
#
#
# Mechanical properties :
#
#
# Convention : Reuss Voigt Hill
#
# Bulk Modulus (GPa) = 51.27825 54.77350 53.02587
# Shear Modulus (GPa) = 21.44123 19.14983 20.29553
#
# Velocity S-wave (km/s) = 3.07867 2.90952 2.99529
# Velocity P-wave (km/s) = 5.94184 5.95819 5.95002
#
# Compressibility (1/GPa) = 0.01950145
#
# Stress axis : x y z
#
# Youngs Moduli (GPa) = 85.98121 98.67124 86.33754
#
# Poissons Ratio (x) = 0.13698 0.07323
# Poissons Ratio (y) = 0.11936 0.40463
# Poissons Ratio (z) = 0.07293 0.46244
#
# Static dielectric constant tensor:
#      x y z
#    x 2.043750 0.000000 0.000000 
#    y 0.000000 1.773860 0.000000 
#    z 0.000000 0.000000 1.906070 
# 
# From -- ./inp_files/2449.got.cif
#   From: 2010.05.17/outbox.cif.g08.bks.cpg/sg35_2_cif.got.tgz:2449.got - 2010.06.03 17:29:28.
