data_PCOD9350967
_publ_section_title
;
Structure prediction by ZEFSAII (Michael W. Deem and Ramdas Pophale) SiO2 
 PCOD9350967
Probable space group: C M C 21
;
_chemical_formula_sum "Si O2"
_cell_formula_units_Z 40
_cell_length_a 18.657210
_cell_length_b 9.999778
_cell_length_c 9.066525
_cell_angle_alpha 90.000000
_cell_angle_beta 90.000000
_cell_angle_gamma 90.000000
_cell_volume 1691.523056
_symmetry_space_group_name_H-M "C M C 21"
_symmetry_group_IT_number 36
_symmetry_cell_setting 'orthorhombic'
loop_
_space_group_symop_operation_xyz
x,y,z
-x,-y,1/2+z
x,-y,1/2+z
-x,y,z
1/2+x,1/2+y,z
1/2-x,1/2-y,1/2+z
1/2+x,1/2-y,1/2+z
1/2-x,1/2+y,z
loop_
_atom_site_type_symbol
_atom_site_label
_atom_site_fract_x
_atom_site_fract_y
_atom_site_fract_z
Si Si1 0.352718 0.561239 0.504110
Si Si2 0.415277 0.739125 0.006757
Si Si3 0.213720 0.582697 0.039238
Si Si4 0.415798 0.807487 0.676222
Si Si5 0.189842 0.252573 0.253091
O O1 0.388763 0.415871 0.496566
O O2 0.268871 0.539134 0.545729
O O3 0.393498 0.661223 0.613430
O O4 0.349002 0.635838 0.347904
O O5 0.500000 0.742412 0.033165
O O6 0.369446 0.801051 0.138409
O O7 0.399844 0.808342 0.850255
O O8 0.131355 0.587081 0.085545
O O9 0.247823 0.685060 0.158206
O O10 0.216963 0.642177 0.873811
O O11 0.500000 0.827456 0.654725
#
# Coordination Sequence:
#
# PCOD9350967 Si02
#       5
#     8   8   8   8   8
#     4  10  20  34  55  85 117 150 187 233 286 339
#     4  10  19  32  52  82 119 151 183 231 287 337
#     4  10  20  36  55  80 116 153 190 232 284 339
#     4  10  21  37  59  88 118 148 187 236 287 339
#     4  10  21  33  52  81 114 152 193 234 279 338
#
# _framework density 23.647328000000002
#
# number of rings (size 3 to 8) (size 9 to 14) (size 15 to 20)
#    0.000    2.000    0.000    5.400    0.000    8.800 
#    0.000    2.000    0.000    1.200    0.000   32.200 
#    0.000    0.000    0.000    0.000    0.000    0.000 
#
# Total GULP energy -111966.176815 kJ/mol
# GULP energy per Si atom -5598.308841 kJ/mol
# Density = 2.359351 g / cm^3
# Si number density = 23.647328 Si / 1000 Ang^3
#
#
#
# Elastic Constant Matrix: (Units=GPa)
#
#
# Indices 1 2 3 4 5 6 
#
# 1 128.7578 1.8909 69.5054 0.0000 0.0000 0.0000
# 2 1.8909 63.8248 19.5862 0.0000 0.0000 0.0000
# 3 69.5054 19.5862 152.0461 0.0000 0.0000 0.0000
# 4 0.0000 0.0000 0.0000 9.5209 0.0000 0.0000
# 5 0.0000 0.0000 0.0000 0.0000 47.9708 0.0000
# 6 0.0000 0.0000 0.0000 0.0000 0.0000 32.9713
#
#
#
# Elastic Compliance Matrix: (Units=1/GPa)
#
#
# Indices 1 2 3 4 5 6 
#
# 1 0.010398 0.001198 -0.004908 0.000000 0.000000 0.000000
# 2 0.001198 0.016451 -0.002667 0.000000 0.000000 0.000000
# 3 -0.004908 -0.002667 0.009164 0.000000 0.000000 0.000000
# 4 0.000000 0.000000 0.000000 0.105032 0.000000 0.000000
# 5 0.000000 0.000000 0.000000 0.000000 0.020846 0.000000
# 6 0.000000 0.000000 0.000000 0.000000 0.000000 0.030329
#
#
# Mechanical properties :
#
#
# Convention : Reuss Voigt Hill
#
# Bulk Modulus (GPa) = 42.99241 58.51040 50.75140
# Shear Modulus (GPa) = 23.50434 35.00236 29.25335
#
# Velocity S-wave (km/s) = 3.15612 3.85149 3.52101
# Velocity P-wave (km/s) = 5.61263 6.67647 6.16753
#
# Compressibility (1/GPa) = 0.02325992
#
# Stress axis : x y z
#
# Youngs Moduli (GPa) = 96.17093 60.78745 109.12343
#
# Poissons Ratio (x) = -0.07282 0.53554
# Poissons Ratio (y) = -0.11521 0.29101
# Poissons Ratio (z) = 0.47197 0.16211
#
# Static dielectric constant tensor:
#      x y z
#    x 1.892350 0.000000 0.000000 
#    y 0.000000 1.923080 0.000000 
#    z 0.000000 0.000000 1.892600 
# 
# From -- ./inp_files/4512.got.cif
#   From: 2010.05.17/outbox.cif.g08.bks.cpg/sg36_3_cif.got.tgz:4512.got - 2010.06.03 17:41:39.
