data_PCOD9350102
_publ_section_title
;
Structure prediction by ZEFSAII (Michael W. Deem and Ramdas Pophale) SiO2 
 PCOD9350102
Probable space group: C M M 2
;
_chemical_formula_sum "Si O2"
_cell_formula_units_Z 24
_cell_length_a 9.206128
_cell_length_b 23.900076
_cell_length_c 4.637982
_cell_angle_alpha 90.000000
_cell_angle_beta 90.000000
_cell_angle_gamma 90.000000
_cell_volume 1020.482002
_symmetry_space_group_name_H-M "C M M 2"
_symmetry_group_IT_number 35
_symmetry_cell_setting 'orthorhombic'
loop_
_space_group_symop_operation_xyz
x,y,z
-x,-y,z
-x,y,z
x,-y,z
1/2+x,1/2+y,z
1/2-x,1/2-y,z
1/2-x,1/2+y,z
1/2+x,1/2-y,z
loop_
_atom_site_type_symbol
_atom_site_label
_atom_site_fract_x
_atom_site_fract_y
_atom_site_fract_z
Si Si1 0.264015 0.861812 0.522680
Si Si2 0.500000 0.788680 0.855855
Si Si3 0.500000 0.288811 0.374449
Si Si4 0.165493 0.564310 0.988547
O O1 0.362448 0.821136 0.722950
O O2 0.223753 0.909176 0.757873
O O3 0.143622 0.825754 0.355897
O O4 0.338229 0.897200 0.270143
O O5 0.500000 0.728492 0.708197
O O6 0.500000 0.768801 0.187867
O O7 0.198255 0.500000 0.057628
O O8 0.000000 0.565781 0.864509
#
# Coordination Sequence:
#
# PCOD9350102 Si02
#       4
#     8   4   4   8
#     4  12  24  45  69 103 139 182 231 293 352 410
#     4  12  24  46  67  98 135 192 238 282 343 416
#     4  12  28  44  67 102 143 182 232 294 345 422
#     4  11  22  42  72 104 135 180 236 290 347 420
#
# _framework density 23.518301000000001
#
# number of rings (size 3 to 8) (size 9 to 14) (size 15 to 20)
#    0.000    0.333    3.333    6.000    0.000    5.333 
#    0.000    5.000    0.000    0.000    0.000    0.000 
#    0.000    0.000    0.000    0.000    0.000    0.000 
#
# Total GULP energy -66982.504503 kJ/mol
# GULP energy per Si atom -5581.875375 kJ/mol
# Density = 2.346477 g / cm^3
# Si number density = 23.518301 Si / 1000 Ang^3
#
#
#
# Elastic Constant Matrix: (Units=GPa)
#
#
# Indices 1 2 3 4 5 6 
#
# 1 80.8932 60.9304 25.3964 0.0000 0.0000 0.0000
# 2 60.9304 149.1512 41.0201 0.0000 0.0000 0.0000
# 3 25.3964 41.0201 120.4892 0.0000 0.0000 0.0000
# 4 0.0000 0.0000 0.0000 47.8807 0.0000 0.0000
# 5 0.0000 0.0000 0.0000 0.0000 13.8567 0.0000
# 6 0.0000 0.0000 0.0000 0.0000 0.0000 -35.5878
#
#
#
# Elastic Compliance Matrix: (Units=1/GPa)
#
#
# Indices 1 2 3 4 5 6 
#
# 1 0.018077 -0.006991 -0.001430 0.000000 0.000000 0.000000
# 2 -0.006991 0.010101 -0.001965 0.000000 0.000000 0.000000
# 3 -0.001430 -0.001965 0.009270 0.000000 0.000000 0.000000
# 4 0.000000 0.000000 0.000000 0.020885 0.000000 0.000000
# 5 0.000000 0.000000 0.000000 0.000000 0.072167 0.000000
# 6 0.000000 0.000000 0.000000 0.000000 0.000000 -0.028100
#
#
# Mechanical properties :
#
#
# Convention : Reuss Voigt Hill
#
# Bulk Modulus (GPa) = 59.97094 67.24749 63.60922
# Shear Modulus (GPa) = 38.84005 20.10902 29.47453
#
# Velocity S-wave (km/s) = 4.06825 2.92727 3.54398
# Velocity P-wave (km/s) = 6.90091 6.33096 6.62207
#
# Compressibility (1/GPa) = 0.01667474
#
# Stress axis : x y z
#
# Youngs Moduli (GPa) = 55.31884 98.99812 107.87499
#
# Poissons Ratio (x) = 0.69214 0.15426
# Poissons Ratio (y) = 0.38676 0.21200
# Poissons Ratio (z) = 0.07911 0.19456
#
# Static dielectric constant tensor:
#      x y z
#    x 1.958320 0.000000 0.000000 
#    y 0.000000 1.919560 0.000000 
#    z 0.000000 0.000000 1.880400 
# 
# From -- ./inp_files/402.got.cif
#   From: 2010.05.17/outbox.cif.g08.bks.cpg/sg35_1_cif.got.tgz:402.got - 2010.06.03 17:29:28.
