data_PCOD9350684
_publ_section_title
;
Structure prediction by ZEFSAII (Michael W. Deem and Ramdas Pophale) SiO2 
 PCOD9350684
Probable space group: C M C 21
;
_chemical_formula_sum "Si O2"
_cell_formula_units_Z 64
_cell_length_a 9.904767
_cell_length_b 18.040102
_cell_length_c 16.373927
_cell_angle_alpha 90.000000
_cell_angle_beta 90.000000
_cell_angle_gamma 90.000000
_cell_volume 2925.742512
_symmetry_space_group_name_H-M "C M C 21"
_symmetry_group_IT_number 36
_symmetry_cell_setting 'orthorhombic'
loop_
_space_group_symop_operation_xyz
x,y,z
-x,-y,1/2+z
x,-y,1/2+z
-x,y,z
1/2+x,1/2+y,z
1/2-x,1/2-y,1/2+z
1/2+x,1/2-y,1/2+z
1/2-x,1/2+y,z
loop_
_atom_site_type_symbol
_atom_site_label
_atom_site_fract_x
_atom_site_fract_y
_atom_site_fract_z
Si Si1 0.147488 0.606235 0.669660
Si Si2 0.358123 0.444553 0.277772
Si Si3 0.651748 0.591917 0.179470
Si Si4 0.845659 0.214606 0.591371
Si Si5 0.650550 0.459152 0.941328
Si Si6 0.150578 0.463547 0.562033
Si Si7 0.158225 0.299215 0.765135
Si Si8 0.155584 0.781861 0.910540
O O1 0.229244 0.602813 0.753976
O O2 0.238454 0.650110 0.605536
O O3 0.131996 0.523744 0.634182
O O4 0.000000 0.640144 0.678423
O O5 0.500000 0.400928 0.276927
O O6 0.366139 0.507094 0.207466
O O7 0.350149 0.491518 0.359664
O O8 0.500000 0.624249 0.174634
O O9 0.739089 0.593546 0.096837
O O10 0.746928 0.630034 0.246555
O O11 0.837008 0.259249 0.676512
O O12 0.820608 0.250082 0.502098
O O13 0.000000 0.186597 0.586470
O O14 0.500000 0.470088 0.980104
O O15 0.662932 0.371669 0.923405
O O16 0.775598 0.491044 0.991489
O O17 0.000000 0.434188 0.542911
O O18 0.233839 0.261724 0.842153
O O19 0.000000 0.314792 0.782447
O O20 0.000000 0.765176 0.885754
#
# Coordination Sequence:
#
# PCOD9350684 Si02
#       8
#     8   8   8   8   8   8   8   8
#     4  10  20  33  52  81 111 143 182 226 284 338
#     4   9  18  32  52  78 109 142 181 225 277 338
#     4  10  19  35  56  79 108 150 191 226 277 343
#     4  10  22  40  61  83 114 157 198 240 292 349
#     4  10  18  32  55  83 110 146 193 234 280 348
#     4  10  20  32  50  82 117 144 176 230 291 337
#     4  11  23  38  59  88 118 150 193 249 303 343
#     4  10  20  38  61  84 111 150 200 242 286 354
#
# _framework density 21.874789
#
# number of rings (size 3 to 8) (size 9 to 14) (size 15 to 20)
#    0.000    2.000    2.500    1.500    0.000    4.000 
#    0.000    1.250    0.000    3.000    0.000    0.000 
#    0.000    0.000    0.000    0.000    0.000    0.000 
#
# Total GULP energy -178295.711380 kJ/mol
# GULP energy per Si atom -5571.740981 kJ/mol
# Density = 2.182500 g / cm^3
# Si number density = 21.874789 Si / 1000 Ang^3
#
#
#
# Elastic Constant Matrix: (Units=GPa)
#
#
# Indices 1 2 3 4 5 6 
#
# 1 192.8775 24.0137 74.3346 0.0000 0.0000 0.0000
# 2 24.0137 14.4214 12.8037 0.0000 0.0000 0.0000
# 3 74.3346 12.8037 94.3740 0.0000 0.0000 0.0000
# 4 0.0000 0.0000 0.0000 28.7431 0.0000 0.0000
# 5 0.0000 0.0000 0.0000 0.0000 21.7587 0.0000
# 6 0.0000 0.0000 0.0000 0.0000 0.0000 14.1605
#
#
#
# Elastic Compliance Matrix: (Units=1/GPa)
#
#
# Indices 1 2 3 4 5 6 
#
# 1 0.008401 -0.009225 -0.005366 0.000000 0.000000 0.000000
# 2 -0.009225 0.088968 -0.004804 0.000000 0.000000 0.000000
# 3 -0.005366 -0.004804 0.015474 0.000000 0.000000 0.000000
# 4 0.000000 0.000000 0.000000 0.034791 0.000000 0.000000
# 5 0.000000 0.000000 0.000000 0.000000 0.045959 0.000000
# 6 0.000000 0.000000 0.000000 0.000000 0.000000 0.070619
#
#
# Mechanical properties :
#
#
# Convention : Reuss Voigt Hill
#
# Bulk Modulus (GPa) = 13.50372 58.21964 35.86168
# Shear Modulus (GPa) = 15.25852 25.63384 20.44618
#
# Velocity S-wave (km/s) = 2.64396 3.42693 3.06059
# Velocity P-wave (km/s) = 3.93793 6.50625 5.37766
#
# Compressibility (1/GPa) = 0.07405368
#
# Stress axis : x y z
#
# Youngs Moduli (GPa) = 119.03187 11.24000 64.62382
#
# Poissons Ratio (x) = 0.10369 0.34675
# Poissons Ratio (y) = 1.09811 0.31044
# Poissons Ratio (z) = 0.63868 0.05400
#
# Static dielectric constant tensor:
#      x y z
#    x 1.877510 0.000000 0.000000 
#    y 0.000000 1.855560 0.000000 
#    z 0.000000 0.000000 1.827660 
# 
# From -- ./inp_files/13766.got.cif
#   From: 2010.05.17/outbox.cif.g08.bks.cpg/sg36_7_cif.got.tgz:13766.got - 2010.06.03 17:41:39.
