data_PCOD9350269
_publ_section_title
;
Structure prediction by ZEFSAII (Michael W. Deem and Ramdas Pophale) SiO2 
 PCOD9350269
Probable space group: C M M 2
;
_chemical_formula_sum "Si O2"
_cell_formula_units_Z 64
_cell_length_a 24.243281
_cell_length_b 14.469177
_cell_length_c 10.345148
_cell_angle_alpha 90.000000
_cell_angle_beta 90.000000
_cell_angle_gamma 90.000000
_cell_volume 3628.874366
_symmetry_space_group_name_H-M "C M M 2"
_symmetry_group_IT_number 35
_symmetry_cell_setting 'orthorhombic'
loop_
_space_group_symop_operation_xyz
x,y,z
-x,-y,z
-x,y,z
x,-y,z
1/2+x,1/2+y,z
1/2-x,1/2-y,z
1/2-x,1/2+y,z
1/2+x,1/2-y,z
loop_
_atom_site_type_symbol
_atom_site_label
_atom_site_fract_x
_atom_site_fract_y
_atom_site_fract_z
Si Si1 0.645795 0.605530 0.004620
Si Si2 0.881190 0.697117 0.610755
Si Si3 0.379276 0.796230 0.107095
Si Si4 0.769523 0.646719 0.730775
Si Si5 0.434199 0.892578 0.860713
Si Si6 0.647044 0.602680 0.695063
Si Si7 0.277375 0.897898 0.021319
Si Si8 0.933673 0.610232 0.355208
O O1 0.629386 0.500000 0.035247
O O2 0.616358 0.686689 0.082875
O O3 0.711579 0.613507 0.029986
O O4 0.638032 0.618742 0.849594
O O5 0.819597 0.655734 0.631740
O O6 0.914614 0.662833 0.735544
O O7 0.875848 0.808674 0.618978
O O8 0.909548 0.655992 0.484786
O O9 0.314909 0.824340 0.093831
O O10 0.406130 0.836339 0.235642
O O11 0.407852 0.847910 0.987151
O O12 0.750000 0.750000 0.765511
O O13 0.713638 0.601180 0.680115
O O14 0.788962 0.605733 0.867067
O O15 0.500000 0.888640 0.871135
O O16 0.417997 0.000000 0.848793
O O17 0.625639 0.500000 0.662251
O O18 0.292145 0.000000 0.069837
O O19 0.921446 0.500000 0.350711
O O20 0.000000 0.619830 0.351356
#
# Coordination Sequence:
#
# PCOD9350269 Si02
#       8
#     8   8   8   8   8   8   8   8
#     4   9  18  33  56  88 122 149 176 220 277 333
#     4  11  20  36  58  81 110 150 190 227 276 333
#     4  12  20  36  58  81 110 148 189 227 276 334
#     4   9  16  28  50  84 118 147 179 220 272 332
#     4  11  22  34  54  82 104 129 182 247 287 321
#     4   9  17  32  56  89 123 149 177 221 277 332
#     4  10  17  27  51  87 120 146 177 221 274 333
#     4  11  26  44  58  76 109 150 187 232 293 341
#
# _framework density 17.636322
#
# number of rings (size 3 to 8) (size 9 to 14) (size 15 to 20)
#    0.000    1.750    2.500    5.250    0.000    3.500 
#    0.000    4.375    0.000    6.000    0.000    0.000 
#    0.000    0.000    0.000    0.000    0.000    0.000 
#
# Total GULP energy -178543.810084 kJ/mol
# GULP energy per Si atom -5579.494065 kJ/mol
# Density = 1.759618 g / cm^3
# Si number density = 17.636322 Si / 1000 Ang^3
#
#
#
# Elastic Constant Matrix: (Units=GPa)
#
#
# Indices 1 2 3 4 5 6 
#
# 1 44.9305 35.4931 26.8777 0.0000 0.0000 0.0000
# 2 35.4931 146.9437 42.8275 0.0000 0.0000 0.0000
# 3 26.8777 42.8275 92.2007 0.0000 0.0000 0.0000
# 4 0.0000 0.0000 0.0000 35.8366 0.0000 0.0000
# 5 0.0000 0.0000 0.0000 0.0000 6.8131 0.0000
# 6 0.0000 0.0000 0.0000 0.0000 0.0000 18.0812
#
#
#
# Elastic Compliance Matrix: (Units=1/GPa)
#
#
# Indices 1 2 3 4 5 6 
#
# 1 0.030369 -0.005500 -0.006298 0.000000 0.000000 0.000000
# 2 -0.005500 0.008867 -0.002515 0.000000 0.000000 0.000000
# 3 -0.006298 -0.002515 0.013850 0.000000 0.000000 0.000000
# 4 0.000000 0.000000 0.000000 0.027904 0.000000 0.000000
# 5 0.000000 0.000000 0.000000 0.000000 0.146776 0.000000
# 6 0.000000 0.000000 0.000000 0.000000 0.000000 0.055306
#
#
# Mechanical properties :
#
#
# Convention : Reuss Voigt Hill
#
# Bulk Modulus (GPa) = 40.88443 54.94125 47.91284
# Shear Modulus (GPa) = 15.63221 24.07130 19.85176
#
# Velocity S-wave (km/s) = 2.98042 3.69842 3.35866
# Velocity P-wave (km/s) = 5.92251 7.03262 6.50130
#
# Compressibility (1/GPa) = 0.02445919
#
# Stress axis : x y z
#
# Youngs Moduli (GPa) = 32.92862 112.77933 72.20024
#
# Poissons Ratio (x) = 0.62025 0.45474
# Poissons Ratio (y) = 0.18110 0.18162
# Poissons Ratio (z) = 0.20739 0.28369
#
# Static dielectric constant tensor:
#      x y z
#    x 1.618230 0.000000 0.000000 
#    y 0.000000 1.611980 0.000000 
#    z 0.000000 0.000000 1.563790 
# 
# From -- ./inp_files/9911.got.cif
#   From: 2010.05.17/outbox.cif.g08.bks.cpg/sg35_5_cif.got.tgz:9911.got - 2010.06.03 17:29:28.
