data_PCOD9350378
_publ_section_title
;
Structure prediction by ZEFSAII (Michael W. Deem and Ramdas Pophale) SiO2 
 PCOD9350378
Probable space group: C M M 2
;
_chemical_formula_sum "Si O2"
_cell_formula_units_Z 56
_cell_length_a 8.671428
_cell_length_b 18.674361
_cell_length_c 19.259173
_cell_angle_alpha 90.000000
_cell_angle_beta 90.000000
_cell_angle_gamma 90.000000
_cell_volume 3118.702919
_symmetry_space_group_name_H-M "C M M 2"
_symmetry_group_IT_number 35
_symmetry_cell_setting 'orthorhombic'
loop_
_space_group_symop_operation_xyz
x,y,z
-x,-y,z
-x,y,z
x,-y,z
1/2+x,1/2+y,z
1/2-x,1/2-y,z
1/2-x,1/2+y,z
1/2+x,1/2-y,z
loop_
_atom_site_type_symbol
_atom_site_label
_atom_site_fract_x
_atom_site_fract_y
_atom_site_fract_z
Si Si1 0.685767 0.330505 0.779770
Si Si2 0.814233 0.169495 0.067099
Si Si3 0.315574 0.831430 0.923434
Si Si4 0.814554 0.917351 0.643385
Si Si5 0.815735 0.414209 0.348008
Si Si6 0.814554 0.082649 0.203483
Si Si7 0.684269 0.914211 0.498860
O O1 0.500000 0.328524 0.784314
O O2 0.750000 0.250000 0.773611
O O3 0.752274 0.362939 0.851388
O O4 0.733230 0.373975 0.711408
O O5 0.750000 0.250000 0.073258
O O6 0.766768 0.126026 0.135461
O O7 0.000000 0.171476 0.062556
O O8 0.747726 0.137061 0.995480
O O9 0.500000 0.829826 0.923434
O O10 0.250000 0.750000 0.923434
O O11 0.756287 0.886300 0.570063
O O12 0.000000 0.917643 0.641586
O O13 0.761517 0.000000 0.649035
O O14 0.784628 0.500000 0.348475
O O15 0.743703 0.386302 0.276807
O O16 0.761259 0.386262 0.423435
O O17 0.000000 0.405355 0.345115
O O18 0.000000 0.082354 0.205279
O O19 0.761513 0.000000 0.197834
O O20 0.500000 0.905367 0.501750
O O21 0.715400 0.000000 0.498396
#
# Coordination Sequence:
#
# PCOD9350378 Si02
#       7
#     8   8   8   8   8   8   8
#     4  10  19  32  50  70  93 120 152 189 227 270
#     4  10  19  32  50  70  93 120 152 189 227 270
#     4  10  18  30  49  70  91 117 153 191 225 266
#     4   9  18  31  47  69  95 122 152 187 228 271
#     4   8  14  25  42  65  92 121 152 186 225 268
#     4   9  18  31  47  69  95 122 152 187 228 271
#     4   8  14  25  42  65  92 121 152 186 225 268
#
# _framework density 17.956181999999998
#
# number of rings (size 3 to 8) (size 9 to 14) (size 15 to 20)
#    0.000    2.857    0.000    4.714    0.000    2.857 
#    0.000    3.571    0.000    5.143    0.000    0.000 
#    0.000    0.000    0.000    0.000    0.000    0.000 
#
# Total GULP energy -155916.093210 kJ/mol
# GULP energy per Si atom -5568.431900 kJ/mol
# Density = 1.791531 g / cm^3
# Si number density = 17.956182 Si / 1000 Ang^3
#
#
#
# Elastic Constant Matrix: (Units=GPa)
#
#
# Indices 1 2 3 4 5 6 
#
# 1 46.1761 11.3239 50.6389 0.0000 0.0000 0.0000
# 2 11.3239 22.2374 47.7481 0.0000 0.0000 0.0000
# 3 50.6389 47.7481 242.4041 0.0000 0.0000 0.0000
# 4 0.0000 0.0000 0.0000 48.4017 0.0000 0.0000
# 5 0.0000 0.0000 0.0000 0.0000 36.0769 0.0000
# 6 0.0000 0.0000 0.0000 0.0000 0.0000 13.5041
#
#
#
# Elastic Compliance Matrix: (Units=1/GPa)
#
#
# Indices 1 2 3 4 5 6 
#
# 1 0.028204 -0.002965 -0.005308 0.000000 0.000000 0.000000
# 2 -0.002965 0.078241 -0.014792 0.000000 0.000000 0.000000
# 3 -0.005308 -0.014792 0.008148 0.000000 0.000000 0.000000
# 4 0.000000 0.000000 0.000000 0.020660 0.000000 0.000000
# 5 0.000000 0.000000 0.000000 0.000000 0.027719 0.000000
# 6 0.000000 0.000000 0.000000 0.000000 0.000000 0.074052
#
#
# Mechanical properties :
#
#
# Convention : Reuss Voigt Hill
#
# Bulk Modulus (GPa) = 14.60656 58.91549 36.76103
# Shear Modulus (GPa) = 16.34116 33.00365 24.67241
#
# Velocity S-wave (km/s) = 3.01999 4.29185 3.71082
# Velocity P-wave (km/s) = 4.50696 7.57905 6.23517
#
# Compressibility (1/GPa) = 0.06846239
#
# Stress axis : x y z
#
# Youngs Moduli (GPa) = 35.45569 12.78097 122.73092
#
# Poissons Ratio (x) = 0.03790 0.65143
# Poissons Ratio (y) = 0.10514 1.81547
# Poissons Ratio (z) = 0.18819 0.18906
#
# Static dielectric constant tensor:
#      x y z
#    x 1.607520 0.000000 0.000000 
#    y 0.000000 1.609970 0.000000 
#    z 0.000000 0.000000 1.679470 
# 
# From -- ./inp_files/18272.got.cif
#   From: 2010.05.17/outbox.cif.g08.bks.cpg/sg35_10_cif.got.tgz:18272.got - 2010.06.03 17:29:28.
