data_PCOD9350654
_publ_section_title
;
Structure prediction by ZEFSAII (Michael W. Deem and Ramdas Pophale) SiO2 
 PCOD9350654
Probable space group: C M C 21
;
_chemical_formula_sum "Si O2"
_cell_formula_units_Z 64
_cell_length_a 15.385233
_cell_length_b 9.875808
_cell_length_c 17.365636
_cell_angle_alpha 90.000000
_cell_angle_beta 90.000000
_cell_angle_gamma 90.000000
_cell_volume 2638.562643
_symmetry_space_group_name_H-M "C M C 21"
_symmetry_group_IT_number 36
_symmetry_cell_setting 'orthorhombic'
loop_
_space_group_symop_operation_xyz
x,y,z
-x,-y,1/2+z
x,-y,1/2+z
-x,y,z
1/2+x,1/2+y,z
1/2-x,1/2-y,1/2+z
1/2+x,1/2-y,1/2+z
1/2-x,1/2+y,z
loop_
_atom_site_type_symbol
_atom_site_label
_atom_site_fract_x
_atom_site_fract_y
_atom_site_fract_z
Si Si1 0.598359 0.810797 0.829120
Si Si2 0.205965 0.084820 0.106710
Si Si3 0.906396 0.476103 0.605321
Si Si4 0.403293 0.585998 0.340655
Si Si5 0.404115 0.058180 0.932746
Si Si6 0.646975 0.811632 0.227762
Si Si7 0.837618 0.123578 0.719228
Si Si8 0.792946 0.888519 0.433415
O O1 0.500000 0.765132 0.841255
O O2 0.600621 0.963601 0.857430
O O3 0.626085 0.770188 0.742946
O O4 0.661731 0.727120 0.883883
O O5 0.173483 0.193108 0.167968
O O6 0.310658 0.087952 0.109251
O O7 0.171428 0.937192 0.134308
O O8 0.176727 0.116882 0.021292
O O9 0.905206 0.524766 0.514761
O O10 0.905733 0.585848 0.674071
O O11 0.000000 0.401622 0.611609
O O12 0.500000 0.573796 0.374119
O O13 0.391701 0.732523 0.300696
O O14 0.394307 0.480024 0.269552
O O15 0.328253 0.531157 0.397709
O O16 0.500000 0.125983 0.932227
O O17 0.310967 0.129557 0.934532
O O18 0.738271 0.881576 0.249337
#
# Coordination Sequence:
#
# PCOD9350654 Si02
#       8
#     8   8   8   8   8   8   8   8
#     4  10  19  33  52  75  99 131 170 206 244 294
#     4   9  19  31  48  75 101 129 163 201 250 299
#     4   9  17  31  49  73 100 127 164 210 245 286
#     4  10  20  34  52  77 103 133 170 209 250 297
#     4   9  18  31  51  75  99 130 172 209 244 290
#     4  10  18  32  53  73  98 133 168 202 249 301
#     4   9  18  32  49  71 100 127 160 205 248 290
#     4  10  18  32  52  73 102 134 164 206 251 293
#
# _framework density 24.255631000000001
#
# number of rings (size 3 to 8) (size 9 to 14) (size 15 to 20)
#    0.000    2.500    0.000    3.375    0.000    0.000 
#    0.000    8.125    0.000   29.250    0.000   15.750 
#    0.000    0.000    0.000    0.000    0.000    0.000 
#
# Total GULP energy -178556.094752 kJ/mol
# GULP energy per Si atom -5579.877961 kJ/mol
# Density = 2.420042 g / cm^3
# Si number density = 24.255631 Si / 1000 Ang^3
#
#
#
# Elastic Constant Matrix: (Units=GPa)
#
#
# Indices 1 2 3 4 5 6 
#
# 1 133.7600 11.1885 25.6600 0.0000 0.0000 0.0000
# 2 11.1885 49.6249 17.9263 0.0000 0.0000 0.0000
# 3 25.6600 17.9263 98.9668 0.0000 0.0000 0.0000
# 4 0.0000 0.0000 0.0000 32.5591 0.0000 0.0000
# 5 0.0000 0.0000 0.0000 0.0000 26.9169 0.0000
# 6 0.0000 0.0000 0.0000 0.0000 0.0000 23.2042
#
#
#
# Elastic Compliance Matrix: (Units=1/GPa)
#
#
# Indices 1 2 3 4 5 6 
#
# 1 0.007925 -0.001118 -0.001852 0.000000 0.000000 0.000000
# 2 -0.001118 0.021720 -0.003644 0.000000 0.000000 0.000000
# 3 -0.001852 -0.003644 0.011245 0.000000 0.000000 0.000000
# 4 0.000000 0.000000 0.000000 0.030713 0.000000 0.000000
# 5 0.000000 0.000000 0.000000 0.000000 0.037151 0.000000
# 6 0.000000 0.000000 0.000000 0.000000 0.000000 0.043096
#
#
# Mechanical properties :
#
#
# Convention : Reuss Voigt Hill
#
# Bulk Modulus (GPa) = 36.15245 43.54458 39.84851
# Shear Modulus (GPa) = 28.68639 31.70783 30.19711
#
# Velocity S-wave (km/s) = 3.44273 3.61949 3.53222
# Velocity P-wave (km/s) = 5.54439 5.95474 5.75323
#
# Compressibility (1/GPa) = 0.02766064
#
# Stress axis : x y z
#
# Youngs Moduli (GPa) = 126.18446 46.04126 88.93008
#
# Poissons Ratio (x) = 0.05146 0.16473
# Poissons Ratio (y) = 0.14103 0.32410
# Poissons Ratio (z) = 0.23373 0.16779
#
# Static dielectric constant tensor:
#      x y z
#    x 1.895610 0.000000 0.000000 
#    y 0.000000 2.057380 0.000000 
#    z 0.000000 0.000000 1.941000 
# 
# From -- ./inp_files/14702.got.cif
#   From: 2010.05.17/outbox.cif.g08.bks.cpg/sg36_8_cif.got.tgz:14702.got - 2010.06.03 17:41:39.
