data_PCOD9350397
_publ_section_title
;
Structure prediction by ZEFSAII (Michael W. Deem and Ramdas Pophale) SiO2 
 PCOD9350397
Probable space group: C M M 2
;
_chemical_formula_sum "Si O2"
_cell_formula_units_Z 64
_cell_length_a 15.127385
_cell_length_b 16.432854
_cell_length_c 12.503340
_cell_angle_alpha 90.000000
_cell_angle_beta 90.000000
_cell_angle_gamma 90.000000
_cell_volume 3108.156641
_symmetry_space_group_name_H-M "C M M 2"
_symmetry_group_IT_number 35
_symmetry_cell_setting 'orthorhombic'
loop_
_space_group_symop_operation_xyz
x,y,z
-x,-y,z
-x,y,z
x,-y,z
1/2+x,1/2+y,z
1/2-x,1/2-y,z
1/2-x,1/2+y,z
1/2+x,1/2-y,z
loop_
_atom_site_type_symbol
_atom_site_label
_atom_site_fract_x
_atom_site_fract_y
_atom_site_fract_z
Si Si1 0.402892 0.142018 0.734520
Si Si2 0.096529 0.174899 0.808448
Si Si3 0.369921 0.407156 0.580884
Si Si4 0.305406 0.165685 0.525531
Si Si5 0.904953 0.901035 0.340633
Si Si6 0.398605 0.099015 0.084431
Si Si7 0.705926 0.901203 0.298748
Si Si8 0.766713 0.407418 0.898158
O O1 0.500000 0.105394 0.748253
O O2 0.400139 0.228680 0.794302
O O3 0.383026 0.161823 0.611052
O O4 0.325185 0.092699 0.790427
O O5 0.104896 0.139908 0.687580
O O6 0.178873 0.143386 0.876090
O O7 0.000000 0.150756 0.851053
O O8 0.398216 0.500000 0.592806
O O9 0.265045 0.401487 0.564387
O O10 0.403291 0.375277 0.465828
O O11 0.250000 0.250000 0.532472
O O12 0.328900 0.143569 0.404766
O O13 0.810502 0.877700 0.289861
O O14 0.000000 0.874754 0.293962
O O15 0.904419 0.000000 0.341104
O O16 0.500000 0.128045 0.073745
O O17 0.352627 0.120354 0.196569
O O18 0.402094 0.000000 0.079422
O O19 0.332300 0.124351 0.990128
O O20 0.702428 0.000000 0.312522
O O21 0.741092 0.500000 0.924903
#
# Coordination Sequence:
#
# PCOD9350397 Si02
#       8
#     8   8   8   8   8   8   8   8
#     4  11  23  38  56  82 118 160 194 230 289 350
#     4  11  22  36  55  82 117 156 191 228 284 351
#     4  10  18  30  51  77 109 149 189 227 271 332
#     4  11  19  34  53  79 119 153 187 231 286 337
#     4   8  14  25  44  73 105 137 174 214 262 323
#     4   9  19  38  61  82 105 140 189 242 296 348
#     4   9  19  34  55  80 107 143 188 236 287 342
#     4  11  22  38  61  86 113 145 193 251 294 341
#
# _framework density 20.590982
#
# number of rings (size 3 to 8) (size 9 to 14) (size 15 to 20)
#    0.000    2.000    2.500    2.625    0.000    3.250 
#    0.000    1.875    0.000    2.250    0.000    0.000 
#    0.000    0.000    0.000    0.000    0.000    0.000 
#
# Total GULP energy -178522.204267 kJ/mol
# GULP energy per Si atom -5578.818883 kJ/mol
# Density = 2.054412 g / cm^3
# Si number density = 20.590982 Si / 1000 Ang^3
#
#
#
# Elastic Constant Matrix: (Units=GPa)
#
#
# Indices 1 2 3 4 5 6 
#
# 1 165.2948 16.3901 65.1952 0.0000 0.0000 0.0000
# 2 16.3901 34.8243 9.4649 0.0000 0.0000 0.0000
# 3 65.1952 9.4649 101.8828 0.0000 0.0000 0.0000
# 4 0.0000 0.0000 0.0000 15.9114 0.0000 0.0000
# 5 0.0000 0.0000 0.0000 0.0000 12.6271 0.0000
# 6 0.0000 0.0000 0.0000 0.0000 0.0000 -2.8166
#
#
#
# Elastic Compliance Matrix: (Units=1/GPa)
#
#
# Indices 1 2 3 4 5 6 
#
# 1 0.008304 -0.002528 -0.005079 0.000000 0.000000 0.000000
# 2 -0.002528 0.030229 -0.001191 0.000000 0.000000 0.000000
# 3 -0.005079 -0.001191 0.013176 0.000000 0.000000 0.000000
# 4 0.000000 0.000000 0.000000 0.062848 0.000000 0.000000
# 5 0.000000 0.000000 0.000000 0.000000 0.079195 0.000000
# 6 0.000000 0.000000 0.000000 0.000000 0.000000 -0.355035
#
#
# Mechanical properties :
#
#
# Convention : Reuss Voigt Hill
#
# Bulk Modulus (GPa) = 29.31362 53.78913 41.55137
# Shear Modulus (GPa) = -37.78761 19.20782 -9.28989
#
# Velocity S-wave (km/s) = -4.28852 3.05754 -2.12636
# Velocity P-wave (km/s) = 3.20231 6.21644 3.76758
#
# Compressibility (1/GPa) = 0.03411383
#
# Stress axis : x y z
#
# Youngs Moduli (GPa) = 120.43046 33.08094 75.89749
#
# Poissons Ratio (x) = 0.08362 0.38546
# Poissons Ratio (y) = 0.30442 0.09037
# Poissons Ratio (z) = 0.61162 0.03939
#
# Static dielectric constant tensor:
#      x y z
#    x 1.774310 0.000000 0.000000 
#    y 0.000000 1.753670 0.000000 
#    z 0.000000 0.000000 1.736050 
# 
# From -- ./inp_files/13176.got.cif
#   From: 2010.05.17/outbox.cif.g08.bks.cpg/sg35_7_cif.got.tgz:13176.got - 2010.06.03 17:29:28.
