data_PCOD9350365
_publ_section_title
;
Structure prediction by ZEFSAII (Michael W. Deem and Ramdas Pophale) SiO2 
 PCOD9350365
Probable space group: C M M 2
;
_chemical_formula_sum "Si O2"
_cell_formula_units_Z 64
_cell_length_a 29.519196
_cell_length_b 8.534358
_cell_length_c 16.029483
_cell_angle_alpha 90.000000
_cell_angle_beta 90.000000
_cell_angle_gamma 90.000000
_cell_volume 4038.265760
_symmetry_space_group_name_H-M "C M M 2"
_symmetry_group_IT_number 35
_symmetry_cell_setting 'orthorhombic'
loop_
_space_group_symop_operation_xyz
x,y,z
-x,-y,z
-x,y,z
x,-y,z
1/2+x,1/2+y,z
1/2-x,1/2-y,z
1/2-x,1/2+y,z
1/2+x,1/2-y,z
loop_
_atom_site_type_symbol
_atom_site_label
_atom_site_fract_x
_atom_site_fract_y
_atom_site_fract_z
Si Si1 0.298620 0.185898 0.925090
Si Si2 0.054923 0.180736 0.319563
Si Si3 0.889633 0.813052 0.990800
Si Si4 0.552024 0.308894 0.830255
Si Si5 0.606627 0.691261 0.665421
Si Si6 0.552541 0.691644 0.503033
Si Si7 0.052731 0.314174 0.142259
Si Si8 0.201043 0.812185 0.737258
O O1 0.250000 0.250000 0.954077
O O2 0.340382 0.236987 0.982118
O O3 0.306517 0.255781 0.832340
O O4 0.296233 0.000000 0.918149
O O5 0.068835 0.241713 0.410895
O O6 0.067324 0.274233 0.236749
O O7 0.000000 0.180230 0.323419
O O8 0.069584 0.000000 0.310097
O O9 0.919714 0.759540 0.911317
O O10 0.884706 0.000000 0.985256
O O11 0.916057 0.768238 0.074327
O O12 0.500000 0.256375 0.833695
O O13 0.551661 0.500000 0.830292
O O14 0.576734 0.259623 0.745203
O O15 0.606093 0.500000 0.664632
O O16 0.583738 0.743573 0.579441
O O17 0.658348 0.739797 0.681936
O O18 0.500000 0.738680 0.516006
O O19 0.552509 0.500000 0.501372
O O20 0.054310 0.500000 0.129553
O O21 0.000000 0.262638 0.132735
O O22 0.250000 0.750000 0.709961
O O23 0.202186 0.000000 0.738344
#
# Coordination Sequence:
#
# PCOD9350365 Si02
#       8
#     8   8   8   8   8   8   8   8
#     4  11  21  34  51  69  91 121 157 199 243 282
#     4   8  14  26  44  66  90 117 152 194 237 278
#     4  11  20  32  48  70  96 124 160 196 234 282
#     4   9  16  25  39  62  93 125 155 186 221 265
#     4   9  15  24  40  65  94 120 152 191 233 276
#     4   8  13  22  40  67  95 119 147 189 236 278
#     4  10  20  32  46  67  96 129 162 196 237 283
#     4  10  18  30  46  66  90 120 157 199 239 279
#
# _framework density 15.848388
#
# number of rings (size 3 to 8) (size 9 to 14) (size 15 to 20)
#    0.000    2.500    1.250    4.500    0.000    2.750 
#    0.000    0.000    0.000    1.500    0.000    0.875 
#    0.000    4.000    0.000    0.000    0.000    0.000 
#
# Total GULP energy -178390.579169 kJ/mol
# GULP energy per Si atom -5574.705599 kJ/mol
# Density = 1.581232 g / cm^3
# Si number density = 15.848388 Si / 1000 Ang^3
#
#
#
# Elastic Constant Matrix: (Units=GPa)
#
#
# Indices 1 2 3 4 5 6 
#
# 1 112.6544 22.7484 58.4688 0.0000 0.0000 0.0000
# 2 22.7484 34.9012 15.0462 0.0000 0.0000 0.0000
# 3 58.4688 15.0462 107.6335 0.0000 0.0000 0.0000
# 4 0.0000 0.0000 0.0000 8.2912 0.0000 0.0000
# 5 0.0000 0.0000 0.0000 0.0000 12.6009 0.0000
# 6 0.0000 0.0000 0.0000 0.0000 0.0000 12.9093
#
#
#
# Elastic Compliance Matrix: (Units=1/GPa)
#
#
# Indices 1 2 3 4 5 6 
#
# 1 0.013438 -0.005972 -0.006465 0.000000 0.000000 0.000000
# 2 -0.005972 0.033144 -0.001389 0.000000 0.000000 0.000000
# 3 -0.006465 -0.001389 0.012997 0.000000 0.000000 0.000000
# 4 0.000000 0.000000 0.000000 0.120610 0.000000 0.000000
# 5 0.000000 0.000000 0.000000 0.000000 0.079359 0.000000
# 6 0.000000 0.000000 0.000000 0.000000 0.000000 0.077463
#
#
# Mechanical properties :
#
#
# Convention : Reuss Voigt Hill
#
# Bulk Modulus (GPa) = 31.32181 49.74621 40.53401
# Shear Modulus (GPa) = 13.32248 17.35533 15.33890
#
# Velocity S-wave (km/s) = 2.90249 3.31280 3.11441
# Velocity P-wave (km/s) = 5.57126 6.78895 6.21002
#
# Compressibility (1/GPa) = 0.03192664
#
# Stress axis : x y z
#
# Youngs Moduli (GPa) = 74.41599 30.17179 76.94132
#
# Poissons Ratio (x) = 0.18018 0.49743
# Poissons Ratio (y) = 0.44439 0.10689
# Poissons Ratio (z) = 0.48110 0.04192
#
# Static dielectric constant tensor:
#      x y z
#    x 1.522780 0.000000 0.000000 
#    y 0.000000 1.541490 0.000000 
#    z 0.000000 0.000000 1.526140 
# 
# From -- ./inp_files/17729.got.cif
#   From: 2010.05.17/outbox.cif.g08.bks.cpg/sg35_9_cif.got.tgz:17729.got - 2010.06.03 17:29:28.
