data_PCOD9350881
_publ_section_title
;
Structure prediction by ZEFSAII (Michael W. Deem and Ramdas Pophale) SiO2 
 PCOD9350881
Probable space group: C M C 21
;
_chemical_formula_sum "Si O2"
_cell_formula_units_Z 64
_cell_length_a 7.575964
_cell_length_b 21.719795
_cell_length_c 18.961800
_cell_angle_alpha 90.000000
_cell_angle_beta 90.000000
_cell_angle_gamma 90.000000
_cell_volume 3120.133567
_symmetry_space_group_name_H-M "C M C 21"
_symmetry_group_IT_number 36
_symmetry_cell_setting 'orthorhombic'
loop_
_space_group_symop_operation_xyz
x,y,z
-x,-y,1/2+z
x,-y,1/2+z
-x,y,z
1/2+x,1/2+y,z
1/2-x,1/2-y,1/2+z
1/2+x,1/2-y,1/2+z
1/2-x,1/2+y,z
loop_
_atom_site_type_symbol
_atom_site_label
_atom_site_fract_x
_atom_site_fract_y
_atom_site_fract_z
Si Si1 0.785564 0.762247 0.076150
Si Si2 0.783562 0.372556 0.581188
Si Si3 0.202920 0.258570 0.910617
Si Si4 0.285778 0.108312 0.420629
Si Si5 0.206361 0.622731 0.919620
Si Si6 0.206356 0.895840 0.086213
Si Si7 0.703947 0.014068 0.172244
Si Si8 0.283393 0.990730 0.328579
O O1 0.735028 0.696089 0.107452
O O2 0.727195 0.827532 0.107826
O O3 0.000000 0.764250 0.072484
O O4 0.717696 0.760741 0.995816
O O5 0.721833 0.379644 0.499819
O O6 0.718997 0.428207 0.629501
O O7 0.000000 0.374145 0.579352
O O8 0.277703 0.325581 0.890501
O O9 0.280852 0.192468 0.891091
O O10 0.000000 0.256632 0.888564
O O11 0.500000 0.110879 0.421814
O O12 0.227458 0.100460 0.501603
O O13 0.233002 0.050205 0.374318
O O14 0.279693 0.571125 0.867538
O O15 0.000000 0.608619 0.927518
O O16 0.292797 0.953446 0.124053
O O17 0.000000 0.899281 0.103362
O O18 0.500000 0.031166 0.185004
O O19 0.780297 0.998551 0.248678
O O20 0.500000 0.988295 0.326958
#
# Coordination Sequence:
#
# PCOD9350881 Si02
#       8
#     8   8   8   8   8   8   8   8
#     4   8  15  29  47  67  92 122 155 189 229 280
#     4   8  14  27  49  70  86 114 157 197 229 267
#     4   9  16  26  45  73  97 116 146 195 244 275
#     4   9  17  32  52  72  94 121 159 202 236 273
#     4   9  16  29  48  67  91 123 156 189 229 283
#     4  10  19  31  49  73  98 124 155 192 239 292
#     4  10  19  32  50  70  94 125 162 201 235 271
#     4   9  18  32  50  70  92 125 166 199 229 273
#
# _framework density 20.511941
#
# number of rings (size 3 to 8) (size 9 to 14) (size 15 to 20)
#    0.000    3.000    0.000    2.250    0.000    3.000 
#    0.000    8.125    0.000    3.000    0.000    0.000 
#    0.000    0.000    0.000    0.000    0.000    0.000 
#
# Total GULP energy -178292.794249 kJ/mol
# GULP energy per Si atom -5571.649820 kJ/mol
# Density = 2.046526 g / cm^3
# Si number density = 20.511941 Si / 1000 Ang^3
#
#
#
# Elastic Constant Matrix: (Units=GPa)
#
#
# Indices 1 2 3 4 5 6 
#
# 1 41.6914 -8.5620 -4.7688 0.0000 0.0000 0.0000
# 2 -8.5620 167.0867 56.2573 0.0000 0.0000 0.0000
# 3 -4.7688 56.2573 63.1988 0.0000 0.0000 0.0000
# 4 0.0000 0.0000 0.0000 -7.1300 0.0000 0.0000
# 5 0.0000 0.0000 0.0000 0.0000 8.2333 0.0000
# 6 0.0000 0.0000 0.0000 0.0000 0.0000 15.8373
#
#
#
# Elastic Compliance Matrix: (Units=1/GPa)
#
#
# Indices 1 2 3 4 5 6 
#
# 1 0.024288 0.000896 0.001035 0.000000 0.000000 0.000000
# 2 0.000896 0.008579 -0.007570 0.000000 0.000000 0.000000
# 3 0.001035 -0.007570 0.022639 0.000000 0.000000 0.000000
# 4 0.000000 0.000000 0.000000 -0.140252 0.000000 0.000000
# 5 0.000000 0.000000 0.000000 0.000000 0.121458 0.000000
# 6 0.000000 0.000000 0.000000 0.000000 0.000000 0.063142
#
#
# Mechanical properties :
#
#
# Convention : Reuss Voigt Hill
#
# Bulk Modulus (GPa) = 22.60899 39.75888 31.18393
# Shear Modulus (GPa) = 39.72167 18.65813 29.18990
#
# Velocity S-wave (km/s) = 4.40536 3.01927 3.77645
# Velocity P-wave (km/s) = 6.07639 5.61961 5.85246
#
# Compressibility (1/GPa) = 0.04423020
#
# Stress axis : x y z
#
# Youngs Moduli (GPa) = 41.17229 116.55749 44.17101
#
# Poissons Ratio (x) = -0.10445 -0.04572
# Poissons Ratio (y) = -0.03689 0.33435
# Poissons Ratio (z) = -0.04261 0.88228
#
# Static dielectric constant tensor:
#      x y z
#    x 1.767110 0.000000 0.000000 
#    y 0.000000 1.768080 0.000000 
#    z 0.000000 0.000000 1.685790 
# 
# From -- ./inp_files/15797.got.cif
#   From: 2010.05.17/outbox.cif.g08.bks.cpg/sg36_8_cif.got.tgz:15797.got - 2010.06.03 17:41:39.
