data_PCOD9350289
_publ_section_title
;
Structure prediction by ZEFSAII (Michael W. Deem and Ramdas Pophale) SiO2 
 PCOD9350289
Probable space group: C M M 2
;
_chemical_formula_sum "Si O2"
_cell_formula_units_Z 36
_cell_length_a 14.106739
_cell_length_b 15.056861
_cell_length_c 8.028413
_cell_angle_alpha 90.000000
_cell_angle_beta 90.000000
_cell_angle_gamma 90.000000
_cell_volume 1705.260679
_symmetry_space_group_name_H-M "C M M 2"
_symmetry_group_IT_number 35
_symmetry_cell_setting 'orthorhombic'
loop_
_space_group_symop_operation_xyz
x,y,z
-x,-y,z
-x,y,z
x,-y,z
1/2+x,1/2+y,z
1/2-x,1/2-y,z
1/2-x,1/2+y,z
1/2+x,1/2-y,z
loop_
_atom_site_type_symbol
_atom_site_label
_atom_site_fract_x
_atom_site_fract_y
_atom_site_fract_z
Si Si1 0.384846 0.189636 0.514460
Si Si2 0.115402 0.500000 0.364053
Si Si3 0.613706 0.695456 0.203558
Si Si4 0.306788 0.000000 0.987835
Si Si5 0.387999 0.500000 0.101701
Si Si6 0.885385 0.310083 0.885714
O O1 0.500000 0.190950 0.514710
O O2 0.352922 0.255018 0.368286
O O3 0.355615 0.216501 0.699828
O O4 0.358885 0.089069 0.464071
O O5 0.164686 0.500000 0.183895
O O6 0.000000 0.500000 0.338339
O O7 0.500000 0.704196 0.202766
O O8 0.632187 0.590888 0.199580
O O9 0.645568 0.744662 0.034472
O O10 0.193261 0.000000 0.962063
O O11 0.349930 0.090251 0.916796
O O12 0.500000 0.500000 0.052374
O O13 0.000000 0.311917 0.890177
#
# Coordination Sequence:
#
# PCOD9350289 Si02
#       6
#     8   4   8   4   4   8
#     4   9  17  31  57  90 125 156 180 226 298 373
#     4  10  17  30  53  91 129 149 176 225 302 387
#     4   9  18  37  61  82 114 157 203 247 290 341
#     4  12  21  33  61  87 124 158 190 240 307 358
#     4  10  24  43  62  80 109 167 226 259 283 327
#     4  10  19  33  60  96 126 151 182 233 309 380
#
# _framework density 21.111139999999999
#
# number of rings (size 3 to 8) (size 9 to 14) (size 15 to 20)
#    0.000    2.222    2.222    1.667    0.000    2.667 
#    0.000    1.111   14.667    6.667    0.000    0.000 
#    0.000    0.000    0.000    0.000    0.000    0.000 
#
# Total GULP energy -100524.223734 kJ/mol
# GULP energy per Si atom -5584.679096 kJ/mol
# Density = 2.106309 g / cm^3
# Si number density = 21.111140 Si / 1000 Ang^3
#
#
#
# Elastic Constant Matrix: (Units=GPa)
#
#
# Indices 1 2 3 4 5 6 
#
# 1 98.6859 29.9658 19.4794 0.0000 0.0000 0.0000
# 2 29.9658 175.3937 97.9737 0.0000 0.0000 0.0000
# 3 19.4794 97.9737 191.6150 0.0000 0.0000 0.0000
# 4 0.0000 0.0000 0.0000 -441.2169 0.0000 0.0000
# 5 0.0000 0.0000 0.0000 0.0000 -7.4359 0.0000
# 6 0.0000 0.0000 0.0000 0.0000 0.0000 -19.8056
#
#
#
# Elastic Compliance Matrix: (Units=1/GPa)
#
#
# Indices 1 2 3 4 5 6 
#
# 1 0.010694 -0.001707 -0.000214 0.000000 0.000000 0.000000
# 2 -0.001707 0.008254 -0.004046 0.000000 0.000000 0.000000
# 3 -0.000214 -0.004046 0.007310 0.000000 0.000000 0.000000
# 4 0.000000 0.000000 0.000000 -0.002266 0.000000 0.000000
# 5 0.000000 0.000000 0.000000 0.000000 -0.134483 0.000000
# 6 0.000000 0.000000 0.000000 0.000000 0.000000 -0.050491
#
#
# Mechanical properties :
#
#
# Convention : Reuss Voigt Hill
#
# Bulk Modulus (GPa) = 69.82809 84.50359 77.16584
# Shear Modulus (GPa) = -34.65634 -72.47330 -53.56482
#
# Velocity S-wave (km/s) = -4.05608 -5.86549 -5.04260
# Velocity P-wave (km/s) = 3.34851 2.39939 1.65158
#
# Compressibility (1/GPa) = 0.01432088
#
# Stress axis : x y z
#
# Youngs Moduli (GPa) = 93.51142 121.16054 136.80726
#
# Poissons Ratio (x) = 0.20687 0.02929
# Poissons Ratio (y) = 0.15966 0.55359
# Poissons Ratio (z) = 0.02002 0.49027
#
# Static dielectric constant tensor:
#      x y z
#    x 1.771430 0.000000 0.000000 
#    y 0.000000 1.751090 0.000000 
#    z 0.000000 0.000000 1.747530 
# 
# From -- ./inp_files/6947.got.cif
#   From: 2010.05.17/outbox.cif.g08.bks.cpg/sg35_4_cif.got.tgz:6947.got - 2010.06.03 17:29:28.
