data_PCOD9350018
_publ_section_title
;
Structure prediction by ZEFSAII (Michael W. Deem and Ramdas Pophale) SiO2 
 PCOD9350018
Probable space group: C M M 2
;
_chemical_formula_sum "Si O2"
_cell_formula_units_Z 32
_cell_length_a 11.127725
_cell_length_b 25.470935
_cell_length_c 4.944166
_cell_angle_alpha 90.000000
_cell_angle_beta 90.000000
_cell_angle_gamma 90.000000
_cell_volume 1401.342571
_symmetry_space_group_name_H-M "C M M 2"
_symmetry_group_IT_number 35
_symmetry_cell_setting 'orthorhombic'
loop_
_space_group_symop_operation_xyz
x,y,z
-x,-y,z
-x,y,z
x,-y,z
1/2+x,1/2+y,z
1/2-x,1/2-y,z
1/2-x,1/2+y,z
1/2+x,1/2-y,z
loop_
_atom_site_type_symbol
_atom_site_label
_atom_site_fract_x
_atom_site_fract_y
_atom_site_fract_z
Si Si1 0.000000 0.374276 0.862620
Si Si2 0.000000 0.299965 0.361699
Si Si3 0.233023 0.438851 0.698055
Si Si4 0.861344 0.893973 0.182499
Si Si5 0.634193 0.725003 0.003828
O O1 0.000000 0.325175 0.655098
O O2 0.883985 0.409357 0.808180
O O3 0.000000 0.349684 0.159298
O O4 0.890361 0.262875 0.262915
O O5 0.210216 0.500000 0.649113
O O6 0.277262 0.410868 0.427055
O O7 0.333512 0.430563 0.927151
O O8 0.838843 0.834195 0.090130
O O9 0.000000 0.897842 0.266634
O O10 0.500000 0.722797 0.868658
O O11 0.750000 0.750000 0.859764
#
# Coordination Sequence:
#
# PCOD9350018 Si02
#       5
#     4   4   8   8   8
#     4  12  23  44  64 102 136 170 223 274 330 404
#     4  10  24  38  69  94 135 178 214 268 340 402
#     4  12  26  43  69  96 132 179 224 279 332 385
#     4  11  25  45  68  95 135 171 225 278 327 394
#     4   9  19  38  62  94 129 170 214 264 325 396
#
# _framework density 22.835246000000001
#
# number of rings (size 3 to 8) (size 9 to 14) (size 15 to 20)
#    0.750    0.500    0.000    6.375    0.000    5.000 
#    0.000    8.750    0.000    0.000    0.000    0.000 
#    0.000    0.000    0.000    0.000    0.000    0.000 
#
# Total GULP energy -89512.249321 kJ/mol
# GULP energy per Si atom -5594.515583 kJ/mol
# Density = 2.278327 g / cm^3
# Si number density = 22.835246 Si / 1000 Ang^3
#
#
#
# Elastic Constant Matrix: (Units=GPa)
#
#
# Indices 1 2 3 4 5 6 
#
# 1 76.3882 47.0545 14.5684 0.0000 0.0000 0.0000
# 2 47.0545 143.5381 12.3519 0.0000 0.0000 0.0000
# 3 14.5684 12.3519 68.3198 0.0000 0.0000 0.0000
# 4 0.0000 0.0000 0.0000 -2.1217 0.0000 0.0000
# 5 0.0000 0.0000 0.0000 0.0000 18.6527 0.0000
# 6 0.0000 0.0000 0.0000 0.0000 0.0000 31.8422
#
#
#
# Elastic Compliance Matrix: (Units=1/GPa)
#
#
# Indices 1 2 3 4 5 6 
#
# 1 0.016858 -0.005300 -0.002637 0.000000 0.000000 0.000000
# 2 -0.005300 0.008743 -0.000451 0.000000 0.000000 0.000000
# 3 -0.002637 -0.000451 0.015281 0.000000 0.000000 0.000000
# 4 0.000000 0.000000 0.000000 -0.471321 0.000000 0.000000
# 5 0.000000 0.000000 0.000000 0.000000 0.053612 0.000000
# 6 0.000000 0.000000 0.000000 0.000000 0.000000 0.031405
#
#
# Mechanical properties :
#
#
# Convention : Reuss Voigt Hill
#
# Bulk Modulus (GPa) = 41.47963 48.46618 44.97290
# Shear Modulus (GPa) = -15.59512 23.95940 4.18214
#
# Velocity S-wave (km/s) = -2.61615 3.24269 1.35477
# Velocity P-wave (km/s) = 3.01306 5.94058 4.71004
#
# Compressibility (1/GPa) = 0.02410822
#
# Stress axis : x y z
#
# Youngs Moduli (GPa) = 59.31762 114.37889 65.44182
#
# Poissons Ratio (x) = 0.60616 0.17255
# Poissons Ratio (y) = 0.31436 0.02949
# Poissons Ratio (z) = 0.15640 0.05154
#
# Static dielectric constant tensor:
#      x y z
#    x 1.908520 0.000000 0.000000 
#    y 0.000000 1.807300 0.000000 
#    z 0.000000 0.000000 1.802020 
# 
# From -- ./inp_files/1126.got.cif
#   From: 2010.05.17/outbox.cif.g08.bks.cpg/sg35_1_cif.got.tgz:1126.got - 2010.06.03 17:29:28.
