data_PCOD9350117
_publ_section_title
;
Structure prediction by ZEFSAII (Michael W. Deem and Ramdas Pophale) SiO2 
 PCOD9350117
Probable space group: C M M 2
;
_chemical_formula_sum "Si O2"
_cell_formula_units_Z 48
_cell_length_a 15.883883
_cell_length_b 8.156314
_cell_length_c 18.121316
_cell_angle_alpha 90.000000
_cell_angle_beta 90.000000
_cell_angle_gamma 90.000000
_cell_volume 2347.687837
_symmetry_space_group_name_H-M "C M M 2"
_symmetry_group_IT_number 35
_symmetry_cell_setting 'orthorhombic'
loop_
_space_group_symop_operation_xyz
x,y,z
-x,-y,z
-x,y,z
x,-y,z
1/2+x,1/2+y,z
1/2-x,1/2-y,z
1/2-x,1/2+y,z
1/2+x,1/2-y,z
loop_
_atom_site_type_symbol
_atom_site_label
_atom_site_fract_x
_atom_site_fract_y
_atom_site_fract_z
Si Si1 0.000000 0.201053 0.475160
Si Si2 0.402782 0.697928 0.893452
Si Si3 0.100671 0.812053 0.050946
Si Si4 0.152543 0.801765 0.371559
Si Si5 0.846726 0.801944 0.208682
Si Si6 0.159811 0.306594 0.737515
Si Si7 0.500000 0.695274 0.643421
O O1 0.084480 0.253182 0.431803
O O2 0.000000 0.258472 0.559569
O O3 0.000000 0.000000 0.474927
O O4 0.500000 0.753249 0.882704
O O5 0.404375 0.500000 0.898965
O O6 0.352186 0.743543 0.821039
O O7 0.369789 0.762037 0.972884
O O8 0.117853 0.736572 0.131046
O O9 0.000000 0.820256 0.043121
O O10 0.133503 0.000000 0.054108
O O11 0.250000 0.750000 0.383307
O O12 0.122500 0.746686 0.289440
O O13 0.152613 0.000000 0.371402
O O14 0.750000 0.750000 0.208132
O O15 0.857477 0.000000 0.207988
O O16 0.157727 0.500000 0.739860
O O17 0.250000 0.250000 0.708192
O O18 0.082617 0.246789 0.688093
O O19 0.500000 0.500000 0.639974
#
# Coordination Sequence:
#
# PCOD9350117 Si02
#       7
#     4   8   8   8   8   8   4
#     4   9  20  37  61  88 111 144 184 225 281 341
#     4   9  17  33  56  80 114 153 191 239 290 336
#     4   8  15  27  47  77 106 141 188 230 269 319
#     4   9  18  34  55  82 114 148 186 231 277 328
#     4   9  17  29  48  72 105 143 183 227 271 318
#     4  12  25  41  63  90 118 153 196 237 289 352
#     4  11  23  43  65  88 121 150 184 241 297 351
#
# _framework density 20.445647000000001
#
# number of rings (size 3 to 8) (size 9 to 14) (size 15 to 20)
#    0.000    2.500    0.833    2.750    1.167    1.333 
#    0.000    6.250    0.000    1.500    0.000    0.000 
#    0.000    0.000    0.000    0.000    0.000    0.000 
#
# Total GULP energy -133783.644149 kJ/mol
# GULP energy per Si atom -5574.318506 kJ/mol
# Density = 2.039911 g / cm^3
# Si number density = 20.445647 Si / 1000 Ang^3
#
#
#
# Elastic Constant Matrix: (Units=GPa)
#
#
# Indices 1 2 3 4 5 6 
#
# 1 104.2186 7.3418 83.9922 0.0000 0.0000 0.0000
# 2 7.3418 22.4144 19.7617 0.0000 0.0000 0.0000
# 3 83.9922 19.7617 201.2467 0.0000 0.0000 0.0000
# 4 0.0000 0.0000 0.0000 1.5348 0.0000 0.0000
# 5 0.0000 0.0000 0.0000 0.0000 -13.4590 0.0000
# 6 0.0000 0.0000 0.0000 0.0000 0.0000 22.9543
#
#
#
# Elastic Compliance Matrix: (Units=1/GPa)
#
#
# Indices 1 2 3 4 5 6 
#
# 1 0.014467 0.000640 -0.006101 0.000000 0.000000 0.000000
# 2 0.000640 0.048871 -0.005066 0.000000 0.000000 0.000000
# 3 -0.006101 -0.005066 0.008013 0.000000 0.000000 0.000000
# 4 0.000000 0.000000 0.000000 0.651543 0.000000 0.000000
# 5 0.000000 0.000000 0.000000 0.000000 -0.074300 0.000000
# 6 0.000000 0.000000 0.000000 0.000000 0.000000 0.043565
#
#
# Mechanical properties :
#
#
# Convention : Reuss Voigt Hill
#
# Bulk Modulus (GPa) = 19.88181 61.11903 40.50042
# Shear Modulus (GPa) = 6.84952 16.65828 11.75390
#
# Velocity S-wave (km/s) = 1.83232 2.85750 2.40028
# Velocity P-wave (km/s) = 3.77119 6.39104 5.24725
#
# Compressibility (1/GPa) = 0.05029723
#
# Stress axis : x y z
#
# Youngs Moduli (GPa) = 69.12352 20.46196 124.80178
#
# Poissons Ratio (x) = -0.01310 0.76138
# Poissons Ratio (y) = -0.04425 0.63226
# Poissons Ratio (z) = 0.42170 0.10366
#
# Static dielectric constant tensor:
#      x y z
#    x 1.665570 0.000000 0.000000 
#    y 0.000000 1.724880 0.000000 
#    z 0.000000 0.000000 1.793230 
# 
# From -- ./inp_files/17936.got.cif
#   From: 2010.05.17/outbox.cif.g08.bks.cpg/sg35_9_cif.got.tgz:17936.got - 2010.06.03 17:29:28.
