data_PCOD9350955
_publ_section_title
;
Structure prediction by ZEFSAII (Michael W. Deem and Ramdas Pophale) SiO2 
 PCOD9350955
Probable space group: C M C 21
;
_chemical_formula_sum "Si O2"
_cell_formula_units_Z 64
_cell_length_a 8.968076
_cell_length_b 24.119752
_cell_length_c 17.641533
_cell_angle_alpha 90.000000
_cell_angle_beta 90.000000
_cell_angle_gamma 90.000000
_cell_volume 3816.000646
_symmetry_space_group_name_H-M "C M C 21"
_symmetry_group_IT_number 36
_symmetry_cell_setting 'orthorhombic'
loop_
_space_group_symop_operation_xyz
x,y,z
-x,-y,1/2+z
x,-y,1/2+z
-x,y,z
1/2+x,1/2+y,z
1/2-x,1/2-y,1/2+z
1/2+x,1/2-y,1/2+z
1/2-x,1/2+y,z
loop_
_atom_site_type_symbol
_atom_site_label
_atom_site_fract_x
_atom_site_fract_y
_atom_site_fract_z
Si Si1 0.318605 0.639149 0.681800
Si Si2 0.674416 0.918192 0.596664
Si Si3 0.178956 0.011549 0.681800
Si Si4 0.679279 0.709767 0.827365
Si Si5 0.179279 0.790233 0.036235
Si Si6 0.177744 0.825244 0.866163
Si Si7 0.825584 0.581808 0.266936
Si Si8 0.177744 0.825244 0.497437
O O1 0.500000 0.638299 0.681800
O O2 0.271430 0.575117 0.681800
O O3 0.272515 0.672240 0.756891
O O4 0.272515 0.672240 0.606709
O O5 0.500000 0.926209 0.580866
O O6 0.686523 0.891918 0.681800
O O7 0.749550 0.878589 0.536053
O O8 0.756289 0.976920 0.610413
O O9 0.000000 0.008665 0.681800
O O10 0.243711 0.976920 0.753187
O O11 0.500000 0.717860 0.823295
O O12 0.756893 0.769512 0.828528
O O13 0.711821 0.680553 0.907891
O O14 0.256893 0.730488 0.035072
O O15 0.000000 0.782140 0.040305
O O16 0.211821 0.819447 0.955709
O O17 0.250450 0.878589 0.827547
O O18 0.000000 0.826980 0.856980
O O19 0.000000 0.573791 0.282734
O O20 0.000000 0.826980 0.506620
#
# Coordination Sequence:
#
# PCOD9350955 Si02
#       8
#     8   8   8   8   8   8   8   8
#     4   9  18  34  55  74  97 134 172 203 248 305
#     4   9  19  33  52  73  98 134 167 204 254 300
#     4   9  17  32  53  76  97 124 170 219 248 289
#     4   9  19  34  52  75 106 138 167 204 254 307
#     4   9  19  34  52  75 106 138 167 204 254 307
#     4  10  19  32  51  78 106 132 168 212 251 294
#     4   9  19  33  52  73  98 134 167 204 254 300
#     4  10  19  32  51  78 106 132 168 212 251 294
#
# _framework density 16.771487
#
# number of rings (size 3 to 8) (size 9 to 14) (size 15 to 20)
#    0.750    2.000    0.000    1.500    1.750    1.000 
#    0.000    3.750    0.000    7.500    0.000    0.000 
#    0.000    0.000    0.000    0.000    0.000    0.000 
#
# Total GULP energy -178185.742099 kJ/mol
# GULP energy per Si atom -5568.304441 kJ/mol
# Density = 1.673331 g / cm^3
# Si number density = 16.771487 Si / 1000 Ang^3
#
#
#
# Elastic Constant Matrix: (Units=GPa)
#
#
# Indices 1 2 3 4 5 6 
#
# 1 55.4077 50.5310 42.5517 0.0000 0.0000 0.0000
# 2 50.5310 142.9416 91.4627 0.0000 0.0000 0.0000
# 3 42.5517 91.4627 87.1197 0.0000 0.0000 0.0000
# 4 0.0000 0.0000 0.0000 -11.6901 0.0000 0.0000
# 5 0.0000 0.0000 0.0000 0.0000 21.8478 0.0000
# 6 0.0000 0.0000 0.0000 0.0000 0.0000 24.6052
#
#
#
# Elastic Compliance Matrix: (Units=1/GPa)
#
#
# Indices 1 2 3 4 5 6 
#
# 1 0.029505 -0.003684 -0.010544 0.000000 0.000000 0.000000
# 2 -0.003684 0.021773 -0.021059 0.000000 0.000000 0.000000
# 3 -0.010544 -0.021059 0.038737 0.000000 0.000000 0.000000
# 4 0.000000 0.000000 0.000000 -0.085543 0.000000 0.000000
# 5 0.000000 0.000000 0.000000 0.000000 0.045771 0.000000
# 6 0.000000 0.000000 0.000000 0.000000 0.000000 0.040642
#
#
# Mechanical properties :
#
#
# Convention : Reuss Voigt Hill
#
# Bulk Modulus (GPa) = 51.43499 72.72885 62.08192
# Shear Modulus (GPa) = 29.77267 13.68083 21.72675
#
# Velocity S-wave (km/s) = 4.21788 2.85918 3.60315
# Velocity P-wave (km/s) = 7.37939 7.37283 7.37611
#
# Compressibility (1/GPa) = 0.01944202
#
# Stress axis : x y z
#
# Youngs Moduli (GPa) = 33.89291 45.92826 25.81490
#
# Poissons Ratio (x) = 0.16919 0.27218
# Poissons Ratio (y) = 0.12485 0.54364
# Poissons Ratio (z) = 0.35735 0.96722
#
# Static dielectric constant tensor:
#      x y z
#    x 1.560580 0.000000 0.000000 
#    y 0.000000 1.538950 0.000000 
#    z 0.000000 0.000000 1.566870 
# 
# From -- ./inp_files/14094.got.cif
#   From: 2010.05.17/outbox.cif.g08.bks.cpg/sg36_8_cif.got.tgz:14094.got - 2010.06.03 17:41:39.
