data_PCOD9350142
_publ_section_title
;
Structure prediction by ZEFSAII (Michael W. Deem and Ramdas Pophale) SiO2 
 PCOD9350142
Probable space group: C M M 2
;
_chemical_formula_sum "Si O2"
_cell_formula_units_Z 32
_cell_length_a 15.000000
_cell_length_b 18.000000
_cell_length_c 12.000000
_cell_angle_alpha 90.000000
_cell_angle_beta 90.000000
_cell_angle_gamma 90.000000
_cell_volume 3240.000000
_symmetry_space_group_name_H-M "C M M 2"
_symmetry_group_IT_number 35
_symmetry_cell_setting 'orthorhombic'
loop_
_space_group_symop_operation_xyz
x,y,z
-x,-y,z
-x,y,z
x,-y,z
1/2+x,1/2+y,z
1/2-x,1/2-y,z
1/2-x,1/2+y,z
1/2+x,1/2-y,z
loop_
_atom_site_type_symbol
_atom_site_label
_atom_site_fract_x
_atom_site_fract_y
_atom_site_fract_z
Si Si1 0.403063 0.205303 0.704140
Si Si2 0.094738 0.126064 0.793522
Si Si3 0.344508 0.417324 0.559725
Si Si4 0.308486 0.183800 0.487560
Si Si5 0.904583 0.911086 0.314022
Si Si6 0.398271 0.088824 0.059528
Si Si7 0.703798 0.911363 0.284347
Si Si8 0.770966 0.336022 0.884739
O O1 0.500000 0.170658 0.721760
O O2 0.404302 0.287250 0.757280
O O3 0.382088 0.211118 0.573507
O O4 0.324977 0.164132 0.768943
O O5 0.104629 0.085775 0.675422
O O6 0.180453 0.117710 0.870192
O O7 0.000000 0.107654 0.846243
O O8 0.308576 0.500000 0.543031
O O9 0.263604 0.360782 0.560550
O O10 0.399463 0.400050 0.447976
O O11 0.250000 0.250000 0.437242
O O12 0.337018 0.129330 0.390805
O O13 0.807571 0.886098 0.270434
O O14 0.000000 0.880203 0.273268
O O15 0.906744 0.000000 0.294913
O O16 0.500000 0.113643 0.051092
O O17 0.356527 0.104467 0.179318
O O18 0.395498 0.000000 0.042310
O O19 0.336391 0.129235 0.972524
O O20 0.706070 0.000000 0.301909
O O21 0.750000 0.250000 0.911882
#
# Coordination Sequence:
#
# PCOD9350142 Si02
#       8
#     8   8   8   8   8   8   8   8
#     4  10  19  33  54  81 113 151 187 228 282 337
#     4  10  19  32  52  80 114 149 181 217 273 338
#     4  10  18  29  48  74 111 151 184 218 262 327
#     4  11  18  33  53  79 115 149 187 229 278 331
#     4   8  14  26  46  73 104 141 180 214 259 322
#     4  10  22  42  65  85 109 148 197 245 294 348
#     4   9  20  36  55  79 109 146 190 238 290 341
#     4  10  20  38  60  83 114 147 192 240 287 338
#
# _framework density 9.8765429999999999
#
# number of rings (size 3 to 8) (size 9 to 14) (size 15 to 20)
#    0.000    2.250    2.500    2.250    0.000    2.750 
#    0.000    0.625    0.000    5.625    0.000    0.000 
#    0.000    0.000    0.000    0.000    0.000    0.000 
#
# Total GULP energy -178176.917788 kJ/mol
# GULP energy per Si atom -5568.028681 kJ/mol
# Density = 0.985406 g / cm^3
# Si number density = 9.876543 Si / 1000 Ang^3
#
#
#
# Elastic Constant Matrix: (Units=GPa)
#
#
# Indices 1 2 3 4 5 6 
#
# 1 134.5159 36.6182 59.6689 0.0000 0.0000 0.0000
# 2 36.6182 1.8664 26.2973 0.0000 0.0000 0.0000
# 3 59.6689 26.2973 81.9387 0.0000 0.0000 0.0000
# 4 0.0000 0.0000 0.0000 14.4741 0.0000 0.0000
# 5 0.0000 0.0000 0.0000 0.0000 51.5285 0.0000
# 6 0.0000 0.0000 0.0000 0.0000 0.0000 22.9173
#
#
#
# Elastic Compliance Matrix: (Units=1/GPa)
#
#
# Indices 1 2 3 4 5 6 
#
# 1 0.007274 0.019329 -0.011500 0.000000 0.000000 0.000000
# 2 0.019329 -0.100764 0.018263 0.000000 0.000000 0.000000
# 3 -0.011500 0.018263 0.014717 0.000000 0.000000 0.000000
# 4 0.000000 0.000000 0.000000 0.069089 0.000000 0.000000
# 5 0.000000 0.000000 0.000000 0.000000 0.019407 0.000000
# 6 0.000000 0.000000 0.000000 0.000000 0.000000 0.043635
#
#
# Mechanical properties :
#
#
# Convention : Reuss Voigt Hill
#
# Bulk Modulus (GPa) = -37.61040 51.49887 6.94424
# Shear Modulus (GPa) = -650.29204 24.16641 -313.06282
#
# Velocity S-wave (km/s) = -18.16384 3.50154 -12.60286
# Velocity P-wave (km/s) = 21.42386 6.51733 14.43097
#
# Compressibility (1/GPa) = -0.02658839
#
# Stress axis : x y z
#
# Youngs Moduli (GPa) = 137.48400 -9.92422 67.94726
#
# Poissons Ratio (x) = 0.19182 0.78140
# Poissons Ratio (y) = -2.65739 -1.24095
# Poissons Ratio (z) = 1.58107 0.18125
#
# Static dielectric constant tensor:
#      x y z
#    x 1.742700 0.000000 0.000000 
#    y 0.000000 1.715000 0.000000 
#    z 0.000000 0.000000 1.732040 
# 
# From -- ./inp_files/13177.got.cif
#   From: 2010.05.17/outbox.ucp.g08.bks.cvg/sg35_7_cif.got.tgz:13177.got - 2010.06.11 10:36:28.
