data_PCOD9350567
_publ_section_title
;
Structure prediction by ZEFSAII (Michael W. Deem and Ramdas Pophale) SiO2 
 PCOD9350567
Probable space group: C M C 21
;
_chemical_formula_sum "Si O2"
_cell_formula_units_Z 64
_cell_length_a 17.731269
_cell_length_b 29.505908
_cell_length_c 5.466542
_cell_angle_alpha 90.000000
_cell_angle_beta 90.000000
_cell_angle_gamma 90.000000
_cell_volume 2859.970093
_symmetry_space_group_name_H-M "C M C 21"
_symmetry_group_IT_number 36
_symmetry_cell_setting 'orthorhombic'
loop_
_space_group_symop_operation_xyz
x,y,z
-x,-y,1/2+z
x,-y,1/2+z
-x,y,z
1/2+x,1/2+y,z
1/2-x,1/2-y,1/2+z
1/2+x,1/2-y,1/2+z
1/2-x,1/2+y,z
loop_
_atom_site_type_symbol
_atom_site_label
_atom_site_fract_x
_atom_site_fract_y
_atom_site_fract_z
Si Si1 0.313687 0.390469 0.852900
Si Si2 0.824012 0.386402 0.539983
Si Si3 0.632381 0.732516 0.615103
Si Si4 0.865804 0.987462 0.889980
Si Si5 0.729536 0.182122 0.677117
Si Si6 0.193399 0.522400 0.822086
Si Si7 0.911884 0.817659 0.615842
Si Si8 0.915436 0.324129 0.835087
O O1 0.237312 0.407052 0.723619
O O2 0.353820 0.434717 0.949989
O O3 0.365438 0.363420 0.663001
O O4 0.285250 0.354340 0.050032
O O5 0.787747 0.339633 0.438753
O O6 0.828533 0.424527 0.333601
O O7 0.896880 0.369849 0.684879
O O8 0.723120 0.728206 0.653429
O O9 0.611693 0.714925 0.344047
O O10 0.595928 0.781264 0.657038
O O11 0.603017 0.703122 0.847919
O O12 0.903307 0.990308 0.624661
O O13 0.784240 0.012711 0.841886
O O14 0.650560 0.182151 0.534717
O O15 0.164392 0.500670 0.571562
O O16 0.000000 0.826243 0.640748
O O17 0.000000 0.324008 0.935160
#
# Coordination Sequence:
#
# PCOD9350567 Si02
#       8
#     8   8   8   8   8   8   8   8
#     4  10  20  35  57  93 125 160 213 272 321 376
#     4  11  21  38  62  92 125 162 212 272 320 381
#     4  11  25  44  68  94 125 172 230 269 316 379
#     4  10  18  29  53  85 122 154 203 261 317 367
#     4  10  23  38  66  92 126 167 218 274 319 378
#     4  10  19  32  59  90 119 152 205 264 318 369
#     4  11  23  41  65  92 130 173 220 273 328 386
#     4  11  27  43  62  94 136 176 211 263 337 398
#
# _framework density 22.377856000000001
#
# number of rings (size 3 to 8) (size 9 to 14) (size 15 to 20)
#    0.000    1.500    3.750    2.625    5.250    0.500 
#    0.000    0.000    0.000    1.500    0.000    0.000 
#    0.000    0.000    0.000    0.000    0.000    0.000 
#
# Total GULP energy -178693.726841 kJ/mol
# GULP energy per Si atom -5584.178964 kJ/mol
# Density = 2.232692 g / cm^3
# Si number density = 22.377856 Si / 1000 Ang^3
#
#
#
# Elastic Constant Matrix: (Units=GPa)
#
#
# Indices 1 2 3 4 5 6 
#
# 1 103.0675 21.0125 18.1014 0.0000 0.0000 0.0000
# 2 21.0125 73.4430 9.7291 0.0000 0.0000 0.0000
# 3 18.1014 9.7291 102.1681 0.0000 0.0000 0.0000
# 4 0.0000 0.0000 0.0000 38.9885 0.0000 0.0000
# 5 0.0000 0.0000 0.0000 0.0000 18.3114 0.0000
# 6 0.0000 0.0000 0.0000 0.0000 0.0000 5.2288
#
#
#
# Elastic Compliance Matrix: (Units=1/GPa)
#
#
# Indices 1 2 3 4 5 6 
#
# 1 0.010556 -0.002808 -0.001603 0.000000 0.000000 0.000000
# 2 -0.002808 0.014537 -0.000887 0.000000 0.000000 0.000000
# 3 -0.001603 -0.000887 0.010156 0.000000 0.000000 0.000000
# 4 0.000000 0.000000 0.000000 0.025649 0.000000 0.000000
# 5 0.000000 0.000000 0.000000 0.000000 0.054611 0.000000
# 6 0.000000 0.000000 0.000000 0.000000 0.000000 0.191248
#
#
# Mechanical properties :
#
#
# Convention : Reuss Voigt Hill
#
# Bulk Modulus (GPa) = 40.56108 41.81829 41.18968
# Shear Modulus (GPa) = 15.35766 27.82811 21.59289
#
# Velocity S-wave (km/s) = 2.62255 3.53023 3.10969
# Velocity P-wave (km/s) = 5.22831 5.94514 5.59821
#
# Compressibility (1/GPa) = 0.02465418
#
# Stress axis : x y z
#
# Youngs Moduli (GPa) = 94.72976 68.79073 98.46177
#
# Poissons Ratio (x) = 0.19316 0.15782
# Poissons Ratio (y) = 0.26599 0.08732
# Poissons Ratio (z) = 0.15184 0.06100
#
# Static dielectric constant tensor:
#      x y z
#    x 1.811350 0.000000 0.000000 
#    y 0.000000 1.888540 0.000000 
#    z 0.000000 0.000000 1.899780 
# 
# From -- ./inp_files/1237.got.cif
#   From: 2010.05.17/outbox.cif.g08.bks.cpg/sg36_1_cif.got.tgz:1237.got - 2010.06.03 17:41:39.
