data_PCOD9350413
_publ_section_title
;
Structure prediction by ZEFSAII (Michael W. Deem and Ramdas Pophale) SiO2 
 PCOD9350413
Probable space group: C M M 2
;
_chemical_formula_sum "Si O2"
_cell_formula_units_Z 64
_cell_length_a 29.505649
_cell_length_b 8.523638
_cell_length_c 16.105015
_cell_angle_alpha 90.000000
_cell_angle_beta 90.000000
_cell_angle_gamma 90.000000
_cell_volume 4050.338333
_symmetry_space_group_name_H-M "C M M 2"
_symmetry_group_IT_number 35
_symmetry_cell_setting 'orthorhombic'
loop_
_space_group_symop_operation_xyz
x,y,z
-x,-y,z
-x,y,z
x,-y,z
1/2+x,1/2+y,z
1/2-x,1/2-y,z
1/2-x,1/2+y,z
1/2+x,1/2-y,z
loop_
_atom_site_type_symbol
_atom_site_label
_atom_site_fract_x
_atom_site_fract_y
_atom_site_fract_z
Si Si1 0.298969 0.186790 0.925090
Si Si2 0.054983 0.318601 0.329715
Si Si3 0.890732 0.811699 0.991541
Si Si4 0.552079 0.308731 0.829929
Si Si5 0.606688 0.691623 0.665781
Si Si6 0.552135 0.688351 0.505779
Si Si7 0.052794 0.309690 0.146522
Si Si8 0.201077 0.811717 0.737586
O O1 0.250000 0.250000 0.952911
O O2 0.340495 0.243991 0.980918
O O3 0.306411 0.252646 0.831770
O O4 0.297634 0.000000 0.921218
O O5 0.068813 0.500000 0.336059
O O6 0.068768 0.232915 0.413884
O O7 0.068371 0.257011 0.238749
O O8 0.000000 0.314537 0.327893
O O9 0.919912 0.759523 0.910962
O O10 0.888557 0.000000 0.990373
O O11 0.916210 0.755128 0.073703
O O12 0.500000 0.256298 0.833015
O O13 0.551810 0.500000 0.829775
O O14 0.576913 0.259337 0.745394
O O15 0.606261 0.500000 0.664942
O O16 0.583713 0.746116 0.580563
O O17 0.658483 0.739548 0.682081
O O18 0.500000 0.745361 0.515900
O O19 0.550621 0.500000 0.511011
O O20 0.053815 0.500000 0.146519
O O21 0.000000 0.263059 0.134005
O O22 0.250000 0.750000 0.709788
O O23 0.202158 0.000000 0.740085
#
# Coordination Sequence:
#
# PCOD9350413 Si02
#       8
#     8   8   8   8   8   8   8   8
#     4  11  21  34  51  69  91 121 157 199 243 283
#     4   8  15  29  46  63  89 125 157 189 234 281
#     4  11  20  31  47  71  97 124 160 197 235 280
#     4   9  16  26  41  62  91 126 159 186 217 265
#     4   9  16  27  43  65  93 122 153 189 233 277
#     4   9  16  26  44  69  92 117 153 194 231 271
#     4   9  18  32  48  67  95 130 163 195 236 284
#     4  10  18  31  48  67  90 119 155 198 240 281
#
# _framework density 15.80115
#
# number of rings (size 3 to 8) (size 9 to 14) (size 15 to 20)
#    0.000    2.500    1.250    4.125    0.000    2.750 
#    0.000    2.500    0.000    0.000    0.000    0.875 
#    0.000    4.000    0.000    0.000    0.000    0.000 
#
# Total GULP energy -178373.818987 kJ/mol
# GULP energy per Si atom -5574.181843 kJ/mol
# Density = 1.576519 g / cm^3
# Si number density = 15.801150 Si / 1000 Ang^3
#
#
#
# Elastic Constant Matrix: (Units=GPa)
#
#
# Indices 1 2 3 4 5 6 
#
# 1 124.7301 27.9460 78.8639 0.0000 0.0000 0.0000
# 2 27.9460 33.3155 25.3075 0.0000 0.0000 0.0000
# 3 78.8639 25.3075 139.4029 0.0000 0.0000 0.0000
# 4 0.0000 0.0000 0.0000 17.5020 0.0000 0.0000
# 5 0.0000 0.0000 0.0000 0.0000 -22.2548 0.0000
# 6 0.0000 0.0000 0.0000 0.0000 0.0000 13.5140
#
#
#
# Elastic Compliance Matrix: (Units=1/GPa)
#
#
# Indices 1 2 3 4 5 6 
#
# 1 0.013578 -0.006443 -0.006512 0.000000 0.000000 0.000000
# 2 -0.006443 0.037875 -0.003231 0.000000 0.000000 0.000000
# 3 -0.006512 -0.003231 0.011444 0.000000 0.000000 0.000000
# 4 0.000000 0.000000 0.000000 0.057136 0.000000 0.000000
# 5 0.000000 0.000000 0.000000 0.000000 -0.044934 0.000000
# 6 0.000000 0.000000 0.000000 0.000000 0.000000 0.073997
#
#
# Mechanical properties :
#
#
# Convention : Reuss Voigt Hill
#
# Bulk Modulus (GPa) = 32.75959 62.40926 47.58443
# Shear Modulus (GPa) = 26.09013 12.77432 19.43223
#
# Velocity S-wave (km/s) = 4.06785 2.84640 3.51065
# Velocity P-wave (km/s) = 6.54527 7.09824 6.82736
#
# Compressibility (1/GPa) = 0.03052541
#
# Stress axis : x y z
#
# Youngs Moduli (GPa) = 73.64744 26.40263 87.38277
#
# Poissons Ratio (x) = 0.17012 0.56902
# Poissons Ratio (y) = 0.47452 0.28232
# Poissons Ratio (z) = 0.47958 0.08530
#
# Static dielectric constant tensor:
#      x y z
#    x 1.525240 0.000000 0.000000 
#    y 0.000000 1.544890 0.000000 
#    z 0.000000 0.000000 1.523450 
# 
# From -- ./inp_files/17728.got.cif
#   From: 2010.05.17/outbox.cif.g08.bks.cpg/sg35_9_cif.got.tgz:17728.got - 2010.06.03 17:29:28.
