data_PCOD9350957
_publ_section_title
;
Structure prediction by ZEFSAII (Michael W. Deem and Ramdas Pophale) SiO2 
 PCOD9350957
Probable space group: C M C 21
;
_chemical_formula_sum "Si O2"
_cell_formula_units_Z 64
_cell_length_a 8.336026
_cell_length_b 20.861333
_cell_length_c 20.442886
_cell_angle_alpha 90.000000
_cell_angle_beta 90.000000
_cell_angle_gamma 90.000000
_cell_volume 3555.030433
_symmetry_space_group_name_H-M "C M C 21"
_symmetry_group_IT_number 36
_symmetry_cell_setting 'orthorhombic'
loop_
_space_group_symop_operation_xyz
x,y,z
-x,-y,1/2+z
x,-y,1/2+z
-x,y,z
1/2+x,1/2+y,z
1/2-x,1/2-y,1/2+z
1/2+x,1/2-y,1/2+z
1/2-x,1/2+y,z
loop_
_atom_site_type_symbol
_atom_site_label
_atom_site_fract_x
_atom_site_fract_y
_atom_site_fract_z
Si Si1 0.304694 0.195476 0.649920
Si Si2 0.307712 0.203143 0.970920
Si Si3 0.306005 0.333220 0.615807
Si Si4 0.191618 0.339526 0.002108
Si Si5 0.694120 0.476280 0.634442
Si Si6 0.308879 0.520612 0.489943
Si Si7 0.806527 0.415837 0.386765
Si Si8 0.193958 0.579663 0.738545
O O1 0.500000 0.195285 0.650568
O O2 0.252815 0.269546 0.654618
O O3 0.255149 0.170531 0.577900
O O4 0.249777 0.145900 0.704705
O O5 0.500000 0.205159 0.971124
O O6 0.244178 0.275397 0.964618
O O7 0.252608 0.152394 0.916534
O O8 0.249301 0.176769 0.041160
O O9 0.500000 0.333355 0.615306
O O10 0.252692 0.402361 0.641199
O O11 0.260767 0.406159 0.976789
O O12 0.000000 0.343186 0.001959
O O13 0.500000 0.477767 0.634828
O O14 0.749080 0.501509 0.563056
O O15 0.754894 0.521934 0.691585
O O16 0.500000 0.515027 0.490233
O O17 0.242925 0.471695 0.436368
O O18 0.748079 0.426421 0.312916
O O19 0.000000 0.414335 0.385058
O O20 0.000000 0.581183 0.739658
#
# Coordination Sequence:
#
# PCOD9350957 Si02
#       8
#     8   8   8   8   8   8   8   8
#     4   8  15  29  52  76  98 131 174 216 259 316
#     4  10  19  32  51  79 110 140 180 227 272 319
#     4   9  17  32  52  77 106 138 179 223 272 323
#     4  10  19  33  55  81 108 139 179 224 278 331
#     4  10  20  33  52  81 112 140 179 231 277 325
#     4  11  21  34  55  82 112 143 184 233 278 326
#     4  10  22  37  54  77 111 151 189 225 271 333
#     4  10  20  36  55  77 107 146 186 223 271 335
#
# _framework density 18.002658
#
# number of rings (size 3 to 8) (size 9 to 14) (size 15 to 20)
#    0.000    2.250    2.500    1.875    0.000    2.000 
#    0.000    1.250    0.000    3.000    0.000    0.000 
#    0.000    0.000    0.000    0.000    0.000    0.000 
#
# Total GULP energy -178499.134402 kJ/mol
# GULP energy per Si atom -5578.097950 kJ/mol
# Density = 1.796168 g / cm^3
# Si number density = 18.002658 Si / 1000 Ang^3
#
#
#
# Elastic Constant Matrix: (Units=GPa)
#
#
# Indices 1 2 3 4 5 6 
#
# 1 8.6437 16.0088 15.6581 0.0000 0.0000 0.0000
# 2 16.0088 154.3366 84.6093 0.0000 0.0000 0.0000
# 3 15.6581 84.6093 119.7302 0.0000 0.0000 0.0000
# 4 0.0000 0.0000 0.0000 24.7502 0.0000 0.0000
# 5 0.0000 0.0000 0.0000 0.0000 17.7761 0.0000
# 6 0.0000 0.0000 0.0000 0.0000 0.0000 22.6295
#
#
#
# Elastic Compliance Matrix: (Units=1/GPa)
#
#
# Indices 1 2 3 4 5 6 
#
# 1 0.157792 -0.008251 -0.014805 0.000000 0.000000 0.000000
# 2 -0.008251 0.011008 -0.006700 0.000000 0.000000 0.000000
# 3 -0.014805 -0.006700 0.015023 0.000000 0.000000 0.000000
# 4 0.000000 0.000000 0.000000 0.040404 0.000000 0.000000
# 5 0.000000 0.000000 0.000000 0.000000 0.056255 0.000000
# 6 0.000000 0.000000 0.000000 0.000000 0.000000 0.044190
#
#
# Mechanical properties :
#
#
# Convention : Reuss Voigt Hill
#
# Bulk Modulus (GPa) = 8.04435 57.25142 32.64788
# Shear Modulus (GPa) = 11.74753 24.12679 17.93716
#
# Velocity S-wave (km/s) = 2.55727 3.66482 3.15994
# Velocity P-wave (km/s) = 3.63285 7.05539 5.61142
#
# Compressibility (1/GPa) = 0.12431088
#
# Stress axis : x y z
#
# Youngs Moduli (GPa) = 6.33747 90.84078 66.56428
#
# Poissons Ratio (x) = 0.74951 0.98550
# Poissons Ratio (y) = 0.05229 0.44599
# Poissons Ratio (z) = 0.09383 0.60865
#
# Static dielectric constant tensor:
#      x y z
#    x 1.622580 0.000000 0.000000 
#    y 0.000000 1.627260 0.000000 
#    z 0.000000 0.000000 1.596380 
# 
# From -- ./inp_files/13863.got.cif
#   From: 2010.05.17/outbox.cif.g08.bks.cpg/sg36_7_cif.got.tgz:13863.got - 2010.06.03 17:41:39.
