data_PCOD9350396
_publ_section_title
;
Structure prediction by ZEFSAII (Michael W. Deem and Ramdas Pophale) SiO2 
 PCOD9350396
Probable space group: C M M 2
;
_chemical_formula_sum "Si O2"
_cell_formula_units_Z 56
_cell_length_a 7.621919
_cell_length_b 22.865853
_cell_length_c 14.945487
_cell_angle_alpha 90.000000
_cell_angle_beta 90.000000
_cell_angle_gamma 90.000000
_cell_volume 2604.724574
_symmetry_space_group_name_H-M "C M M 2"
_symmetry_group_IT_number 35
_symmetry_cell_setting 'orthorhombic'
loop_
_space_group_symop_operation_xyz
x,y,z
-x,-y,z
-x,y,z
x,-y,z
1/2+x,1/2+y,z
1/2-x,1/2-y,z
1/2-x,1/2+y,z
1/2+x,1/2-y,z
loop_
_atom_site_type_symbol
_atom_site_label
_atom_site_fract_x
_atom_site_fract_y
_atom_site_fract_z
Si Si1 0.714355 0.127296 0.219640
Si Si2 0.213571 0.500000 0.196211
Si Si3 0.713651 0.000000 0.987899
Si Si4 0.788721 0.613920 0.876779
Si Si5 0.205350 0.065110 0.693053
Si Si6 0.297757 0.933893 0.491565
Si Si7 0.210560 0.683880 0.397410
Si Si8 0.790219 0.683743 0.038805
O O1 0.500000 0.128014 0.218324
O O2 0.770554 0.172780 0.295214
O O3 0.775585 0.144241 0.120529
O O4 0.769133 0.060821 0.240340
O O5 0.000000 0.500000 0.196814
O O6 0.268019 0.500000 0.091539
O O7 0.768943 0.943283 0.932533
O O8 0.500000 0.000000 0.990173
O O9 0.731606 0.609124 0.774637
O O10 0.000000 0.613746 0.873868
O O11 0.725862 0.666277 0.940262
O O12 0.296914 0.075532 0.598729
O O13 0.000000 0.063396 0.672352
O O14 0.261165 0.000000 0.725208
O O15 0.500000 0.937253 0.460227
O O16 0.222091 0.874064 0.449635
O O17 0.222781 0.000000 0.475884
O O18 0.250000 0.750000 0.427935
O O19 0.000000 0.680368 0.400016
O O20 0.750000 0.750000 0.060130
O O21 0.000000 0.675470 0.037087
#
# Coordination Sequence:
#
# PCOD9350396 Si02
#       8
#     8   4   4   8   8   8   8   8
#     4   9  17  29  49  78 109 138 173 217 263 310
#     4   9  14  24  46  78 109 134 170 223 265 296
#     4   9  14  24  45  74 101 128 164 209 253 288
#     4  10  18  30  51  76 102 135 175 213 251 301
#     4  10  20  33  52  80 109 135 165 207 267 328
#     4   9  19  36  57  81 107 136 176 225 271 317
#     4  10  21  36  56  82 109 141 180 220 268 321
#     4  10  20  33  49  72 103 142 183 217 255 305
#
# _framework density 21.499393999999999
#
# number of rings (size 3 to 8) (size 9 to 14) (size 15 to 20)
#    0.000    2.429    2.143    0.857    1.000    1.714 
#    0.000    0.714    0.000    0.000    0.000    1.000 
#    0.000    0.000    0.000    0.000    0.000    0.000 
#
# Total GULP energy -156145.487662 kJ/mol
# GULP energy per Si atom -5576.624559 kJ/mol
# Density = 2.145046 g / cm^3
# Si number density = 21.499394 Si / 1000 Ang^3
#
#
#
# Elastic Constant Matrix: (Units=GPa)
#
#
# Indices 1 2 3 4 5 6 
#
# 1 44.7422 3.7199 2.7577 0.0000 0.0000 0.0000
# 2 3.7199 139.6597 48.6406 0.0000 0.0000 0.0000
# 3 2.7577 48.6406 78.3564 0.0000 0.0000 0.0000
# 4 0.0000 0.0000 0.0000 29.4138 0.0000 0.0000
# 5 0.0000 0.0000 0.0000 0.0000 -11.9406 0.0000
# 6 0.0000 0.0000 0.0000 0.0000 0.0000 15.2880
#
#
#
# Elastic Compliance Matrix: (Units=1/GPa)
#
#
# Indices 1 2 3 4 5 6 
#
# 1 0.022417 -0.000411 -0.000534 0.000000 0.000000 0.000000
# 2 -0.000411 0.009143 -0.005661 0.000000 0.000000 0.000000
# 3 -0.000534 -0.005661 0.016295 0.000000 0.000000 0.000000
# 4 0.000000 0.000000 0.000000 0.033998 0.000000 0.000000
# 5 0.000000 0.000000 0.000000 0.000000 -0.083748 0.000000
# 6 0.000000 0.000000 0.000000 0.000000 0.000000 0.065411
#
#
# Mechanical properties :
#
#
# Convention : Reuss Voigt Hill
#
# Bulk Modulus (GPa) = 28.86553 41.44386 35.15469
# Shear Modulus (GPa) = 56.64091 20.39492 38.51791
#
# Velocity S-wave (km/s) = 5.13834 3.08332 4.23730
# Velocity P-wave (km/s) = 6.97558 5.65636 6.35032
#
# Compressibility (1/GPa) = 0.03464340
#
# Stress axis : x y z
#
# Youngs Moduli (GPa) = 44.60833 109.37519 61.36803
#
# Poissons Ratio (x) = 0.04498 0.03275
# Poissons Ratio (y) = 0.01834 0.34741
# Poissons Ratio (z) = 0.02381 0.61918
#
# Static dielectric constant tensor:
#      x y z
#    x 1.838060 0.000000 0.000000 
#    y 0.000000 1.773210 0.000000 
#    z 0.000000 0.000000 1.769770 
# 
# From -- ./inp_files/15767.got.cif
#   From: 2010.05.17/outbox.cif.g08.bks.cpg/sg35_8_cif.got.tgz:15767.got - 2010.06.03 17:29:28.
