data_PCOD9350805
_publ_section_title
;
Structure prediction by ZEFSAII (Michael W. Deem and Ramdas Pophale) SiO2 
 PCOD9350805
Probable space group: C M C 21
;
_chemical_formula_sum "Si O2"
_cell_formula_units_Z 48
_cell_length_a 15.107755
_cell_length_b 9.769031
_cell_length_c 16.592551
_cell_angle_alpha 90.000000
_cell_angle_beta 90.000000
_cell_angle_gamma 90.000000
_cell_volume 2448.863523
_symmetry_space_group_name_H-M "C M C 21"
_symmetry_group_IT_number 36
_symmetry_cell_setting 'orthorhombic'
loop_
_space_group_symop_operation_xyz
x,y,z
-x,-y,1/2+z
x,-y,1/2+z
-x,y,z
1/2+x,1/2+y,z
1/2-x,1/2-y,1/2+z
1/2+x,1/2-y,1/2+z
1/2-x,1/2+y,z
loop_
_atom_site_type_symbol
_atom_site_label
_atom_site_fract_x
_atom_site_fract_y
_atom_site_fract_z
Si Si1 0.305746 0.286568 0.054600
Si Si2 0.800852 0.338625 0.210235
Si Si3 0.691863 0.570404 0.970003
Si Si4 0.000000 0.682788 0.681665
Si Si5 0.000000 0.812484 0.020675
Si Si6 0.692725 0.439826 0.801444
Si Si7 0.000000 0.119095 0.026686
Si Si8 0.000000 0.889142 0.827890
O O1 0.252232 0.269658 0.136773
O O2 0.302443 0.448375 0.035213
O O3 0.255235 0.195237 0.989490
O O4 0.408841 0.245151 0.048613
O O5 0.746807 0.469519 0.239278
O O6 0.900848 0.380239 0.183738
O O7 0.801079 0.220534 0.279359
O O8 0.719974 0.491748 0.889342
O O9 0.590595 0.626141 0.975091
O O10 0.000000 0.779326 0.602314
O O11 0.000000 0.762223 0.766961
O O12 0.000000 0.841819 0.922567
O O13 0.000000 0.963796 0.059260
O O14 0.587926 0.469933 0.804563
#
# Coordination Sequence:
#
# PCOD9350805 Si02
#       8
#     8   8   8   4   4   8   4   4
#     4  11  22  39  62  92 122 162 209 259 315 367
#     4  11  24  39  64  91 128 168 206 260 318 375
#     4  11  21  38  64  88 122 158 209 259 308 376
#     4  10  22  38  58  86 125 165 204 243 322 383
#     4  10  22  38  62  93 120 162 214 264 309 369
#     4  11  22  40  61  96 123 165 208 259 316 370
#     4  10  18  38  61  88 114 159 214 255 294 369
#     4  10  20  38  63  87 119 160 212 254 303 371
#
# _framework density 19.600928
#
# number of rings (size 3 to 8) (size 9 to 14) (size 15 to 20)
#    0.000    1.333    5.000    2.000    9.333    0.000 
#    0.000    5.000    0.000    0.000    0.000    0.000 
#    0.000    0.000    0.000    0.000    0.000    0.000 
#
# Total GULP energy -133671.345928 kJ/mol
# GULP energy per Si atom -5569.639414 kJ/mol
# Density = 1.955632 g / cm^3
# Si number density = 19.600928 Si / 1000 Ang^3
#
#
#
# Elastic Constant Matrix: (Units=GPa)
#
#
# Indices 1 2 3 4 5 6 
#
# 1 159.6824 27.1728 25.3080 0.0000 0.0000 0.0000
# 2 27.1728 41.3889 -6.7662 0.0000 0.0000 0.0000
# 3 25.3080 -6.7662 63.3469 0.0000 0.0000 0.0000
# 4 0.0000 0.0000 0.0000 34.2574 0.0000 0.0000
# 5 0.0000 0.0000 0.0000 0.0000 26.3889 0.0000
# 6 0.0000 0.0000 0.0000 0.0000 0.0000 24.7380
#
#
#
# Elastic Compliance Matrix: (Units=1/GPa)
#
#
# Indices 1 2 3 4 5 6 
#
# 1 0.007836 -0.005757 -0.003745 0.000000 0.000000 0.000000
# 2 -0.005757 0.028820 0.005378 0.000000 0.000000 0.000000
# 3 -0.003745 0.005378 0.017857 0.000000 0.000000 0.000000
# 4 0.000000 0.000000 0.000000 0.029191 0.000000 0.000000
# 5 0.000000 0.000000 0.000000 0.000000 0.037895 0.000000
# 6 0.000000 0.000000 0.000000 0.000000 0.000000 0.040424
#
#
# Mechanical properties :
#
#
# Convention : Reuss Voigt Hill
#
# Bulk Modulus (GPa) = 21.61485 39.53863 30.57674
# Shear Modulus (GPa) = 26.92655 31.65707 29.29181
#
# Velocity S-wave (km/s) = 3.71042 4.02317 3.86995
# Velocity P-wave (km/s) = 5.42288 6.46504 5.96676
#
# Compressibility (1/GPa) = 0.04626449
#
# Stress axis : x y z
#
# Youngs Moduli (GPa) = 127.62253 34.69860 56.00098
#
# Poissons Ratio (x) = 0.19974 0.20974
# Poissons Ratio (y) = 0.73467 -0.30118
# Poissons Ratio (z) = 0.47799 -0.18661
#
# Static dielectric constant tensor:
#      x y z
#    x 1.760480 0.000000 0.000000 
#    y 0.000000 1.671540 0.000000 
#    z 0.000000 0.000000 1.741610 
# 
# From -- ./inp_files/12519.got.cif
#   From: 2010.05.17/outbox.cif.g08.bks.cpg/sg36_7_cif.got.tgz:12519.got - 2010.06.03 17:41:39.
