data_PCOD9350137
_publ_section_title
;
Structure prediction by ZEFSAII (Michael W. Deem and Ramdas Pophale) SiO2 
 PCOD9350137
Probable space group: C M M 2
;
_chemical_formula_sum "Si O2"
_cell_formula_units_Z 64
_cell_length_a 7.587869
_cell_length_b 43.538239
_cell_length_c 9.574679
_cell_angle_alpha 90.000000
_cell_angle_beta 90.000000
_cell_angle_gamma 90.000000
_cell_volume 3163.114451
_symmetry_space_group_name_H-M "C M M 2"
_symmetry_group_IT_number 35
_symmetry_cell_setting 'orthorhombic'
loop_
_space_group_symop_operation_xyz
x,y,z
-x,-y,z
-x,y,z
x,-y,z
1/2+x,1/2+y,z
1/2-x,1/2-y,z
1/2-x,1/2+y,z
1/2+x,1/2-y,z
loop_
_atom_site_type_symbol
_atom_site_label
_atom_site_fract_x
_atom_site_fract_y
_atom_site_fract_z
Si Si1 0.711201 0.715465 0.045780
Si Si2 0.290735 0.600184 0.364289
Si Si3 0.211948 0.533018 0.367836
Si Si4 0.783704 0.842262 0.865357
Si Si5 0.716296 0.657738 0.544641
Si Si6 0.788799 0.215465 0.364218
Si Si7 0.290735 0.399816 0.045708
Si Si8 0.711948 0.033018 0.042162
O O1 0.500000 0.712495 0.052670
O O2 0.750000 0.750000 0.996642
O O3 0.779320 0.712393 0.204999
O O4 0.774841 0.688388 0.946067
O O5 0.500000 0.604731 0.352896
O O6 0.264858 0.566037 0.426152
O O7 0.223444 0.627657 0.460128
O O8 0.218439 0.601107 0.204999
O O9 0.272107 0.500000 0.427608
O O10 0.000000 0.532562 0.368295
O O11 0.270270 0.533479 0.204999
O O12 0.727268 0.842667 0.704999
O O13 0.723444 0.872343 0.949870
O O14 0.000000 0.842354 0.865140
O O15 0.500000 0.657646 0.544858
O O16 0.774841 0.688388 0.463931
O O17 0.750000 0.250000 0.413357
O O18 0.000000 0.212495 0.357329
O O19 0.500000 0.395270 0.057102
O O20 0.264858 0.433963 0.983846
O O21 0.500000 0.032562 0.041703
O O22 0.772107 0.000000 0.982390
#
# Coordination Sequence:
#
# PCOD9350137 Si02
#       8
#     8   8   8   8   8   8   8   8
#     4   9  17  30  48  68  89 113 142 176 213 253
#     4   9  16  26  43  66  87 108 140 181 217 249
#     4   8  14  25  41  62  88 115 141 172 214 260
#     4   9  17  29  45  64  87 116 146 175 211 255
#     4   9  17  29  45  64  87 116 146 175 211 255
#     4   9  17  30  48  68  89 113 142 176 213 253
#     4   9  16  26  43  66  87 108 140 181 217 249
#     4   8  14  25  41  62  88 115 141 172 214 260
#
# _framework density 20.233225000000001
#
# number of rings (size 3 to 8) (size 9 to 14) (size 15 to 20)
#    0.000    3.250    0.000    1.500    0.000    4.000 
#    0.000    3.750    0.000    9.000    0.000    5.250 
#    0.000    0.000    0.000    0.000    0.000    0.000 
#
# Total GULP energy -178299.724647 kJ/mol
# GULP energy per Si atom -5571.866395 kJ/mol
# Density = 2.018717 g / cm^3
# Si number density = 20.233225 Si / 1000 Ang^3
#
#
#
# Elastic Constant Matrix: (Units=GPa)
#
#
# Indices 1 2 3 4 5 6 
#
# 1 40.5984 1.9264 5.8314 0.0000 0.0000 0.0000
# 2 1.9264 251.6745 110.6973 0.0000 0.0000 0.0000
# 3 5.8314 110.6973 87.0494 0.0000 0.0000 0.0000
# 4 0.0000 0.0000 0.0000 -8.3548 0.0000 0.0000
# 5 0.0000 0.0000 0.0000 0.0000 2.1753 0.0000
# 6 0.0000 0.0000 0.0000 0.0000 0.0000 21.2166
#
#
#
# Elastic Compliance Matrix: (Units=1/GPa)
#
#
# Indices 1 2 3 4 5 6 
#
# 1 0.025040 0.001239 -0.003253 0.000000 0.000000 0.000000
# 2 0.001239 0.009078 -0.011627 0.000000 0.000000 0.000000
# 3 -0.003253 -0.011627 0.026492 0.000000 0.000000 0.000000
# 4 0.000000 0.000000 0.000000 -0.119692 0.000000 0.000000
# 5 0.000000 0.000000 0.000000 0.000000 0.459699 0.000000
# 6 0.000000 0.000000 0.000000 0.000000 0.000000 0.047133
#
#
# Mechanical properties :
#
#
# Convention : Reuss Voigt Hill
#
# Bulk Modulus (GPa) = 30.00568 68.47027 49.23798
# Shear Modulus (GPa) = 10.28507 20.39858 15.34182
#
# Velocity S-wave (km/s) = 2.25705 3.17862 2.75662
# Velocity P-wave (km/s) = 4.65344 6.88371 5.87537
#
# Compressibility (1/GPa) = 0.03332702
#
# Stress axis : x y z
#
# Youngs Moduli (GPa) = 39.93607 110.15556 37.74779
#
# Poissons Ratio (x) = -0.13652 0.12281
# Poissons Ratio (y) = -0.04949 0.43890
# Poissons Ratio (z) = 0.12993 1.28081
#
# Static dielectric constant tensor:
#      x y z
#    x 1.760100 0.000000 0.000000 
#    y 0.000000 1.741060 0.000000 
#    z 0.000000 0.000000 1.681820 
# 
# From -- ./inp_files/6566.got.cif
#   From: 2010.05.17/outbox.cif.g08.bks.cpg/sg35_4_cif.got.tgz:6566.got - 2010.06.03 17:29:28.
