data_PCOD9350997
_publ_section_title
;
Structure prediction by ZEFSAII (Michael W. Deem and Ramdas Pophale) SiO2 
 PCOD9350997
Probable space group: C M C 21
;
_chemical_formula_sum "Si O2"
_cell_formula_units_Z 64
_cell_length_a 7.466119
_cell_length_b 16.431799
_cell_length_c 19.533101
_cell_angle_alpha 90.000000
_cell_angle_beta 90.000000
_cell_angle_gamma 90.000000
_cell_volume 2396.355340
_symmetry_space_group_name_H-M "C M C 21"
_symmetry_group_IT_number 36
_symmetry_cell_setting 'orthorhombic'
loop_
_space_group_symop_operation_xyz
x,y,z
-x,-y,1/2+z
x,-y,1/2+z
-x,y,z
1/2+x,1/2+y,z
1/2-x,1/2-y,1/2+z
1/2+x,1/2-y,1/2+z
1/2-x,1/2+y,z
loop_
_atom_site_type_symbol
_atom_site_label
_atom_site_fract_x
_atom_site_fract_y
_atom_site_fract_z
Si Si1 0.783038 0.589932 0.488760
Si Si2 0.715506 0.747949 0.906036
Si Si3 0.793825 0.145628 0.284673
Si Si4 0.218866 0.245012 0.159542
Si Si5 0.291678 0.899134 0.241431
Si Si6 0.295207 0.988149 0.367693
Si Si7 0.794000 0.000437 0.116848
Si Si8 0.781393 0.152031 0.029879
O O1 0.733234 0.673741 0.452428
O O2 0.713192 0.517068 0.439359
O O3 0.719024 0.575898 0.565189
O O4 0.000000 0.588069 0.489822
O O5 0.500000 0.745387 0.900805
O O6 0.784602 0.772434 0.831427
O O7 0.776154 0.671980 0.952458
O O8 0.730786 0.170383 0.209569
O O9 0.698561 0.073201 0.324494
O O10 0.000000 0.120613 0.280344
O O11 0.287257 0.325016 0.198006
O O12 0.269176 0.224626 0.082273
O O13 0.000000 0.249679 0.159211
O O14 0.500000 0.881169 0.254151
O O15 0.286125 0.975093 0.189020
O O16 0.211065 0.924117 0.314710
O O17 0.500000 0.965059 0.380778
O O18 0.000000 0.021035 0.130240
O O19 0.715825 0.072413 0.069919
O O20 0.000000 0.148925 0.027597
#
# Coordination Sequence:
#
# PCOD9350997 Si02
#       8
#     8   8   8   8   8   8   8   8
#     4   9  18  34  55  76 101 137 175 210 251 304
#     4   9  18  35  57  76  99 136 176 210 249 303
#     4  10  19  32  54  81 107 134 165 209 260 305
#     4   9  18  33  53  75  99 132 173 210 248 299
#     4  10  20  36  57  77 100 136 179 217 254 303
#     4   9  19  35  55  78 104 136 173 210 252 307
#     4  11  22  34  51  78 108 136 170 215 266 314
#     4   9  18  33  52  73 100 135 171 207 252 305
#
# _framework density 26.707224
#
# number of rings (size 3 to 8) (size 9 to 14) (size 15 to 20)
#    0.000    2.500    0.000    3.000    0.000    6.500 
#    0.000    3.750    0.000    4.500    0.000    0.000 
#    0.000    0.000    0.000    0.000    0.000    0.000 
#
# Total GULP energy -179011.806172 kJ/mol
# GULP energy per Si atom -5594.118943 kJ/mol
# Density = 2.664644 g / cm^3
# Si number density = 26.707224 Si / 1000 Ang^3
#
#
#
# Elastic Constant Matrix: (Units=GPa)
#
#
# Indices 1 2 3 4 5 6 
#
# 1 88.2987 4.9556 2.2149 0.0000 0.0000 0.0000
# 2 4.9556 78.6132 7.1075 0.0000 0.0000 0.0000
# 3 2.2149 7.1075 158.0720 0.0000 0.0000 0.0000
# 4 0.0000 0.0000 0.0000 51.7020 0.0000 0.0000
# 5 0.0000 0.0000 0.0000 0.0000 15.3672 0.0000
# 6 0.0000 0.0000 0.0000 0.0000 0.0000 11.7906
#
#
#
# Elastic Compliance Matrix: (Units=1/GPa)
#
#
# Indices 1 2 3 4 5 6 
#
# 1 0.011368 -0.000705 -0.000128 0.000000 0.000000 0.000000
# 2 -0.000705 0.012816 -0.000566 0.000000 0.000000 0.000000
# 3 -0.000128 -0.000566 0.006353 0.000000 0.000000 0.000000
# 4 0.000000 0.000000 0.000000 0.019342 0.000000 0.000000
# 5 0.000000 0.000000 0.000000 0.000000 0.065074 0.000000
# 6 0.000000 0.000000 0.000000 0.000000 0.000000 0.084813
#
#
# Mechanical properties :
#
#
# Convention : Reuss Voigt Hill
#
# Bulk Modulus (GPa) = 36.04964 39.28221 37.66593
# Shear Modulus (GPa) = 23.60595 36.48569 30.04582
#
# Velocity S-wave (km/s) = 2.97624 3.70014 3.35775
# Velocity P-wave (km/s) = 5.03369 5.74413 5.40061
#
# Compressibility (1/GPa) = 0.02773953
#
# Stress axis : x y z
#
# Youngs Moduli (GPa) = 87.96648 78.02650 157.39395
#
# Poissons Ratio (x) = 0.05501 0.02008
# Poissons Ratio (y) = 0.06202 0.08915
# Poissons Ratio (z) = 0.01122 0.04419
#
# Static dielectric constant tensor:
#      x y z
#    x 1.987110 0.000000 0.000000 
#    y 0.000000 2.206870 0.000000 
#    z 0.000000 0.000000 2.019940 
# 
# From -- ./inp_files/15664.got.cif
#   From: 2010.05.17/outbox.cif.g08.bks.cpg/sg36_8_cif.got.tgz:15664.got - 2010.06.03 17:41:39.
