data_PCOD9350012
_publ_section_title
;
Structure prediction by ZEFSAII (Michael W. Deem and Ramdas Pophale) SiO2 
 PCOD9350012
Probable space group: C M M 2
;
_chemical_formula_sum "Si O2"
_cell_formula_units_Z 56
_cell_length_a 20.618446
_cell_length_b 13.896253
_cell_length_c 9.443215
_cell_angle_alpha 90.000000
_cell_angle_beta 90.000000
_cell_angle_gamma 90.000000
_cell_volume 2705.661860
_symmetry_space_group_name_H-M "C M M 2"
_symmetry_group_IT_number 35
_symmetry_cell_setting 'orthorhombic'
loop_
_space_group_symop_operation_xyz
x,y,z
-x,-y,z
-x,y,z
x,-y,z
1/2+x,1/2+y,z
1/2-x,1/2-y,z
1/2-x,1/2+y,z
1/2+x,1/2-y,z
loop_
_atom_site_type_symbol
_atom_site_label
_atom_site_fract_x
_atom_site_fract_y
_atom_site_fract_z
Si Si1 0.296545 0.383769 0.095070
Si Si2 0.423806 0.613228 0.506971
Si Si3 0.177278 0.268310 0.628498
Si Si4 0.596366 0.895957 0.166852
Si Si5 0.778250 0.607643 0.361857
Si Si6 0.323504 0.109865 0.890712
Si Si7 0.929637 0.178631 0.182825
O O1 0.297881 0.500000 0.097624
O O2 0.276161 0.352516 0.255004
O O3 0.369138 0.344278 0.080284
O O4 0.241456 0.358107 0.979386
O O5 0.500000 0.635033 0.544114
O O6 0.412139 0.500000 0.535629
O O7 0.370330 0.681297 0.583777
O O8 0.419112 0.631186 0.337329
O O9 0.250000 0.250000 0.684755
O O10 0.195756 0.329613 0.489658
O O11 0.151070 0.330949 0.757364
O O12 0.661865 0.900800 0.256601
O O13 0.567022 0.793559 0.204498
O O14 0.564880 0.000000 0.191493
O O15 0.619385 0.891314 0.005394
O O16 0.758778 0.500000 0.410842
O O17 0.309431 0.000000 0.845172
O O18 0.000000 0.145310 0.128827
#
# Coordination Sequence:
#
# PCOD9350012 Si02
#       7
#     8   8   8   8   8   8   8
#     4   9  19  36  60  88 125 164 200 254 319 376
#     4  10  23  44  65  92 134 176 215 266 329 389
#     4  12  23  34  62  98 122 165 211 267 315 375
#     4   9  19  37  59  85 118 155 196 252 315 369
#     4   9  18  34  58  89 121 152 194 252 315 374
#     4   9  21  39  60  88 125 160 195 252 321 375
#     4  11  21  34  62  92 118 162 219 263 306 380
#
# _framework density 20.697337999999998
#
# number of rings (size 3 to 8) (size 9 to 14) (size 15 to 20)
#    0.000    2.143    1.429    3.429    2.000    4.571 
#    0.000    0.714    0.000    2.571    0.000    0.000 
#    0.000    0.000    0.000    0.000    0.000    0.000 
#
# Total GULP energy -156014.581442 kJ/mol
# GULP energy per Si atom -5571.949337 kJ/mol
# Density = 2.065023 g / cm^3
# Si number density = 20.697338 Si / 1000 Ang^3
#
#
#
# Elastic Constant Matrix: (Units=GPa)
#
#
# Indices 1 2 3 4 5 6 
#
# 1 103.0909 23.6893 1.9872 0.0000 0.0000 0.0000
# 2 23.6893 117.4094 32.5287 0.0000 0.0000 0.0000
# 3 1.9872 32.5287 72.2489 0.0000 0.0000 0.0000
# 4 0.0000 0.0000 0.0000 46.4623 0.0000 0.0000
# 5 0.0000 0.0000 0.0000 0.0000 -10.6495 0.0000
# 6 0.0000 0.0000 0.0000 0.0000 0.0000 23.4254
#
#
#
# Elastic Compliance Matrix: (Units=1/GPa)
#
#
# Indices 1 2 3 4 5 6 
#
# 1 0.010206 -0.002264 0.000739 0.000000 0.000000 0.000000
# 2 -0.002264 0.010233 -0.004545 0.000000 0.000000 0.000000
# 3 0.000739 -0.004545 0.015867 0.000000 0.000000 0.000000
# 4 0.000000 0.000000 0.000000 0.021523 0.000000 0.000000
# 5 0.000000 0.000000 0.000000 0.000000 -0.093901 0.000000
# 6 0.000000 0.000000 0.000000 0.000000 0.000000 0.042689
#
#
# Mechanical properties :
#
#
# Convention : Reuss Voigt Hill
#
# Bulk Modulus (GPa) = 41.38102 45.46216 43.42159
# Shear Modulus (GPa) = 186.47982 27.48391 106.98186
#
# Velocity S-wave (km/s) = 9.50232 3.64798 7.19729
# Velocity P-wave (km/s) = 11.85027 6.30529 9.49172
#
# Compressibility (1/GPa) = 0.02416567
#
# Stress axis : x y z
#
# Youngs Moduli (GPa) = 97.98006 97.72119 63.02374
#
# Poissons Ratio (x) = 0.22123 -0.04655
# Poissons Ratio (y) = 0.22181 0.28644
# Poissons Ratio (z) = -0.07236 0.44415
#
# Static dielectric constant tensor:
#      x y z
#    x 2.046690 0.000000 0.000000 
#    y 0.000000 1.626570 0.000000 
#    z 0.000000 0.000000 1.728190 
# 
# From -- ./inp_files/9295.got.cif
#   From: 2010.05.17/outbox.cif.g08.bks.cpg/sg35_5_cif.got.tgz:9295.got - 2010.06.03 17:29:28.
