data_PCOD9350558
_publ_section_title
;
Structure prediction by ZEFSAII (Michael W. Deem and Ramdas Pophale) SiO2 
 PCOD9350558
Probable space group: C M C 21
;
_chemical_formula_sum "Si O2"
_cell_formula_units_Z 64
_cell_length_a 20.566296
_cell_length_b 28.328135
_cell_length_c 5.374039
_cell_angle_alpha 90.000000
_cell_angle_beta 90.000000
_cell_angle_gamma 90.000000
_cell_volume 3130.940968
_symmetry_space_group_name_H-M "C M C 21"
_symmetry_group_IT_number 36
_symmetry_cell_setting 'orthorhombic'
loop_
_space_group_symop_operation_xyz
x,y,z
-x,-y,1/2+z
x,-y,1/2+z
-x,y,z
1/2+x,1/2+y,z
1/2-x,1/2-y,1/2+z
1/2+x,1/2-y,1/2+z
1/2-x,1/2+y,z
loop_
_atom_site_type_symbol
_atom_site_label
_atom_site_fract_x
_atom_site_fract_y
_atom_site_fract_z
Si Si1 0.573301 0.840965 0.740430
Si Si2 0.922785 0.196383 0.240429
Si Si3 0.191014 0.525424 0.740428
Si Si4 0.873209 0.626497 0.740430
Si Si5 0.744418 0.671716 0.740429
Si Si6 0.135171 0.242766 0.740429
Si Si7 0.686973 0.375156 0.740429
Si Si8 0.835321 0.986007 0.740428
O O1 0.500000 0.821507 0.740429
O O2 0.585321 0.870211 0.490397
O O3 0.624397 0.798251 0.740430
O O4 0.585320 0.870211 0.990463
O O5 0.898868 0.222751 0.490627
O O6 0.885446 0.146405 0.240430
O O7 0.000000 0.192640 0.240429
O O8 0.898868 0.222751 0.990231
O O9 0.167071 0.500000 0.490427
O O10 0.169481 0.579221 0.740429
O O11 0.269202 0.517936 0.740428
O O12 0.821840 0.669780 0.740430
O O13 0.708456 0.722248 0.740429
O O14 0.721027 0.644793 0.489781
O O15 0.721027 0.644793 0.991078
O O16 0.685684 0.431555 0.740429
O O17 0.871481 1.000000 0.490428
#
# Coordination Sequence:
#
# PCOD9350558 Si02
#       8
#     8   8   8   8   8   8   8   8
#     4  12  26  43  61  83 118 160 198 231 276 344
#     4  10  19  34  58  85 117 158 204 238 267 321
#     4  10  19  34  58  86 111 140 182 230 288 354
#     4  12  24  39  64  90 118 151 187 241 293 342
#     4  10  20  36  58  90 121 145 184 236 299 338
#     4  10  22  38  61  87 116 155 196 240 279 332
#     4  10  19  33  54  86 122 150 184 240 291 340
#     4  10  18  29  50  77 110 143 179 226 283 345
#
# _framework density 20.441140999999998
#
# number of rings (size 3 to 8) (size 9 to 14) (size 15 to 20)
#    0.000    1.500    0.000    7.500    0.000    1.000 
#    0.000    0.000    0.000    8.250    0.000    0.000 
#    0.000    0.000    0.000    0.000    0.000    0.000 
#
# Total GULP energy -178846.433718 kJ/mol
# GULP energy per Si atom -5588.951054 kJ/mol
# Density = 2.039462 g / cm^3
# Si number density = 20.441141 Si / 1000 Ang^3
#
#
#
# Elastic Constant Matrix: (Units=GPa)
#
#
# Indices 1 2 3 4 5 6 
#
# 1 41.1073 4.1408 24.6979 0.0000 0.0000 0.0000
# 2 4.1408 71.1652 28.7462 0.0000 0.0000 0.0000
# 3 24.6979 28.7462 200.4151 0.0000 0.0000 0.0000
# 4 0.0000 0.0000 0.0000 26.6484 0.0000 0.0000
# 5 0.0000 0.0000 0.0000 0.0000 12.6424 0.0000
# 6 0.0000 0.0000 0.0000 0.0000 0.0000 17.5957
#
#
#
# Elastic Compliance Matrix: (Units=1/GPa)
#
#
# Indices 1 2 3 4 5 6 
#
# 1 0.026275 -0.000235 -0.003204 0.000000 0.000000 0.000000
# 2 -0.000235 0.014918 -0.002111 0.000000 0.000000 0.000000
# 3 -0.003204 -0.002111 0.005687 0.000000 0.000000 0.000000
# 4 0.000000 0.000000 0.000000 0.037526 0.000000 0.000000
# 5 0.000000 0.000000 0.000000 0.000000 0.079099 0.000000
# 6 0.000000 0.000000 0.000000 0.000000 0.000000 0.056832
#
#
# Mechanical properties :
#
#
# Convention : Reuss Voigt Hill
#
# Bulk Modulus (GPa) = 27.94750 47.53970 37.74360
# Shear Modulus (GPa) = 20.54536 28.38416 24.46476
#
# Velocity S-wave (km/s) = 3.17377 3.73041 3.46329
# Velocity P-wave (km/s) = 5.20886 6.47008 5.87342
#
# Compressibility (1/GPa) = 0.03578138
#
# Stress axis : x y z
#
# Youngs Moduli (GPa) = 38.05831 67.03269 175.83037
#
# Poissons Ratio (x) = 0.01572 0.56343
# Poissons Ratio (y) = 0.00892 0.37115
# Poissons Ratio (z) = 0.12195 0.14150
#
# Static dielectric constant tensor:
#      x y z
#    x 1.690040 0.000000 0.000000 
#    y 0.000000 1.718470 0.000000 
#    z 0.000000 0.000000 1.808700 
# 
# From -- ./inp_files/1497.got.cif
#   From: 2010.05.17/outbox.cif.g08.bks.cpg/sg36_1_cif.got.tgz:1497.got - 2010.06.03 17:41:39.
