data_PCOD9350079
_publ_section_title
;
Structure prediction by ZEFSAII (Michael W. Deem and Ramdas Pophale) SiO2 
 PCOD9350079
Probable space group: C M M 2
;
_chemical_formula_sum "Si O2"
_cell_formula_units_Z 56
_cell_length_a 8.864972
_cell_length_b 15.547987
_cell_length_c 19.412668
_cell_angle_alpha 90.000000
_cell_angle_beta 90.000000
_cell_angle_gamma 90.000000
_cell_volume 2675.695968
_symmetry_space_group_name_H-M "C M M 2"
_symmetry_group_IT_number 35
_symmetry_cell_setting 'orthorhombic'
loop_
_space_group_symop_operation_xyz
x,y,z
-x,-y,z
-x,y,z
x,-y,z
1/2+x,1/2+y,z
1/2-x,1/2-y,z
1/2-x,1/2+y,z
1/2+x,1/2-y,z
loop_
_atom_site_type_symbol
_atom_site_label
_atom_site_fract_x
_atom_site_fract_y
_atom_site_fract_z
Si Si1 0.178667 0.655059 0.258410
Si Si2 0.328955 0.397447 0.119467
Si Si3 0.318816 0.101211 0.682343
Si Si4 0.184146 0.100455 0.971262
Si Si5 0.678668 0.344933 0.394731
Si Si6 0.322304 0.604961 0.822510
Si Si7 0.328926 0.897491 0.533681
O O1 0.250000 0.750000 0.256395
O O2 0.226249 0.616531 0.185448
O O3 0.249982 0.611736 0.326583
O O4 0.000000 0.658188 0.266131
O O5 0.500000 0.364322 0.132753
O O6 0.341464 0.500000 0.110136
O O7 0.270652 0.362446 0.045699
O O8 0.500000 0.105080 0.682669
O O9 0.256878 0.138302 0.753587
O O10 0.270549 0.136877 0.607541
O O11 0.274283 0.000000 0.683661
O O12 0.000000 0.101701 0.971349
O O13 0.230630 0.000000 0.970529
O O14 0.233866 0.137256 0.897374
O O15 0.500000 0.341825 0.387034
O O16 0.750000 0.250000 0.396770
O O17 0.726228 0.383426 0.467720
O O18 0.500000 0.622508 0.817109
O O19 0.305867 0.500000 0.824623
O O20 0.500000 0.864189 0.520578
O O21 0.341788 0.000000 0.542863
#
# Coordination Sequence:
#
# PCOD9350079 Si02
#       7
#     8   8   8   8   8   8   8
#     4  11  22  37  55  73  96 125 160 199 240 288
#     4   9  17  31  51  74 101 131 163 199 240 286
#     4   8  14  24  38  59  90 126 158 190 232 277
#     4   7  11  21  38  61  90 124 158 192 231 274
#     4  11  22  37  56  75  96 123 159 199 240 289
#     4   8  12  19  34  57  86 121 159 194 228 270
#     4   9  18  33  51  72 101 133 163 198 241 285
#
# _framework density 20.929133
#
# number of rings (size 3 to 8) (size 9 to 14) (size 15 to 20)
#    0.000    3.000    0.000    6.000    0.000    1.714 
#    0.000    2.143    0.000    2.571    0.000    1.000 
#    0.000    6.857    0.000    0.000    0.000    0.000 
#
# Total GULP energy -155946.023334 kJ/mol
# GULP energy per Si atom -5569.500833 kJ/mol
# Density = 2.088150 g / cm^3
# Si number density = 20.929133 Si / 1000 Ang^3
#
#
#
# Elastic Constant Matrix: (Units=GPa)
#
#
# Indices 1 2 3 4 5 6 
#
# 1 92.7184 2.4042 81.1863 0.0000 0.0000 0.0000
# 2 2.4042 20.1938 13.4431 0.0000 0.0000 0.0000
# 3 81.1863 13.4431 249.7757 0.0000 0.0000 0.0000
# 4 0.0000 0.0000 0.0000 3.9778 0.0000 0.0000
# 5 0.0000 0.0000 0.0000 0.0000 -33.1306 0.0000
# 6 0.0000 0.0000 0.0000 0.0000 0.0000 9.7085
#
#
#
# Elastic Compliance Matrix: (Units=1/GPa)
#
#
# Indices 1 2 3 4 5 6 
#
# 1 0.015121 0.001526 -0.004997 0.000000 0.000000 0.000000
# 2 0.001526 0.051514 -0.003269 0.000000 0.000000 0.000000
# 3 -0.004997 -0.003269 0.005804 0.000000 0.000000 0.000000
# 4 0.000000 0.000000 0.000000 0.251397 0.000000 0.000000
# 5 0.000000 0.000000 0.000000 0.000000 -0.030184 0.000000
# 6 0.000000 0.000000 0.000000 0.000000 0.000000 0.103003
#
#
# Mechanical properties :
#
#
# Convention : Reuss Voigt Hill
#
# Bulk Modulus (GPa) = 16.96050 61.86167 39.41109
# Shear Modulus (GPa) = 11.63365 13.82143 12.72754
#
# Velocity S-wave (km/s) = 2.36022 2.57260 2.46870
# Velocity P-wave (km/s) = 3.94321 6.20050 5.19592
#
# Compressibility (1/GPa) = 0.05896051
#
# Stress axis : x y z
#
# Youngs Moduli (GPa) = 66.13149 19.41209 172.30176
#
# Poissons Ratio (x) = -0.02963 0.86102
# Poissons Ratio (y) = -0.10094 0.56319
# Poissons Ratio (z) = 0.33047 0.06345
#
# Static dielectric constant tensor:
#      x y z
#    x 1.713480 0.000000 0.000000 
#    y 0.000000 1.814980 0.000000 
#    z 0.000000 0.000000 1.866800 
# 
# From -- ./inp_files/18240.got.cif
#   From: 2010.05.17/outbox.cif.g08.bks.cpg/sg35_10_cif.got.tgz:18240.got - 2010.06.03 17:29:28.
