data_PCOD9351636
_publ_section_title
;
Structure prediction by ZEFSAII (Michael W. Deem and Ramdas Pophale) SiO2 
 PCOD9351636
Probable space group: C M C 21
;
_chemical_formula_sum "Si O2"
_cell_formula_units_Z 64
_cell_length_a 18.167173
_cell_length_b 29.846816
_cell_length_c 5.150117
_cell_angle_alpha 90.000000
_cell_angle_beta 90.000000
_cell_angle_gamma 90.000000
_cell_volume 2792.559630
_symmetry_space_group_name_H-M "C M C 21"
_symmetry_group_IT_number 36
_symmetry_cell_setting 'orthorhombic'
loop_
_space_group_symop_operation_xyz
x,y,z
-x,-y,1/2+z
x,-y,1/2+z
-x,y,z
1/2+x,1/2+y,z
1/2-x,1/2-y,1/2+z
1/2+x,1/2-y,1/2+z
1/2-x,1/2+y,z
loop_
_atom_site_type_symbol
_atom_site_label
_atom_site_fract_x
_atom_site_fract_y
_atom_site_fract_z
Si Si1 0.920632 0.761553 0.528410
Si Si2 0.417388 0.348830 0.903872
Si Si3 0.864554 0.388487 0.719127
Si Si4 0.701400 0.391654 0.631873
Si Si5 0.364923 0.828506 0.208713
Si Si6 0.105947 0.476794 0.423797
Si Si7 0.281884 0.474755 0.318052
Si Si8 0.300055 0.689706 0.793413
O O1 0.921095 0.805322 0.713213
O O2 0.913450 0.715816 0.686406
O O3 0.845867 0.765701 0.358601
O O4 0.000000 0.761870 0.385730
O O5 0.500000 0.358187 0.991571
O O6 0.376827 0.390608 0.769338
O O7 0.360943 0.336071 0.127768
O O8 0.778738 0.403744 0.769258
O O9 0.868647 0.352115 0.487771
O O10 0.904599 0.431168 0.588455
O O11 0.886771 0.364542 0.986476
O O12 0.698310 0.424179 0.386421
O O13 0.712062 0.340107 0.549461
O O14 0.280062 0.811783 0.167098
O O15 0.079740 0.485505 0.129780
O O16 0.193590 0.477554 0.359461
O O17 0.308800 0.492297 0.044776
#
# Coordination Sequence:
#
# PCOD9351636 Si02
#       8
#     8   8   8   8   8   8   8   8
#     4  10  24  40  56  82 116 153 198 243 293 351
#     4  10  20  36  55  76 102 141 192 238 281 332
#     4  10  20  35  53  86 117 149 187 231 286 346
#     4   9  19  33  51  76 109 137 184 233 282 329
#     4  11  23  36  59  83 119 152 189 239 292 347
#     4   9  16  28  49  77 114 148 178 223 278 335
#     4   9  18  28  48  75 103 138 176 218 278 339
#     4  10  21  34  58  81 107 148 191 245 285 341
#
# _framework density 22.918043000000001
#
# number of rings (size 3 to 8) (size 9 to 14) (size 15 to 20)
#    0.000    2.250    1.250    1.125    5.250    3.500 
#    0.000    0.000    0.000    0.750    0.000    0.000 
#    0.000   10.000    0.000    0.000    0.000    0.000 
#
# Total GULP energy -178342.741671 kJ/mol
# GULP energy per Si atom -5573.210677 kJ/mol
# Density = 2.286588 g / cm^3
# Si number density = 22.918043 Si / 1000 Ang^3
#
#
#
# Elastic Constant Matrix: (Units=GPa)
#
#
# Indices 1 2 3 4 5 6 
#
# 1 67.1930 19.8118 2.7361 0.0000 0.0000 0.0000
# 2 19.8118 63.0192 -4.3430 0.0000 0.0000 0.0000
# 3 2.7361 -4.3430 50.3317 0.0000 0.0000 0.0000
# 4 0.0000 0.0000 0.0000 32.8677 0.0000 0.0000
# 5 0.0000 0.0000 0.0000 0.0000 102.1425 0.0000
# 6 0.0000 0.0000 0.0000 0.0000 0.0000 54.5696
#
#
#
# Elastic Compliance Matrix: (Units=1/GPa)
#
#
# Indices 1 2 3 4 5 6 
#
# 1 0.016494 -0.005278 -0.001352 0.000000 0.000000 0.000000
# 2 -0.005278 0.017652 0.001810 0.000000 0.000000 0.000000
# 3 -0.001352 0.001810 0.020098 0.000000 0.000000 0.000000
# 4 0.000000 0.000000 0.000000 0.030425 0.000000 0.000000
# 5 0.000000 0.000000 0.000000 0.000000 0.009790 0.000000
# 6 0.000000 0.000000 0.000000 0.000000 0.000000 0.018325
#
#
# Mechanical properties :
#
#
# Convention : Reuss Voigt Hill
#
# Bulk Modulus (GPa) = 22.41991 24.10598 23.26294
# Shear Modulus (GPa) = 36.41838 48.73855 42.57847
#
# Velocity S-wave (km/s) = 3.99064 4.61656 4.31496
# Velocity P-wave (km/s) = 5.57113 6.24163 5.91589
#
# Compressibility (1/GPa) = 0.04460322
#
# Stress axis : x y z
#
# Youngs Moduli (GPa) = 60.62843 56.64964 49.75648
#
# Poissons Ratio (x) = 0.29902 0.06728
# Poissons Ratio (y) = 0.32003 -0.09007
# Poissons Ratio (z) = 0.08198 -0.10254
#
# Static dielectric constant tensor:
#      x y z
#    x 1.836390 0.000000 0.000000 
#    y 0.000000 1.891910 0.000000 
#    z 0.000000 0.000000 1.943950 
# 
# From -- ./inp_files/1229.got.cif
#   From: 2010.05.17/outbox.cif.g08.bks.cpg/sg36_1_cif.got.tgz:1229.got - 2010.06.03 17:41:39.
